MODEL 1
REMARK minimizedAffinity 1.62891269
REMARK minimizedRMSD -1
REMARK  0 active torsions:
REMARK  status: ('A' for Active; 'I' for Inactive)
ROOT
ATOM      1  C   UNL d   1      -2.951   1.513   4.392  0.00  0.00     0.020 A 
ATOM      2  C1  UNL d   1      -2.146   1.995   5.424  0.00  0.00     0.020 A 
ATOM      3  C2  UNL d   1      -1.088   1.220   5.904  0.00  0.00     0.034 A 
ATOM      4  C3  UNL d   1      -0.832  -0.041   5.353  0.00  0.00     0.017 A 
ATOM      5  C4  UNL d   1      -1.641  -0.524   4.318  0.00  0.00     0.017 A 
ATOM      6  C5  UNL d   1      -2.699   0.256   3.841  0.00  0.00     0.034 A 
ATOM      7 Cl   UNL d   1      -1.388  -2.070   3.588  0.00  0.00    -0.070 Cl
ATOM      8 Cl1  UNL d   1       0.492  -0.945   5.996  0.00  0.00    -0.070 Cl
ENDROOT
TORSDOF 0
ENDMDL
