MODEL 1
REMARK minimizedAffinity 9.00359631
REMARK minimizedRMSD -1
REMARK  0 active torsions:
REMARK  status: ('A' for Active; 'I' for Inactive)
ROOT
ATOM      1  C   UNL d   1      -1.509  -5.801  -2.248  0.00  0.00     0.020 A 
ATOM      2  C1  UNL d   1      -1.669  -4.806  -1.285  0.00  0.00     0.020 A 
ATOM      3  C2  UNL d   1      -2.190  -3.562  -1.645  0.00  0.00     0.034 A 
ATOM      4  C3  UNL d   1      -2.554  -3.309  -2.973  0.00  0.00     0.017 A 
ATOM      5  C4  UNL d   1      -2.393  -4.309  -3.940  0.00  0.00     0.017 A 
ATOM      6  C5  UNL d   1      -1.870  -5.552  -3.573  0.00  0.00     0.034 A 
ATOM      7 Cl   UNL d   1      -2.819  -4.071  -5.598  0.00  0.00    -0.070 Cl
ATOM      8 Cl1  UNL d   1      -3.193  -1.748  -3.348  0.00  0.00    -0.070 Cl
ENDROOT
TORSDOF 0
ENDMDL
