MODEL 1
REMARK minimizedAffinity 1.06475437
REMARK minimizedRMSD -1
REMARK  0 active torsions:
REMARK  status: ('A' for Active; 'I' for Inactive)
ROOT
ATOM      1  C   UNL d   1      -1.849   0.465   5.321  0.00  0.00     0.020 A 
ATOM      2  C1  UNL d   1      -0.487   0.229   5.143  0.00  0.00     0.020 A 
ATOM      3  C2  UNL d   1       0.170   0.741   4.021  0.00  0.00     0.034 A 
ATOM      4  C3  UNL d   1      -0.536   1.491   3.074  0.00  0.00     0.017 A 
ATOM      5  C4  UNL d   1      -1.904   1.727   3.254  0.00  0.00     0.017 A 
ATOM      6  C5  UNL d   1      -2.556   1.213   4.378  0.00  0.00     0.034 A 
ATOM      7 Cl   UNL d   1      -2.842   2.643   2.128  0.00  0.00    -0.070 Cl
ATOM      8 Cl1  UNL d   1       0.339   2.093   1.711  0.00  0.00    -0.070 Cl
ENDROOT
TORSDOF 0
ENDMDL
