MODEL 1
REMARK minimizedAffinity 9.17332935
REMARK minimizedRMSD -1
REMARK  0 active torsions:
REMARK  status: ('A' for Active; 'I' for Inactive)
ROOT
ATOM      1  C   UNL d   1       1.540   5.435   1.191  0.00  0.00     0.020 A 
ATOM      2  C1  UNL d   1       1.121   4.105   1.199  0.00  0.00     0.020 A 
ATOM      3  C2  UNL d   1       1.207   3.338   0.035  0.00  0.00     0.034 A 
ATOM      4  C3  UNL d   1       1.714   3.901  -1.142  0.00  0.00     0.017 A 
ATOM      5  C4  UNL d   1       2.134   5.236  -1.149  0.00  0.00     0.017 A 
ATOM      6  C5  UNL d   1       2.046   5.999   0.019  0.00  0.00     0.034 A 
ATOM      7 Cl   UNL d   1       2.771   5.999  -2.563  0.00  0.00    -0.070 Cl
ATOM      8 Cl1  UNL d   1       1.792   2.894  -2.544  0.00  0.00    -0.070 Cl
ENDROOT
TORSDOF 0
ENDMDL
