MODEL 1
REMARK minimizedAffinity 0.705781758
REMARK minimizedRMSD -1
REMARK  0 active torsions:
REMARK  status: ('A' for Active; 'I' for Inactive)
ROOT
ATOM      1  C   UNL d   1      -3.465   1.256   3.067  0.00  0.00     0.020 A 
ATOM      2  C1  UNL d   1      -4.574   0.573   2.571  0.00  0.00     0.020 A 
ATOM      3  C2  UNL d   1      -4.551  -0.820   2.476  0.00  0.00     0.034 A 
ATOM      4  C3  UNL d   1      -3.417  -1.535   2.877  0.00  0.00     0.017 A 
ATOM      5  C4  UNL d   1      -2.304  -0.848   3.376  0.00  0.00     0.017 A 
ATOM      6  C5  UNL d   1      -2.332   0.547   3.469  0.00  0.00     0.034 A 
ATOM      7 Cl   UNL d   1      -0.868  -1.661   3.891  0.00  0.00    -0.070 Cl
ATOM      8 Cl1  UNL d   1      -3.458  -3.256   2.732  0.00  0.00    -0.070 Cl
ENDROOT
TORSDOF 0
ENDMDL
