MODEL 1
REMARK minimizedAffinity 2.36571455
REMARK minimizedRMSD -1
REMARK  0 active torsions:
REMARK  status: ('A' for Active; 'I' for Inactive)
ROOT
ATOM      1  C   UNL d   1       1.404   1.664  -1.121  0.00  0.00     0.020 A 
ATOM      2  C1  UNL d   1       2.049   2.117  -2.272  0.00  0.00     0.020 A 
ATOM      3  C2  UNL d   1       2.416   3.460  -2.383  0.00  0.00     0.034 A 
ATOM      4  C3  UNL d   1       2.140   4.354  -1.342  0.00  0.00     0.017 A 
ATOM      5  C4  UNL d   1       1.494   3.898  -0.188  0.00  0.00     0.017 A 
ATOM      6  C5  UNL d   1       1.128   2.553  -0.082  0.00  0.00     0.034 A 
ATOM      7 Cl   UNL d   1       1.120   4.942   1.138  0.00  0.00    -0.070 Cl
ATOM      8 Cl1  UNL d   1       2.624   6.000  -1.548  0.00  0.00    -0.070 Cl
ENDROOT
TORSDOF 0
ENDMDL
