MODEL 1
REMARK minimizedAffinity 3.7623384
REMARK minimizedRMSD -1
REMARK  0 active torsions:
REMARK  status: ('A' for Active; 'I' for Inactive)
ROOT
ATOM      1  C   UNL d   1       2.050   1.091  -1.817  0.00  0.00     0.020 A 
ATOM      2  C1  UNL d   1       2.482  -0.051  -1.143  0.00  0.00     0.020 A 
ATOM      3  C2  UNL d   1       2.690  -0.010   0.237  0.00  0.00     0.034 A 
ATOM      4  C3  UNL d   1       2.466   1.175   0.948  0.00  0.00     0.017 A 
ATOM      5  C4  UNL d   1       2.032   2.320   0.271  0.00  0.00     0.017 A 
ATOM      6  C5  UNL d   1       1.825   2.274  -1.111  0.00  0.00     0.034 A 
ATOM      7 Cl   UNL d   1       1.733   3.818   1.079  0.00  0.00    -0.070 Cl
ATOM      8 Cl1  UNL d   1       2.743   1.153   2.654  0.00  0.00    -0.070 Cl
ENDROOT
TORSDOF 0
ENDMDL
