MODEL 1
REMARK minimizedAffinity 1.81424582
REMARK minimizedRMSD -1
REMARK  0 active torsions:
REMARK  status: ('A' for Active; 'I' for Inactive)
ROOT
ATOM      1  C   UNL d   1       2.411   3.628  -1.104  0.00  0.00     0.020 A 
ATOM      2  C1  UNL d   1       1.703   4.822  -1.232  0.00  0.00     0.020 A 
ATOM      3  C2  UNL d   1       0.617   4.899  -2.108  0.00  0.00     0.034 A 
ATOM      4  C3  UNL d   1       0.237   3.780  -2.857  0.00  0.00     0.017 A 
ATOM      5  C4  UNL d   1       0.948   2.582  -2.727  0.00  0.00     0.017 A 
ATOM      6  C5  UNL d   1       2.034   2.510  -1.849  0.00  0.00     0.034 A 
ATOM      7 Cl   UNL d   1       0.538   1.159  -3.619  0.00  0.00    -0.070 Cl
ATOM      8 Cl1  UNL d   1      -1.116   3.947  -3.920  0.00  0.00    -0.070 Cl
ENDROOT
TORSDOF 0
ENDMDL
