MODEL 1
REMARK minimizedAffinity 11.6908474
REMARK minimizedRMSD -1
REMARK  0 active torsions:
REMARK  status: ('A' for Active; 'I' for Inactive)
ROOT
ATOM      1  C   UNL d   1      -1.905  -3.962  -1.667  0.00  0.00     0.020 A 
ATOM      2  C1  UNL d   1      -1.153  -5.081  -2.024  0.00  0.00     0.020 A 
ATOM      3  C2  UNL d   1      -0.789  -5.281  -3.357  0.00  0.00     0.034 A 
ATOM      4  C3  UNL d   1      -1.175  -4.361  -4.338  0.00  0.00     0.017 A 
ATOM      5  C4  UNL d   1      -1.929  -3.238  -3.978  0.00  0.00     0.017 A 
ATOM      6  C5  UNL d   1      -2.292  -3.043  -2.642  0.00  0.00     0.034 A 
ATOM      7 Cl   UNL d   1      -2.443  -2.058  -5.133  0.00  0.00    -0.070 Cl
ATOM      8 Cl1  UNL d   1      -0.689  -4.671  -5.966  0.00  0.00    -0.070 Cl
ENDROOT
TORSDOF 0
ENDMDL
