MODEL 1
REMARK minimizedAffinity -4.12039185
REMARK minimizedRMSD -1
REMARK  0 active torsions:
REMARK  status: ('A' for Active; 'I' for Inactive)
ROOT
ATOM      1  C1  DEN d   1       1.775   0.379   0.442  0.00  0.00     0.130 A 
ATOM      2  C2  DEN d   1       2.333   1.198   1.515  0.00  0.00    -0.031 A 
ATOM      3  C3  DEN d   1       1.266   1.439   2.507  0.00  0.00     0.027 A 
ATOM      4  C4  DEN d   1      -1.181   0.623   2.490  0.00  0.00     0.027 A 
ATOM      5  C5  DEN d   1      -2.121  -0.092   1.780  0.00  0.00    -0.003 A 
ATOM      6  C6  DEN d   1      -1.840  -0.667   0.569  0.00  0.00     0.001 A 
ATOM      7  C7  DEN d   1      -0.575  -0.575   0.051  0.00  0.00     0.017 A 
ATOM      8  C8  DEN d   1       0.376   0.151   0.757  0.00  0.00    -0.094 A 
ATOM      9  C9  DEN d   1       0.076   0.714   1.986  0.00  0.00    -0.072 A 
ENDROOT
TORSDOF 0
ENDMDL
