MODEL 1
REMARK minimizedAffinity -3.28398252
REMARK minimizedRMSD -1
REMARK  0 active torsions:
REMARK  status: ('A' for Active; 'I' for Inactive)
ROOT
ATOM      1  C1  DEN d   1       1.771   1.198   2.202  0.00  0.00     0.130 A 
ATOM      2  C2  DEN d   1       2.663   0.794   1.118  0.00  0.00    -0.031 A 
ATOM      3  C3  DEN d   1       1.869   0.034   0.133  0.00  0.00     0.027 A 
ATOM      4  C4  DEN d   1      -0.643  -0.551   0.177  0.00  0.00     0.027 A 
ATOM      5  C5  DEN d   1      -1.810  -0.436   0.899  0.00  0.00    -0.003 A 
ATOM      6  C6  DEN d   1      -1.858   0.198   2.112  0.00  0.00     0.001 A 
ATOM      7  C7  DEN d   1      -0.726   0.780   2.619  0.00  0.00     0.017 A 
ATOM      8  C8  DEN d   1       0.456   0.661   1.900  0.00  0.00    -0.094 A 
ATOM      9  C9  DEN d   1       0.481   0.027   0.670  0.00  0.00    -0.072 A 
ENDROOT
TORSDOF 0
ENDMDL
