MODEL 1
REMARK minimizedAffinity -1.47986484
REMARK minimizedRMSD -1
REMARK  0 active torsions:
REMARK  status: ('A' for Active; 'I' for Inactive)
ROOT
ATOM      1  C1  DEN d   1       1.729   1.402   2.474  0.00  0.00     0.130 A 
ATOM      2  C2  DEN d   1       2.710   1.576   1.407  0.00  0.00    -0.031 A 
ATOM      3  C3  DEN d   1       2.067   1.206   0.130  0.00  0.00     0.027 A 
ATOM      4  C4  DEN d   1      -0.343   0.391  -0.296  0.00  0.00     0.027 A 
ATOM      5  C5  DEN d   1      -1.543   0.075   0.301  0.00  0.00    -0.003 A 
ATOM      6  C6  DEN d   1      -1.725   0.146   1.656  0.00  0.00     0.001 A 
ATOM      7  C7  DEN d   1      -0.704   0.586   2.456  0.00  0.00     0.017 A 
ATOM      8  C8  DEN d   1       0.512   0.899   1.862  0.00  0.00    -0.094 A 
ATOM      9  C9  DEN d   1       0.672   0.833   0.489  0.00  0.00    -0.072 A 
ENDROOT
TORSDOF 0
ENDMDL
