MODEL 1
REMARK minimizedAffinity 1.22095001
REMARK minimizedRMSD -1
REMARK  0 active torsions:
REMARK  status: ('A' for Active; 'I' for Inactive)
ROOT
ATOM      1  C1  DEN d   1       1.437   1.562   2.691  0.00  0.00     0.130 A 
ATOM      2  C2  DEN d   1       2.218   1.702   1.466  0.00  0.00    -0.031 A 
ATOM      3  C3  DEN d   1       1.416   1.164   0.349  0.00  0.00     0.027 A 
ATOM      4  C4  DEN d   1      -0.949   0.136   0.397  0.00  0.00     0.027 A 
ATOM      5  C5  DEN d   1      -2.008  -0.206   1.209  0.00  0.00    -0.003 A 
ATOM      6  C6  DEN d   1      -1.979  -0.017   2.566  0.00  0.00     0.001 A 
ATOM      7  C7  DEN d   1      -0.887   0.573   3.145  0.00  0.00     0.017 A 
ATOM      8  C8  DEN d   1       0.187   0.914   2.334  0.00  0.00    -0.094 A 
ATOM      9  C9  DEN d   1       0.134   0.726   0.964  0.00  0.00    -0.072 A 
ENDROOT
TORSDOF 0
ENDMDL
