MODEL 1
REMARK minimizedAffinity -5.55415487
REMARK minimizedRMSD -1
REMARK  0 active torsions:
REMARK  status: ('A' for Active; 'I' for Inactive)
ROOT
ATOM      1  C1  DEN d   1      -1.486   0.845   3.151  0.00  0.00     0.130 A 
ATOM      2  C2  DEN d   1      -0.576   1.033   4.278  0.00  0.00    -0.031 A 
ATOM      3  C3  DEN d   1       0.802   0.820   3.792  0.00  0.00     0.027 A 
ATOM      4  C4  DEN d   1       1.612   0.226   1.416  0.00  0.00     0.027 A 
ATOM      5  C5  DEN d   1       1.208  -0.047   0.128  0.00  0.00    -0.003 A 
ATOM      6  C6  DEN d   1      -0.113  -0.075  -0.232  0.00  0.00     0.001 A 
ATOM      7  C7  DEN d   1      -1.077   0.218   0.697  0.00  0.00     0.017 A 
ATOM      8  C8  DEN d   1      -0.677   0.488   1.999  0.00  0.00    -0.094 A 
ATOM      9  C9  DEN d   1       0.664   0.524   2.341  0.00  0.00    -0.072 A 
ENDROOT
TORSDOF 0
ENDMDL
