MODEL 1
REMARK minimizedAffinity -4.38556957
REMARK minimizedRMSD -1
REMARK  0 active torsions:
REMARK  status: ('A' for Active; 'I' for Inactive)
ROOT
ATOM      1  C1  DEN d   1       1.295   2.109   2.231  0.00  0.00     0.130 A 
ATOM      2  C2  DEN d   1       2.224   1.989   1.110  0.00  0.00    -0.031 A 
ATOM      3  C3  DEN d   1       1.654   1.028   0.145  0.00  0.00     0.027 A 
ATOM      4  C4  DEN d   1      -0.568  -0.276   0.274  0.00  0.00     0.027 A 
ATOM      5  C5  DEN d   1      -1.688  -0.512   1.040  0.00  0.00    -0.003 A 
ATOM      6  C6  DEN d   1      -1.875   0.078   2.262  0.00  0.00     0.001 A 
ATOM      7  C7  DEN d   1      -0.947   0.969   2.734  0.00  0.00     0.017 A 
ATOM      8  C8  DEN d   1       0.188   1.207   1.971  0.00  0.00    -0.094 A 
ATOM      9  C9  DEN d   1       0.353   0.610   0.733  0.00  0.00    -0.072 A 
ENDROOT
TORSDOF 0
ENDMDL
