MODEL 1
REMARK minimizedAffinity -0.343827605
REMARK minimizedRMSD -1
REMARK  0 active torsions:
REMARK  status: ('A' for Active; 'I' for Inactive)
ROOT
ATOM      1  C1  DEN d   1      -2.013  -0.229   1.885  0.00  0.00     0.130 A 
ATOM      2  C2  DEN d   1      -1.753  -0.926   0.628  0.00  0.00    -0.031 A 
ATOM      3  C3  DEN d   1      -0.391  -0.571   0.182  0.00  0.00     0.027 A 
ATOM      4  C4  DEN d   1       1.334   0.979   1.311  0.00  0.00     0.027 A 
ATOM      5  C5  DEN d   1       1.564   1.806   2.388  0.00  0.00    -0.003 A 
ATOM      6  C6  DEN d   1       0.614   2.037   3.347  0.00  0.00     0.001 A 
ATOM      7  C7  DEN d   1      -0.596   1.399   3.272  0.00  0.00     0.017 A 
ATOM      8  C8  DEN d   1      -0.838   0.570   2.185  0.00  0.00    -0.094 A 
ATOM      9  C9  DEN d   1       0.140   0.339   1.232  0.00  0.00    -0.072 A 
ENDROOT
TORSDOF 0
ENDMDL
