MODEL 1
REMARK minimizedAffinity 3.14343023
REMARK minimizedRMSD -1
REMARK  0 active torsions:
REMARK  status: ('A' for Active; 'I' for Inactive)
ROOT
ATOM      1  C1  DEN d   1      -1.882  -0.237   1.823  0.00  0.00     0.130 A 
ATOM      2  C2  DEN d   1      -1.888  -0.905   0.525  0.00  0.00    -0.031 A 
ATOM      3  C3  DEN d   1      -0.791  -0.339  -0.285  0.00  0.00     0.027 A 
ATOM      4  C4  DEN d   1       0.911   1.495   0.345  0.00  0.00     0.027 A 
ATOM      5  C5  DEN d   1       1.305   2.368   1.334  0.00  0.00    -0.003 A 
ATOM      6  C6  DEN d   1       0.650   2.457   2.533  0.00  0.00     0.001 A 
ATOM      7  C7  DEN d   1      -0.409   1.627   2.791  0.00  0.00     0.017 A 
ATOM      8  C8  DEN d   1      -0.818   0.749   1.796  0.00  0.00    -0.094 A 
ATOM      9  C9  DEN d   1      -0.134   0.665   0.595  0.00  0.00    -0.072 A 
ENDROOT
TORSDOF 0
ENDMDL
