MODEL 1
REMARK minimizedAffinity 1.92294514
REMARK minimizedRMSD -1
REMARK  0 active torsions:
REMARK  status: ('A' for Active; 'I' for Inactive)
ROOT
ATOM      1  C1  DEN d   1      -0.054   1.711   3.332  0.00  0.00     0.130 A 
ATOM      2  C2  DEN d   1      -0.924   0.785   4.052  0.00  0.00    -0.031 A 
ATOM      3  C3  DEN d   1      -1.585  -0.086   3.059  0.00  0.00     0.027 A 
ATOM      4  C4  DEN d   1      -1.344  -0.092   0.491  0.00  0.00     0.027 A 
ATOM      5  C5  DEN d   1      -0.730   0.518  -0.580  0.00  0.00    -0.003 A 
ATOM      6  C6  DEN d   1       0.119   1.582  -0.427  0.00  0.00     0.001 A 
ATOM      7  C7  DEN d   1       0.413   2.040   0.830  0.00  0.00     0.017 A 
ATOM      8  C8  DEN d   1      -0.208   1.434   1.915  0.00  0.00    -0.094 A 
ATOM      9  C9  DEN d   1      -1.054   0.352   1.740  0.00  0.00    -0.072 A 
ENDROOT
TORSDOF 0
ENDMDL
