MODEL 1
REMARK minimizedAffinity 10.9856272
REMARK minimizedRMSD -1
REMARK  0 active torsions:
REMARK  status: ('A' for Active; 'I' for Inactive)
ROOT
ATOM      1  C   UNL d   1      -4.938   1.525  -4.121  0.00  0.00     0.020 A 
ATOM      2  C1  UNL d   1      -5.999   2.423  -4.233  0.00  0.00     0.020 A 
ATOM      3  C2  UNL d   1      -5.749   3.796  -4.284  0.00  0.00     0.034 A 
ATOM      4  C3  UNL d   1      -4.436   4.275  -4.223  0.00  0.00     0.017 A 
ATOM      5  C4  UNL d   1      -3.371   3.373  -4.111  0.00  0.00     0.017 A 
ATOM      6  C5  UNL d   1      -3.627   1.999  -4.060  0.00  0.00     0.034 A 
ATOM      7 Cl   UNL d   1      -1.724   3.889  -4.030  0.00  0.00    -0.070 Cl
ATOM      8 Cl1  UNL d   1      -4.200   5.985  -4.292  0.00  0.00    -0.070 Cl
ENDROOT
TORSDOF 0
ENDMDL
