MODEL 1
REMARK minimizedAffinity 11.7921181
REMARK minimizedRMSD -1
REMARK  0 active torsions:
REMARK  status: ('A' for Active; 'I' for Inactive)
ROOT
ATOM      1  C   UNL d   1       1.258   1.047  -2.872  0.00  0.00     0.020 A 
ATOM      2  C1  UNL d   1       0.978   1.123  -1.508  0.00  0.00     0.020 A 
ATOM      3  C2  UNL d   1       1.987   0.881  -0.574  0.00  0.00     0.034 A 
ATOM      4  C3  UNL d   1       3.280   0.561  -1.002  0.00  0.00     0.017 A 
ATOM      5  C4  UNL d   1       3.561   0.485  -2.371  0.00  0.00     0.017 A 
ATOM      6  C5  UNL d   1       2.547   0.729  -3.302  0.00  0.00     0.034 A 
ATOM      7 Cl   UNL d   1       5.132   0.096  -2.975  0.00  0.00    -0.070 Cl
ATOM      8 Cl1  UNL d   1       4.479   0.274   0.209  0.00  0.00    -0.070 Cl
ENDROOT
TORSDOF 0
ENDMDL
