MODEL 1
REMARK minimizedAffinity 8.05971813
REMARK minimizedRMSD -1
REMARK  0 active torsions:
REMARK  status: ('A' for Active; 'I' for Inactive)
ROOT
ATOM      1  C   UNL d   1       4.695  -4.498  -0.994  0.00  0.00     0.020 A 
ATOM      2  C1  UNL d   1       5.698  -4.702  -0.046  0.00  0.00     0.020 A 
ATOM      3  C2  UNL d   1       5.450  -4.432   1.301  0.00  0.00     0.034 A 
ATOM      4  C3  UNL d   1       4.197  -3.957   1.705  0.00  0.00     0.017 A 
ATOM      5  C4  UNL d   1       3.192  -3.753   0.754  0.00  0.00     0.017 A 
ATOM      6  C5  UNL d   1       3.445  -4.025  -0.594  0.00  0.00     0.034 A 
ATOM      7 Cl   UNL d   1       1.621  -3.169   1.176  0.00  0.00    -0.070 Cl
ATOM      8 Cl1  UNL d   1       3.961  -3.645   3.388  0.00  0.00    -0.070 Cl
ENDROOT
TORSDOF 0
ENDMDL
