MODEL 1
REMARK minimizedAffinity 6.31860209
REMARK minimizedRMSD -1
REMARK  0 active torsions:
REMARK  status: ('A' for Active; 'I' for Inactive)
ROOT
ATOM      1  C   UNL d   1       2.260  -3.674   0.579  0.00  0.00     0.020 A 
ATOM      2  C1  UNL d   1       3.387  -4.342   1.057  0.00  0.00     0.020 A 
ATOM      3  C2  UNL d   1       3.924  -4.004   2.301  0.00  0.00     0.034 A 
ATOM      4  C3  UNL d   1       3.335  -2.995   3.071  0.00  0.00     0.017 A 
ATOM      5  C4  UNL d   1       2.204  -2.325   2.591  0.00  0.00     0.017 A 
ATOM      6  C5  UNL d   1       1.670  -2.667   1.345  0.00  0.00     0.034 A 
ATOM      7 Cl   UNL d   1       1.422  -1.069   3.485  0.00  0.00    -0.070 Cl
ATOM      8 Cl1  UNL d   1       4.053  -2.629   4.600  0.00  0.00    -0.070 Cl
ENDROOT
TORSDOF 0
ENDMDL
