MODEL 1
REMARK minimizedAffinity 8.61395264
REMARK minimizedRMSD -1
REMARK  0 active torsions:
REMARK  status: ('A' for Active; 'I' for Inactive)
ROOT
ATOM      1  C   UNL d   1      -4.397   0.654   2.771  0.00  0.00     0.020 A 
ATOM      2  C1  UNL d   1      -3.387   0.366   3.688  0.00  0.00     0.020 A 
ATOM      3  C2  UNL d   1      -2.359  -0.513   3.341  0.00  0.00     0.034 A 
ATOM      4  C3  UNL d   1      -2.338  -1.106   2.073  0.00  0.00     0.017 A 
ATOM      5  C4  UNL d   1      -3.353  -0.817   1.154  0.00  0.00     0.017 A 
ATOM      6  C5  UNL d   1      -4.380   0.064   1.507  0.00  0.00     0.034 A 
ATOM      7 Cl   UNL d   1      -3.396  -1.510  -0.428  0.00  0.00    -0.070 Cl
ATOM      8 Cl1  UNL d   1      -1.036  -2.183   1.711  0.00  0.00    -0.070 Cl
ENDROOT
TORSDOF 0
ENDMDL
