MODEL 1
REMARK minimizedAffinity 15.1343594
REMARK minimizedRMSD -1
REMARK  0 active torsions:
REMARK  status: ('A' for Active; 'I' for Inactive)
ROOT
ATOM      1  C   UNL d   1      -4.818  -2.211  -3.629  0.00  0.00     0.020 A 
ATOM      2  C1  UNL d   1      -5.490  -1.041  -3.979  0.00  0.00     0.020 A 
ATOM      3  C2  UNL d   1      -5.129   0.174  -3.392  0.00  0.00     0.034 A 
ATOM      4  C3  UNL d   1      -4.093   0.221  -2.452  0.00  0.00     0.017 A 
ATOM      5  C4  UNL d   1      -3.419  -0.954  -2.101  0.00  0.00     0.017 A 
ATOM      6  C5  UNL d   1      -3.785  -2.168  -2.692  0.00  0.00     0.034 A 
ATOM      7 Cl   UNL d   1      -2.131  -0.975  -0.949  0.00  0.00    -0.070 Cl
ATOM      8 Cl1  UNL d   1      -3.699   1.758  -1.766  0.00  0.00    -0.070 Cl
ENDROOT
TORSDOF 0
ENDMDL
