MODEL 1
REMARK minimizedAffinity 4.85935068
REMARK minimizedRMSD -1
REMARK  0 active torsions:
REMARK  status: ('A' for Active; 'I' for Inactive)
ROOT
ATOM      1  C   UNL d   1       0.915  -2.644   1.405  0.00  0.00     0.020 A 
ATOM      2  C1  UNL d   1       1.360  -1.676   2.304  0.00  0.00     0.020 A 
ATOM      3  C2  UNL d   1       2.226  -2.030   3.340  0.00  0.00     0.034 A 
ATOM      4  C3  UNL d   1       2.651  -3.357   3.480  0.00  0.00     0.017 A 
ATOM      5  C4  UNL d   1       2.204  -4.328   2.577  0.00  0.00     0.017 A 
ATOM      6  C5  UNL d   1       1.336  -3.968   1.541  0.00  0.00     0.034 A 
ATOM      7 Cl   UNL d   1       2.684  -5.985   2.685  0.00  0.00    -0.070 Cl
ATOM      8 Cl1  UNL d   1       3.723  -3.724   4.784  0.00  0.00    -0.070 Cl
ENDROOT
TORSDOF 0
ENDMDL
