MODEL 1
REMARK minimizedAffinity -3.45847034
REMARK minimizedRMSD -1
REMARK  1 active torsions:
REMARK  status: ('A' for Active; 'I' for Inactive)
REMARK    1  A    between atoms: C1_2  and  C2_3 
ROOT
ATOM      1  C2  UNL d   1      -0.030  -2.267  -2.595  0.00  0.00    -0.073 A 
ATOM      2  C3  UNL d   1       1.084  -1.610  -2.061  0.00  0.00    -0.002 A 
ATOM      3  C4  UNL d   1       1.564  -0.441  -2.653  0.00  0.00     0.004 A 
ATOM      4  C5  UNL d   1       0.931   0.086  -3.779  0.00  0.00    -0.004 A 
ATOM      5  C6  UNL d   1      -0.191  -0.550  -4.320  0.00  0.00    -0.075 A 
ATOM      6  C7  UNL d   1      -0.881   0.003  -5.532  0.00  0.00     0.076 C 
ATOM      7  C8  UNL d   1      -0.665  -1.725  -3.721  0.00  0.00     0.001 A 
ENDROOT
BRANCH   1   8
ATOM      8  C1  UNL d   1      -0.555  -3.526  -1.955  0.00  0.00     0.053 C 
ATOM      9  C   UNL d   1      -2.020  -3.400  -1.567  0.00  0.00     0.018 C 
ENDBRANCH   1   8
TORSDOF 1
ENDMDL
