MODEL 1
REMARK minimizedAffinity -0.719489992
REMARK minimizedRMSD -1
REMARK  1 active torsions:
REMARK  status: ('A' for Active; 'I' for Inactive)
REMARK    1  A    between atoms: C1_2  and  C2_3 
ROOT
ATOM      1  C2  UNL d   1      -0.760  -0.811  -0.041  0.00  0.00    -0.073 A 
ATOM      2  C3  UNL d   1       0.486  -1.397  -0.292  0.00  0.00    -0.002 A 
ATOM      3  C4  UNL d   1       1.625  -0.945   0.377  0.00  0.00     0.004 A 
ATOM      4  C5  UNL d   1       1.527   0.089   1.308  0.00  0.00    -0.004 A 
ATOM      5  C6  UNL d   1       0.289   0.679   1.581  0.00  0.00    -0.075 A 
ATOM      6  C7  UNL d   1       0.168   1.794   2.578  0.00  0.00     0.076 C 
ATOM      7  C8  UNL d   1      -0.849   0.222   0.903  0.00  0.00     0.001 A 
ENDROOT
BRANCH   1   8
ATOM      8  C1  UNL d   1      -1.993  -1.300  -0.757  0.00  0.00     0.053 C 
ATOM      9  C   UNL d   1      -1.736  -2.591  -1.518  0.00  0.00     0.018 C 
ENDBRANCH   1   8
TORSDOF 1
ENDMDL
