MODEL 1
REMARK minimizedAffinity -4.24462175
REMARK minimizedRMSD -1
REMARK  0 active torsions:
REMARK  status: ('A' for Active; 'I' for Inactive)
ROOT
ATOM      1  C2' OXE d   1       5.996  -2.446   1.481  0.00  0.00     0.078 C 
ATOM      2  C1' OXE d   1       5.924  -5.211   1.957  0.00  0.00     0.078 C 
ATOM      3  C1  OXE d   1       5.614  -4.290   3.110  0.00  0.00    -0.078 A 
ATOM      4  C2  OXE d   1       5.697  -2.938   2.880  0.00  0.00    -0.078 A 
ATOM      5  C3  OXE d   1       5.368  -2.045   3.895  0.00  0.00     0.003 A 
ATOM      6  C4  OXE d   1       5.102  -2.508   5.189  0.00  0.00    -0.002 A 
ATOM      7  C5  OXE d   1       5.051  -3.881   5.455  0.00  0.00    -0.002 A 
ATOM      8  C6  OXE d   1       5.262  -4.784   4.419  0.00  0.00     0.003 A 
ENDROOT
TORSDOF 0
ENDMDL
