MODEL 1
REMARK minimizedAffinity -2.42002153
REMARK minimizedRMSD -1
REMARK  0 active torsions:
REMARK  status: ('A' for Active; 'I' for Inactive)
ROOT
ATOM      1  C2' OXE d   1       5.844  -1.876   4.930  0.00  0.00     0.078 C 
ATOM      2  C1' OXE d   1       5.838  -4.664   5.261  0.00  0.00     0.078 C 
ATOM      3  C1  OXE d   1       5.910  -4.123   3.855  0.00  0.00    -0.078 A 
ATOM      4  C2  OXE d   1       5.865  -2.758   3.700  0.00  0.00    -0.078 A 
ATOM      5  C3  OXE d   1       5.983  -2.205   2.428  0.00  0.00     0.003 A 
ATOM      6  C4  OXE d   1       5.992  -3.027   1.295  0.00  0.00    -0.002 A 
ATOM      7  C5  OXE d   1       5.998  -4.420   1.429  0.00  0.00    -0.002 A 
ATOM      8  C6  OXE d   1       6.000  -4.982   2.701  0.00  0.00     0.003 A 
ENDROOT
TORSDOF 0
ENDMDL
