MODEL 1
REMARK minimizedAffinity -3.44358325
REMARK minimizedRMSD -1
REMARK  0 active torsions:
REMARK  status: ('A' for Active; 'I' for Inactive)
ROOT
ATOM      1  C2' OXE d   1       5.446  -2.166   5.928  0.00  0.00     0.078 C 
ATOM      2  C1' OXE d   1       4.950  -4.929   5.909  0.00  0.00     0.078 C 
ATOM      3  C1  OXE d   1       5.326  -4.273   4.604  0.00  0.00    -0.078 A 
ATOM      4  C2  OXE d   1       5.521  -2.913   4.614  0.00  0.00    -0.078 A 
ATOM      5  C3  OXE d   1       5.923  -2.265   3.449  0.00  0.00     0.003 A 
ATOM      6  C4  OXE d   1       5.981  -2.961   2.235  0.00  0.00    -0.002 A 
ATOM      7  C5  OXE d   1       5.748  -4.340   2.196  0.00  0.00    -0.002 A 
ATOM      8  C6  OXE d   1       5.461  -5.017   3.376  0.00  0.00     0.003 A 
ENDROOT
TORSDOF 0
ENDMDL
