MODEL 1
REMARK minimizedAffinity -1.41125226
REMARK minimizedRMSD -1
REMARK  0 active torsions:
REMARK  status: ('A' for Active; 'I' for Inactive)
ROOT
ATOM      1  C2' OXE d   1       5.949  -5.999   1.653  0.00  0.00     0.078 C 
ATOM      2  C1' OXE d   1       5.047  -5.755   4.300  0.00  0.00     0.078 C 
ATOM      3  C1  OXE d   1       5.307  -4.487   3.526  0.00  0.00    -0.078 A 
ATOM      4  C2  OXE d   1       5.793  -4.616   2.247  0.00  0.00    -0.078 A 
ATOM      5  C3  OXE d   1       5.999  -3.480   1.470  0.00  0.00     0.003 A 
ATOM      6  C4  OXE d   1       5.862  -2.204   2.030  0.00  0.00    -0.002 A 
ATOM      7  C5  OXE d   1       5.406  -2.050   3.343  0.00  0.00    -0.002 A 
ATOM      8  C6  OXE d   1       5.085  -3.178   4.089  0.00  0.00     0.003 A 
ENDROOT
TORSDOF 0
ENDMDL
