MODEL 1
REMARK minimizedAffinity -3.6319797
REMARK minimizedRMSD -1
REMARK  0 active torsions:
REMARK  status: ('A' for Active; 'I' for Inactive)
ROOT
ATOM      1  C2' OXE d   1       4.685  -2.609   6.000  0.00  0.00     0.078 C 
ATOM      2  C1' OXE d   1       4.648  -5.406   5.765  0.00  0.00     0.078 C 
ATOM      3  C1  OXE d   1       5.144  -4.608   4.586  0.00  0.00    -0.078 A 
ATOM      4  C2  OXE d   1       5.115  -3.238   4.692  0.00  0.00    -0.078 A 
ATOM      5  C3  OXE d   1       5.612  -2.455   3.654  0.00  0.00     0.003 A 
ATOM      6  C4  OXE d   1       5.999  -3.044   2.444  0.00  0.00    -0.002 A 
ATOM      7  C5  OXE d   1       5.999  -4.436   2.301  0.00  0.00    -0.002 A 
ATOM      8  C6  OXE d   1       5.616  -5.232   3.374  0.00  0.00     0.003 A 
ENDROOT
TORSDOF 0
ENDMDL
