MODEL 1
REMARK minimizedAffinity -3.95542383
REMARK minimizedRMSD -1
REMARK  0 active torsions:
REMARK  status: ('A' for Active; 'I' for Inactive)
ROOT
ATOM      1  C2' OXE d   1       4.204  -3.000   5.986  0.00  0.00     0.078 C 
ATOM      2  C1' OXE d   1       5.264  -5.598   5.899  0.00  0.00     0.078 C 
ATOM      3  C1  OXE d   1       5.363  -4.755   4.652  0.00  0.00    -0.078 A 
ATOM      4  C2  OXE d   1       4.800  -3.503   4.689  0.00  0.00    -0.078 A 
ATOM      5  C3  OXE d   1       4.912  -2.664   3.584  0.00  0.00     0.003 A 
ATOM      6  C4  OXE d   1       5.456  -3.139   2.385  0.00  0.00    -0.002 A 
ATOM      7  C5  OXE d   1       6.000  -4.426   2.314  0.00  0.00    -0.002 A 
ATOM      8  C6  OXE d   1       6.000  -5.230   3.448  0.00  0.00     0.003 A 
ENDROOT
TORSDOF 0
ENDMDL
