MODEL 1
REMARK minimizedAffinity -3.58531141
REMARK minimizedRMSD -1
REMARK  0 active torsions:
REMARK  status: ('A' for Active; 'I' for Inactive)
ROOT
ATOM      1  C2' OXE d   1       5.991  -5.599   4.550  0.00  0.00     0.078 C 
ATOM      2  C1' OXE d   1       6.000  -5.278   1.761  0.00  0.00     0.078 C 
ATOM      3  C1  OXE d   1       5.818  -4.045   2.611  0.00  0.00    -0.078 A 
ATOM      4  C2  OXE d   1       5.769  -4.218   3.973  0.00  0.00    -0.078 A 
ATOM      5  C3  OXE d   1       5.658  -3.107   4.805  0.00  0.00     0.003 A 
ATOM      6  C4  OXE d   1       5.443  -1.834   4.263  0.00  0.00    -0.002 A 
ATOM      7  C5  OXE d   1       5.450  -1.642   2.878  0.00  0.00    -0.002 A 
ATOM      8  C6  OXE d   1       5.679  -2.728   2.040  0.00  0.00     0.003 A 
ENDROOT
TORSDOF 0
ENDMDL
