MODEL 1
REMARK minimizedAffinity -3.44254088
REMARK minimizedRMSD -1
REMARK  0 active torsions:
REMARK  status: ('A' for Active; 'I' for Inactive)
ROOT
ATOM      1  C2' OXE d   1       4.967  -4.947   5.529  0.00  0.00     0.078 C 
ATOM      2  C1' OXE d   1       5.733  -2.250   5.660  0.00  0.00     0.078 C 
ATOM      3  C1  OXE d   1       5.688  -2.903   4.301  0.00  0.00    -0.078 A 
ATOM      4  C2  OXE d   1       5.358  -4.236   4.251  0.00  0.00    -0.078 A 
ATOM      5  C3  OXE d   1       5.249  -4.873   3.018  0.00  0.00     0.003 A 
ATOM      6  C4  OXE d   1       5.622  -4.211   1.843  0.00  0.00    -0.002 A 
ATOM      7  C5  OXE d   1       6.000  -2.864   1.876  0.00  0.00    -0.002 A 
ATOM      8  C6  OXE d   1       5.997  -2.185   3.089  0.00  0.00     0.003 A 
ENDROOT
TORSDOF 0
ENDMDL
