MODEL 1
REMARK minimizedAffinity -3.80604506
REMARK minimizedRMSD -1
REMARK  0 active torsions:
REMARK  status: ('A' for Active; 'I' for Inactive)
ROOT
ATOM      1  C2' OXE d   1       5.863  -2.255   5.585  0.00  0.00     0.078 C 
ATOM      2  C1' OXE d   1       5.840  -5.062   5.617  0.00  0.00     0.078 C 
ATOM      3  C1  OXE d   1       5.914  -4.375   4.277  0.00  0.00    -0.078 A 
ATOM      4  C2  OXE d   1       5.877  -3.001   4.268  0.00  0.00    -0.078 A 
ATOM      5  C3  OXE d   1       5.997  -2.316   3.063  0.00  0.00     0.003 A 
ATOM      6  C4  OXE d   1       6.000  -3.013   1.848  0.00  0.00    -0.002 A 
ATOM      7  C5  OXE d   1       5.997  -4.412   1.833  0.00  0.00    -0.002 A 
ATOM      8  C6  OXE d   1       5.997  -5.107   3.037  0.00  0.00     0.003 A 
ENDROOT
TORSDOF 0
ENDMDL
