MODEL 1
REMARK minimizedAffinity -1.80142772
REMARK minimizedRMSD -1
REMARK  0 active torsions:
REMARK  status: ('A' for Active; 'I' for Inactive)
ROOT
ATOM      1  C2' OXE d   1       5.999  -3.019   1.992  0.00  0.00     0.078 C 
ATOM      2  C1' OXE d   1       6.000  -5.776   2.524  0.00  0.00     0.078 C 
ATOM      3  C1  OXE d   1       5.602  -4.844   3.641  0.00  0.00    -0.078 A 
ATOM      4  C2  OXE d   1       5.650  -3.495   3.386  0.00  0.00    -0.078 A 
ATOM      5  C3  OXE d   1       5.241  -2.593   4.365  0.00  0.00     0.003 A 
ATOM      6  C4  OXE d   1       4.930  -3.040   5.655  0.00  0.00    -0.002 A 
ATOM      7  C5  OXE d   1       4.913  -4.408   5.947  0.00  0.00    -0.002 A 
ATOM      8  C6  OXE d   1       5.205  -5.324   4.942  0.00  0.00     0.003 A 
ENDROOT
TORSDOF 0
ENDMDL
