MODEL 1
REMARK minimizedAffinity -3.9157548
REMARK minimizedRMSD -1
REMARK  0 active torsions:
REMARK  status: ('A' for Active; 'I' for Inactive)
ROOT
ATOM      1  C2' OXE d   1       5.974  -5.103   5.777  0.00  0.00     0.078 C 
ATOM      2  C1' OXE d   1       5.657  -2.322   5.997  0.00  0.00     0.078 C 
ATOM      3  C1  OXE d   1       5.754  -2.912   4.612  0.00  0.00    -0.078 A 
ATOM      4  C2  OXE d   1       5.956  -4.268   4.515  0.00  0.00    -0.078 A 
ATOM      5  C3  OXE d   1       5.998  -4.870   3.261  0.00  0.00     0.003 A 
ATOM      6  C4  OXE d   1       5.991  -4.090   2.099  0.00  0.00    -0.002 A 
ATOM      7  C5  OXE d   1       5.826  -2.703   2.176  0.00  0.00    -0.002 A 
ATOM      8  C6  OXE d   1       5.664  -2.104   3.421  0.00  0.00     0.003 A 
ENDROOT
TORSDOF 0
ENDMDL
