MODEL 1
REMARK minimizedAffinity -3.95939279
REMARK minimizedRMSD -1
REMARK  0 active torsions:
REMARK  status: ('A' for Active; 'I' for Inactive)
ROOT
ATOM      1  C2' OXE d   1       6.000  -5.249   2.317  0.00  0.00     0.078 C 
ATOM      2  C1' OXE d   1       6.000  -2.444   2.202  0.00  0.00     0.078 C 
ATOM      3  C1  OXE d   1       5.454  -3.097   3.447  0.00  0.00    -0.078 A 
ATOM      4  C2  OXE d   1       5.415  -4.471   3.475  0.00  0.00    -0.078 A 
ATOM      5  C3  OXE d   1       4.971  -5.124   4.622  0.00  0.00     0.003 A 
ATOM      6  C4  OXE d   1       4.422  -4.397   5.685  0.00  0.00    -0.002 A 
ATOM      7  C5  OXE d   1       4.416  -2.999   5.660  0.00  0.00    -0.002 A 
ATOM      8  C6  OXE d   1       4.966  -2.334   4.569  0.00  0.00     0.003 A 
ENDROOT
TORSDOF 0
ENDMDL
