MODEL 1
REMARK minimizedAffinity -4.0283947
REMARK minimizedRMSD -1
REMARK  0 active torsions:
REMARK  status: ('A' for Active; 'I' for Inactive)
ROOT
ATOM      1  C2' OXE d   1       4.885  -2.627   5.974  0.00  0.00     0.078 C 
ATOM      2  C1' OXE d   1       5.491  -5.347   5.639  0.00  0.00     0.078 C 
ATOM      3  C1  OXE d   1       5.585  -4.452   4.429  0.00  0.00    -0.078 A 
ATOM      4  C2  OXE d   1       5.242  -3.131   4.592  0.00  0.00    -0.078 A 
ATOM      5  C3  OXE d   1       5.364  -2.250   3.521  0.00  0.00     0.003 A 
ATOM      6  C4  OXE d   1       5.685  -2.726   2.244  0.00  0.00    -0.002 A 
ATOM      7  C5  OXE d   1       6.000  -4.075   2.048  0.00  0.00    -0.002 A 
ATOM      8  C6  OXE d   1       5.996  -4.941   3.136  0.00  0.00     0.003 A 
ENDROOT
TORSDOF 0
ENDMDL
