MODEL 1
REMARK minimizedAffinity -1.70193315
REMARK minimizedRMSD -1
REMARK  0 active torsions:
REMARK  status: ('A' for Active; 'I' for Inactive)
ROOT
ATOM      1  C2' OXE d   1       6.000  -4.308   1.117  0.00  0.00     0.078 C 
ATOM      2  C1' OXE d   1       5.999  -1.501   1.143  0.00  0.00     0.078 C 
ATOM      3  C1  OXE d   1       5.763  -2.217   2.449  0.00  0.00    -0.078 A 
ATOM      4  C2  OXE d   1       5.719  -3.590   2.419  0.00  0.00    -0.078 A 
ATOM      5  C3  OXE d   1       5.559  -4.301   3.605  0.00  0.00     0.003 A 
ATOM      6  C4  OXE d   1       5.290  -3.629   4.804  0.00  0.00    -0.002 A 
ATOM      7  C5  OXE d   1       5.291  -2.230   4.849  0.00  0.00    -0.002 A 
ATOM      8  C6  OXE d   1       5.568  -1.511   3.692  0.00  0.00     0.003 A 
ENDROOT
TORSDOF 0
ENDMDL
