MODEL 1
REMARK minimizedAffinity -1.83997035
REMARK minimizedRMSD -1
REMARK  0 active torsions:
REMARK  status: ('A' for Active; 'I' for Inactive)
ROOT
ATOM      1  C2' OXE d   1       3.748  -5.664   4.837  0.00  0.00     0.078 C 
ATOM      2  C1' OXE d   1       3.716  -3.000   5.721  0.00  0.00     0.078 C 
ATOM      3  C1  OXE d   1       4.514  -3.321   4.483  0.00  0.00    -0.078 A 
ATOM      4  C2  OXE d   1       4.563  -4.635   4.084  0.00  0.00    -0.078 A 
ATOM      5  C3  OXE d   1       5.240  -4.977   2.917  0.00  0.00     0.003 A 
ATOM      6  C4  OXE d   1       6.000  -4.020   2.232  0.00  0.00    -0.002 A 
ATOM      7  C5  OXE d   1       5.997  -2.684   2.644  0.00  0.00    -0.002 A 
ATOM      8  C6  OXE d   1       5.227  -2.310   3.740  0.00  0.00     0.003 A 
ENDROOT
TORSDOF 0
ENDMDL
