MODEL 1
REMARK minimizedAffinity -4.06779671
REMARK minimizedRMSD -1
REMARK  0 active torsions:
REMARK  status: ('A' for Active; 'I' for Inactive)
ROOT
ATOM      1  C2' OXE d   1       5.928  -5.218   5.661  0.00  0.00     0.078 C 
ATOM      2  C1' OXE d   1       5.654  -2.445   6.000  0.00  0.00     0.078 C 
ATOM      3  C1  OXE d   1       5.756  -2.975   4.592  0.00  0.00    -0.078 A 
ATOM      4  C2  OXE d   1       5.937  -4.329   4.437  0.00  0.00    -0.078 A 
ATOM      5  C3  OXE d   1       5.982  -4.876   3.158  0.00  0.00     0.003 A 
ATOM      6  C4  OXE d   1       6.000  -4.046   2.031  0.00  0.00    -0.002 A 
ATOM      7  C5  OXE d   1       5.857  -2.661   2.168  0.00  0.00    -0.002 A 
ATOM      8  C6  OXE d   1       5.691  -2.115   3.436  0.00  0.00     0.003 A 
ENDROOT
TORSDOF 0
ENDMDL
