MODEL 1
REMARK minimizedAffinity -2.194942
REMARK minimizedRMSD -1
REMARK  0 active torsions:
REMARK  status: ('A' for Active; 'I' for Inactive)
ROOT
ATOM      1  C2' OXE d   1       5.958  -4.868   2.319  0.00  0.00     0.078 C 
ATOM      2  C1' OXE d   1       5.942  -5.996   4.890  0.00  0.00     0.078 C 
ATOM      3  C1  OXE d   1       5.944  -4.492   4.782  0.00  0.00    -0.078 A 
ATOM      4  C2  OXE d   1       5.999  -3.949   3.521  0.00  0.00    -0.078 A 
ATOM      5  C3  OXE d   1       5.947  -2.567   3.363  0.00  0.00     0.003 A 
ATOM      6  C4  OXE d   1       5.994  -1.723   4.479  0.00  0.00    -0.002 A 
ATOM      7  C5  OXE d   1       5.979  -2.256   5.773  0.00  0.00    -0.002 A 
ATOM      8  C6  OXE d   1       5.910  -3.635   5.941  0.00  0.00     0.003 A 
ENDROOT
TORSDOF 0
ENDMDL
