MODEL 1
REMARK minimizedAffinity -3.72720218
REMARK minimizedRMSD -1
REMARK  0 active torsions:
REMARK  status: ('A' for Active; 'I' for Inactive)
ROOT
ATOM      1  C2' OXE d   1       5.995  -3.125   1.706  0.00  0.00     0.078 C 
ATOM      2  C1' OXE d   1       6.000  -5.930   1.815  0.00  0.00     0.078 C 
ATOM      3  C1  OXE d   1       5.577  -5.179   3.052  0.00  0.00    -0.078 A 
ATOM      4  C2  OXE d   1       5.622  -3.806   3.005  0.00  0.00    -0.078 A 
ATOM      5  C3  OXE d   1       5.190  -3.064   4.101  0.00  0.00     0.003 A 
ATOM      6  C4  OXE d   1       4.857  -3.702   5.302  0.00  0.00    -0.002 A 
ATOM      7  C5  OXE d   1       4.842  -5.099   5.384  0.00  0.00    -0.002 A 
ATOM      8  C6  OXE d   1       5.158  -5.851   4.258  0.00  0.00     0.003 A 
ENDROOT
TORSDOF 0
ENDMDL
