MODEL 1
REMARK minimizedAffinity -3.93813419
REMARK minimizedRMSD -1
REMARK  0 active torsions:
REMARK  status: ('A' for Active; 'I' for Inactive)
ROOT
ATOM      1  C2' OXE d   1       5.984  -1.892   2.547  0.00  0.00     0.078 C 
ATOM      2  C1' OXE d   1       6.000  -4.699   2.558  0.00  0.00     0.078 C 
ATOM      3  C1  OXE d   1       5.433  -3.993   3.765  0.00  0.00    -0.078 A 
ATOM      4  C2  OXE d   1       5.472  -2.620   3.771  0.00  0.00    -0.078 A 
ATOM      5  C3  OXE d   1       4.913  -1.919   4.835  0.00  0.00     0.003 A 
ATOM      6  C4  OXE d   1       4.451  -2.600   5.968  0.00  0.00    -0.002 A 
ATOM      7  C5  OXE d   1       4.438  -3.998   5.999  0.00  0.00    -0.002 A 
ATOM      8  C6  OXE d   1       4.886  -4.709   4.891  0.00  0.00     0.003 A 
ENDROOT
TORSDOF 0
ENDMDL
