MODEL 1
REMARK minimizedAffinity -2.45480561
REMARK minimizedRMSD -1
REMARK  0 active torsions:
REMARK  status: ('A' for Active; 'I' for Inactive)
ROOT
ATOM      1  C1  BNZ d   1      -5.798   3.260   2.256  0.00  0.00     0.000 A 
ATOM      2  C2  BNZ d   1      -5.998   4.557   2.646  0.00  0.00     0.000 A 
ATOM      3  C3  BNZ d   1      -5.510   5.596   1.904  0.00  0.00     0.000 A 
ATOM      4  C4  BNZ d   1      -4.788   5.335   0.794  0.00  0.00     0.000 A 
ATOM      5  C5  BNZ d   1      -4.570   4.033   0.392  0.00  0.00     0.000 A 
ATOM      6  C6  BNZ d   1      -5.096   2.991   1.121  0.00  0.00     0.000 A 
ENDROOT
TORSDOF 0
ENDMDL
