MODEL 1
REMARK minimizedAffinity -2.49382949
REMARK minimizedRMSD -1
REMARK  0 active torsions:
REMARK  status: ('A' for Active; 'I' for Inactive)
ROOT
ATOM      1  C1  BNZ d   1      -5.242   6.000   2.959  0.00  0.00     0.000 A 
ATOM      2  C2  BNZ d   1      -5.626   5.016   3.831  0.00  0.00     0.000 A 
ATOM      3  C3  BNZ d   1      -5.986   3.779   3.375  0.00  0.00     0.000 A 
ATOM      4  C4  BNZ d   1      -6.000   3.539   2.048  0.00  0.00     0.000 A 
ATOM      5  C5  BNZ d   1      -5.624   4.524   1.156  0.00  0.00     0.000 A 
ATOM      6  C6  BNZ d   1      -5.225   5.756   1.621  0.00  0.00     0.000 A 
ENDROOT
TORSDOF 0
ENDMDL
