MODEL 1
REMARK minimizedAffinity -2.29752088
REMARK minimizedRMSD -1
REMARK  0 active torsions:
REMARK  status: ('A' for Active; 'I' for Inactive)
ROOT
ATOM      1  C1  BNZ d   1      -5.276   5.068   3.269  0.00  0.00     0.000 A 
ATOM      2  C2  BNZ d   1      -5.984   5.991   3.992  0.00  0.00     0.000 A 
ATOM      3  C3  BNZ d   1      -5.933   6.000   5.358  0.00  0.00     0.000 A 
ATOM      4  C4  BNZ d   1      -5.208   5.062   6.000  0.00  0.00     0.000 A 
ATOM      5  C5  BNZ d   1      -4.497   4.118   5.286  0.00  0.00     0.000 A 
ATOM      6  C6  BNZ d   1      -4.519   4.136   3.910  0.00  0.00     0.000 A 
ENDROOT
TORSDOF 0
ENDMDL
