MODEL 1
REMARK minimizedAffinity -2.05506873
REMARK minimizedRMSD -1
REMARK  0 active torsions:
REMARK  status: ('A' for Active; 'I' for Inactive)
ROOT
ATOM      1  C1  BNZ d   1      -5.995   5.611   1.889  0.00  0.00     0.000 A 
ATOM      2  C2  BNZ d   1      -5.997   5.632   3.258  0.00  0.00     0.000 A 
ATOM      3  C3  BNZ d   1      -5.508   4.576   3.975  0.00  0.00     0.000 A 
ATOM      4  C4  BNZ d   1      -5.054   3.486   3.323  0.00  0.00     0.000 A 
ATOM      5  C5  BNZ d   1      -5.054   3.446   1.943  0.00  0.00     0.000 A 
ATOM      6  C6  BNZ d   1      -5.512   4.526   1.224  0.00  0.00     0.000 A 
ENDROOT
TORSDOF 0
ENDMDL
