MODEL 1
REMARK minimizedAffinity -2.76339078
REMARK minimizedRMSD -1
REMARK  0 active torsions:
REMARK  status: ('A' for Active; 'I' for Inactive)
ROOT
ATOM      1  C1  BNZ d   1      -0.346   0.124   0.487  0.00  0.00     0.000 A 
ATOM      2  C2  BNZ d   1      -1.572   0.153   1.096  0.00  0.00     0.000 A 
ATOM      3  C3  BNZ d   1      -2.628  -0.544   0.578  0.00  0.00     0.000 A 
ATOM      4  C4  BNZ d   1      -2.467  -1.236  -0.569  0.00  0.00     0.000 A 
ATOM      5  C5  BNZ d   1      -1.240  -1.267  -1.200  0.00  0.00     0.000 A 
ATOM      6  C6  BNZ d   1      -0.169  -0.596  -0.654  0.00  0.00     0.000 A 
ENDROOT
TORSDOF 0
ENDMDL
