MODEL 1
REMARK minimizedAffinity -1.76140046
REMARK minimizedRMSD -1
REMARK  0 active torsions:
REMARK  status: ('A' for Active; 'I' for Inactive)
ROOT
ATOM      1  C1  BNZ d   1      -5.918   3.610   3.863  0.00  0.00     0.000 A 
ATOM      2  C2  BNZ d   1      -5.993   4.804   3.196  0.00  0.00     0.000 A 
ATOM      3  C3  BNZ d   1      -6.000   5.988   3.879  0.00  0.00     0.000 A 
ATOM      4  C4  BNZ d   1      -5.973   5.976   5.227  0.00  0.00     0.000 A 
ATOM      5  C5  BNZ d   1      -5.907   4.780   5.914  0.00  0.00     0.000 A 
ATOM      6  C6  BNZ d   1      -5.861   3.592   5.222  0.00  0.00     0.000 A 
ENDROOT
TORSDOF 0
ENDMDL
