MODEL 1
REMARK minimizedAffinity -1.49742997
REMARK minimizedRMSD -1
REMARK  0 active torsions:
REMARK  status: ('A' for Active; 'I' for Inactive)
ROOT
ATOM      1  C1  BNZ d   1      -5.900   3.615   3.935  0.00  0.00     0.000 A 
ATOM      2  C2  BNZ d   1      -5.911   4.818   3.280  0.00  0.00     0.000 A 
ATOM      3  C3  BNZ d   1      -5.941   5.994   3.977  0.00  0.00     0.000 A 
ATOM      4  C4  BNZ d   1      -6.000   5.965   5.324  0.00  0.00     0.000 A 
ATOM      5  C5  BNZ d   1      -5.999   4.761   5.998  0.00  0.00     0.000 A 
ATOM      6  C6  BNZ d   1      -5.930   3.580   5.295  0.00  0.00     0.000 A 
ENDROOT
TORSDOF 0
ENDMDL
