MODEL 1
REMARK minimizedAffinity -2.95584989
REMARK minimizedRMSD -1
REMARK  0 active torsions:
REMARK  status: ('A' for Active; 'I' for Inactive)
ROOT
ATOM      1  C1  BNZ d   1      -5.976   4.264   3.127  0.00  0.00     0.000 A 
ATOM      2  C2  BNZ d   1      -5.940   3.407   4.194  0.00  0.00     0.000 A 
ATOM      3  C3  BNZ d   1      -5.021   3.571   5.193  0.00  0.00     0.000 A 
ATOM      4  C4  BNZ d   1      -4.115   4.566   5.103  0.00  0.00     0.000 A 
ATOM      5  C5  BNZ d   1      -4.132   5.432   4.028  0.00  0.00     0.000 A 
ATOM      6  C6  BNZ d   1      -5.084   5.288   3.044  0.00  0.00     0.000 A 
ENDROOT
TORSDOF 0
ENDMDL
