MODEL 1
REMARK minimizedAffinity -2.10358357
REMARK minimizedRMSD -1
REMARK  0 active torsions:
REMARK  status: ('A' for Active; 'I' for Inactive)
ROOT
ATOM      1  C1  BNZ d   1      -5.999   4.039   2.660  0.00  0.00     0.000 A 
ATOM      2  C2  BNZ d   1      -5.143   4.051   3.729  0.00  0.00     0.000 A 
ATOM      3  C3  BNZ d   1      -4.214   5.043   3.871  0.00  0.00     0.000 A 
ATOM      4  C4  BNZ d   1      -4.116   5.999   2.925  0.00  0.00     0.000 A 
ATOM      5  C5  BNZ d   1      -4.965   5.996   1.836  0.00  0.00     0.000 A 
ATOM      6  C6  BNZ d   1      -5.925   5.017   1.717  0.00  0.00     0.000 A 
ENDROOT
TORSDOF 0
ENDMDL
