MODEL 1
REMARK minimizedAffinity -3.02720857
REMARK minimizedRMSD -1
REMARK  0 active torsions:
REMARK  status: ('A' for Active; 'I' for Inactive)
ROOT
ATOM      1  C1  BNZ d   1      -5.813   4.859   1.776  0.00  0.00     0.000 A 
ATOM      2  C2  BNZ d   1      -5.957   3.742   2.555  0.00  0.00     0.000 A 
ATOM      3  C3  BNZ d   1      -5.587   3.754   3.871  0.00  0.00     0.000 A 
ATOM      4  C4  BNZ d   1      -5.038   4.869   4.395  0.00  0.00     0.000 A 
ATOM      5  C5  BNZ d   1      -4.878   6.000   3.620  0.00  0.00     0.000 A 
ATOM      6  C6  BNZ d   1      -5.287   5.996   2.306  0.00  0.00     0.000 A 
ENDROOT
TORSDOF 0
ENDMDL
