MODEL 1
REMARK minimizedAffinity -3.17797852
REMARK minimizedRMSD -1
REMARK  0 active torsions:
REMARK  status: ('A' for Active; 'I' for Inactive)
ROOT
ATOM      1  C1  BNZ d   1      -5.999   2.316   4.279  0.00  0.00     0.000 A 
ATOM      2  C2  BNZ d   1      -5.999   3.319   5.211  0.00  0.00     0.000 A 
ATOM      3  C3  BNZ d   1      -5.396   4.517   4.950  0.00  0.00     0.000 A 
ATOM      4  C4  BNZ d   1      -4.759   4.697   3.774  0.00  0.00     0.000 A 
ATOM      5  C5  BNZ d   1      -4.742   3.692   2.828  0.00  0.00     0.000 A 
ATOM      6  C6  BNZ d   1      -5.384   2.501   3.079  0.00  0.00     0.000 A 
ENDROOT
TORSDOF 0
ENDMDL
