MODEL 1
REMARK minimizedAffinity -2.73290181
REMARK minimizedRMSD -1
REMARK  0 active torsions:
REMARK  status: ('A' for Active; 'I' for Inactive)
ROOT
ATOM      1  C1  BNZ d   1      -5.864   3.809   2.434  0.00  0.00     0.000 A 
ATOM      2  C2  BNZ d   1      -5.997   3.817   3.796  0.00  0.00     0.000 A 
ATOM      3  C3  BNZ d   1      -5.650   4.920   4.527  0.00  0.00     0.000 A 
ATOM      4  C4  BNZ d   1      -5.135   5.996   3.899  0.00  0.00     0.000 A 
ATOM      5  C5  BNZ d   1      -4.986   6.000   2.526  0.00  0.00     0.000 A 
ATOM      6  C6  BNZ d   1      -5.372   4.903   1.790  0.00  0.00     0.000 A 
ENDROOT
TORSDOF 0
ENDMDL
