MODEL 1
REMARK minimizedAffinity -2.86260247
REMARK minimizedRMSD -1
REMARK  0 active torsions:
REMARK  status: ('A' for Active; 'I' for Inactive)
ROOT
ATOM      1  C1  BNZ d   1      -5.188   4.890   1.775  0.00  0.00     0.000 A 
ATOM      2  C2  BNZ d   1      -4.571   5.949   2.387  0.00  0.00     0.000 A 
ATOM      3  C3  BNZ d   1      -4.454   5.999   3.748  0.00  0.00     0.000 A 
ATOM      4  C4  BNZ d   1      -4.989   5.013   4.497  0.00  0.00     0.000 A 
ATOM      5  C5  BNZ d   1      -5.622   3.944   3.895  0.00  0.00     0.000 A 
ATOM      6  C6  BNZ d   1      -5.704   3.877   2.523  0.00  0.00     0.000 A 
ENDROOT
TORSDOF 0
ENDMDL
