MODEL 1
REMARK minimizedAffinity -3.53831816
REMARK minimizedRMSD -1
REMARK  0 active torsions:
REMARK  status: ('A' for Active; 'I' for Inactive)
ROOT
ATOM      1  C1  BNZ d   1      -5.260   3.357   2.990  0.00  0.00     0.000 A 
ATOM      2  C2  BNZ d   1      -5.044   4.453   2.197  0.00  0.00     0.000 A 
ATOM      3  C3  BNZ d   1      -5.108   5.715   2.716  0.00  0.00     0.000 A 
ATOM      4  C4  BNZ d   1      -5.426   5.883   4.016  0.00  0.00     0.000 A 
ATOM      5  C5  BNZ d   1      -5.656   4.788   4.826  0.00  0.00     0.000 A 
ATOM      6  C6  BNZ d   1      -5.553   3.517   4.309  0.00  0.00     0.000 A 
ENDROOT
TORSDOF 0
ENDMDL
