MODEL 1
REMARK minimizedAffinity -1.53564143
REMARK minimizedRMSD -1
REMARK  0 active torsions:
REMARK  status: ('A' for Active; 'I' for Inactive)
ROOT
ATOM      1  C1  BNZ d   1      -4.891   3.903   1.884  0.00  0.00     0.000 A 
ATOM      2  C2  BNZ d   1      -4.912   3.917   3.254  0.00  0.00     0.000 A 
ATOM      3  C3  BNZ d   1      -5.485   4.955   3.934  0.00  0.00     0.000 A 
ATOM      4  C4  BNZ d   1      -6.000   5.995   3.247  0.00  0.00     0.000 A 
ATOM      5  C5  BNZ d   1      -5.978   6.000   1.867  0.00  0.00     0.000 A 
ATOM      6  C6  BNZ d   1      -5.435   4.936   1.184  0.00  0.00     0.000 A 
ENDROOT
TORSDOF 0
ENDMDL
