MODEL 1
REMARK minimizedAffinity -4.08353138
REMARK minimizedRMSD -1
REMARK  0 active torsions:
REMARK  status: ('A' for Active; 'I' for Inactive)
ROOT
ATOM      1  C1  BNZ d   1      -0.971  -0.773  -0.850  0.00  0.00     0.000 A 
ATOM      2  C2  BNZ d   1      -2.274  -0.981  -0.481  0.00  0.00     0.000 A 
ATOM      3  C3  BNZ d   1      -2.582  -1.440   0.770  0.00  0.00     0.000 A 
ATOM      4  C4  BNZ d   1      -1.588  -1.728   1.634  0.00  0.00     0.000 A 
ATOM      5  C5  BNZ d   1      -0.269  -1.532   1.273  0.00  0.00     0.000 A 
ATOM      6  C6  BNZ d   1       0.036  -1.033   0.028  0.00  0.00     0.000 A 
ENDROOT
TORSDOF 0
ENDMDL
