MODEL 1
REMARK minimizedAffinity -3.23077893
REMARK minimizedRMSD -1
REMARK  0 active torsions:
REMARK  status: ('A' for Active; 'I' for Inactive)
ROOT
ATOM      1  C1  BNZ d   1      -5.631   4.474   2.101  0.00  0.00     0.000 A 
ATOM      2  C2  BNZ d   1      -5.751   5.597   2.875  0.00  0.00     0.000 A 
ATOM      3  C3  BNZ d   1      -5.871   5.502   4.233  0.00  0.00     0.000 A 
ATOM      4  C4  BNZ d   1      -5.912   4.284   4.811  0.00  0.00     0.000 A 
ATOM      5  C5  BNZ d   1      -5.801   3.142   4.044  0.00  0.00     0.000 A 
ATOM      6  C6  BNZ d   1      -5.642   3.242   2.681  0.00  0.00     0.000 A 
ENDROOT
TORSDOF 0
ENDMDL
