MODEL 1
REMARK minimizedAffinity -5.50402117
REMARK minimizedRMSD -1
REMARK  1 active torsions:
REMARK  status: ('A' for Active; 'I' for Inactive)
REMARK    1  A    between atoms: C1_2  and  C2_3 
ROOT
ATOM      1  C2  UNL d   1       0.231  -0.031   0.809  0.00  0.00    -0.077 A 
ATOM      2  C3  UNL d   1      -1.132   0.135   0.524  0.00  0.00     0.002 A 
ATOM      3  C4  UNL d   1      -2.085   0.009   1.536  0.00  0.00     0.002 A 
ATOM      4  C5  UNL d   1      -1.686  -0.278   2.840  0.00  0.00    -0.004 A 
ATOM      5  C6  UNL d   1      -0.333  -0.446   3.133  0.00  0.00     0.002 A 
ATOM      6  C7  UNL d   1       0.621  -0.322   2.122  0.00  0.00     0.002 A 
ENDROOT
BRANCH   1   7
ATOM      7  C1  UNL d   1       1.264   0.153  -0.272  0.00  0.00     0.055 C 
ATOM      8  C   UNL d   1       0.691  -0.161  -1.646  0.00  0.00     0.019 C 
ENDBRANCH   1   7
TORSDOF 1
ENDMDL
