MODEL 1
REMARK minimizedAffinity -4.77628279
REMARK minimizedRMSD -1
REMARK  1 active torsions:
REMARK  status: ('A' for Active; 'I' for Inactive)
REMARK    1  A    between atoms: C1_2  and  C2_3 
ROOT
ATOM      1  C2  UNL d   1      -0.302  -0.301   1.513  0.00  0.00    -0.077 A 
ATOM      2  C3  UNL d   1       1.031   0.099   1.678  0.00  0.00     0.002 A 
ATOM      3  C4  UNL d   1       1.821   0.399   0.567  0.00  0.00     0.002 A 
ATOM      4  C5  UNL d   1       1.287   0.304  -0.716  0.00  0.00    -0.004 A 
ATOM      5  C6  UNL d   1      -0.038  -0.095  -0.891  0.00  0.00     0.002 A 
ATOM      6  C7  UNL d   1      -0.829  -0.396   0.218  0.00  0.00     0.002 A 
ENDROOT
BRANCH   1   7
ATOM      7  C1  UNL d   1      -1.171  -0.577   2.712  0.00  0.00     0.055 C 
ATOM      8  C   UNL d   1      -2.616  -0.174   2.454  0.00  0.00     0.019 C 
ENDBRANCH   1   7
TORSDOF 1
ENDMDL
