MODEL 1
REMARK minimizedAffinity -4.57768583
REMARK minimizedRMSD -1
REMARK  1 active torsions:
REMARK  status: ('A' for Active; 'I' for Inactive)
REMARK    1  A    between atoms: C1_2  and  C2_3 
ROOT
ATOM      1  C2  UNL d   1      -0.047   0.106   1.252  0.00  0.00    -0.077 A 
ATOM      2  C3  UNL d   1      -0.013  -0.054   2.644  0.00  0.00     0.002 A 
ATOM      3  C4  UNL d   1      -1.195  -0.030   3.386  0.00  0.00     0.002 A 
ATOM      4  C5  UNL d   1      -2.419   0.148   2.745  0.00  0.00    -0.004 A 
ATOM      5  C6  UNL d   1      -2.463   0.310   1.361  0.00  0.00     0.002 A 
ATOM      6  C7  UNL d   1      -1.283   0.288   0.618  0.00  0.00     0.002 A 
ENDROOT
BRANCH   1   7
ATOM      7  C1  UNL d   1       1.222   0.032   0.444  0.00  0.00     0.055 C 
ATOM      8  C   UNL d   1       0.930   0.062  -1.050  0.00  0.00     0.019 C 
ENDBRANCH   1   7
TORSDOF 1
ENDMDL
