MODEL 1
REMARK minimizedAffinity -6.32509041
REMARK minimizedRMSD -1
REMARK  1 active torsions:
REMARK  status: ('A' for Active; 'I' for Inactive)
REMARK    1  A    between atoms: C1_2  and  C2_3 
ROOT
ATOM      1  C2  UNL d   1      -0.365   0.240   1.349  0.00  0.00    -0.077 A 
ATOM      2  C3  UNL d   1      -0.322  -0.708   2.381  0.00  0.00     0.002 A 
ATOM      3  C4  UNL d   1      -1.500  -1.286   2.859  0.00  0.00     0.002 A 
ATOM      4  C5  UNL d   1      -2.728  -0.925   2.308  0.00  0.00    -0.004 A 
ATOM      5  C6  UNL d   1      -2.781   0.018   1.283  0.00  0.00     0.002 A 
ATOM      6  C7  UNL d   1      -1.605   0.597   0.805  0.00  0.00     0.002 A 
ENDROOT
BRANCH   1   7
ATOM      7  C1  UNL d   1       0.909   0.827   0.799  0.00  0.00     0.055 C 
ATOM      8  C   UNL d   1       2.080   0.588   1.740  0.00  0.00     0.019 C 
ENDBRANCH   1   7
TORSDOF 1
ENDMDL
