MODEL 1
REMARK minimizedAffinity -5.23358202
REMARK minimizedRMSD -1
REMARK  1 active torsions:
REMARK  status: ('A' for Active; 'I' for Inactive)
REMARK    1  A    between atoms: C1_2  and  C2_3 
ROOT
ATOM      1  C2  UNL d   1       0.020  -0.460   1.486  0.00  0.00    -0.077 A 
ATOM      2  C3  UNL d   1      -1.361  -0.397   1.253  0.00  0.00     0.002 A 
ATOM      3  C4  UNL d   1      -2.262  -0.824   2.230  0.00  0.00     0.002 A 
ATOM      4  C5  UNL d   1      -1.793  -1.312   3.447  0.00  0.00    -0.004 A 
ATOM      5  C6  UNL d   1      -0.422  -1.381   3.688  0.00  0.00     0.002 A 
ATOM      6  C7  UNL d   1       0.481  -0.956   2.712  0.00  0.00     0.002 A 
ENDROOT
BRANCH   1   7
ATOM      7  C1  UNL d   1       0.993   0.046   0.453  0.00  0.00     0.055 C 
ATOM      8  C   UNL d   1       0.444  -0.126  -0.956  0.00  0.00     0.019 C 
ENDBRANCH   1   7
TORSDOF 1
ENDMDL
