MODEL 1
REMARK minimizedAffinity 0.211296171
REMARK minimizedRMSD -1
REMARK  1 active torsions:
REMARK  status: ('A' for Active; 'I' for Inactive)
REMARK    1  A    between atoms: C1_2  and  C2_3 
ROOT
ATOM      1  C2  UNL d   1       0.292  -1.068  -1.541  0.00  0.00    -0.077 A 
ATOM      2  C3  UNL d   1      -0.265  -2.145  -2.244  0.00  0.00     0.002 A 
ATOM      3  C4  UNL d   1       0.420  -2.719  -3.316  0.00  0.00     0.002 A 
ATOM      4  C5  UNL d   1       1.668  -2.225  -3.692  0.00  0.00    -0.004 A 
ATOM      5  C6  UNL d   1       2.229  -1.153  -3.001  0.00  0.00     0.002 A 
ATOM      6  C7  UNL d   1       1.545  -0.577  -1.929  0.00  0.00     0.002 A 
ENDROOT
BRANCH   1   7
ATOM      7  C1  UNL d   1      -0.424  -0.480  -0.353  0.00  0.00     0.055 C 
ATOM      8  C   UNL d   1       0.558   0.110   0.649  0.00  0.00     0.019 C 
ENDBRANCH   1   7
TORSDOF 1
ENDMDL
