MODEL 1
REMARK minimizedAffinity -4.1673522
REMARK minimizedRMSD -1
REMARK  1 active torsions:
REMARK  status: ('A' for Active; 'I' for Inactive)
REMARK    1  A    between atoms: C1_2  and  C2_3 
ROOT
ATOM      1  C2  UNL d   1      -0.447   0.634   0.261  0.00  0.00    -0.077 A 
ATOM      2  C3  UNL d   1      -1.787   0.838   0.619  0.00  0.00     0.002 A 
ATOM      3  C4  UNL d   1      -2.207   0.623   1.934  0.00  0.00     0.002 A 
ATOM      4  C5  UNL d   1      -1.293   0.208   2.900  0.00  0.00    -0.004 A 
ATOM      5  C6  UNL d   1       0.041   0.002   2.553  0.00  0.00     0.002 A 
ATOM      6  C7  UNL d   1       0.462   0.215   1.240  0.00  0.00     0.002 A 
ENDROOT
BRANCH   1   7
ATOM      7  C1  UNL d   1       0.018   0.913  -1.145  0.00  0.00     0.055 C 
ATOM      8  C   UNL d   1       0.456  -0.364  -1.846  0.00  0.00     0.019 C 
ENDBRANCH   1   7
TORSDOF 1
ENDMDL
