MODEL 1
REMARK minimizedAffinity -6.3219099
REMARK minimizedRMSD -1
REMARK  1 active torsions:
REMARK  status: ('A' for Active; 'I' for Inactive)
REMARK    1  A    between atoms: C1_2  and  C2_3 
ROOT
ATOM      1  C2  UNL d   1      -0.782   0.092   1.505  0.00  0.00    -0.077 A 
ATOM      2  C3  UNL d   1      -2.075   0.372   1.040  0.00  0.00     0.002 A 
ATOM      3  C4  UNL d   1      -3.185   0.128   1.851  0.00  0.00     0.002 A 
ATOM      4  C5  UNL d   1      -3.013  -0.394   3.131  0.00  0.00    -0.004 A 
ATOM      5  C6  UNL d   1      -1.732  -0.678   3.602  0.00  0.00     0.002 A 
ATOM      6  C7  UNL d   1      -0.621  -0.435   2.793  0.00  0.00     0.002 A 
ENDROOT
BRANCH   1   7
ATOM      7  C1  UNL d   1       0.420   0.401   0.651  0.00  0.00     0.055 C 
ATOM      8  C   UNL d   1       0.011   0.776  -0.766  0.00  0.00     0.019 C 
ENDBRANCH   1   7
TORSDOF 1
ENDMDL
