MODEL 1
REMARK minimizedAffinity -5.81931448
REMARK minimizedRMSD -1
REMARK  1 active torsions:
REMARK  status: ('A' for Active; 'I' for Inactive)
REMARK    1  A    between atoms: C1_2  and  C2_3 
ROOT
ATOM      1  C2  UNL d   1      -0.622  -0.089   1.455  0.00  0.00    -0.077 A 
ATOM      2  C3  UNL d   1      -1.889   0.340   1.032  0.00  0.00     0.002 A 
ATOM      3  C4  UNL d   1      -2.986   0.253   1.891  0.00  0.00     0.002 A 
ATOM      4  C5  UNL d   1      -2.828  -0.256   3.178  0.00  0.00    -0.004 A 
ATOM      5  C6  UNL d   1      -1.574  -0.687   3.607  0.00  0.00     0.002 A 
ATOM      6  C7  UNL d   1      -0.475  -0.603   2.750  0.00  0.00     0.002 A 
ENDROOT
BRANCH   1   7
ATOM      7  C1  UNL d   1       0.572   0.049   0.548  0.00  0.00     0.055 C 
ATOM      8  C   UNL d   1       0.149   0.344  -0.883  0.00  0.00     0.019 C 
ENDBRANCH   1   7
TORSDOF 1
ENDMDL
