MODEL 1
REMARK minimizedAffinity -0.601372659
REMARK minimizedRMSD -1
REMARK  1 active torsions:
REMARK  status: ('A' for Active; 'I' for Inactive)
REMARK    1  A    between atoms: C1_2  and  C2_3 
ROOT
ATOM      1  C2  UNL d   1      -2.599   1.177   0.802  0.00  0.00    -0.073 A 
ATOM      2  C3  UNL d   1      -3.136   0.041   0.187  0.00  0.00    -0.002 A 
ATOM      3  C4  UNL d   1      -3.562  -1.043   0.956  0.00  0.00     0.004 A 
ATOM      4  C5  UNL d   1      -3.461  -0.999   2.347  0.00  0.00    -0.004 A 
ATOM      5  C6  UNL d   1      -2.937   0.132   2.981  0.00  0.00    -0.075 A 
ATOM      6  C7  UNL d   1      -2.820   0.194   4.475  0.00  0.00     0.076 C 
ATOM      7  C8  UNL d   1      -2.510   1.216   2.201  0.00  0.00     0.001 A 
ENDROOT
BRANCH   1   8
ATOM      8  C1  UNL d   1      -2.145   2.352  -0.025  0.00  0.00     0.053 C 
ATOM      9  C   UNL d   1      -3.255   3.372  -0.225  0.00  0.00     0.018 C 
ENDBRANCH   1   8
TORSDOF 1
ENDMDL
