MODEL 1
REMARK minimizedAffinity -4.76840687
REMARK minimizedRMSD -1
REMARK  1 active torsions:
REMARK  status: ('A' for Active; 'I' for Inactive)
REMARK    1  A    between atoms: C1_2  and  C2_3 
ROOT
ATOM      1  C2  UNL d   1      -2.450   1.430   0.892  0.00  0.00    -0.073 A 
ATOM      2  C3  UNL d   1      -2.561   0.170   0.291  0.00  0.00    -0.002 A 
ATOM      3  C4  UNL d   1      -2.854  -0.955   1.063  0.00  0.00     0.004 A 
ATOM      4  C5  UNL d   1      -3.044  -0.832   2.439  0.00  0.00    -0.004 A 
ATOM      5  C6  UNL d   1      -2.949   0.419   3.056  0.00  0.00    -0.075 A 
ATOM      6  C7  UNL d   1      -3.149   0.568   4.535  0.00  0.00     0.076 C 
ATOM      7  C8  UNL d   1      -2.652   1.544   2.274  0.00  0.00     0.001 A 
ENDROOT
BRANCH   1   8
ATOM      8  C1  UNL d   1      -2.140   2.649   0.061  0.00  0.00     0.053 C 
ATOM      9  C   UNL d   1      -3.395   3.433  -0.288  0.00  0.00     0.018 C 
ENDBRANCH   1   8
TORSDOF 1
ENDMDL
