MODEL 1
REMARK minimizedAffinity -0.161465079
REMARK minimizedRMSD -1
REMARK  1 active torsions:
REMARK  status: ('A' for Active; 'I' for Inactive)
REMARK    1  A    between atoms: C1_2  and  C2_3 
ROOT
ATOM      1  C2  UNL d   1      -2.733   0.811   1.753  0.00  0.00    -0.073 A 
ATOM      2  C3  UNL d   1      -3.284   0.111   0.673  0.00  0.00    -0.002 A 
ATOM      3  C4  UNL d   1      -3.793   0.800  -0.428  0.00  0.00     0.004 A 
ATOM      4  C5  UNL d   1      -3.751   2.194  -0.464  0.00  0.00    -0.004 A 
ATOM      5  C6  UNL d   1      -3.194   2.911   0.600  0.00  0.00    -0.075 A 
ATOM      6  C7  UNL d   1      -3.143   4.410   0.577  0.00  0.00     0.076 C 
ATOM      7  C8  UNL d   1      -2.687   2.211   1.703  0.00  0.00     0.001 A 
ENDROOT
BRANCH   1   8
ATOM      8  C1  UNL d   1      -2.177   0.070   2.941  0.00  0.00     0.053 C 
ATOM      9  C   UNL d   1      -3.171  -0.932   3.506  0.00  0.00     0.018 C 
ENDBRANCH   1   8
TORSDOF 1
ENDMDL
