MODEL 1
REMARK minimizedAffinity 6.8630147
REMARK minimizedRMSD -1
REMARK  1 active torsions:
REMARK  status: ('A' for Active; 'I' for Inactive)
REMARK    1  A    between atoms: C1_2  and  C2_3 
ROOT
ATOM      1  C2  UNL d   1      -1.312   1.713  -0.860  0.00  0.00    -0.073 A 
ATOM      2  C3  UNL d   1      -2.085   0.612  -0.475  0.00  0.00    -0.002 A 
ATOM      3  C4  UNL d   1      -3.330   0.801   0.126  0.00  0.00     0.004 A 
ATOM      4  C5  UNL d   1      -3.817   2.090   0.341  0.00  0.00    -0.004 A 
ATOM      5  C6  UNL d   1      -3.065   3.203  -0.049  0.00  0.00    -0.075 A 
ATOM      6  C7  UNL d   1      -3.574   4.596   0.177  0.00  0.00     0.076 C 
ATOM      7  C8  UNL d   1      -1.814   3.005  -0.649  0.00  0.00     0.001 A 
ENDROOT
BRANCH   1   8
ATOM      8  C1  UNL d   1       0.031   1.513  -1.515  0.00  0.00     0.053 C 
ATOM      9  C   UNL d   1       0.102   0.203  -2.283  0.00  0.00     0.018 C 
ENDBRANCH   1   8
TORSDOF 1
ENDMDL
