MODEL 1
REMARK minimizedAffinity 6.77427769
REMARK minimizedRMSD -1
REMARK  1 active torsions:
REMARK  status: ('A' for Active; 'I' for Inactive)
REMARK    1  A    between atoms: C1_2  and  C2_3 
ROOT
ATOM      1  C2  UNL d   1       5.504   0.323   4.122  0.00  0.00    -0.073 A 
ATOM      2  C3  UNL d   1       5.996   0.901   5.298  0.00  0.00    -0.002 A 
ATOM      3  C4  UNL d   1       5.853   2.270   5.524  0.00  0.00     0.004 A 
ATOM      4  C5  UNL d   1       5.211   3.074   4.581  0.00  0.00    -0.004 A 
ATOM      5  C6  UNL d   1       4.703   2.513   3.405  0.00  0.00    -0.075 A 
ATOM      6  C7  UNL d   1       4.012   3.364   2.381  0.00  0.00     0.076 C 
ATOM      7  C8  UNL d   1       4.853   1.138   3.184  0.00  0.00     0.001 A 
ENDROOT
BRANCH   1   8
ATOM      8  C1  UNL d   1       5.651  -1.156   3.876  0.00  0.00     0.053 C 
ATOM      9  C   UNL d   1       5.997  -1.914   5.148  0.00  0.00     0.018 C 
ENDBRANCH   1   8
TORSDOF 1
ENDMDL
