MODEL 1
REMARK minimizedAffinity 2.14738178
REMARK minimizedRMSD -1
REMARK  1 active torsions:
REMARK  status: ('A' for Active; 'I' for Inactive)
REMARK    1  A    between atoms: C1_2  and  C2_3 
ROOT
ATOM      1  C2  UNL d   1       4.793  -0.161   2.896  0.00  0.00    -0.073 A 
ATOM      2  C3  UNL d   1       5.375  -0.439   4.138  0.00  0.00    -0.002 A 
ATOM      3  C4  UNL d   1       5.979   0.579   4.877  0.00  0.00     0.004 A 
ATOM      4  C5  UNL d   1       6.000   1.885   4.387  0.00  0.00    -0.004 A 
ATOM      5  C6  UNL d   1       5.413   2.185   3.154  0.00  0.00    -0.075 A 
ATOM      6  C7  UNL d   1       5.429   3.584   2.611  0.00  0.00     0.076 C 
ATOM      7  C8  UNL d   1       4.811   1.156   2.416  0.00  0.00     0.001 A 
ENDROOT
BRANCH   1   8
ATOM      8  C1  UNL d   1       4.134  -1.256   2.097  0.00  0.00     0.053 C 
ATOM      9  C   UNL d   1       3.412  -2.255   2.987  0.00  0.00     0.018 C 
ENDBRANCH   1   8
TORSDOF 1
ENDMDL
