MODEL 1
REMARK minimizedAffinity 2.04279637
REMARK minimizedRMSD -1
REMARK  1 active torsions:
REMARK  status: ('A' for Active; 'I' for Inactive)
REMARK    1  A    between atoms: C1_2  and  C2_3 
ROOT
ATOM      1  C2  UNL d   1       4.801   0.437   4.479  0.00  0.00    -0.073 A 
ATOM      2  C3  UNL d   1       5.999  -0.183   4.852  0.00  0.00    -0.002 A 
ATOM      3  C4  UNL d   1       6.000  -1.508   5.290  0.00  0.00     0.004 A 
ATOM      4  C5  UNL d   1       4.807  -2.228   5.353  0.00  0.00    -0.004 A 
ATOM      5  C6  UNL d   1       3.601  -1.629   4.973  0.00  0.00    -0.075 A 
ATOM      6  C7  UNL d   1       2.309  -2.389   5.036  0.00  0.00     0.076 C 
ATOM      7  C8  UNL d   1       3.608  -0.297   4.536  0.00  0.00     0.001 A 
ENDROOT
BRANCH   1   8
ATOM      8  C1  UNL d   1       4.796   1.866   3.999  0.00  0.00     0.053 C 
ATOM      9  C   UNL d   1       4.082   2.016   2.665  0.00  0.00     0.018 C 
ENDBRANCH   1   8
TORSDOF 1
ENDMDL
