MODEL 1
REMARK minimizedAffinity 3.74527359
REMARK minimizedRMSD -1
REMARK  1 active torsions:
REMARK  status: ('A' for Active; 'I' for Inactive)
REMARK    1  A    between atoms: C1_2  and  C2_3 
ROOT
ATOM      1  C2  UNL d   1      -3.146   2.352   0.191  0.00  0.00    -0.073 A 
ATOM      2  C3  UNL d   1      -4.174   3.259   0.473  0.00  0.00    -0.002 A 
ATOM      3  C4  UNL d   1      -3.894   4.618   0.621  0.00  0.00     0.004 A 
ATOM      4  C5  UNL d   1      -2.587   5.085   0.481  0.00  0.00    -0.004 A 
ATOM      5  C6  UNL d   1      -1.548   4.196   0.186  0.00  0.00    -0.075 A 
ATOM      6  C7  UNL d   1      -0.137   4.682   0.035  0.00  0.00     0.076 C 
ATOM      7  C8  UNL d   1      -1.837   2.832   0.043  0.00  0.00     0.001 A 
ENDROOT
BRANCH   1   8
ATOM      8  C1  UNL d   1      -3.444   0.884   0.024  0.00  0.00     0.053 C 
ATOM      9  C   UNL d   1      -3.727   0.206   1.355  0.00  0.00     0.018 C 
ENDBRANCH   1   8
TORSDOF 1
ENDMDL
