MODEL 1
REMARK minimizedAffinity 3.73493481
REMARK minimizedRMSD -1
REMARK  1 active torsions:
REMARK  status: ('A' for Active; 'I' for Inactive)
REMARK    1  A    between atoms: C1_2  and  C2_3 
ROOT
ATOM      1  C2  UNL d   1       3.843  -0.156   3.721  0.00  0.00    -0.073 A 
ATOM      2  C3  UNL d   1       4.922   0.087   4.578  0.00  0.00    -0.002 A 
ATOM      3  C4  UNL d   1       5.593   1.310   4.538  0.00  0.00     0.004 A 
ATOM      4  C5  UNL d   1       5.189   2.303   3.647  0.00  0.00    -0.004 A 
ATOM      5  C6  UNL d   1       4.105   2.084   2.790  0.00  0.00    -0.075 A 
ATOM      6  C7  UNL d   1       3.659   3.142   1.824  0.00  0.00     0.076 C 
ATOM      7  C8  UNL d   1       3.438   0.853   2.835  0.00  0.00     0.001 A 
ENDROOT
BRANCH   1   8
ATOM      8  C1  UNL d   1       3.111  -1.472   3.765  0.00  0.00     0.053 C 
ATOM      9  C   UNL d   1       2.937  -2.075   2.380  0.00  0.00     0.018 C 
ENDBRANCH   1   8
TORSDOF 1
ENDMDL
