MODEL 1
REMARK minimizedAffinity -1.52450609
REMARK minimizedRMSD -1
REMARK  1 active torsions:
REMARK  status: ('A' for Active; 'I' for Inactive)
REMARK    1  A    between atoms: C1_2  and  C2_3 
ROOT
ATOM      1  C2  UNL d   1      -3.113   1.894   0.472  0.00  0.00    -0.073 A 
ATOM      2  C3  UNL d   1      -3.782   1.087  -0.455  0.00  0.00    -0.002 A 
ATOM      3  C4  UNL d   1      -4.084  -0.240  -0.145  0.00  0.00     0.004 A 
ATOM      4  C5  UNL d   1      -3.726  -0.771   1.094  0.00  0.00    -0.004 A 
ATOM      5  C6  UNL d   1      -3.067   0.024   2.038  0.00  0.00    -0.075 A 
ATOM      6  C7  UNL d   1      -2.673  -0.532   3.375  0.00  0.00     0.076 C 
ATOM      7  C8  UNL d   1      -2.765   1.355   1.719  0.00  0.00     0.001 A 
ENDROOT
BRANCH   1   8
ATOM      8  C1  UNL d   1      -2.791   3.330   0.145  0.00  0.00     0.053 C 
ATOM      9  C   UNL d   1      -3.378   4.292   1.165  0.00  0.00     0.018 C 
ENDBRANCH   1   8
TORSDOF 1
ENDMDL
