MODEL 1
REMARK minimizedAffinity 9.8087101
REMARK minimizedRMSD -1
REMARK  1 active torsions:
REMARK  status: ('A' for Active; 'I' for Inactive)
REMARK    1  A    between atoms: C1_2  and  C2_3 
ROOT
ATOM      1  C2  UNL d   1       1.291  -1.561  -0.651  0.00  0.00    -0.073 A 
ATOM      2  C3  UNL d   1       1.120  -0.193  -0.408  0.00  0.00    -0.002 A 
ATOM      3  C4  UNL d   1      -0.149   0.383  -0.486  0.00  0.00     0.004 A 
ATOM      4  C5  UNL d   1      -1.258  -0.402  -0.801  0.00  0.00    -0.004 A 
ATOM      5  C6  UNL d   1      -1.109  -1.773  -1.037  0.00  0.00    -0.075 A 
ATOM      6  C7  UNL d   1      -2.291  -2.630  -1.379  0.00  0.00     0.076 C 
ATOM      7  C8  UNL d   1       0.169  -2.343  -0.959  0.00  0.00     0.001 A 
ENDROOT
BRANCH   1   8
ATOM      8  C1  UNL d   1       2.658  -2.188  -0.562  0.00  0.00     0.053 C 
ATOM      9  C   UNL d   1       3.328  -2.292  -1.923  0.00  0.00     0.018 C 
ENDBRANCH   1   8
TORSDOF 1
ENDMDL
