MODEL 1
REMARK minimizedAffinity 3.01261449
REMARK minimizedRMSD -1
REMARK  1 active torsions:
REMARK  status: ('A' for Active; 'I' for Inactive)
REMARK    1  A    between atoms: C1_2  and  C2_3 
ROOT
ATOM      1  C2  UNL d   1       0.598  -0.800  -1.227  0.00  0.00    -0.073 A 
ATOM      2  C3  UNL d   1       0.552  -0.204   0.038  0.00  0.00    -0.002 A 
ATOM      3  C4  UNL d   1      -0.491  -0.496   0.918  0.00  0.00     0.004 A 
ATOM      4  C5  UNL d   1      -1.493  -1.391   0.545  0.00  0.00    -0.004 A 
ATOM      5  C6  UNL d   1      -1.459  -2.007  -0.711  0.00  0.00    -0.075 A 
ATOM      6  C7  UNL d   1      -2.531  -2.970  -1.128  0.00  0.00     0.076 C 
ATOM      7  C8  UNL d   1      -0.410  -1.706  -1.589  0.00  0.00     0.001 A 
ENDROOT
BRANCH   1   8
ATOM      8  C1  UNL d   1       1.726  -0.493  -2.178  0.00  0.00     0.053 C 
ATOM      9  C   UNL d   1       2.848  -1.514  -2.081  0.00  0.00     0.018 C 
ENDBRANCH   1   8
TORSDOF 1
ENDMDL
