MODEL 1
REMARK minimizedAffinity 4.22680283
REMARK minimizedRMSD -1
REMARK  1 active torsions:
REMARK  status: ('A' for Active; 'I' for Inactive)
REMARK    1  A    between atoms: C1_2  and  C2_3 
ROOT
ATOM      1  C2  UNL d   1      -1.245  -2.072  -1.459  0.00  0.00    -0.073 A 
ATOM      2  C3  UNL d   1      -2.427  -2.503  -0.846  0.00  0.00    -0.002 A 
ATOM      3  C4  UNL d   1      -3.303  -3.352  -1.524  0.00  0.00     0.004 A 
ATOM      4  C5  UNL d   1      -3.003  -3.784  -2.815  0.00  0.00    -0.004 A 
ATOM      5  C6  UNL d   1      -1.821  -3.374  -3.440  0.00  0.00    -0.075 A 
ATOM      6  C7  UNL d   1      -1.485  -3.828  -4.830  0.00  0.00     0.076 C 
ATOM      7  C8  UNL d   1      -0.948  -2.519  -2.754  0.00  0.00     0.001 A 
ENDROOT
BRANCH   1   8
ATOM      8  C1  UNL d   1      -0.293  -1.160  -0.729  0.00  0.00     0.053 C 
ATOM      9  C   UNL d   1      -0.995  -0.342   0.343  0.00  0.00     0.018 C 
ENDBRANCH   1   8
TORSDOF 1
ENDMDL
