MODEL 1
REMARK minimizedAffinity 5.05333138
REMARK minimizedRMSD -1
REMARK  1 active torsions:
REMARK  status: ('A' for Active; 'I' for Inactive)
REMARK    1  A    between atoms: C1_2  and  C2_3 
ROOT
ATOM      1  C2  UNL d   1      -0.673  -1.620  -1.168  0.00  0.00    -0.073 A 
ATOM      2  C3  UNL d   1       0.460  -1.545  -1.987  0.00  0.00    -0.002 A 
ATOM      3  C4  UNL d   1       1.103  -0.323  -2.190  0.00  0.00     0.004 A 
ATOM      4  C5  UNL d   1       0.625   0.833  -1.572  0.00  0.00    -0.004 A 
ATOM      5  C6  UNL d   1      -0.498   0.776  -0.741  0.00  0.00    -0.075 A 
ATOM      6  C7  UNL d   1      -1.026   2.011  -0.072  0.00  0.00     0.076 C 
ATOM      7  C8  UNL d   1      -1.140  -0.454  -0.545  0.00  0.00     0.001 A 
ENDROOT
BRANCH   1   8
ATOM      8  C1  UNL d   1      -1.367  -2.938  -0.941  0.00  0.00     0.053 C 
ATOM      9  C   UNL d   1      -2.218  -3.347  -2.133  0.00  0.00     0.018 C 
ENDBRANCH   1   8
TORSDOF 1
ENDMDL
