MODEL 1
REMARK minimizedAffinity 7.20118237
REMARK minimizedRMSD -1
REMARK  1 active torsions:
REMARK  status: ('A' for Active; 'I' for Inactive)
REMARK    1  A    between atoms: C1_2  and  C2_3 
ROOT
ATOM      1  C2  UNL d   1      -1.840  -1.362   0.236  0.00  0.00    -0.073 A 
ATOM      2  C3  UNL d   1      -0.839  -1.308  -0.741  0.00  0.00    -0.002 A 
ATOM      3  C4  UNL d   1      -0.988  -2.006  -1.940  0.00  0.00     0.004 A 
ATOM      4  C5  UNL d   1      -2.138  -2.758  -2.177  0.00  0.00    -0.004 A 
ATOM      5  C6  UNL d   1      -3.154  -2.815  -1.218  0.00  0.00    -0.075 A 
ATOM      6  C7  UNL d   1      -4.397  -3.621  -1.457  0.00  0.00     0.076 C 
ATOM      7  C8  UNL d   1      -2.997  -2.113  -0.015  0.00  0.00     0.001 A 
ENDROOT
BRANCH   1   8
ATOM      8  C1  UNL d   1      -1.687  -0.605   1.530  0.00  0.00     0.053 C 
ATOM      9  C   UNL d   1      -2.920  -0.728   2.411  0.00  0.00     0.018 C 
ENDBRANCH   1   8
TORSDOF 1
ENDMDL
