MODEL 1
REMARK minimizedAffinity 10.7166204
REMARK minimizedRMSD -1
REMARK  1 active torsions:
REMARK  status: ('A' for Active; 'I' for Inactive)
REMARK    1  A    between atoms: C1_2  and  C2_3 
ROOT
ATOM      1  C2  UNL d   1      -3.097   0.206   1.799  0.00  0.00    -0.073 A 
ATOM      2  C3  UNL d   1      -4.029   1.160   2.224  0.00  0.00    -0.002 A 
ATOM      3  C4  UNL d   1      -4.548   1.111   3.518  0.00  0.00     0.004 A 
ATOM      4  C5  UNL d   1      -4.136   0.114   4.403  0.00  0.00    -0.004 A 
ATOM      5  C6  UNL d   1      -3.196  -0.840   4.001  0.00  0.00    -0.075 A 
ATOM      6  C7  UNL d   1      -2.743  -1.920   4.940  0.00  0.00     0.076 C 
ATOM      7  C8  UNL d   1      -2.682  -0.786   2.699  0.00  0.00     0.001 A 
ENDROOT
BRANCH   1   8
ATOM      8  C1  UNL d   1      -2.529   0.259   0.404  0.00  0.00     0.053 C 
ATOM      9  C   UNL d   1      -1.456  -0.796   0.186  0.00  0.00     0.018 C 
ENDBRANCH   1   8
TORSDOF 1
ENDMDL
