MODEL 1
REMARK minimizedAffinity 0.733005047
REMARK minimizedRMSD -1
REMARK  1 active torsions:
REMARK  status: ('A' for Active; 'I' for Inactive)
REMARK    1  A    between atoms: C1_2  and  C2_3 
ROOT
ATOM      1  C2  UNL d   1      -3.175  -0.795   4.026  0.00  0.00    -0.073 A 
ATOM      2  C3  UNL d   1      -2.498  -0.656   2.809  0.00  0.00    -0.002 A 
ATOM      3  C4  UNL d   1      -2.877   0.333   1.901  0.00  0.00     0.004 A 
ATOM      4  C5  UNL d   1      -3.930   1.196   2.201  0.00  0.00    -0.004 A 
ATOM      5  C6  UNL d   1      -4.612   1.081   3.417  0.00  0.00    -0.075 A 
ATOM      6  C7  UNL d   1      -5.749   2.000   3.755  0.00  0.00     0.076 C 
ATOM      7  C8  UNL d   1      -4.227   0.083   4.323  0.00  0.00     0.001 A 
ENDROOT
BRANCH   1   8
ATOM      8  C1  UNL d   1      -2.765  -1.857   5.013  0.00  0.00     0.053 C 
ATOM      9  C   UNL d   1      -3.967  -2.555   5.631  0.00  0.00     0.018 C 
ENDBRANCH   1   8
TORSDOF 1
ENDMDL
