MODEL 1
REMARK minimizedAffinity 4.97170258
REMARK minimizedRMSD -1
REMARK  1 active torsions:
REMARK  status: ('A' for Active; 'I' for Inactive)
REMARK    1  A    between atoms: C1_2  and  C2_3 
ROOT
ATOM      1  C2  UNL d   1      -2.074  -2.929  -2.818  0.00  0.00    -0.073 A 
ATOM      2  C3  UNL d   1      -3.317  -3.310  -2.299  0.00  0.00    -0.002 A 
ATOM      3  C4  UNL d   1      -3.717  -2.872  -1.036  0.00  0.00     0.004 A 
ATOM      4  C5  UNL d   1      -2.884  -2.046  -0.283  0.00  0.00    -0.004 A 
ATOM      5  C6  UNL d   1      -1.643  -1.645  -0.789  0.00  0.00    -0.075 A 
ATOM      6  C7  UNL d   1      -0.734  -0.758   0.010  0.00  0.00     0.076 C 
ATOM      7  C8  UNL d   1      -1.247  -2.090  -2.057  0.00  0.00     0.001 A 
ENDROOT
BRANCH   1   8
ATOM      8  C1  UNL d   1      -1.640  -3.393  -4.185  0.00  0.00     0.053 C 
ATOM      9  C   UNL d   1      -2.096  -4.814  -4.475  0.00  0.00     0.018 C 
ENDBRANCH   1   8
TORSDOF 1
ENDMDL
