MODEL 1
REMARK minimizedAffinity 1.62254047
REMARK minimizedRMSD -1
REMARK  1 active torsions:
REMARK  status: ('A' for Active; 'I' for Inactive)
REMARK    1  A    between atoms: C1_2  and  C2_3 
ROOT
ATOM      1  C2  UNL d   1      -1.860  -0.546   1.384  0.00  0.00    -0.073 A 
ATOM      2  C3  UNL d   1      -0.620   0.022   1.070  0.00  0.00    -0.002 A 
ATOM      3  C4  UNL d   1       0.055  -0.357  -0.091  0.00  0.00     0.004 A 
ATOM      4  C5  UNL d   1      -0.505  -1.301  -0.952  0.00  0.00    -0.004 A 
ATOM      5  C6  UNL d   1      -1.748  -1.871  -0.661  0.00  0.00    -0.075 A 
ATOM      6  C7  UNL d   1      -2.362  -2.890  -1.576  0.00  0.00     0.076 C 
ATOM      7  C8  UNL d   1      -2.419  -1.488   0.508  0.00  0.00     0.001 A 
ENDROOT
BRANCH   1   8
ATOM      8  C1  UNL d   1      -2.596  -0.135   2.634  0.00  0.00     0.053 C 
ATOM      9  C   UNL d   1      -3.792   0.751   2.325  0.00  0.00     0.018 C 
ENDBRANCH   1   8
TORSDOF 1
ENDMDL
