MODEL 1
REMARK minimizedAffinity 8.24299622
REMARK minimizedRMSD -1
REMARK  1 active torsions:
REMARK  status: ('A' for Active; 'I' for Inactive)
REMARK    1  A    between atoms: C1_2  and  C2_3 
ROOT
ATOM      1  C2  UNL d   1      -2.418   0.212   1.300  0.00  0.00    -0.073 A 
ATOM      2  C3  UNL d   1      -1.977  -0.671   2.292  0.00  0.00    -0.002 A 
ATOM      3  C4  UNL d   1      -2.675  -0.786   3.495  0.00  0.00     0.004 A 
ATOM      4  C5  UNL d   1      -3.822  -0.024   3.716  0.00  0.00    -0.004 A 
ATOM      5  C6  UNL d   1      -4.286   0.855   2.732  0.00  0.00    -0.075 A 
ATOM      6  C7  UNL d   1      -5.518   1.683   2.955  0.00  0.00     0.076 C 
ATOM      7  C8  UNL d   1      -3.578   0.966   1.528  0.00  0.00     0.001 A 
ENDROOT
BRANCH   1   8
ATOM      8  C1  UNL d   1      -1.672   0.334  -0.003  0.00  0.00     0.053 C 
ATOM      9  C   UNL d   1      -0.788  -0.874  -0.270  0.00  0.00     0.018 C 
ENDBRANCH   1   8
TORSDOF 1
ENDMDL
