MODEL 1
REMARK minimizedAffinity 10.3146772
REMARK minimizedRMSD -1
REMARK  1 active torsions:
REMARK  status: ('A' for Active; 'I' for Inactive)
REMARK    1  A    between atoms: C1_2  and  C2_3 
ROOT
ATOM      1  C2  UNL d   1      -2.160  -2.724  -1.486  0.00  0.00    -0.073 A 
ATOM      2  C3  UNL d   1      -1.263  -2.541  -2.544  0.00  0.00    -0.002 A 
ATOM      3  C4  UNL d   1      -0.238  -1.599  -2.445  0.00  0.00     0.004 A 
ATOM      4  C5  UNL d   1      -0.096  -0.836  -1.286  0.00  0.00    -0.004 A 
ATOM      5  C6  UNL d   1      -0.975  -1.013  -0.213  0.00  0.00    -0.075 A 
ATOM      6  C7  UNL d   1      -0.837  -0.199   1.040  0.00  0.00     0.076 C 
ATOM      7  C8  UNL d   1      -2.003  -1.959  -0.321  0.00  0.00     0.001 A 
ENDROOT
BRANCH   1   8
ATOM      8  C1  UNL d   1      -3.264  -3.745  -1.586  0.00  0.00     0.053 C 
ATOM      9  C   UNL d   1      -4.586  -3.209  -1.059  0.00  0.00     0.018 C 
ENDBRANCH   1   8
TORSDOF 1
ENDMDL
