MODEL 1
REMARK minimizedAffinity 5.28440332
REMARK minimizedRMSD -1
REMARK  1 active torsions:
REMARK  status: ('A' for Active; 'I' for Inactive)
REMARK    1  A    between atoms: C1_2  and  C2_3 
ROOT
ATOM      1  C2  UNL d   1       5.995  -4.287   4.214  0.00  0.00    -0.073 A 
ATOM      2  C3  UNL d   1       5.991  -3.103   4.959  0.00  0.00    -0.002 A 
ATOM      3  C4  UNL d   1       5.996  -1.865   4.314  0.00  0.00     0.004 A 
ATOM      4  C5  UNL d   1       5.998  -1.799   2.921  0.00  0.00    -0.004 A 
ATOM      5  C6  UNL d   1       5.990  -2.972   2.159  0.00  0.00    -0.075 A 
ATOM      6  C7  UNL d   1       5.995  -2.918   0.660  0.00  0.00     0.076 C 
ATOM      7  C8  UNL d   1       5.988  -4.211   2.814  0.00  0.00     0.001 A 
ENDROOT
BRANCH   1   8
ATOM      8  C1  UNL d   1       5.983  -5.626   4.905  0.00  0.00     0.053 C 
ATOM      9  C   UNL d   1       4.914  -5.701   5.984  0.00  0.00     0.018 C 
ENDBRANCH   1   8
TORSDOF 1
ENDMDL
