MODEL 1
REMARK minimizedAffinity 14.7699785
REMARK minimizedRMSD -1
REMARK  1 active torsions:
REMARK  status: ('A' for Active; 'I' for Inactive)
REMARK    1  A    between atoms: C1_2  and  C2_3 
ROOT
ATOM      1  C2  UNL d   1       0.620  -0.931  -1.452  0.00  0.00    -0.073 A 
ATOM      2  C3  UNL d   1       0.601  -0.333  -0.187  0.00  0.00    -0.002 A 
ATOM      3  C4  UNL d   1      -0.472  -0.550   0.678  0.00  0.00     0.004 A 
ATOM      4  C5  UNL d   1      -1.531  -1.371   0.292  0.00  0.00    -0.004 A 
ATOM      5  C6  UNL d   1      -1.525  -1.987  -0.964  0.00  0.00    -0.075 A 
ATOM      6  C7  UNL d   1      -2.657  -2.871  -1.395  0.00  0.00     0.076 C 
ATOM      7  C8  UNL d   1      -0.445  -1.762  -1.828  0.00  0.00     0.001 A 
ENDROOT
BRANCH   1   8
ATOM      8  C1  UNL d   1       1.779  -0.705  -2.388  0.00  0.00     0.053 C 
ATOM      9  C   UNL d   1       1.863   0.740  -2.854  0.00  0.00     0.018 C 
ENDBRANCH   1   8
TORSDOF 1
ENDMDL
