MODEL 1
REMARK minimizedAffinity 0.0320758522
REMARK minimizedRMSD -1
REMARK  1 active torsions:
REMARK  status: ('A' for Active; 'I' for Inactive)
REMARK    1  A    between atoms: C1_2  and  C2_3 
ROOT
ATOM      1  C2  UNL d   1       0.320   2.317   0.546  0.00  0.00    -0.073 A 
ATOM      2  C3  UNL d   1       0.668   1.683  -0.652  0.00  0.00    -0.002 A 
ATOM      3  C4  UNL d   1       0.105   0.451  -0.987  0.00  0.00     0.004 A 
ATOM      4  C5  UNL d   1      -0.815  -0.156  -0.133  0.00  0.00    -0.004 A 
ATOM      5  C6  UNL d   1      -1.184   0.467   1.064  0.00  0.00    -0.075 A 
ATOM      6  C7  UNL d   1      -2.171  -0.174   1.995  0.00  0.00     0.076 C 
ATOM      7  C8  UNL d   1      -0.612   1.703   1.395  0.00  0.00     0.001 A 
ENDROOT
BRANCH   1   8
ATOM      8  C1  UNL d   1       0.921   3.650   0.909  0.00  0.00     0.053 C 
ATOM      9  C   UNL d   1       2.425   3.562   1.113  0.00  0.00     0.018 C 
ENDBRANCH   1   8
TORSDOF 1
ENDMDL
