MODEL 1
REMARK minimizedAffinity -3.60096097
REMARK minimizedRMSD -1
REMARK  1 active torsions:
REMARK  status: ('A' for Active; 'I' for Inactive)
REMARK    1  A    between atoms: C1_2  and  C2_3 
ROOT
ATOM      1  C2  UNL d   1      -0.376   0.413  -0.081  0.00  0.00    -0.073 A 
ATOM      2  C3  UNL d   1      -1.377   0.583   0.881  0.00  0.00    -0.002 A 
ATOM      3  C4  UNL d   1      -1.904  -0.520   1.553  0.00  0.00     0.004 A 
ATOM      4  C5  UNL d   1      -1.431  -1.803   1.275  0.00  0.00    -0.004 A 
ATOM      5  C6  UNL d   1      -0.423  -1.992   0.325  0.00  0.00    -0.075 A 
ATOM      6  C7  UNL d   1       0.095  -3.365   0.013  0.00  0.00     0.076 C 
ATOM      7  C8  UNL d   1       0.100  -0.879  -0.347  0.00  0.00     0.001 A 
ENDROOT
BRANCH   1   8
ATOM      8  C1  UNL d   1       0.201   1.603  -0.805  0.00  0.00     0.053 C 
ATOM      9  C   UNL d   1       0.568   2.727   0.150  0.00  0.00     0.018 C 
ENDBRANCH   1   8
TORSDOF 1
ENDMDL
