MODEL 1
REMARK minimizedAffinity 8.40949631
REMARK minimizedRMSD -1
REMARK  2 active torsions:
REMARK  status: ('A' for Active; 'I' for Inactive)
REMARK    1  A    between atoms: C1_2  and  C2_3 
REMARK    2  A    between atoms: C2_3  and  C3_4 
ROOT
ATOM      1  C3  UNL d   1       0.722  -2.411   4.084  0.00  0.00    -0.075 A 
ATOM      2  C4  UNL d   1      -0.492  -3.113   4.083  0.00  0.00     0.002 A 
ATOM      3  C5  UNL d   1      -0.742  -4.098   5.039  0.00  0.00     0.002 A 
ATOM      4  C6  UNL d   1       0.221  -4.401   5.999  0.00  0.00    -0.004 A 
ATOM      5  C7  UNL d   1       1.437  -3.722   5.999  0.00  0.00     0.002 A 
ATOM      6  C8  UNL d   1       1.688  -2.732   5.047  0.00  0.00     0.002 A 
ENDROOT
BRANCH   1   7
ATOM      7  C2  UNL d   1       0.986  -1.323   3.071  0.00  0.00     0.056 C 
BRANCH   7   8
ATOM      8  C1  UNL d   1       0.221  -0.023   3.338  0.00  0.00     0.007 C 
ATOM      9  C   UNL d   1       1.055   1.026   4.063  0.00  0.00     0.009 C 
ENDBRANCH   7   8
ENDBRANCH   1   7
TORSDOF 2
ENDMDL
