MODEL 1
REMARK minimizedAffinity 0.959298253
REMARK minimizedRMSD -1
REMARK  2 active torsions:
REMARK  status: ('A' for Active; 'I' for Inactive)
REMARK    1  A    between atoms: C1_2  and  C2_3 
REMARK    2  A    between atoms: C2_3  and  C3_4 
ROOT
ATOM      1  C3  UNL d   1       1.816  -0.247  -0.527  0.00  0.00    -0.075 A 
ATOM      2  C4  UNL d   1       2.343  -1.541  -0.412  0.00  0.00     0.002 A 
ATOM      3  C5  UNL d   1       1.512  -2.657  -0.518  0.00  0.00     0.002 A 
ATOM      4  C6  UNL d   1       0.145  -2.493  -0.730  0.00  0.00    -0.004 A 
ATOM      5  C7  UNL d   1      -0.392  -1.211  -0.829  0.00  0.00     0.002 A 
ATOM      6  C8  UNL d   1       0.437  -0.094  -0.728  0.00  0.00     0.002 A 
ENDROOT
BRANCH   1   7
ATOM      7  C2  UNL d   1       2.714   0.964  -0.442  0.00  0.00     0.056 C 
BRANCH   7   8
ATOM      8  C1  UNL d   1       4.044   0.807  -1.187  0.00  0.00     0.007 C 
ATOM      9  C   UNL d   1       5.086   1.840  -0.779  0.00  0.00     0.009 C 
ENDBRANCH   7   8
ENDBRANCH   1   7
TORSDOF 2
ENDMDL
