MODEL 1
REMARK minimizedAffinity 11.7766066
REMARK minimizedRMSD -1
REMARK  2 active torsions:
REMARK  status: ('A' for Active; 'I' for Inactive)
REMARK    1  A    between atoms: C1_2  and  C2_3 
REMARK    2  A    between atoms: C2_3  and  C3_4 
ROOT
ATOM      1  C3  UNL d   1      -2.646   0.704  -1.219  0.00  0.00    -0.075 A 
ATOM      2  C4  UNL d   1      -2.128   1.477  -2.269  0.00  0.00     0.002 A 
ATOM      3  C5  UNL d   1      -2.022   0.946  -3.554  0.00  0.00     0.002 A 
ATOM      4  C6  UNL d   1      -2.422  -0.364  -3.805  0.00  0.00    -0.004 A 
ATOM      5  C7  UNL d   1      -2.923  -1.147  -2.767  0.00  0.00     0.002 A 
ATOM      6  C8  UNL d   1      -3.034  -0.617  -1.480  0.00  0.00     0.002 A 
ENDROOT
BRANCH   1   7
ATOM      7  C2  UNL d   1      -2.791   1.283   0.168  0.00  0.00     0.056 C 
BRANCH   7   8
ATOM      8  C1  UNL d   1      -4.117   2.013   0.404  0.00  0.00     0.007 C 
ATOM      9  C   UNL d   1      -3.936   3.449   0.877  0.00  0.00     0.009 C 
ENDBRANCH   7   8
ENDBRANCH   1   7
TORSDOF 2
ENDMDL
