MODEL 1
REMARK minimizedAffinity 7.62542868
REMARK minimizedRMSD -1
REMARK  2 active torsions:
REMARK  status: ('A' for Active; 'I' for Inactive)
REMARK    1  A    between atoms: C1_2  and  C2_3 
REMARK    2  A    between atoms: C2_3  and  C3_4 
ROOT
ATOM      1  C3  UNL d   1       3.502   0.276  -1.498  0.00  0.00    -0.075 A 
ATOM      2  C4  UNL d   1       4.195   0.349  -2.715  0.00  0.00     0.002 A 
ATOM      3  C5  UNL d   1       4.595   1.583  -3.229  0.00  0.00     0.002 A 
ATOM      4  C6  UNL d   1       4.300   2.757  -2.539  0.00  0.00    -0.004 A 
ATOM      5  C7  UNL d   1       3.598   2.697  -1.338  0.00  0.00     0.002 A 
ATOM      6  C8  UNL d   1       3.200   1.464  -0.819  0.00  0.00     0.002 A 
ENDROOT
BRANCH   1   7
ATOM      7  C2  UNL d   1       3.092  -1.058  -0.922  0.00  0.00     0.056 C 
BRANCH   7   8
ATOM      8  C1  UNL d   1       3.573  -1.292   0.515  0.00  0.00     0.007 C 
ATOM      9  C   UNL d   1       2.835  -2.423   1.218  0.00  0.00     0.009 C 
ENDBRANCH   7   8
ENDBRANCH   1   7
TORSDOF 2
ENDMDL
