MODEL 1
REMARK minimizedAffinity 7.11159801
REMARK minimizedRMSD -1
REMARK  2 active torsions:
REMARK  status: ('A' for Active; 'I' for Inactive)
REMARK    1  A    between atoms: C1_2  and  C2_3 
REMARK    2  A    between atoms: C2_3  and  C3_4 
ROOT
ATOM      1  C3  UNL d   1       3.912   1.862   0.705  0.00  0.00    -0.075 A 
ATOM      2  C4  UNL d   1       4.178   2.227  -0.623  0.00  0.00     0.002 A 
ATOM      3  C5  UNL d   1       3.709   1.447  -1.680  0.00  0.00     0.002 A 
ATOM      4  C6  UNL d   1       2.977   0.290  -1.424  0.00  0.00    -0.004 A 
ATOM      5  C7  UNL d   1       2.721  -0.092  -0.109  0.00  0.00     0.002 A 
ATOM      6  C8  UNL d   1       3.186   0.689   0.950  0.00  0.00     0.002 A 
ENDROOT
BRANCH   1   7
ATOM      7  C2  UNL d   1       4.392   2.717   1.853  0.00  0.00     0.056 C 
BRANCH   7   8
ATOM      8  C1  UNL d   1       3.652   2.465   3.170  0.00  0.00     0.007 C 
ATOM      9  C   UNL d   1       2.505   3.438   3.410  0.00  0.00     0.009 C 
ENDBRANCH   7   8
ENDBRANCH   1   7
TORSDOF 2
ENDMDL
