MODEL 1
REMARK minimizedAffinity 11.2609863
REMARK minimizedRMSD -1
REMARK  2 active torsions:
REMARK  status: ('A' for Active; 'I' for Inactive)
REMARK    1  A    between atoms: C1_2  and  C2_3 
REMARK    2  A    between atoms: C2_3  and  C3_4 
ROOT
ATOM      1  C3  UNL d   1       4.301   3.004  -0.561  0.00  0.00    -0.075 A 
ATOM      2  C4  UNL d   1       4.492   2.643   0.781  0.00  0.00     0.002 A 
ATOM      3  C5  UNL d   1       4.141   1.369   1.228  0.00  0.00     0.002 A 
ATOM      4  C6  UNL d   1       3.587   0.446   0.345  0.00  0.00    -0.004 A 
ATOM      5  C7  UNL d   1       3.377   0.799  -0.986  0.00  0.00     0.002 A 
ATOM      6  C8  UNL d   1       3.731   2.071  -1.438  0.00  0.00     0.002 A 
ENDROOT
BRANCH   1   7
ATOM      7  C2  UNL d   1       4.706   4.371  -1.058  0.00  0.00     0.056 C 
BRANCH   7   8
ATOM      8  C1  UNL d   1       5.970   4.928  -0.394  0.00  0.00     0.007 C 
ATOM      9  C   UNL d   1       5.678   5.999   0.648  0.00  0.00     0.009 C 
ENDBRANCH   7   8
ENDBRANCH   1   7
TORSDOF 2
ENDMDL
