MODEL 1
REMARK minimizedAffinity 3.90850163
REMARK minimizedRMSD -1
REMARK  2 active torsions:
REMARK  status: ('A' for Active; 'I' for Inactive)
REMARK    1  A    between atoms: C1_2  and  C2_3 
REMARK    2  A    between atoms: C2_3  and  C3_4 
ROOT
ATOM      1  C3  UNL d   1       4.486   3.043   0.566  0.00  0.00    -0.075 A 
ATOM      2  C4  UNL d   1       3.944   2.200   1.547  0.00  0.00     0.002 A 
ATOM      3  C5  UNL d   1       3.205   1.074   1.183  0.00  0.00     0.002 A 
ATOM      4  C6  UNL d   1       2.991   0.782  -0.162  0.00  0.00    -0.004 A 
ATOM      5  C7  UNL d   1       3.510   1.622  -1.145  0.00  0.00     0.002 A 
ATOM      6  C8  UNL d   1       4.254   2.747  -0.784  0.00  0.00     0.002 A 
ENDROOT
BRANCH   1   7
ATOM      7  C2  UNL d   1       5.312   4.247   0.953  0.00  0.00     0.056 C 
BRANCH   7   8
ATOM      8  C1  UNL d   1       4.939   4.848   2.312  0.00  0.00     0.007 C 
ATOM      9  C   UNL d   1       5.845   6.000   2.727  0.00  0.00     0.009 C 
ENDBRANCH   7   8
ENDBRANCH   1   7
TORSDOF 2
ENDMDL
