MODEL 1
REMARK minimizedAffinity -1.53235722
REMARK minimizedRMSD -1
REMARK  1 active torsions:
REMARK  status: ('A' for Active; 'I' for Inactive)
REMARK    1  A    between atoms: N_2  and  C1_3 
ROOT
ATOM      1  C1  UNL d   1      -0.758   0.864  -1.809  0.00  0.00     0.143 A 
ATOM      2  C2  UNL d   1      -1.895   1.614  -2.126  0.00  0.00    -0.057 A 
ATOM      3  C3  UNL d   1      -1.796   2.823  -2.825  0.00  0.00     0.033 A 
ATOM      4  C4  UNL d   1      -0.551   3.320  -3.194  0.00  0.00    -0.042 A 
ATOM      5  C5  UNL d   1       0.595   2.604  -2.868  0.00  0.00     0.033 A 
ATOM      6  C6  UNL d   1       0.490   1.393  -2.176  0.00  0.00    -0.057 A 
ENDROOT
BRANCH   1   7
ATOM      7  N   UNL d   1      -0.783  -0.296  -1.031  0.00  0.00    -0.732 N 
ATOM      8  C   UNL d   1      -1.473  -0.316   0.241  0.00  0.00     0.284 C 
ATOM      9  H3  UNL d   1      -0.917  -1.136  -1.589  0.00  0.00     0.395 HD
ENDBRANCH   1   7
TORSDOF 1
ENDMDL
