MODEL 1
REMARK minimizedAffinity -1.85531878
REMARK minimizedRMSD -1
REMARK  1 active torsions:
REMARK  status: ('A' for Active; 'I' for Inactive)
REMARK    1  A    between atoms: N_2  and  C1_3 
ROOT
ATOM      1  C1  UNL d   1      -0.665   0.345  -1.084  0.00  0.00     0.143 A 
ATOM      2  C2  UNL d   1       0.528  -0.381  -1.002  0.00  0.00    -0.057 A 
ATOM      3  C3  UNL d   1       0.956  -0.941   0.207  0.00  0.00     0.033 A 
ATOM      4  C4  UNL d   1       0.211  -0.758   1.368  0.00  0.00    -0.042 A 
ATOM      5  C5  UNL d   1      -0.965  -0.018   1.316  0.00  0.00     0.033 A 
ATOM      6  C6  UNL d   1      -1.391   0.532   0.103  0.00  0.00    -0.057 A 
ENDROOT
BRANCH   1   7
ATOM      7  N   UNL d   1      -1.095   1.009  -2.235  0.00  0.00    -0.732 N 
ATOM      8  C   UNL d   1      -0.719   2.385  -2.476  0.00  0.00     0.284 C 
ATOM      9  H3  UNL d   1      -1.056   0.417  -3.062  0.00  0.00     0.395 HD
ENDBRANCH   1   7
TORSDOF 1
ENDMDL
