MODEL 1
REMARK minimizedAffinity -4.6550374
REMARK minimizedRMSD -1
REMARK  1 active torsions:
REMARK  status: ('A' for Active; 'I' for Inactive)
REMARK    1  A    between atoms: N_2  and  C1_3 
ROOT
ATOM      1  C1  UNL d   1       0.221   0.091   0.465  0.00  0.00     0.143 A 
ATOM      2  C2  UNL d   1      -0.681  -0.435   1.396  0.00  0.00    -0.057 A 
ATOM      3  C3  UNL d   1      -0.261  -0.822   2.675  0.00  0.00     0.033 A 
ATOM      4  C4  UNL d   1       1.078  -0.716   3.036  0.00  0.00    -0.042 A 
ATOM      5  C5  UNL d   1       1.996  -0.218   2.118  0.00  0.00     0.033 A 
ATOM      6  C6  UNL d   1       1.570   0.172   0.845  0.00  0.00    -0.057 A 
ENDROOT
BRANCH   1   7
ATOM      7  N   UNL d   1      -0.116   0.402  -0.855  0.00  0.00    -0.732 N 
ATOM      8  C   UNL d   1      -0.112   1.774  -1.313  0.00  0.00     0.284 C 
ATOM      9  H3  UNL d   1       0.273  -0.261  -1.521  0.00  0.00     0.395 HD
ENDBRANCH   1   7
TORSDOF 1
ENDMDL
