MODEL 1
REMARK minimizedAffinity -2.64418745
REMARK minimizedRMSD -1
REMARK  1 active torsions:
REMARK  status: ('A' for Active; 'I' for Inactive)
REMARK    1  A    between atoms: N_2  and  C1_3 
ROOT
ATOM      1  C1  UNL d   1       0.271  -0.177   0.038  0.00  0.00     0.143 A 
ATOM      2  C2  UNL d   1       1.572  -0.415   0.495  0.00  0.00    -0.057 A 
ATOM      3  C3  UNL d   1       1.849  -0.543   1.861  0.00  0.00     0.033 A 
ATOM      4  C4  UNL d   1       0.831  -0.407   2.800  0.00  0.00    -0.042 A 
ATOM      5  C5  UNL d   1      -0.465  -0.146   2.370  0.00  0.00     0.033 A 
ATOM      6  C6  UNL d   1      -0.737  -0.026   1.003  0.00  0.00    -0.057 A 
ENDROOT
BRANCH   1   7
ATOM      7  N   UNL d   1      -0.053   0.057  -1.301  0.00  0.00    -0.732 N 
ATOM      8  C   UNL d   1      -0.320   1.400  -1.770  0.00  0.00     0.284 C 
ATOM      9  H3  UNL d   1       0.508  -0.502  -1.940  0.00  0.00     0.395 HD
ENDBRANCH   1   7
TORSDOF 1
ENDMDL
