MODEL 1
REMARK minimizedAffinity -2.96075821
REMARK minimizedRMSD -1
REMARK  1 active torsions:
REMARK  status: ('A' for Active; 'I' for Inactive)
REMARK    1  A    between atoms: N_2  and  C1_3 
ROOT
ATOM      1  C1  UNL d   1      -0.339   0.474  -1.036  0.00  0.00     0.143 A 
ATOM      2  C2  UNL d   1       1.006   0.118  -0.896  0.00  0.00    -0.057 A 
ATOM      3  C3  UNL d   1       1.518  -0.322   0.330  0.00  0.00     0.033 A 
ATOM      4  C4  UNL d   1       0.696  -0.385   1.451  0.00  0.00    -0.042 A 
ATOM      5  C5  UNL d   1      -0.639  -0.012   1.342  0.00  0.00     0.033 A 
ATOM      6  C6  UNL d   1      -1.145   0.420   0.112  0.00  0.00    -0.057 A 
ENDROOT
BRANCH   1   7
ATOM      7  N   UNL d   1      -0.884   1.013  -2.204  0.00  0.00    -0.732 N 
ATOM      8  C   UNL d   1      -0.561   2.362  -2.614  0.00  0.00     0.284 C 
ATOM      9  H3  UNL d   1      -0.908   0.340  -2.967  0.00  0.00     0.395 HD
ENDBRANCH   1   7
TORSDOF 1
ENDMDL
