MODEL 1
REMARK minimizedAffinity -4.15415716
REMARK minimizedRMSD -1
REMARK  1 active torsions:
REMARK  status: ('A' for Active; 'I' for Inactive)
REMARK    1  A    between atoms: N_2  and  C1_3 
ROOT
ATOM      1  C1  UNL d   1       0.204   0.356  -0.593  0.00  0.00     0.143 A 
ATOM      2  C2  UNL d   1      -1.056   0.421   0.011  0.00  0.00    -0.057 A 
ATOM      3  C3  UNL d   1      -1.232   0.096   1.362  0.00  0.00     0.033 A 
ATOM      4  C4  UNL d   1      -0.151  -0.329   2.127  0.00  0.00    -0.042 A 
ATOM      5  C5  UNL d   1       1.106  -0.425   1.542  0.00  0.00     0.033 A 
ATOM      6  C6  UNL d   1       1.276  -0.092   0.194  0.00  0.00    -0.057 A 
ENDROOT
BRANCH   1   7
ATOM      7  N   UNL d   1       0.425   0.571  -1.955  0.00  0.00    -0.732 N 
ATOM      8  C   UNL d   1       0.563   1.914  -2.476  0.00  0.00     0.284 C 
ATOM      9  H3  UNL d   1       1.080  -0.098  -2.353  0.00  0.00     0.395 HD
ENDBRANCH   1   7
TORSDOF 1
ENDMDL
