MODEL 1
REMARK minimizedAffinity -0.791791201
REMARK minimizedRMSD -1
REMARK  1 active torsions:
REMARK  status: ('A' for Active; 'I' for Inactive)
REMARK    1  A    between atoms: C1_2  and  C2_3 
ROOT
ATOM      1  C2  UNL d   1       0.431  -0.151  -0.096  0.00  0.00    -0.073 A 
ATOM      2  C3  UNL d   1       0.506  -0.682   1.196  0.00  0.00    -0.002 A 
ATOM      3  C4  UNL d   1      -0.283  -0.157   2.221  0.00  0.00     0.004 A 
ATOM      4  C5  UNL d   1      -1.160   0.897   1.962  0.00  0.00    -0.004 A 
ATOM      5  C6  UNL d   1      -1.258   1.433   0.673  0.00  0.00    -0.075 A 
ATOM      6  C7  UNL d   1      -2.194   2.568   0.379  0.00  0.00     0.076 C 
ATOM      7  C8  UNL d   1      -0.459   0.902  -0.349  0.00  0.00     0.001 A 
ENDROOT
BRANCH   1   8
ATOM      8  C1  UNL d   1       1.277  -0.719  -1.207  0.00  0.00     0.053 C 
ATOM      9  C   UNL d   1       1.279  -2.239  -1.202  0.00  0.00     0.018 C 
ENDBRANCH   1   8
TORSDOF 1
ENDMDL
