MODEL 1
REMARK minimizedAffinity -3.29179096
REMARK minimizedRMSD -1
REMARK  1 active torsions:
REMARK  status: ('A' for Active; 'I' for Inactive)
REMARK    1  A    between atoms: C1_2  and  C2_3 
ROOT
ATOM      1  C2  UNL d   1       0.106  -0.335  -0.443  0.00  0.00    -0.073 A 
ATOM      2  C3  UNL d   1       0.789  -0.711   0.719  0.00  0.00    -0.002 A 
ATOM      3  C4  UNL d   1       0.411  -0.191   1.958  0.00  0.00     0.004 A 
ATOM      4  C5  UNL d   1      -0.655   0.705   2.048  0.00  0.00    -0.004 A 
ATOM      5  C6  UNL d   1      -1.356   1.083   0.899  0.00  0.00    -0.075 A 
ATOM      6  C7  UNL d   1      -2.504   2.047   0.978  0.00  0.00     0.076 C 
ATOM      7  C8  UNL d   1      -0.970   0.558  -0.342  0.00  0.00     0.001 A 
ENDROOT
BRANCH   1   8
ATOM      8  C1  UNL d   1       0.506  -0.900  -1.782  0.00  0.00     0.053 C 
ATOM      9  C   UNL d   1       0.881  -2.371  -1.691  0.00  0.00     0.018 C 
ENDBRANCH   1   8
TORSDOF 1
ENDMDL
