MODEL 1
REMARK minimizedAffinity -2.73089218
REMARK minimizedRMSD -1
REMARK  1 active torsions:
REMARK  status: ('A' for Active; 'I' for Inactive)
REMARK    1  A    between atoms: C1_2  and  C2_3 
ROOT
ATOM      1  C2  UNL d   1       0.086  -0.174  -0.238  0.00  0.00    -0.073 A 
ATOM      2  C3  UNL d   1      -0.318   0.858  -1.093  0.00  0.00    -0.002 A 
ATOM      3  C4  UNL d   1      -1.093   1.912  -0.608  0.00  0.00     0.004 A 
ATOM      4  C5  UNL d   1      -1.465   1.950   0.735  0.00  0.00    -0.004 A 
ATOM      5  C6  UNL d   1      -1.062   0.935   1.608  0.00  0.00    -0.075 A 
ATOM      6  C7  UNL d   1      -1.456   0.960   3.056  0.00  0.00     0.076 C 
ATOM      7  C8  UNL d   1      -0.286  -0.122   1.113  0.00  0.00     0.001 A 
ENDROOT
BRANCH   1   8
ATOM      8  C1  UNL d   1       0.928  -1.311  -0.755  0.00  0.00     0.053 C 
ATOM      9  C   UNL d   1       0.223  -2.087  -1.857  0.00  0.00     0.018 C 
ENDBRANCH   1   8
TORSDOF 1
ENDMDL
