MODEL 1
REMARK minimizedAffinity -4.30691099
REMARK minimizedRMSD -1
REMARK  1 active torsions:
REMARK  status: ('A' for Active; 'I' for Inactive)
REMARK    1  A    between atoms: C1_2  and  C2_3 
ROOT
ATOM      1  C2  UNL d   1       0.394  -1.186  -0.196  0.00  0.00    -0.073 A 
ATOM      2  C3  UNL d   1      -0.096  -1.219   1.115  0.00  0.00    -0.002 A 
ATOM      3  C4  UNL d   1      -0.730  -0.101   1.658  0.00  0.00     0.004 A 
ATOM      4  C5  UNL d   1      -0.886   1.057   0.896  0.00  0.00    -0.004 A 
ATOM      5  C6  UNL d   1      -0.414   1.105  -0.419  0.00  0.00    -0.075 A 
ATOM      6  C7  UNL d   1      -0.572   2.344  -1.251  0.00  0.00     0.076 C 
ATOM      7  C8  UNL d   1       0.224  -0.021  -0.957  0.00  0.00     0.001 A 
ENDROOT
BRANCH   1   8
ATOM      8  C1  UNL d   1       1.074  -2.393  -0.789  0.00  0.00     0.053 C 
ATOM      9  C   UNL d   1       0.271  -2.995  -1.931  0.00  0.00     0.018 C 
ENDBRANCH   1   8
TORSDOF 1
ENDMDL
