MODEL 1
REMARK minimizedAffinity -1.25943315
REMARK minimizedRMSD -1
REMARK  0 active torsions:
REMARK  status: ('A' for Active; 'I' for Inactive)
ROOT
ATOM      1  C   UNL d   1       2.173  -1.613   5.996  0.00  0.00     0.172 C 
ATOM      2  N   UNL d   1       3.392  -2.387   5.997  0.00  0.00    -0.070 N 
ATOM      3  C1  UNL d   1       3.471  -3.754   6.000  0.00  0.00    -0.004 A 
ATOM      4  C2  UNL d   1       4.804  -4.100   6.000  0.00  0.00    -0.047 A 
ATOM      5  C3  UNL d   1       5.554  -2.900   5.998  0.00  0.00    -0.047 A 
ATOM      6  C4  UNL d   1       4.655  -1.854   5.997  0.00  0.00    -0.004 A 
ENDROOT
TORSDOF 0
ENDMDL
