MODEL 1
REMARK minimizedAffinity 2.32052851
REMARK minimizedRMSD -1
REMARK  0 active torsions:
REMARK  status: ('A' for Active; 'I' for Inactive)
ROOT
ATOM      1  C   UNL d   1       1.498   0.055   1.011  0.00  0.00     0.172 C 
ATOM      2  N   UNL d   1       0.887   1.304   0.618  0.00  0.00    -0.070 N 
ATOM      3  C1  UNL d   1       1.416   2.550   0.821  0.00  0.00    -0.004 A 
ATOM      4  C2  UNL d   1       0.532   3.473   0.304  0.00  0.00    -0.047 A 
ATOM      5  C3  UNL d   1      -0.566   2.756  -0.228  0.00  0.00    -0.047 A 
ATOM      6  C4  UNL d   1      -0.320   1.415  -0.020  0.00  0.00    -0.004 A 
ENDROOT
TORSDOF 0
ENDMDL
