MODEL 1
REMARK minimizedAffinity -0.999680459
REMARK minimizedRMSD -1
REMARK  0 active torsions:
REMARK  status: ('A' for Active; 'I' for Inactive)
ROOT
ATOM      1  C   UNL d   1       0.978   0.498   0.250  0.00  0.00     0.172 C 
ATOM      2  N   UNL d   1       0.307   1.744  -0.033  0.00  0.00    -0.070 N 
ATOM      3  C1  UNL d   1      -0.993   1.875  -0.445  0.00  0.00    -0.004 A 
ATOM      4  C2  UNL d   1      -1.251   3.220  -0.604  0.00  0.00    -0.047 A 
ATOM      5  C3  UNL d   1      -0.066   3.921  -0.277  0.00  0.00    -0.047 A 
ATOM      6  C4  UNL d   1       0.882   2.983   0.073  0.00  0.00    -0.004 A 
ENDROOT
TORSDOF 0
ENDMDL
