MODEL 1
REMARK minimizedAffinity 4.56472683
REMARK minimizedRMSD -1
REMARK  0 active torsions:
REMARK  status: ('A' for Active; 'I' for Inactive)
ROOT
ATOM      1  C   UNL d   1       0.718   2.171   0.472  0.00  0.00     0.172 C 
ATOM      2  N   UNL d   1       0.339   3.395  -0.195  0.00  0.00    -0.070 N 
ATOM      3  C1  UNL d   1      -0.941   3.850  -0.361  0.00  0.00    -0.004 A 
ATOM      4  C2  UNL d   1      -0.879   5.046  -1.043  0.00  0.00    -0.047 A 
ATOM      5  C3  UNL d   1       0.486   5.318  -1.297  0.00  0.00    -0.047 A 
ATOM      6  C4  UNL d   1       1.218   4.280  -0.762  0.00  0.00    -0.004 A 
ENDROOT
TORSDOF 0
ENDMDL
