MODEL 1
REMARK minimizedAffinity 3.87436581
REMARK minimizedRMSD -1
REMARK  0 active torsions:
REMARK  status: ('A' for Active; 'I' for Inactive)
ROOT
ATOM      1  C   UNL d   1      -6.000   2.671  -4.001  0.00  0.00     0.172 C 
ATOM      2  N   UNL d   1      -5.469   3.863  -4.619  0.00  0.00    -0.070 N 
ATOM      3  C1  UNL d   1      -5.999   4.501  -5.709  0.00  0.00    -0.004 A 
ATOM      4  C2  UNL d   1      -5.205   5.593  -5.986  0.00  0.00    -0.047 A 
ATOM      5  C3  UNL d   1      -4.162   5.611  -5.031  0.00  0.00    -0.047 A 
ATOM      6  C4  UNL d   1      -4.350   4.530  -4.196  0.00  0.00    -0.004 A 
ENDROOT
TORSDOF 0
ENDMDL
