MODEL 1
REMARK minimizedAffinity -3.40086699
REMARK minimizedRMSD -1
REMARK  0 active torsions:
REMARK  status: ('A' for Active; 'I' for Inactive)
ROOT
ATOM      1  C   UNL d   1      -6.000   4.723  -5.395  0.00  0.00     0.172 C 
ATOM      2  N   UNL d   1      -5.204   3.722  -4.724  0.00  0.00    -0.070 N 
ATOM      3  C1  UNL d   1      -5.643   2.488  -4.325  0.00  0.00    -0.004 A 
ATOM      4  C2  UNL d   1      -4.586   1.837  -3.727  0.00  0.00    -0.047 A 
ATOM      5  C3  UNL d   1      -3.474   2.710  -3.765  0.00  0.00    -0.047 A 
ATOM      6  C4  UNL d   1      -3.884   3.870  -4.388  0.00  0.00    -0.004 A 
ENDROOT
TORSDOF 0
ENDMDL
