MODEL 1
REMARK minimizedAffinity 8.79263592
REMARK minimizedRMSD -1
REMARK  0 active torsions:
REMARK  status: ('A' for Active; 'I' for Inactive)
ROOT
ATOM      1  C   UNL d   1       0.605   5.321  -2.200  0.00  0.00     0.172 C 
ATOM      2  N   UNL d   1       0.132   4.263  -1.340  0.00  0.00    -0.070 N 
ATOM      3  C1  UNL d   1       0.920   3.441  -0.579  0.00  0.00    -0.004 A 
ATOM      4  C2  UNL d   1       0.093   2.569   0.095  0.00  0.00    -0.047 A 
ATOM      5  C3  UNL d   1      -1.238   2.877  -0.273  0.00  0.00    -0.047 A 
ATOM      6  C4  UNL d   1      -1.185   3.929  -1.163  0.00  0.00    -0.004 A 
ENDROOT
TORSDOF 0
ENDMDL
