MODEL 1
REMARK minimizedAffinity 4.89050865
REMARK minimizedRMSD -1
REMARK  0 active torsions:
REMARK  status: ('A' for Active; 'I' for Inactive)
ROOT
ATOM      1  C   UNL d   1       0.860   5.956  -2.331  0.00  0.00     0.172 C 
ATOM      2  N   UNL d   1       0.409   5.001  -1.346  0.00  0.00    -0.070 N 
ATOM      3  C1  UNL d   1       1.202   4.369  -0.426  0.00  0.00    -0.004 A 
ATOM      4  C2  UNL d   1       0.397   3.542   0.327  0.00  0.00    -0.047 A 
ATOM      5  C3  UNL d   1      -0.925   3.680  -0.158  0.00  0.00    -0.047 A 
ATOM      6  C4  UNL d   1      -0.889   4.590  -1.194  0.00  0.00    -0.004 A 
ENDROOT
TORSDOF 0
ENDMDL
