MODEL 1
REMARK minimizedAffinity 3.93756199
REMARK minimizedRMSD -1
REMARK  0 active torsions:
REMARK  status: ('A' for Active; 'I' for Inactive)
ROOT
ATOM      1  C   UNL d   1      -2.951   4.504  -3.365  0.00  0.00     0.172 C 
ATOM      2  N   UNL d   1      -4.183   4.772  -4.070  0.00  0.00    -0.070 N 
ATOM      3  C1  UNL d   1      -4.829   3.901  -4.906  0.00  0.00    -0.004 A 
ATOM      4  C2  UNL d   1      -5.962   4.531  -5.376  0.00  0.00    -0.047 A 
ATOM      5  C3  UNL d   1      -5.997   5.824  -4.803  0.00  0.00    -0.047 A 
ATOM      6  C4  UNL d   1      -4.883   5.947  -3.999  0.00  0.00    -0.004 A 
ENDROOT
TORSDOF 0
ENDMDL
