MODEL 1
REMARK minimizedAffinity 1.20379972
REMARK minimizedRMSD -1
REMARK  0 active torsions:
REMARK  status: ('A' for Active; 'I' for Inactive)
ROOT
ATOM      1  C   UNL d   1      -4.399   1.855  -3.317  0.00  0.00     0.172 C 
ATOM      2  N   UNL d   1      -4.803   3.124  -3.876  0.00  0.00    -0.070 N 
ATOM      3  C1  UNL d   1      -6.000   3.382  -4.489  0.00  0.00    -0.004 A 
ATOM      4  C2  UNL d   1      -5.997   4.703  -4.882  0.00  0.00    -0.047 A 
ATOM      5  C3  UNL d   1      -4.755   5.257  -4.493  0.00  0.00    -0.047 A 
ATOM      6  C4  UNL d   1      -4.035   4.258  -3.873  0.00  0.00    -0.004 A 
ENDROOT
TORSDOF 0
ENDMDL
