MODEL 1
REMARK minimizedAffinity -2.96540332
REMARK minimizedRMSD -1
REMARK  0 active torsions:
REMARK  status: ('A' for Active; 'I' for Inactive)
ROOT
ATOM      1  C   UNL d   1      -5.264   0.684   0.251  0.00  0.00     0.172 C 
ATOM      2  N   UNL d   1      -5.119   0.080   1.555  0.00  0.00    -0.070 N 
ATOM      3  C1  UNL d   1      -4.090   0.307   2.430  0.00  0.00    -0.004 A 
ATOM      4  C2  UNL d   1      -4.318  -0.455   3.556  0.00  0.00    -0.047 A 
ATOM      5  C3  UNL d   1      -5.525  -1.165   3.349  0.00  0.00    -0.047 A 
ATOM      6  C4  UNL d   1      -5.999  -0.815   2.103  0.00  0.00    -0.004 A 
ENDROOT
TORSDOF 0
ENDMDL
