MODEL 1
REMARK minimizedAffinity 0.374528289
REMARK minimizedRMSD -1
REMARK  1 active torsions:
REMARK  status: ('A' for Active; 'I' for Inactive)
REMARK    1  A    between atoms: C1_2  and  C2_3 
ROOT
ATOM      1  C2  UNL d   1      -1.919   1.593   2.678  0.00  0.00    -0.077 A 
ATOM      2  C3  UNL d   1      -2.172   0.216   2.601  0.00  0.00     0.002 A 
ATOM      3  C4  UNL d   1      -1.312  -0.622   1.889  0.00  0.00     0.002 A 
ATOM      4  C5  UNL d   1      -0.191  -0.093   1.252  0.00  0.00    -0.004 A 
ATOM      5  C6  UNL d   1       0.068   1.275   1.321  0.00  0.00     0.002 A 
ATOM      6  C7  UNL d   1      -0.791   2.114   2.032  0.00  0.00     0.002 A 
ENDROOT
BRANCH   1   7
ATOM      7  C1  UNL d   1      -2.819   2.490   3.487  0.00  0.00     0.055 C 
ATOM      8  C   UNL d   1      -4.043   1.739   3.990  0.00  0.00     0.019 C 
ENDBRANCH   1   7
TORSDOF 1
ENDMDL
