MODEL 1
REMARK minimizedAffinity 4.41124725
REMARK minimizedRMSD -1
REMARK  1 active torsions:
REMARK  status: ('A' for Active; 'I' for Inactive)
REMARK    1  A    between atoms: C1_2  and  C2_3 
ROOT
ATOM      1  C2  UNL d   1      -0.048  -0.330   1.812  0.00  0.00    -0.077 A 
ATOM      2  C3  UNL d   1      -0.291   0.650   2.784  0.00  0.00     0.002 A 
ATOM      3  C4  UNL d   1      -0.080   2.000   2.495  0.00  0.00     0.002 A 
ATOM      4  C5  UNL d   1       0.370   2.381   1.233  0.00  0.00    -0.004 A 
ATOM      5  C6  UNL d   1       0.617   1.414   0.260  0.00  0.00     0.002 A 
ATOM      6  C7  UNL d   1       0.408   0.064   0.548  0.00  0.00     0.002 A 
ENDROOT
BRANCH   1   7
ATOM      7  C1  UNL d   1      -0.321  -1.782   2.107  0.00  0.00     0.055 C 
ATOM      8  C   UNL d   1      -1.139  -1.944   3.380  0.00  0.00     0.019 C 
ENDBRANCH   1   7
TORSDOF 1
ENDMDL
