MODEL 1
REMARK minimizedAffinity 2.40641904
REMARK minimizedRMSD -1
REMARK  1 active torsions:
REMARK  status: ('A' for Active; 'I' for Inactive)
REMARK    1  A    between atoms: C1_2  and  C2_3 
ROOT
ATOM      1  C2  UNL d   1      -3.876  -4.241  -1.131  0.00  0.00    -0.077 A 
ATOM      2  C3  UNL d   1      -3.768  -3.898  -2.487  0.00  0.00     0.002 A 
ATOM      3  C4  UNL d   1      -3.954  -2.577  -2.898  0.00  0.00     0.002 A 
ATOM      4  C5  UNL d   1      -4.245  -1.588  -1.961  0.00  0.00    -0.004 A 
ATOM      5  C6  UNL d   1      -4.356  -1.919  -0.611  0.00  0.00     0.002 A 
ATOM      6  C7  UNL d   1      -4.171  -3.239  -0.198  0.00  0.00     0.002 A 
ENDROOT
BRANCH   1   7
ATOM      7  C1  UNL d   1      -3.627  -5.656  -0.680  0.00  0.00     0.055 C 
ATOM      8  C   UNL d   1      -2.166  -5.871  -0.313  0.00  0.00     0.019 C 
ENDBRANCH   1   7
TORSDOF 1
ENDMDL
