MODEL 1
REMARK minimizedAffinity -0.69887197
REMARK minimizedRMSD -1
REMARK  1 active torsions:
REMARK  status: ('A' for Active; 'I' for Inactive)
REMARK    1  A    between atoms: C1_2  and  C2_3 
ROOT
ATOM      1  C2  UNL d   1      -3.534   1.721   3.795  0.00  0.00    -0.077 A 
ATOM      2  C3  UNL d   1      -2.565   2.719   3.619  0.00  0.00     0.002 A 
ATOM      3  C4  UNL d   1      -1.468   2.498   2.784  0.00  0.00     0.002 A 
ATOM      4  C5  UNL d   1      -1.332   1.283   2.116  0.00  0.00    -0.004 A 
ATOM      5  C6  UNL d   1      -2.289   0.284   2.286  0.00  0.00     0.002 A 
ATOM      6  C7  UNL d   1      -3.386   0.502   3.120  0.00  0.00     0.002 A 
ENDROOT
BRANCH   1   7
ATOM      7  C1  UNL d   1      -4.744   1.975   4.656  0.00  0.00     0.055 C 
ATOM      8  C   UNL d   1      -4.359   2.642   5.968  0.00  0.00     0.019 C 
ENDBRANCH   1   7
TORSDOF 1
ENDMDL
