MODEL 1
REMARK minimizedAffinity -2.93690705
REMARK minimizedRMSD -1
REMARK  1 active torsions:
REMARK  status: ('A' for Active; 'I' for Inactive)
REMARK    1  A    between atoms: C1_2  and  C2_3 
ROOT
ATOM      1  C2  UNL d   1      -1.519   1.485   2.360  0.00  0.00    -0.077 A 
ATOM      2  C3  UNL d   1      -1.391   0.107   2.580  0.00  0.00     0.002 A 
ATOM      3  C4  UNL d   1      -0.325  -0.601   2.022  0.00  0.00     0.002 A 
ATOM      4  C5  UNL d   1       0.623   0.061   1.244  0.00  0.00    -0.004 A 
ATOM      5  C6  UNL d   1       0.502   1.431   1.017  0.00  0.00     0.002 A 
ATOM      6  C7  UNL d   1      -0.563   2.140   1.574  0.00  0.00     0.002 A 
ENDROOT
BRANCH   1   7
ATOM      7  C1  UNL d   1      -2.641   2.259   3.002  0.00  0.00     0.055 C 
ATOM      8  C   UNL d   1      -3.500   1.363   3.881  0.00  0.00     0.019 C 
ENDBRANCH   1   7
TORSDOF 1
ENDMDL
