MODEL 1
REMARK minimizedAffinity -0.646713674
REMARK minimizedRMSD -1
REMARK  1 active torsions:
REMARK  status: ('A' for Active; 'I' for Inactive)
REMARK    1  A    between atoms: C1_2  and  C2_3 
ROOT
ATOM      1  C2  UNL d   1      -0.927   1.617   1.512  0.00  0.00    -0.077 A 
ATOM      2  C3  UNL d   1       0.111   1.961   0.635  0.00  0.00     0.002 A 
ATOM      3  C4  UNL d   1       1.060   1.009   0.257  0.00  0.00     0.002 A 
ATOM      4  C5  UNL d   1       0.978  -0.292   0.747  0.00  0.00    -0.004 A 
ATOM      5  C6  UNL d   1      -0.050  -0.643   1.621  0.00  0.00     0.002 A 
ATOM      6  C7  UNL d   1      -0.999   0.307   2.001  0.00  0.00     0.002 A 
ENDROOT
BRANCH   1   7
ATOM      7  C1  UNL d   1      -1.980   2.629   1.882  0.00  0.00     0.055 C 
ATOM      8  C   UNL d   1      -2.720   2.221   3.147  0.00  0.00     0.019 C 
ENDBRANCH   1   7
TORSDOF 1
ENDMDL
