MODEL 1
REMARK minimizedAffinity -4.20671988
REMARK minimizedRMSD -1
REMARK  1 active torsions:
REMARK  status: ('A' for Active; 'I' for Inactive)
REMARK    1  A    between atoms: C1_2  and  C2_3 
ROOT
ATOM      1  C2  UNL d   1      -1.688   1.609   2.252  0.00  0.00    -0.077 A 
ATOM      2  C3  UNL d   1      -1.987   0.240   2.240  0.00  0.00     0.002 A 
ATOM      3  C4  UNL d   1      -1.189  -0.651   1.520  0.00  0.00     0.002 A 
ATOM      4  C5  UNL d   1      -0.085  -0.184   0.810  0.00  0.00    -0.004 A 
ATOM      5  C6  UNL d   1       0.220   1.177   0.814  0.00  0.00     0.002 A 
ATOM      6  C7  UNL d   1      -0.577   2.069   1.532  0.00  0.00     0.002 A 
ENDROOT
BRANCH   1   7
ATOM      7  C1  UNL d   1      -2.518   2.565   3.067  0.00  0.00     0.055 C 
ATOM      8  C   UNL d   1      -3.687   1.854   3.733  0.00  0.00     0.019 C 
ENDBRANCH   1   7
TORSDOF 1
ENDMDL
