MODEL 1
REMARK minimizedAffinity -3.14017057
REMARK minimizedRMSD -1
REMARK  1 active torsions:
REMARK  status: ('A' for Active; 'I' for Inactive)
REMARK    1  A    between atoms: C1_2  and  C2_3 
ROOT
ATOM      1  C2  UNL d   1      -1.640  -4.718   0.712  0.00  0.00    -0.077 A 
ATOM      2  C3  UNL d   1      -2.662  -4.069   0.006  0.00  0.00     0.002 A 
ATOM      3  C4  UNL d   1      -3.182  -2.859   0.468  0.00  0.00     0.002 A 
ATOM      4  C5  UNL d   1      -2.684  -2.286   1.637  0.00  0.00    -0.004 A 
ATOM      5  C6  UNL d   1      -1.669  -2.925   2.348  0.00  0.00     0.002 A 
ATOM      6  C7  UNL d   1      -1.149  -4.135   1.887  0.00  0.00     0.002 A 
ENDROOT
BRANCH   1   7
ATOM      7  C1  UNL d   1      -1.043  -5.999   0.188  0.00  0.00     0.055 C 
ATOM      8  C   UNL d   1      -0.342  -5.778  -1.144  0.00  0.00     0.019 C 
ENDBRANCH   1   7
TORSDOF 1
ENDMDL
