MODEL 1
REMARK minimizedAffinity -1.77410901
REMARK minimizedRMSD -1
REMARK  1 active torsions:
REMARK  status: ('A' for Active; 'I' for Inactive)
REMARK    1  A    between atoms: C1_2  and  C2_3 
ROOT
ATOM      1  C2  UNL d   1      -1.136   1.607   1.798  0.00  0.00    -0.077 A 
ATOM      2  C3  UNL d   1      -1.894   0.432   1.892  0.00  0.00     0.002 A 
ATOM      3  C4  UNL d   1      -1.334  -0.800   1.549  0.00  0.00     0.002 A 
ATOM      4  C5  UNL d   1      -0.013  -0.869   1.114  0.00  0.00    -0.004 A 
ATOM      5  C6  UNL d   1       0.750   0.294   1.014  0.00  0.00     0.002 A 
ATOM      6  C7  UNL d   1       0.191   1.527   1.355  0.00  0.00     0.002 A 
ENDROOT
BRANCH   1   7
ATOM      7  C1  UNL d   1      -1.723   2.931   2.214  0.00  0.00     0.055 C 
ATOM      8  C   UNL d   1      -2.769   2.754   3.304  0.00  0.00     0.019 C 
ENDBRANCH   1   7
TORSDOF 1
ENDMDL
