MODEL 1
REMARK minimizedAffinity 5.99173832
REMARK minimizedRMSD -1
REMARK  1 active torsions:
REMARK  status: ('A' for Active; 'I' for Inactive)
REMARK    1  A    between atoms: C1_2  and  C2_3 
ROOT
ATOM      1  C2  UNL d   1      -0.565   1.732   1.807  0.00  0.00    -0.077 A 
ATOM      2  C3  UNL d   1      -0.845   0.577   2.551  0.00  0.00     0.002 A 
ATOM      3  C4  UNL d   1      -0.142  -0.605   2.312  0.00  0.00     0.002 A 
ATOM      4  C5  UNL d   1       0.848  -0.643   1.333  0.00  0.00    -0.004 A 
ATOM      5  C6  UNL d   1       1.132   0.499   0.585  0.00  0.00     0.002 A 
ATOM      6  C7  UNL d   1       0.430   1.682   0.822  0.00  0.00     0.002 A 
ENDROOT
BRANCH   1   7
ATOM      7  C1  UNL d   1      -1.288   3.021   2.096  0.00  0.00     0.055 C 
ATOM      8  C   UNL d   1      -2.128   2.913   3.361  0.00  0.00     0.019 C 
ENDBRANCH   1   7
TORSDOF 1
ENDMDL
