MODEL 1
REMARK minimizedAffinity -2.04490566
REMARK minimizedRMSD -1
REMARK  1 active torsions:
REMARK  status: ('A' for Active; 'I' for Inactive)
REMARK    1  A    between atoms: C1_2  and  C2_3 
ROOT
ATOM      1  C2  UNL d   1      -1.598   1.596   2.182  0.00  0.00    -0.077 A 
ATOM      2  C3  UNL d   1      -1.779   0.207   2.230  0.00  0.00     0.002 A 
ATOM      3  C4  UNL d   1      -0.783  -0.652   1.760  0.00  0.00     0.002 A 
ATOM      4  C5  UNL d   1       0.401  -0.131   1.242  0.00  0.00    -0.004 A 
ATOM      5  C6  UNL d   1       0.589   1.250   1.188  0.00  0.00     0.002 A 
ATOM      6  C7  UNL d   1      -0.405   2.109   1.656  0.00  0.00     0.002 A 
ENDROOT
BRANCH   1   7
ATOM      7  C1  UNL d   1      -2.650   2.523   2.734  0.00  0.00     0.055 C 
ATOM      8  C   UNL d   1      -3.595   1.789   3.674  0.00  0.00     0.019 C 
ENDBRANCH   1   7
TORSDOF 1
ENDMDL
