MODEL 1
REMARK minimizedAffinity -2.25804186
REMARK minimizedRMSD -1
REMARK  1 active torsions:
REMARK  status: ('A' for Active; 'I' for Inactive)
REMARK    1  A    between atoms: C1_2  and  C2_3 
ROOT
ATOM      1  C2  UNL d   1      -0.906   1.615   1.454  0.00  0.00    -0.077 A 
ATOM      2  C3  UNL d   1      -1.331   0.280   1.501  0.00  0.00     0.002 A 
ATOM      3  C4  UNL d   1      -0.448  -0.753   1.180  0.00  0.00     0.002 A 
ATOM      4  C5  UNL d   1       0.864  -0.462   0.813  0.00  0.00    -0.004 A 
ATOM      5  C6  UNL d   1       1.295   0.863   0.761  0.00  0.00     0.002 A 
ATOM      6  C7  UNL d   1       0.414   1.897   1.081  0.00  0.00     0.002 A 
ENDROOT
BRANCH   1   7
ATOM      7  C1  UNL d   1      -1.842   2.728   1.848  0.00  0.00     0.055 C 
ATOM      8  C   UNL d   1      -2.823   2.273   2.919  0.00  0.00     0.019 C 
ENDBRANCH   1   7
TORSDOF 1
ENDMDL
