MODEL 1
REMARK minimizedAffinity -2.63511753
REMARK minimizedRMSD -1
REMARK  1 active torsions:
REMARK  status: ('A' for Active; 'I' for Inactive)
REMARK    1  A    between atoms: C1_2  and  C2_3 
ROOT
ATOM      1  C2  UNL d   1      -1.710   1.775   2.340  0.00  0.00    -0.077 A 
ATOM      2  C3  UNL d   1      -1.751   0.386   2.520  0.00  0.00     0.002 A 
ATOM      3  C4  UNL d   1      -0.822  -0.437   1.882  0.00  0.00     0.002 A 
ATOM      4  C5  UNL d   1       0.158   0.120   1.062  0.00  0.00    -0.004 A 
ATOM      5  C6  UNL d   1       0.206   1.501   0.875  0.00  0.00     0.002 A 
ATOM      6  C7  UNL d   1      -0.724   2.325   1.511  0.00  0.00     0.002 A 
ENDROOT
BRANCH   1   7
ATOM      7  C1  UNL d   1      -2.682   2.669   3.066  0.00  0.00     0.055 C 
ATOM      8  C   UNL d   1      -3.748   1.857   3.786  0.00  0.00     0.019 C 
ENDBRANCH   1   7
TORSDOF 1
ENDMDL
