MODEL 1
REMARK minimizedAffinity -5.09584761
REMARK minimizedRMSD -1
REMARK  1 active torsions:
REMARK  status: ('A' for Active; 'I' for Inactive)
REMARK    1  A    between atoms: C1_2  and  C2_3 
ROOT
ATOM      1  C2  UNL d   1      -1.559   1.374   2.130  0.00  0.00    -0.077 A 
ATOM      2  C3  UNL d   1      -1.931   0.066   2.472  0.00  0.00     0.002 A 
ATOM      3  C4  UNL d   1      -1.141  -1.017   2.084  0.00  0.00     0.002 A 
ATOM      4  C5  UNL d   1       0.027  -0.804   1.355  0.00  0.00    -0.004 A 
ATOM      5  C6  UNL d   1       0.405   0.493   1.008  0.00  0.00     0.002 A 
ATOM      6  C7  UNL d   1      -0.384   1.577   1.394  0.00  0.00     0.002 A 
ENDROOT
BRANCH   1   7
ATOM      7  C1  UNL d   1      -2.384   2.548   2.590  0.00  0.00     0.055 C 
ATOM      8  C   UNL d   1      -3.410   2.128   3.633  0.00  0.00     0.019 C 
ENDBRANCH   1   7
TORSDOF 1
ENDMDL
