MODEL 1
REMARK minimizedAffinity 0.58698827
REMARK minimizedRMSD -1
REMARK  2 active torsions:
REMARK  status: ('A' for Active; 'I' for Inactive)
REMARK    1  A    between atoms: C1_2  and  C2_3 
REMARK    2  A    between atoms: C2_3  and  C3_4 
ROOT
ATOM      1  C3  UNL d   1      -0.825   0.144   1.055  0.00  0.00    -0.075 A 
ATOM      2  C4  UNL d   1      -0.329   1.354   1.560  0.00  0.00     0.002 A 
ATOM      3  C5  UNL d   1       1.035   1.514   1.803  0.00  0.00     0.002 A 
ATOM      4  C6  UNL d   1       1.918   0.465   1.555  0.00  0.00    -0.004 A 
ATOM      5  C7  UNL d   1       1.434  -0.748   1.070  0.00  0.00     0.002 A 
ATOM      6  C8  UNL d   1       0.069  -0.909   0.821  0.00  0.00     0.002 A 
ENDROOT
BRANCH   1   7
ATOM      7  C2  UNL d   1      -2.297  -0.026   0.762  0.00  0.00     0.056 C 
BRANCH   7   8
ATOM      8  C1  UNL d   1      -2.604  -0.403  -0.691  0.00  0.00     0.007 C 
ATOM      9  C   UNL d   1      -3.990   0.036  -1.145  0.00  0.00     0.009 C 
ENDBRANCH   7   8
ENDBRANCH   1   7
TORSDOF 2
ENDMDL
