MODEL 1
REMARK minimizedAffinity 7.48002481
REMARK minimizedRMSD -1
REMARK  2 active torsions:
REMARK  status: ('A' for Active; 'I' for Inactive)
REMARK    1  A    between atoms: C1_2  and  C2_3 
REMARK    2  A    between atoms: C2_3  and  C3_4 
ROOT
ATOM      1  C3  UNL d   1       1.166  -0.422  -1.946  0.00  0.00    -0.075 A 
ATOM      2  C4  UNL d   1       0.635  -0.700  -3.214  0.00  0.00     0.002 A 
ATOM      3  C5  UNL d   1       0.993   0.076  -4.317  0.00  0.00     0.002 A 
ATOM      4  C6  UNL d   1       1.875   1.144  -4.165  0.00  0.00    -0.004 A 
ATOM      5  C7  UNL d   1       2.395   1.439  -2.906  0.00  0.00     0.002 A 
ATOM      6  C8  UNL d   1       2.042   0.661  -1.802  0.00  0.00     0.002 A 
ENDROOT
BRANCH   1   7
ATOM      7  C2  UNL d   1       0.806  -1.277  -0.754  0.00  0.00     0.056 C 
BRANCH   7   8
ATOM      8  C1  UNL d   1       2.014  -1.755   0.058  0.00  0.00     0.007 C 
ATOM      9  C   UNL d   1       2.062  -1.168   1.463  0.00  0.00     0.009 C 
ENDBRANCH   7   8
ENDBRANCH   1   7
TORSDOF 2
ENDMDL
