MODEL 1
REMARK minimizedAffinity 4.27491808
REMARK minimizedRMSD -1
REMARK  2 active torsions:
REMARK  status: ('A' for Active; 'I' for Inactive)
REMARK    1  A    between atoms: C1_2  and  C2_3 
REMARK    2  A    between atoms: C2_3  and  C3_4 
ROOT
ATOM      1  C3  UNL d   1       0.428  -2.704  -5.242  0.00  0.00    -0.075 A 
ATOM      2  C4  UNL d   1       1.672  -3.236  -5.610  0.00  0.00     0.002 A 
ATOM      3  C5  UNL d   1       1.868  -4.616  -5.653  0.00  0.00     0.002 A 
ATOM      4  C6  UNL d   1       0.828  -5.481  -5.319  0.00  0.00    -0.004 A 
ATOM      5  C7  UNL d   1      -0.407  -4.964  -4.936  0.00  0.00     0.002 A 
ATOM      6  C8  UNL d   1      -0.608  -3.583  -4.896  0.00  0.00     0.002 A 
ENDROOT
BRANCH   1   7
ATOM      7  C2  UNL d   1       0.201  -1.211  -5.222  0.00  0.00     0.056 C 
BRANCH   7   8
ATOM      8  C1  UNL d   1       0.471  -0.557  -3.863  0.00  0.00     0.007 C 
ATOM      9  C   UNL d   1       1.403   0.644  -3.950  0.00  0.00     0.009 C 
ENDBRANCH   7   8
ENDBRANCH   1   7
TORSDOF 2
ENDMDL
