MODEL 1
REMARK minimizedAffinity 1.85212338
REMARK minimizedRMSD -1
REMARK  2 active torsions:
REMARK  status: ('A' for Active; 'I' for Inactive)
REMARK    1  A    between atoms: C1_2  and  C2_3 
REMARK    2  A    between atoms: C2_3  and  C3_4 
ROOT
ATOM      1  C3  UNL d   1       1.918   0.994  -0.666  0.00  0.00    -0.075 A 
ATOM      2  C4  UNL d   1       2.175   1.585   0.579  0.00  0.00     0.002 A 
ATOM      3  C5  UNL d   1       2.164   0.817   1.744  0.00  0.00     0.002 A 
ATOM      4  C6  UNL d   1       1.886  -0.546   1.680  0.00  0.00    -0.004 A 
ATOM      5  C7  UNL d   1       1.613  -1.141   0.450  0.00  0.00     0.002 A 
ATOM      6  C8  UNL d   1       1.627  -0.376  -0.717  0.00  0.00     0.002 A 
ENDROOT
BRANCH   1   7
ATOM      7  C2  UNL d   1       1.957   1.813  -1.934  0.00  0.00     0.056 C 
BRANCH   7   8
ATOM      8  C1  UNL d   1       2.315   1.007  -3.187  0.00  0.00     0.007 C 
ATOM      9  C   UNL d   1       1.127   0.779  -4.113  0.00  0.00     0.009 C 
ENDBRANCH   7   8
ENDBRANCH   1   7
TORSDOF 2
ENDMDL
