MODEL 1
REMARK minimizedAffinity 7.09703541
REMARK minimizedRMSD -1
REMARK  2 active torsions:
REMARK  status: ('A' for Active; 'I' for Inactive)
REMARK    1  A    between atoms: C1_2  and  C2_3 
REMARK    2  A    between atoms: C2_3  and  C3_4 
ROOT
ATOM      1  C3  UNL d   1       1.648  -0.321  -2.219  0.00  0.00    -0.075 A 
ATOM      2  C4  UNL d   1       2.986   0.067  -2.379  0.00  0.00     0.002 A 
ATOM      3  C5  UNL d   1       3.419   0.640  -3.574  0.00  0.00     0.002 A 
ATOM      4  C6  UNL d   1       2.525   0.823  -4.627  0.00  0.00    -0.004 A 
ATOM      5  C7  UNL d   1       1.197   0.426  -4.485  0.00  0.00     0.002 A 
ATOM      6  C8  UNL d   1       0.760  -0.144  -3.288  0.00  0.00     0.002 A 
ENDROOT
BRANCH   1   7
ATOM      7  C2  UNL d   1       1.167  -0.916  -0.917  0.00  0.00     0.056 C 
BRANCH   7   8
ATOM      8  C1  UNL d   1       2.178  -0.808   0.230  0.00  0.00     0.007 C 
ATOM      9  C   UNL d   1       1.606  -0.142   1.474  0.00  0.00     0.009 C 
ENDBRANCH   7   8
ENDBRANCH   1   7
TORSDOF 2
ENDMDL
