MODEL 1
REMARK minimizedAffinity 9.68234158
REMARK minimizedRMSD -1
REMARK  2 active torsions:
REMARK  status: ('A' for Active; 'I' for Inactive)
REMARK    1  A    between atoms: C1_2  and  C2_3 
REMARK    2  A    between atoms: C2_3  and  C3_4 
ROOT
ATOM      1  C3  UNL d   1       0.672   0.867   2.034  0.00  0.00    -0.075 A 
ATOM      2  C4  UNL d   1      -0.331  -0.109   2.126  0.00  0.00     0.002 A 
ATOM      3  C5  UNL d   1      -1.636   0.246   2.467  0.00  0.00     0.002 A 
ATOM      4  C6  UNL d   1      -1.953   1.577   2.730  0.00  0.00    -0.004 A 
ATOM      5  C7  UNL d   1      -0.961   2.552   2.658  0.00  0.00     0.002 A 
ATOM      6  C8  UNL d   1       0.345   2.201   2.313  0.00  0.00     0.002 A 
ENDROOT
BRANCH   1   7
ATOM      7  C2  UNL d   1       2.080   0.493   1.637  0.00  0.00     0.056 C 
BRANCH   7   8
ATOM      8  C1  UNL d   1       2.243  -0.973   1.221  0.00  0.00     0.007 C 
ATOM      9  C   UNL d   1       1.805  -1.243  -0.212  0.00  0.00     0.009 C 
ENDBRANCH   7   8
ENDBRANCH   1   7
TORSDOF 2
ENDMDL
