MODEL 1
REMARK minimizedAffinity 4.96945429
REMARK minimizedRMSD -1
REMARK  2 active torsions:
REMARK  status: ('A' for Active; 'I' for Inactive)
REMARK    1  A    between atoms: C1_2  and  C2_3 
REMARK    2  A    between atoms: C2_3  and  C3_4 
ROOT
ATOM      1  C3  UNL d   1       1.397  -0.664  -2.240  0.00  0.00    -0.075 A 
ATOM      2  C4  UNL d   1       2.384   0.329  -2.334  0.00  0.00     0.002 A 
ATOM      3  C5  UNL d   1       2.489   1.115  -3.482  0.00  0.00     0.002 A 
ATOM      4  C6  UNL d   1       1.619   0.913  -4.551  0.00  0.00    -0.004 A 
ATOM      5  C7  UNL d   1       0.646  -0.081  -4.474  0.00  0.00     0.002 A 
ATOM      6  C8  UNL d   1       0.535  -0.866  -3.326  0.00  0.00     0.002 A 
ENDROOT
BRANCH   1   7
ATOM      7  C2  UNL d   1       1.259  -1.499  -0.989  0.00  0.00     0.056 C 
BRANCH   7   8
ATOM      8  C1  UNL d   1       2.350  -1.243   0.056  0.00  0.00     0.007 C 
ATOM      9  C   UNL d   1       1.881  -0.372   1.213  0.00  0.00     0.009 C 
ENDBRANCH   7   8
ENDBRANCH   1   7
TORSDOF 2
ENDMDL
