MODEL 1
REMARK minimizedAffinity 2.31014538
REMARK minimizedRMSD -1
REMARK  2 active torsions:
REMARK  status: ('A' for Active; 'I' for Inactive)
REMARK    1  A    between atoms: C1_2  and  C2_3 
REMARK    2  A    between atoms: C2_3  and  C3_4 
ROOT
ATOM      1  C3  UNL d   1      -1.043  -0.211   1.707  0.00  0.00    -0.075 A 
ATOM      2  C4  UNL d   1      -1.106   1.080   1.164  0.00  0.00     0.002 A 
ATOM      3  C5  UNL d   1      -1.915   1.345   0.058  0.00  0.00     0.002 A 
ATOM      4  C6  UNL d   1      -2.661   0.322  -0.523  0.00  0.00    -0.004 A 
ATOM      5  C7  UNL d   1      -2.593  -0.968  -0.002  0.00  0.00     0.002 A 
ATOM      6  C8  UNL d   1      -1.788  -1.234   1.107  0.00  0.00     0.002 A 
ENDROOT
BRANCH   1   7
ATOM      7  C2  UNL d   1      -0.193  -0.497   2.922  0.00  0.00     0.056 C 
BRANCH   7   8
ATOM      8  C1  UNL d   1       0.969  -1.461   2.657  0.00  0.00     0.007 C 
ATOM      9  C   UNL d   1       1.532  -2.085   3.927  0.00  0.00     0.009 C 
ENDBRANCH   7   8
ENDBRANCH   1   7
TORSDOF 2
ENDMDL
