MODEL 1
REMARK minimizedAffinity -3.73444057
REMARK minimizedRMSD -1
REMARK  2 active torsions:
REMARK  status: ('A' for Active; 'I' for Inactive)
REMARK    1  A    between atoms: C1_2  and  C2_3 
REMARK    2  A    between atoms: C2_3  and  C3_4 
ROOT
ATOM      1  C3  UNL d   1       0.453  -1.134   3.564  0.00  0.00    -0.075 A 
ATOM      2  C4  UNL d   1       0.828  -0.238   2.552  0.00  0.00     0.002 A 
ATOM      3  C5  UNL d   1      -0.139   0.373   1.753  0.00  0.00     0.002 A 
ATOM      4  C6  UNL d   1      -1.489   0.090   1.948  0.00  0.00    -0.004 A 
ATOM      5  C7  UNL d   1      -1.872  -0.811   2.939  0.00  0.00     0.002 A 
ATOM      6  C8  UNL d   1      -0.907  -1.421   3.743  0.00  0.00     0.002 A 
ENDROOT
BRANCH   1   7
ATOM      7  C2  UNL d   1       1.492  -1.776   4.451  0.00  0.00     0.056 C 
BRANCH   7   8
ATOM      8  C1  UNL d   1       2.072  -0.837   5.514  0.00  0.00     0.007 C 
ATOM      9  C   UNL d   1       3.440  -0.282   5.142  0.00  0.00     0.009 C 
ENDBRANCH   7   8
ENDBRANCH   1   7
TORSDOF 2
ENDMDL
