MODEL 1
REMARK minimizedAffinity 5.69167519
REMARK minimizedRMSD -1
REMARK  2 active torsions:
REMARK  status: ('A' for Active; 'I' for Inactive)
REMARK    1  A    between atoms: C1_2  and  C2_3 
REMARK    2  A    between atoms: C2_3  and  C3_4 
ROOT
ATOM      1  C3  UNL d   1      -0.418  -0.252   1.541  0.00  0.00    -0.075 A 
ATOM      2  C4  UNL d   1       0.930  -0.412   1.189  0.00  0.00     0.002 A 
ATOM      3  C5  UNL d   1       1.872  -0.790   2.146  0.00  0.00     0.002 A 
ATOM      4  C6  UNL d   1       1.482  -1.003   3.466  0.00  0.00    -0.004 A 
ATOM      5  C7  UNL d   1       0.148  -0.830   3.831  0.00  0.00     0.002 A 
ATOM      6  C8  UNL d   1      -0.797  -0.456   2.875  0.00  0.00     0.002 A 
ENDROOT
BRANCH   1   7
ATOM      7  C2  UNL d   1      -1.447   0.128   0.504  0.00  0.00     0.056 C 
BRANCH   7   8
ATOM      8  C1  UNL d   1      -1.919  -1.042  -0.366  0.00  0.00     0.007 C 
ATOM      9  C   UNL d   1      -2.411  -0.609  -1.740  0.00  0.00     0.009 C 
ENDBRANCH   7   8
ENDBRANCH   1   7
TORSDOF 2
ENDMDL
