MODEL 1
REMARK minimizedAffinity 5.28853941
REMARK minimizedRMSD -1
REMARK  2 active torsions:
REMARK  status: ('A' for Active; 'I' for Inactive)
REMARK    1  A    between atoms: C1_2  and  C2_3 
REMARK    2  A    between atoms: C2_3  and  C3_4 
ROOT
ATOM      1  C3  UNL d   1      -0.142  -0.509   1.906  0.00  0.00    -0.075 A 
ATOM      2  C4  UNL d   1      -1.254  -1.038   1.235  0.00  0.00     0.002 A 
ATOM      3  C5  UNL d   1      -2.170  -0.193   0.607  0.00  0.00     0.002 A 
ATOM      4  C6  UNL d   1      -1.993   1.188   0.651  0.00  0.00    -0.004 A 
ATOM      5  C7  UNL d   1      -0.900   1.725   1.329  0.00  0.00     0.002 A 
ATOM      6  C8  UNL d   1       0.021   0.882   1.954  0.00  0.00     0.002 A 
ENDROOT
BRANCH   1   7
ATOM      7  C2  UNL d   1       0.870  -1.419   2.561  0.00  0.00     0.056 C 
BRANCH   7   8
ATOM      8  C1  UNL d   1       1.210  -1.035   4.005  0.00  0.00     0.007 C 
ATOM      9  C   UNL d   1       1.698  -2.211   4.840  0.00  0.00     0.009 C 
ENDBRANCH   7   8
ENDBRANCH   1   7
TORSDOF 2
ENDMDL
