MODEL 1
REMARK minimizedAffinity 2.57979679
REMARK minimizedRMSD -1
REMARK  2 active torsions:
REMARK  status: ('A' for Active; 'I' for Inactive)
REMARK    1  A    between atoms: C1_2  and  C2_3 
REMARK    2  A    between atoms: C2_3  and  C3_4 
ROOT
ATOM      1  C3  UNL d   1       0.583  -1.053   3.022  0.00  0.00    -0.075 A 
ATOM      2  C4  UNL d   1       1.106   0.121   2.461  0.00  0.00     0.002 A 
ATOM      3  C5  UNL d   1       0.328   0.906   1.609  0.00  0.00     0.002 A 
ATOM      4  C6  UNL d   1      -0.975   0.523   1.299  0.00  0.00    -0.004 A 
ATOM      5  C7  UNL d   1      -1.499  -0.651   1.838  0.00  0.00     0.002 A 
ATOM      6  C8  UNL d   1      -0.725  -1.435   2.694  0.00  0.00     0.002 A 
ENDROOT
BRANCH   1   7
ATOM      7  C2  UNL d   1       1.409  -1.891   3.969  0.00  0.00     0.056 C 
BRANCH   7   8
ATOM      8  C1  UNL d   1       1.770  -1.182   5.278  0.00  0.00     0.007 C 
ATOM      9  C   UNL d   1       3.162  -1.531   5.786  0.00  0.00     0.009 C 
ENDBRANCH   7   8
ENDBRANCH   1   7
TORSDOF 2
ENDMDL
