MODEL 1
REMARK minimizedAffinity -1.79710603
REMARK minimizedRMSD -1
REMARK  0 active torsions:
REMARK  status: ('A' for Active; 'I' for Inactive)
ROOT
ATOM      1  C1  BNZ d   1       4.227   3.670   2.993  0.00  0.00     0.000 A 
ATOM      2  C2  BNZ d   1       4.011   4.826   3.695  0.00  0.00     0.000 A 
ATOM      3  C3  BNZ d   1       4.615   5.994   3.321  0.00  0.00     0.000 A 
ATOM      4  C4  BNZ d   1       5.463   5.997   2.272  0.00  0.00     0.000 A 
ATOM      5  C5  BNZ d   1       5.698   4.837   1.561  0.00  0.00     0.000 A 
ATOM      6  C6  BNZ d   1       5.058   3.672   1.916  0.00  0.00     0.000 A 
ENDROOT
TORSDOF 0
ENDMDL
