MODEL 1
REMARK minimizedAffinity 2.78397679
REMARK minimizedRMSD -1
REMARK  0 active torsions:
REMARK  status: ('A' for Active; 'I' for Inactive)
ROOT
ATOM      1  C1  BNZ d   1       0.844   0.410   4.271  0.00  0.00     0.000 A 
ATOM      2  C2  BNZ d   1       0.045   0.943   3.294  0.00  0.00     0.000 A 
ATOM      3  C3  BNZ d   1      -0.415   0.168   2.267  0.00  0.00     0.000 A 
ATOM      4  C4  BNZ d   1      -0.045  -1.127   2.195  0.00  0.00     0.000 A 
ATOM      5  C5  BNZ d   1       0.767  -1.677   3.167  0.00  0.00     0.000 A 
ATOM      6  C6  BNZ d   1       1.197  -0.903   4.221  0.00  0.00     0.000 A 
ENDROOT
TORSDOF 0
ENDMDL
