MODEL 1
REMARK minimizedAffinity 5.29886913
REMARK minimizedRMSD -1
REMARK  0 active torsions:
REMARK  status: ('A' for Active; 'I' for Inactive)
ROOT
ATOM      1  C1  BNZ d   1      -3.701   3.835  -0.592  0.00  0.00     0.000 A 
ATOM      2  C2  BNZ d   1      -5.021   3.854  -0.955  0.00  0.00     0.000 A 
ATOM      3  C3  BNZ d   1      -5.552   4.929  -1.611  0.00  0.00     0.000 A 
ATOM      4  C4  BNZ d   1      -4.772   6.000  -1.867  0.00  0.00     0.000 A 
ATOM      5  C5  BNZ d   1      -3.442   6.000  -1.499  0.00  0.00     0.000 A 
ATOM      6  C6  BNZ d   1      -2.902   4.899  -0.874  0.00  0.00     0.000 A 
ENDROOT
TORSDOF 0
ENDMDL
