MODEL 1
REMARK minimizedAffinity 10.3593264
REMARK minimizedRMSD -1
REMARK  0 active torsions:
REMARK  status: ('A' for Active; 'I' for Inactive)
ROOT
ATOM      1  C1  BNZ d   1       1.382  -0.502  -4.317  0.00  0.00     0.000 A 
ATOM      2  C2  BNZ d   1       1.148  -0.485  -2.968  0.00  0.00     0.000 A 
ATOM      3  C3  BNZ d   1      -0.042  -0.923  -2.458  0.00  0.00     0.000 A 
ATOM      4  C4  BNZ d   1      -1.011  -1.339  -3.300  0.00  0.00     0.000 A 
ATOM      5  C5  BNZ d   1      -0.793  -1.354  -4.663  0.00  0.00     0.000 A 
ATOM      6  C6  BNZ d   1       0.420  -0.949  -5.170  0.00  0.00     0.000 A 
ENDROOT
TORSDOF 0
ENDMDL
