MODEL 1
REMARK minimizedAffinity 6.87835503
REMARK minimizedRMSD -1
REMARK  0 active torsions:
REMARK  status: ('A' for Active; 'I' for Inactive)
ROOT
ATOM      1  C1  BNZ d   1      -0.406  -6.000  -3.784  0.00  0.00     0.000 A 
ATOM      2  C2  BNZ d   1       0.378  -5.999  -4.907  0.00  0.00     0.000 A 
ATOM      3  C3  BNZ d   1       0.034  -5.253  -6.000  0.00  0.00     0.000 A 
ATOM      4  C4  BNZ d   1      -1.111  -4.542  -5.984  0.00  0.00     0.000 A 
ATOM      5  C5  BNZ d   1      -1.917  -4.540  -4.863  0.00  0.00     0.000 A 
ATOM      6  C6  BNZ d   1      -1.548  -5.261  -3.750  0.00  0.00     0.000 A 
ENDROOT
TORSDOF 0
ENDMDL
