MODEL 1
REMARK minimizedAffinity 14.886673
REMARK minimizedRMSD -1
REMARK  0 active torsions:
REMARK  status: ('A' for Active; 'I' for Inactive)
ROOT
ATOM      1  C   UNL d   1       1.179  -0.305   2.534  0.00  0.00     0.020 A 
ATOM      2  C1  UNL d   1       0.847  -1.461   1.829  0.00  0.00     0.020 A 
ATOM      3  C2  UNL d   1      -0.191  -2.280   2.280  0.00  0.00     0.034 A 
ATOM      4  C3  UNL d   1      -0.900  -1.943   3.439  0.00  0.00     0.017 A 
ATOM      5  C4  UNL d   1      -0.566  -0.782   4.145  0.00  0.00     0.017 A 
ATOM      6  C5  UNL d   1       0.474   0.034   3.689  0.00  0.00     0.034 A 
ATOM      7 Cl   UNL d   1      -1.396  -0.301   5.583  0.00  0.00    -0.070 Cl
ATOM      8 Cl1  UNL d   1      -2.171  -3.001   3.939  0.00  0.00    -0.070 Cl
ENDROOT
TORSDOF 0
ENDMDL
