MODEL 1
REMARK minimizedAffinity 13.0601358
REMARK minimizedRMSD -1
REMARK  0 active torsions:
REMARK  status: ('A' for Active; 'I' for Inactive)
ROOT
ATOM      1  C   UNL d   1       1.115  -2.342   1.359  0.00  0.00     0.020 A 
ATOM      2  C1  UNL d   1       0.671  -1.112   1.841  0.00  0.00     0.020 A 
ATOM      3  C2  UNL d   1       1.496   0.012   1.750  0.00  0.00     0.034 A 
ATOM      4  C3  UNL d   1       2.768  -0.093   1.177  0.00  0.00     0.017 A 
ATOM      5  C4  UNL d   1       3.213  -1.329   0.694  0.00  0.00     0.017 A 
ATOM      6  C5  UNL d   1       2.383  -2.450   0.787  0.00  0.00     0.034 A 
ATOM      7 Cl   UNL d   1       4.770  -1.536  -0.027  0.00  0.00    -0.070 Cl
ATOM      8 Cl1  UNL d   1       3.734   1.338   1.098  0.00  0.00    -0.070 Cl
ENDROOT
TORSDOF 0
ENDMDL
