MODEL 1
REMARK minimizedAffinity 14.305541
REMARK minimizedRMSD -1
REMARK  0 active torsions:
REMARK  status: ('A' for Active; 'I' for Inactive)
ROOT
ATOM      1  C   UNL d   1       1.199  -0.347   1.987  0.00  0.00     0.020 A 
ATOM      2  C1  UNL d   1       0.870  -1.552   1.367  0.00  0.00     0.020 A 
ATOM      3  C2  UNL d   1      -0.082  -2.396   1.942  0.00  0.00     0.034 A 
ATOM      4  C3  UNL d   1      -0.710  -2.036   3.140  0.00  0.00     0.017 A 
ATOM      5  C4  UNL d   1      -0.379  -0.827   3.762  0.00  0.00     0.017 A 
ATOM      6  C5  UNL d   1       0.575   0.015   3.182  0.00  0.00     0.034 A 
ATOM      7 Cl   UNL d   1      -1.111  -0.315   5.242  0.00  0.00    -0.070 Cl
ATOM      8 Cl1  UNL d   1      -1.878  -3.128   3.794  0.00  0.00    -0.070 Cl
ENDROOT
TORSDOF 0
ENDMDL
