MODEL 1
REMARK minimizedAffinity 12.4317055
REMARK minimizedRMSD -1
REMARK  0 active torsions:
REMARK  status: ('A' for Active; 'I' for Inactive)
ROOT
ATOM      1  C   UNL d   1      -0.441   2.451  -0.426  0.00  0.00     0.020 A 
ATOM      2  C1  UNL d   1       0.332   2.571  -1.581  0.00  0.00     0.020 A 
ATOM      3  C2  UNL d   1      -0.282   2.827  -2.809  0.00  0.00     0.034 A 
ATOM      4  C3  UNL d   1      -1.673   2.963  -2.885  0.00  0.00     0.017 A 
ATOM      5  C4  UNL d   1      -2.448   2.843  -1.726  0.00  0.00     0.017 A 
ATOM      6  C5  UNL d   1      -1.828   2.587  -0.499  0.00  0.00     0.034 A 
ATOM      7 Cl   UNL d   1      -4.169   2.998  -1.741  0.00  0.00    -0.070 Cl
ATOM      8 Cl1  UNL d   1      -2.365   3.279  -4.436  0.00  0.00    -0.070 Cl
ENDROOT
TORSDOF 0
ENDMDL
