MODEL 1
REMARK minimizedAffinity 15.5895834
REMARK minimizedRMSD -1
REMARK  0 active torsions:
REMARK  status: ('A' for Active; 'I' for Inactive)
ROOT
ATOM      1  C   UNL d   1       1.185   5.674   0.293  0.00  0.00     0.020 A 
ATOM      2  C1  UNL d   1      -0.150   5.396   0.582  0.00  0.00     0.020 A 
ATOM      3  C2  UNL d   1      -0.762   4.265   0.037  0.00  0.00     0.034 A 
ATOM      4  C3  UNL d   1      -0.038   3.408  -0.800  0.00  0.00     0.017 A 
ATOM      5  C4  UNL d   1       1.303   3.688  -1.090  0.00  0.00     0.017 A 
ATOM      6  C5  UNL d   1       1.910   4.822  -0.541  0.00  0.00     0.034 A 
ATOM      7 Cl   UNL d   1       2.260   2.677  -2.114  0.00  0.00    -0.070 Cl
ATOM      8 Cl1  UNL d   1      -0.857   2.028  -1.439  0.00  0.00    -0.070 Cl
ENDROOT
TORSDOF 0
ENDMDL
