MODEL 1
REMARK minimizedAffinity 6.65029144
REMARK minimizedRMSD -1
REMARK  0 active torsions:
REMARK  status: ('A' for Active; 'I' for Inactive)
ROOT
ATOM      1  C   UNL d   1       2.249  -6.000  -5.569  0.00  0.00     0.020 A 
ATOM      2  C1  UNL d   1       0.936  -5.818  -6.000  0.00  0.00     0.020 A 
ATOM      3  C2  UNL d   1       0.001  -5.214  -5.155  0.00  0.00     0.034 A 
ATOM      4  C3  UNL d   1       0.379  -4.791  -3.876  0.00  0.00     0.017 A 
ATOM      5  C4  UNL d   1       1.698  -4.975  -3.444  0.00  0.00     0.017 A 
ATOM      6  C5  UNL d   1       2.629  -5.579  -4.294  0.00  0.00     0.034 A 
ATOM      7 Cl   UNL d   1       2.238  -4.479  -1.879  0.00  0.00    -0.070 Cl
ATOM      8 Cl1  UNL d   1      -0.828  -4.053  -2.884  0.00  0.00    -0.070 Cl
ENDROOT
TORSDOF 0
ENDMDL
