MODEL 1
REMARK minimizedAffinity 13.5886974
REMARK minimizedRMSD -1
REMARK  0 active torsions:
REMARK  status: ('A' for Active; 'I' for Inactive)
ROOT
ATOM      1  C   UNL d   1      -3.988  -5.360  -0.337  0.00  0.00     0.020 A 
ATOM      2  C1  UNL d   1      -2.923  -6.000   0.297  0.00  0.00     0.020 A 
ATOM      3  C2  UNL d   1      -2.420  -5.495   1.498  0.00  0.00     0.034 A 
ATOM      4  C3  UNL d   1      -2.980  -4.346   2.068  0.00  0.00     0.017 A 
ATOM      5  C4  UNL d   1      -4.048  -3.704   1.432  0.00  0.00     0.017 A 
ATOM      6  C5  UNL d   1      -4.549  -4.214   0.230  0.00  0.00     0.034 A 
ATOM      7 Cl   UNL d   1      -4.792  -2.283   2.075  0.00  0.00    -0.070 Cl
ATOM      8 Cl1  UNL d   1      -2.307  -3.777   3.555  0.00  0.00    -0.070 Cl
ENDROOT
TORSDOF 0
ENDMDL
