MODEL 1
REMARK minimizedAffinity 5.92431927
REMARK minimizedRMSD -1
REMARK  0 active torsions:
REMARK  status: ('A' for Active; 'I' for Inactive)
ROOT
ATOM      1  C   UNL d   1       2.703  -5.998  -5.579  0.00  0.00     0.020 A 
ATOM      2  C1  UNL d   1       1.366  -6.000  -5.973  0.00  0.00     0.020 A 
ATOM      3  C2  UNL d   1       0.375  -5.583  -5.082  0.00  0.00     0.034 A 
ATOM      4  C3  UNL d   1       0.719  -5.164  -3.792  0.00  0.00     0.017 A 
ATOM      5  C4  UNL d   1       2.061  -5.163  -3.397  0.00  0.00     0.017 A 
ATOM      6  C5  UNL d   1       3.050  -5.581  -4.293  0.00  0.00     0.034 A 
ATOM      7 Cl   UNL d   1       2.564  -4.660  -1.822  0.00  0.00    -0.070 Cl
ATOM      8 Cl1  UNL d   1      -0.559  -4.662  -2.743  0.00  0.00    -0.070 Cl
ENDROOT
TORSDOF 0
ENDMDL
