MODEL 1
REMARK minimizedAffinity 11.564187
REMARK minimizedRMSD -1
REMARK  0 active torsions:
REMARK  status: ('A' for Active; 'I' for Inactive)
ROOT
ATOM      1  C   UNL d   1      -1.861  -1.850   4.402  0.00  0.00     0.020 A 
ATOM      2  C1  UNL d   1      -1.621  -1.422   5.707  0.00  0.00     0.020 A 
ATOM      3  C2  UNL d   1      -0.480  -0.670   5.997  0.00  0.00     0.034 A 
ATOM      4  C3  UNL d   1       0.425  -0.344   4.980  0.00  0.00     0.017 A 
ATOM      5  C4  UNL d   1       0.183  -0.774   3.670  0.00  0.00     0.017 A 
ATOM      6  C5  UNL d   1      -0.961  -1.526   3.386  0.00  0.00     0.034 A 
ATOM      7 Cl   UNL d   1       1.253  -0.411   2.363  0.00  0.00    -0.070 Cl
ATOM      8 Cl1  UNL d   1       1.814   0.589   5.409  0.00  0.00    -0.070 Cl
ENDROOT
TORSDOF 0
ENDMDL
