MODEL 1
REMARK minimizedAffinity 13.350913
REMARK minimizedRMSD -1
REMARK  0 active torsions:
REMARK  status: ('A' for Active; 'I' for Inactive)
ROOT
ATOM      1  C   UNL d   1       3.393  -2.013   0.703  0.00  0.00     0.020 A 
ATOM      2  C1  UNL d   1       2.889  -3.172   0.114  0.00  0.00     0.020 A 
ATOM      3  C2  UNL d   1       1.562  -3.547   0.334  0.00  0.00     0.034 A 
ATOM      4  C3  UNL d   1       0.734  -2.762   1.145  0.00  0.00     0.017 A 
ATOM      5  C4  UNL d   1       1.241  -1.599   1.736  0.00  0.00     0.017 A 
ATOM      6  C5  UNL d   1       2.570  -1.228   1.512  0.00  0.00     0.034 A 
ATOM      7 Cl   UNL d   1       0.280  -0.580   2.749  0.00  0.00    -0.070 Cl
ATOM      8 Cl1  UNL d   1      -0.897  -3.285   1.373  0.00  0.00    -0.070 Cl
ENDROOT
TORSDOF 0
ENDMDL
