MODEL 1
REMARK minimizedAffinity 2.6067059
REMARK minimizedRMSD -1
REMARK  0 active torsions:
REMARK  status: ('A' for Active; 'I' for Inactive)
ROOT
ATOM      1  C   UNL d   1      -1.682  -2.850   4.247  0.00  0.00     0.020 A 
ATOM      2  C1  UNL d   1      -1.460  -2.237   5.480  0.00  0.00     0.020 A 
ATOM      3  C2  UNL d   1      -0.399  -1.341   5.633  0.00  0.00     0.034 A 
ATOM      4  C3  UNL d   1       0.443  -1.056   4.552  0.00  0.00     0.017 A 
ATOM      5  C4  UNL d   1       0.219  -1.671   3.315  0.00  0.00     0.017 A 
ATOM      6  C5  UNL d   1      -0.845  -2.567   3.167  0.00  0.00     0.034 A 
ATOM      7 Cl   UNL d   1       1.215  -1.369   1.936  0.00  0.00    -0.070 Cl
ATOM      8 Cl1  UNL d   1       1.734   0.062   4.813  0.00  0.00    -0.070 Cl
ENDROOT
TORSDOF 0
ENDMDL
