MODEL 1
REMARK minimizedAffinity 4.29242945
REMARK minimizedRMSD -1
REMARK  0 active torsions:
REMARK  status: ('A' for Active; 'I' for Inactive)
ROOT
ATOM      1  C   UNL d   1      -5.253  -4.375   5.338  0.00  0.00     0.020 A 
ATOM      2  C1  UNL d   1      -5.999  -5.508   5.014  0.00  0.00     0.020 A 
ATOM      3  C2  UNL d   1      -5.998  -5.993   3.704  0.00  0.00     0.034 A 
ATOM      4  C3  UNL d   1      -5.250  -5.345   2.714  0.00  0.00     0.017 A 
ATOM      5  C4  UNL d   1      -4.502  -4.208   3.041  0.00  0.00     0.017 A 
ATOM      6  C5  UNL d   1      -4.506  -3.727   4.354  0.00  0.00     0.034 A 
ATOM      7 Cl   UNL d   1      -3.554  -3.355   1.874  0.00  0.00    -0.070 Cl
ATOM      8 Cl1  UNL d   1      -5.294  -6.000   1.116  0.00  0.00    -0.070 Cl
ENDROOT
TORSDOF 0
ENDMDL
