MODEL 1
REMARK minimizedAffinity 17.5301552
REMARK minimizedRMSD -1
REMARK  0 active torsions:
REMARK  status: ('A' for Active; 'I' for Inactive)
ROOT
ATOM      1  C   UNL d   1       3.824  -1.440  -1.475  0.00  0.00     0.020 A 
ATOM      2  C1  UNL d   1       3.255  -2.595  -0.941  0.00  0.00     0.020 A 
ATOM      3  C2  UNL d   1       2.322  -2.500   0.094  0.00  0.00     0.034 A 
ATOM      4  C3  UNL d   1       1.956  -1.247   0.599  0.00  0.00     0.017 A 
ATOM      5  C4  UNL d   1       2.528  -0.087   0.062  0.00  0.00     0.017 A 
ATOM      6  C5  UNL d   1       3.461  -0.188  -0.975  0.00  0.00     0.034 A 
ATOM      7 Cl   UNL d   1       2.126   1.494   0.632  0.00  0.00    -0.070 Cl
ATOM      8 Cl1  UNL d   1       0.797  -1.203   1.880  0.00  0.00    -0.070 Cl
ENDROOT
TORSDOF 0
ENDMDL
