MODEL 1
REMARK minimizedAffinity -3.68899822
REMARK minimizedRMSD -1
REMARK  0 active torsions:
REMARK  status: ('A' for Active; 'I' for Inactive)
ROOT
ATOM      1  C   UNL d   1       1.119  -3.541   1.066  0.00  0.00     0.020 A 
ATOM      2  C1  UNL d   1       2.421  -3.046   1.000  0.00  0.00     0.020 A 
ATOM      3  C2  UNL d   1       2.738  -1.830   1.610  0.00  0.00     0.034 A 
ATOM      4  C3  UNL d   1       1.752  -1.106   2.290  0.00  0.00     0.017 A 
ATOM      5  C4  UNL d   1       0.445  -1.604   2.356  0.00  0.00     0.017 A 
ATOM      6  C5  UNL d   1       0.134  -2.821   1.743  0.00  0.00     0.034 A 
ATOM      7 Cl   UNL d   1      -0.825  -0.767   3.177  0.00  0.00    -0.070 Cl
ATOM      8 Cl1  UNL d   1       2.215   0.389   3.023  0.00  0.00    -0.070 Cl
ENDROOT
TORSDOF 0
ENDMDL
