MODEL 1
REMARK minimizedAffinity 11.8001766
REMARK minimizedRMSD -1
REMARK  0 active torsions:
REMARK  status: ('A' for Active; 'I' for Inactive)
ROOT
ATOM      1  C   UNL d   1       5.678  -3.732  -5.260  0.00  0.00     0.020 A 
ATOM      2  C1  UNL d   1       4.816  -2.923  -6.000  0.00  0.00     0.020 A 
ATOM      3  C2  UNL d   1       4.275  -1.771  -5.425  0.00  0.00     0.034 A 
ATOM      4  C3  UNL d   1       4.595  -1.425  -4.107  0.00  0.00     0.017 A 
ATOM      5  C4  UNL d   1       5.460  -2.237  -3.366  0.00  0.00     0.017 A 
ATOM      6  C5  UNL d   1       6.000  -3.389  -3.946  0.00  0.00     0.034 A 
ATOM      7 Cl   UNL d   1       5.902  -1.875  -1.734  0.00  0.00    -0.070 Cl
ATOM      8 Cl1  UNL d   1       3.889   0.014  -3.461  0.00  0.00    -0.070 Cl
ENDROOT
TORSDOF 0
ENDMDL
