MODEL 1
REMARK minimizedAffinity 15.8670206
REMARK minimizedRMSD -1
REMARK  0 active torsions:
REMARK  status: ('A' for Active; 'I' for Inactive)
ROOT
ATOM      1  C   UNL d   1      -3.003   4.354  -6.000  0.00  0.00     0.020 A 
ATOM      2  C1  UNL d   1      -1.635   4.510  -5.777  0.00  0.00     0.020 A 
ATOM      3  C2  UNL d   1      -1.074   4.099  -4.566  0.00  0.00     0.034 A 
ATOM      4  C3  UNL d   1      -1.880   3.531  -3.573  0.00  0.00     0.017 A 
ATOM      5  C4  UNL d   1      -3.253   3.375  -3.798  0.00  0.00     0.017 A 
ATOM      6  C5  UNL d   1      -3.810   3.788  -5.012  0.00  0.00     0.034 A 
ATOM      7 Cl   UNL d   1      -4.312   2.683  -2.620  0.00  0.00    -0.070 Cl
ATOM      8 Cl1  UNL d   1      -1.118   3.045  -2.100  0.00  0.00    -0.070 Cl
ENDROOT
TORSDOF 0
ENDMDL
