MODEL 1
REMARK minimizedAffinity 16.0286884
REMARK minimizedRMSD -1
REMARK  0 active torsions:
REMARK  status: ('A' for Active; 'I' for Inactive)
ROOT
ATOM      1  C   UNL d   1       2.583   0.094   2.970  0.00  0.00     0.020 A 
ATOM      2  C1  UNL d   1       3.606   0.720   2.259  0.00  0.00     0.020 A 
ATOM      3  C2  UNL d   1       4.000   0.219   1.016  0.00  0.00     0.034 A 
ATOM      4  C3  UNL d   1       3.372  -0.910   0.481  0.00  0.00     0.017 A 
ATOM      5  C4  UNL d   1       2.345  -1.538   1.195  0.00  0.00     0.017 A 
ATOM      6  C5  UNL d   1       1.953  -1.033   2.439  0.00  0.00     0.034 A 
ATOM      7 Cl   UNL d   1       1.522  -2.936   0.599  0.00  0.00    -0.070 Cl
ATOM      8 Cl1  UNL d   1       3.910  -1.475  -1.061  0.00  0.00    -0.070 Cl
ENDROOT
TORSDOF 0
ENDMDL
