MODEL 1
REMARK minimizedAffinity 11.1185379
REMARK minimizedRMSD -1
REMARK  0 active torsions:
REMARK  status: ('A' for Active; 'I' for Inactive)
ROOT
ATOM      1  C   UNL d   1       0.754   6.000  -0.225  0.00  0.00     0.020 A 
ATOM      2  C1  UNL d   1       1.466   5.560   0.890  0.00  0.00     0.020 A 
ATOM      3  C2  UNL d   1       1.672   4.193   1.092  0.00  0.00     0.034 A 
ATOM      4  C3  UNL d   1       1.166   3.262   0.178  0.00  0.00     0.017 A 
ATOM      5  C4  UNL d   1       0.451   3.705  -0.941  0.00  0.00     0.017 A 
ATOM      6  C5  UNL d   1       0.248   5.075  -1.138  0.00  0.00     0.034 A 
ATOM      7 Cl   UNL d   1      -0.204   2.617  -2.113  0.00  0.00    -0.070 Cl
ATOM      8 Cl1  UNL d   1       1.459   1.589   0.490  0.00  0.00    -0.070 Cl
ENDROOT
TORSDOF 0
ENDMDL
