MODEL 1
REMARK minimizedAffinity -4.97403336
REMARK minimizedRMSD -1
REMARK  0 active torsions:
REMARK  status: ('A' for Active; 'I' for Inactive)
ROOT
ATOM      1  C4' PXY d   1      -2.409   0.004   1.046  0.00  0.00     0.077 C 
ATOM      2  C1' PXY d   1       1.667   0.041   5.144  0.00  0.00     0.077 C 
ATOM      3  C1  PXY d   1       0.595   0.044   4.072  0.00  0.00    -0.082 A 
ATOM      4  C2  PXY d   1       0.024  -1.095   3.715  0.00  0.00     0.003 A 
ATOM      5  C3  PXY d   1      -0.925  -1.115   2.725  0.00  0.00     0.003 A 
ATOM      6  C4  PXY d   1      -1.330   0.050   2.130  0.00  0.00    -0.082 A 
ATOM      7  C5  PXY d   1      -0.759   1.217   2.496  0.00  0.00     0.003 A 
ATOM      8  C6  PXY d   1       0.231   1.211   3.474  0.00  0.00     0.003 A 
ENDROOT
TORSDOF 0
ENDMDL
