MODEL 1
REMARK minimizedAffinity -3.62238765
REMARK minimizedRMSD -1
REMARK  0 active torsions:
REMARK  status: ('A' for Active; 'I' for Inactive)
ROOT
ATOM      1  C4' PXY d   1       2.490  -1.782   4.774  0.00  0.00     0.077 C 
ATOM      2  C1' PXY d   1      -1.987   0.331   1.789  0.00  0.00     0.077 C 
ATOM      3  C1  PXY d   1      -0.820  -0.222   2.583  0.00  0.00    -0.082 A 
ATOM      4  C2  PXY d   1       0.406  -0.129   2.094  0.00  0.00     0.003 A 
ATOM      5  C3  PXY d   1       1.470  -0.652   2.784  0.00  0.00     0.003 A 
ATOM      6  C4  PXY d   1       1.282  -1.230   4.012  0.00  0.00    -0.082 A 
ATOM      7  C5  PXY d   1       0.036  -1.319   4.522  0.00  0.00     0.003 A 
ATOM      8  C6  PXY d   1      -1.035  -0.819   3.787  0.00  0.00     0.003 A 
ENDROOT
TORSDOF 0
ENDMDL
