MODEL 1
REMARK minimizedAffinity 9.75101185
REMARK minimizedRMSD -1
REMARK  0 active torsions:
REMARK  status: ('A' for Active; 'I' for Inactive)
ROOT
ATOM      1  C4' PXY d   1       2.730  -0.688  -0.130  0.00  0.00     0.077 C 
ATOM      2  C1' PXY d   1      -2.986   0.166   0.002  0.00  0.00     0.077 C 
ATOM      3  C1  PXY d   1      -1.485  -0.049  -0.024  0.00  0.00    -0.082 A 
ATOM      4  C2  PXY d   1      -0.916  -0.560  -1.103  0.00  0.00     0.003 A 
ATOM      5  C3  PXY d   1       0.435  -0.791  -1.131  0.00  0.00     0.003 A 
ATOM      6  C4  PXY d   1       1.219  -0.445  -0.063  0.00  0.00    -0.082 A 
ATOM      7  C5  PXY d   1       0.647   0.087   1.038  0.00  0.00     0.003 A 
ATOM      8  C6  PXY d   1      -0.731   0.275   1.062  0.00  0.00     0.003 A 
ENDROOT
TORSDOF 0
ENDMDL
