MODEL 1
REMARK minimizedAffinity 8.04155445
REMARK minimizedRMSD -1
REMARK  0 active torsions:
REMARK  status: ('A' for Active; 'I' for Inactive)
ROOT
ATOM      1  C4' PXY d   1      -1.083  -0.395  -1.159  0.00  0.00     0.077 C 
ATOM      2  C1' PXY d   1       2.126   0.716   3.518  0.00  0.00     0.077 C 
ATOM      3  C1  PXY d   1       1.295   0.428   2.284  0.00  0.00    -0.082 A 
ATOM      4  C2  PXY d   1      -0.024   0.512   2.349  0.00  0.00     0.003 A 
ATOM      5  C3  PXY d   1      -0.793   0.223   1.251  0.00  0.00     0.003 A 
ATOM      6  C4  PXY d   1      -0.204  -0.103   0.059  0.00  0.00    -0.082 A 
ATOM      7  C5  PXY d   1       1.142  -0.181  -0.018  0.00  0.00     0.003 A 
ATOM      8  C6  PXY d   1       1.903   0.076   1.118  0.00  0.00     0.003 A 
ENDROOT
TORSDOF 0
ENDMDL
