MODEL 1
REMARK minimizedAffinity 9.74069595
REMARK minimizedRMSD -1
REMARK  0 active torsions:
REMARK  status: ('A' for Active; 'I' for Inactive)
ROOT
ATOM      1  C4' PXY d   1      -3.548  -0.370  -0.421  0.00  0.00     0.077 C 
ATOM      2  C1' PXY d   1       1.241   0.496   2.698  0.00  0.00     0.077 C 
ATOM      3  C1  PXY d   1      -0.008   0.272   1.870  0.00  0.00    -0.082 A 
ATOM      4  C2  PXY d   1      -1.199   0.418   2.428  0.00  0.00     0.003 A 
ATOM      5  C3  PXY d   1      -2.339   0.188   1.702  0.00  0.00     0.003 A 
ATOM      6  C4  PXY d   1      -2.260  -0.144   0.375  0.00  0.00    -0.082 A 
ATOM      7  C5  PXY d   1      -1.049  -0.285  -0.204  0.00  0.00     0.003 A 
ATOM      8  C6  PXY d   1       0.096  -0.087   0.561  0.00  0.00     0.003 A 
ENDROOT
TORSDOF 0
ENDMDL
