MODEL 1
REMARK minimizedAffinity 4.64968395
REMARK minimizedRMSD -1
REMARK  0 active torsions:
REMARK  status: ('A' for Active; 'I' for Inactive)
ROOT
ATOM      1  C4' PXY d   1      -3.048  -0.634   2.560  0.00  0.00     0.077 C 
ATOM      2  C1' PXY d   1       1.912   0.557  -0.159  0.00  0.00     0.077 C 
ATOM      3  C1  PXY d   1       0.617   0.246   0.565  0.00  0.00    -0.082 A 
ATOM      4  C2  PXY d   1      -0.329  -0.443  -0.052  0.00  0.00     0.003 A 
ATOM      5  C3  PXY d   1      -1.519  -0.706   0.577  0.00  0.00     0.003 A 
ATOM      6  C4  PXY d   1      -1.721  -0.305   1.871  0.00  0.00    -0.082 A 
ATOM      7  C5  PXY d   1      -0.757   0.390   2.511  0.00  0.00     0.003 A 
ATOM      8  C6  PXY d   1       0.427   0.682   1.840  0.00  0.00     0.003 A 
ENDROOT
TORSDOF 0
ENDMDL
