MODEL 1
REMARK minimizedAffinity 6.48845339
REMARK minimizedRMSD -1
REMARK  0 active torsions:
REMARK  status: ('A' for Active; 'I' for Inactive)
ROOT
ATOM      1  C4' PXY d   1      -1.163  -0.198  -0.386  0.00  0.00     0.077 C 
ATOM      2  C1' PXY d   1      -0.329  -1.305  -5.998  0.00  0.00     0.077 C 
ATOM      3  C1  PXY d   1      -0.554  -1.026  -4.525  0.00  0.00    -0.082 A 
ATOM      4  C2  PXY d   1      -0.546   0.222  -4.087  0.00  0.00     0.003 A 
ATOM      5  C3  PXY d   1      -0.716   0.490  -2.753  0.00  0.00     0.003 A 
ATOM      6  C4  PXY d   1      -0.949  -0.526  -1.866  0.00  0.00    -0.082 A 
ATOM      7  C5  PXY d   1      -0.969  -1.802  -2.306  0.00  0.00     0.003 A 
ATOM      8  C6  PXY d   1      -0.753  -2.056  -3.658  0.00  0.00     0.003 A 
ENDROOT
TORSDOF 0
ENDMDL
