MODEL 1
REMARK minimizedAffinity -0.0362095907
REMARK minimizedRMSD -1
REMARK  0 active torsions:
REMARK  status: ('A' for Active; 'I' for Inactive)
ROOT
ATOM      1  C4' PXY d   1       2.586   1.902   2.574  0.00  0.00     0.077 C 
ATOM      2  C1' PXY d   1      -2.789  -0.223   2.495  0.00  0.00     0.077 C 
ATOM      3  C1  PXY d   1      -1.384   0.346   2.514  0.00  0.00    -0.082 A 
ATOM      4  C2  PXY d   1      -0.356  -0.440   2.237  0.00  0.00     0.003 A 
ATOM      5  C3  PXY d   1       0.923   0.051   2.281  0.00  0.00     0.003 A 
ATOM      6  C4  PXY d   1       1.150   1.372   2.558  0.00  0.00    -0.082 A 
ATOM      7  C5  PXY d   1       0.105   2.183   2.830  0.00  0.00     0.003 A 
ATOM      8  C6  PXY d   1      -1.183   1.656   2.821  0.00  0.00     0.003 A 
ENDROOT
TORSDOF 0
ENDMDL
