MODEL 1
REMARK minimizedAffinity -2.13802958
REMARK minimizedRMSD -1
REMARK  0 active torsions:
REMARK  status: ('A' for Active; 'I' for Inactive)
ROOT
ATOM      1  C4' PXY d   1      -3.138  -0.881  -0.958  0.00  0.00     0.077 C 
ATOM      2  C1' PXY d   1       1.297  -0.241   2.695  0.00  0.00     0.077 C 
ATOM      3  C1  PXY d   1       0.142  -0.409   1.727  0.00  0.00    -0.082 A 
ATOM      4  C2  PXY d   1      -1.066   0.006   2.071  0.00  0.00     0.003 A 
ATOM      5  C3  PXY d   1      -2.128  -0.168   1.221  0.00  0.00     0.003 A 
ATOM      6  C4  PXY d   1      -1.941  -0.723  -0.016  0.00  0.00    -0.082 A 
ATOM      7  C5  PXY d   1      -0.709  -1.139  -0.380  0.00  0.00     0.003 A 
ATOM      8  C6  PXY d   1       0.348  -0.992   0.514  0.00  0.00     0.003 A 
ENDROOT
TORSDOF 0
ENDMDL
