MODEL 1
REMARK minimizedAffinity -2.98679805
REMARK minimizedRMSD -1
REMARK  0 active torsions:
REMARK  status: ('A' for Active; 'I' for Inactive)
ROOT
ATOM      1  O1  BZF d   1      -0.983  -0.650  -0.787  0.00  0.00    -0.204 OA
ATOM      2  C2  BZF d   1       0.302  -0.971  -1.180  0.00  0.00     0.174 A 
ATOM      3  C3  BZF d   1       1.205  -0.215  -0.523  0.00  0.00    -0.012 A 
ATOM      4  C3A BZF d   1       0.442   0.565   0.402  0.00  0.00    -0.107 A 
ATOM      5  C4  BZF d   1       0.776   1.495   1.345  0.00  0.00     0.055 A 
ATOM      6  C5  BZF d   1      -0.214   2.125   2.030  0.00  0.00    -0.016 A 
ATOM      7  C6  BZF d   1      -1.546   1.855   1.795  0.00  0.00     0.022 A 
ATOM      8  C7  BZF d   1      -1.926   0.937   0.873  0.00  0.00     0.029 A 
ATOM      9  C7A BZF d   1      -0.927   0.274   0.202  0.00  0.00     0.058 A 
ENDROOT
TORSDOF 0
ENDMDL
