MODEL 1
REMARK minimizedAffinity -4.75401258
REMARK minimizedRMSD -1
REMARK  0 active torsions:
REMARK  status: ('A' for Active; 'I' for Inactive)
ROOT
ATOM      1  O1  BZF d   1       0.211  -0.233  -0.779  0.00  0.00    -0.204 OA
ATOM      2  C2  BZF d   1       0.361  -1.073   0.307  0.00  0.00     0.174 A 
ATOM      3  C3  BZF d   1       0.296  -0.379   1.461  0.00  0.00    -0.012 A 
ATOM      4  C3A BZF d   1       0.000   0.967   1.075  0.00  0.00    -0.107 A 
ATOM      5  C4  BZF d   1      -0.201   2.122   1.774  0.00  0.00     0.055 A 
ATOM      6  C5  BZF d   1      -0.397   3.281   1.093  0.00  0.00    -0.016 A 
ATOM      7  C6  BZF d   1      -0.391   3.323  -0.286  0.00  0.00     0.022 A 
ATOM      8  C7  BZF d   1      -0.200   2.202  -1.023  0.00  0.00     0.029 A 
ATOM      9  C7A BZF d   1      -0.035   1.023  -0.338  0.00  0.00     0.058 A 
ENDROOT
TORSDOF 0
ENDMDL
