MODEL 1
REMARK minimizedAffinity -5.01105118
REMARK minimizedRMSD -1
REMARK  0 active torsions:
REMARK  status: ('A' for Active; 'I' for Inactive)
ROOT
ATOM      1  O1  BZF d   1       0.168   0.034  -0.725  0.00  0.00    -0.204 OA
ATOM      2  C2  BZF d   1       0.335  -0.929   0.251  0.00  0.00     0.174 A 
ATOM      3  C3  BZF d   1      -0.024  -0.451   1.460  0.00  0.00    -0.012 A 
ATOM      4  C3A BZF d   1      -0.528   0.865   1.210  0.00  0.00    -0.107 A 
ATOM      5  C4  BZF d   1      -1.050   1.839   2.013  0.00  0.00     0.055 A 
ATOM      6  C5  BZF d   1      -1.380   3.038   1.467  0.00  0.00    -0.016 A 
ATOM      7  C6  BZF d   1      -1.196   3.300   0.125  0.00  0.00     0.022 A 
ATOM      8  C7  BZF d   1      -0.687   2.364  -0.712  0.00  0.00     0.029 A 
ATOM      9  C7A BZF d   1      -0.383   1.139  -0.169  0.00  0.00     0.058 A 
ENDROOT
TORSDOF 0
ENDMDL
