MODEL 1
REMARK minimizedAffinity -1.56347024
REMARK minimizedRMSD -1
REMARK  0 active torsions:
REMARK  status: ('A' for Active; 'I' for Inactive)
ROOT
ATOM      1  O1  BZF d   1      -1.500   0.079  -0.886  0.00  0.00    -0.204 OA
ATOM      2  C2  BZF d   1      -0.420  -0.732  -1.177  0.00  0.00     0.174 A 
ATOM      3  C3  BZF d   1       0.629  -0.435  -0.382  0.00  0.00    -0.012 A 
ATOM      4  C3A BZF d   1       0.146   0.565   0.520  0.00  0.00    -0.107 A 
ATOM      5  C4  BZF d   1       0.715   1.248   1.557  0.00  0.00     0.055 A 
ATOM      6  C5  BZF d   1      -0.006   2.211   2.188  0.00  0.00    -0.016 A 
ATOM      7  C6  BZF d   1      -1.295   2.521   1.807  0.00  0.00     0.022 A 
ATOM      8  C7  BZF d   1      -1.904   1.867   0.788  0.00  0.00     0.029 A 
ATOM      9  C7A BZF d   1      -1.189   0.870   0.169  0.00  0.00     0.058 A 
ENDROOT
TORSDOF 0
ENDMDL
