MODEL 1
REMARK minimizedAffinity -3.81422019
REMARK minimizedRMSD -1
REMARK  0 active torsions:
REMARK  status: ('A' for Active; 'I' for Inactive)
ROOT
ATOM      1  O1  BZF d   1       0.082  -2.900  -1.194  0.00  0.00    -0.204 OA
ATOM      2  C2  BZF d   1      -1.162  -3.407  -0.869  0.00  0.00     0.174 A 
ATOM      3  C3  BZF d   1      -1.055  -4.664  -0.390  0.00  0.00    -0.012 A 
ATOM      4  C3A BZF d   1       0.351  -4.926  -0.330  0.00  0.00    -0.107 A 
ATOM      5  C4  BZF d   1       1.089  -6.000   0.076  0.00  0.00     0.055 A 
ATOM      6  C5  BZF d   1       2.440  -5.963  -0.063  0.00  0.00    -0.016 A 
ATOM      7  C6  BZF d   1       3.085  -4.872  -0.608  0.00  0.00     0.022 A 
ATOM      8  C7  BZF d   1       2.395  -3.781  -1.021  0.00  0.00     0.029 A 
ATOM      9  C7A BZF d   1       1.032  -3.802  -0.852  0.00  0.00     0.058 A 
ENDROOT
TORSDOF 0
ENDMDL
