MODEL 1
REMARK minimizedAffinity -2.78193569
REMARK minimizedRMSD -1
REMARK  0 active torsions:
REMARK  status: ('A' for Active; 'I' for Inactive)
ROOT
ATOM      1  O1  BZF d   1       0.908  -2.159  -0.081  0.00  0.00    -0.204 OA
ATOM      2  C2  BZF d   1       0.411  -2.463  -1.334  0.00  0.00     0.174 A 
ATOM      3  C3  BZF d   1      -0.425  -1.496  -1.764  0.00  0.00    -0.012 A 
ATOM      4  C3A BZF d   1      -0.381  -0.484  -0.754  0.00  0.00    -0.107 A 
ATOM      5  C4  BZF d   1      -0.986   0.733  -0.617  0.00  0.00     0.055 A 
ATOM      6  C5  BZF d   1      -0.788   1.444   0.523  0.00  0.00    -0.016 A 
ATOM      7  C6  BZF d   1       0.004   0.968   1.548  0.00  0.00     0.022 A 
ATOM      8  C7  BZF d   1       0.629  -0.231   1.456  0.00  0.00     0.029 A 
ATOM      9  C7A BZF d   1       0.457  -0.937   0.290  0.00  0.00     0.058 A 
ENDROOT
TORSDOF 0
ENDMDL
