MODEL 1
REMARK minimizedAffinity 0.262453675
REMARK minimizedRMSD -1
REMARK  0 active torsions:
REMARK  status: ('A' for Active; 'I' for Inactive)
ROOT
ATOM      1  O1  BZF d   1       0.224  -1.975   0.195  0.00  0.00    -0.204 OA
ATOM      2  C2  BZF d   1       0.537  -2.669  -0.957  0.00  0.00     0.174 A 
ATOM      3  C3  BZF d   1       0.345  -1.899  -2.047  0.00  0.00    -0.012 A 
ATOM      4  C3A BZF d   1      -0.029  -0.615  -1.539  0.00  0.00    -0.107 A 
ATOM      5  C4  BZF d   1      -0.336   0.577  -2.132  0.00  0.00     0.055 A 
ATOM      6  C5  BZF d   1      -0.730   1.619  -1.354  0.00  0.00    -0.016 A 
ATOM      7  C6  BZF d   1      -0.834   1.504   0.017  0.00  0.00     0.022 A 
ATOM      8  C7  BZF d   1      -0.535   0.344   0.650  0.00  0.00     0.029 A 
ATOM      9  C7A BZF d   1      -0.104  -0.701  -0.129  0.00  0.00     0.058 A 
ENDROOT
TORSDOF 0
ENDMDL
