MODEL 1
REMARK minimizedAffinity -3.87550902
REMARK minimizedRMSD -1
REMARK  1 active torsions:
REMARK  status: ('A' for Active; 'I' for Inactive)
REMARK    1  A    between atoms: C1_2  and  C2_3 
ROOT
ATOM      1  C2  UNL d   1       0.950   0.701  -1.590  0.00  0.00    -0.073 A 
ATOM      2  C3  UNL d   1       1.148  -0.467  -0.844  0.00  0.00    -0.002 A 
ATOM      3  C4  UNL d   1       1.487  -1.661  -1.482  0.00  0.00     0.004 A 
ATOM      4  C5  UNL d   1       1.639  -1.698  -2.868  0.00  0.00    -0.004 A 
ATOM      5  C6  UNL d   1       1.456  -0.538  -3.629  0.00  0.00    -0.075 A 
ATOM      6  C7  UNL d   1       1.613  -0.562  -5.121  0.00  0.00     0.076 C 
ATOM      7  C8  UNL d   1       1.113   0.656  -2.982  0.00  0.00     0.001 A 
ENDROOT
BRANCH   1   8
ATOM      8  C1  UNL d   1       0.590   1.994  -0.905  0.00  0.00     0.053 C 
ATOM      9  C   UNL d   1      -0.891   2.067  -0.567  0.00  0.00     0.018 C 
ENDBRANCH   1   8
TORSDOF 1
ENDMDL
