MODEL 1
REMARK minimizedAffinity 3.60326719
REMARK minimizedRMSD -1
REMARK  1 active torsions:
REMARK  status: ('A' for Active; 'I' for Inactive)
REMARK    1  A    between atoms: C1_2  and  C2_3 
ROOT
ATOM      1  C2  UNL d   1       1.302  -2.104  -1.785  0.00  0.00    -0.073 A 
ATOM      2  C3  UNL d   1       1.143  -3.200  -2.640  0.00  0.00    -0.002 A 
ATOM      3  C4  UNL d   1       1.131  -3.018  -4.023  0.00  0.00     0.004 A 
ATOM      4  C5  UNL d   1       1.285  -1.742  -4.565  0.00  0.00    -0.004 A 
ATOM      5  C6  UNL d   1       1.457  -0.636  -3.727  0.00  0.00    -0.075 A 
ATOM      6  C7  UNL d   1       1.622   0.743  -4.295  0.00  0.00     0.076 C 
ATOM      7  C8  UNL d   1       1.466  -0.826  -2.339  0.00  0.00     0.001 A 
ENDROOT
BRANCH   1   8
ATOM      8  C1  UNL d   1       1.322  -2.295  -0.290  0.00  0.00     0.053 C 
ATOM      9  C   UNL d   1      -0.063  -2.582   0.267  0.00  0.00     0.018 C 
ENDBRANCH   1   8
TORSDOF 1
ENDMDL
