MODEL 1
REMARK minimizedAffinity -1.80473661
REMARK minimizedRMSD -1
REMARK  1 active torsions:
REMARK  status: ('A' for Active; 'I' for Inactive)
REMARK    1  A    between atoms: C1_2  and  C2_3 
ROOT
ATOM      1  C2  UNL d   1       1.718  -0.003  -3.379  0.00  0.00    -0.073 A 
ATOM      2  C3  UNL d   1       2.081  -1.254  -2.868  0.00  0.00    -0.002 A 
ATOM      3  C4  UNL d   1       1.859  -1.557  -1.523  0.00  0.00     0.004 A 
ATOM      4  C5  UNL d   1       1.267  -0.617  -0.680  0.00  0.00    -0.004 A 
ATOM      5  C6  UNL d   1       0.886   0.635  -1.176  0.00  0.00    -0.075 A 
ATOM      6  C7  UNL d   1       0.250   1.658  -0.282  0.00  0.00     0.076 C 
ATOM      7  C8  UNL d   1       1.115   0.932  -2.526  0.00  0.00     0.001 A 
ENDROOT
BRANCH   1   8
ATOM      8  C1  UNL d   1       1.949   0.327  -4.831  0.00  0.00     0.053 C 
ATOM      9  C   UNL d   1       1.909   1.824  -5.090  0.00  0.00     0.018 C 
ENDBRANCH   1   8
TORSDOF 1
ENDMDL
