MODEL 1
REMARK minimizedAffinity 2.99121833
REMARK minimizedRMSD -1
REMARK  1 active torsions:
REMARK  status: ('A' for Active; 'I' for Inactive)
REMARK    1  A    between atoms: C1_2  and  C2_3 
ROOT
ATOM      1  C2  UNL d   1       5.484   2.382   5.266  0.00  0.00    -0.073 A 
ATOM      2  C3  UNL d   1       5.118   2.367   3.915  0.00  0.00    -0.002 A 
ATOM      3  C4  UNL d   1       4.960   1.155   3.241  0.00  0.00     0.004 A 
ATOM      4  C5  UNL d   1       5.158  -0.052   3.911  0.00  0.00    -0.004 A 
ATOM      5  C6  UNL d   1       5.512  -0.058   5.264  0.00  0.00    -0.075 A 
ATOM      6  C7  UNL d   1       5.732  -1.348   5.999  0.00  0.00     0.076 C 
ATOM      7  C8  UNL d   1       5.672   1.163   5.933  0.00  0.00     0.001 A 
ENDROOT
BRANCH   1   8
ATOM      8  C1  UNL d   1       5.650   3.688   6.000  0.00  0.00     0.053 C 
ATOM      9  C   UNL d   1       5.456   4.885   5.083  0.00  0.00     0.018 C 
ENDBRANCH   1   8
TORSDOF 1
ENDMDL
