MODEL 1
REMARK minimizedAffinity 1.7289685
REMARK minimizedRMSD -1
REMARK  1 active torsions:
REMARK  status: ('A' for Active; 'I' for Inactive)
REMARK    1  A    between atoms: C1_2  and  C2_3 
ROOT
ATOM      1  C2  UNL d   1       0.292   0.475  -0.279  0.00  0.00    -0.073 A 
ATOM      2  C3  UNL d   1      -0.599  -0.169   0.588  0.00  0.00    -0.002 A 
ATOM      3  C4  UNL d   1      -0.643  -1.563   0.645  0.00  0.00     0.004 A 
ATOM      4  C5  UNL d   1       0.206  -2.326  -0.156  0.00  0.00    -0.004 A 
ATOM      5  C6  UNL d   1       1.112  -1.701  -1.019  0.00  0.00    -0.075 A 
ATOM      6  C7  UNL d   1       2.031  -2.507  -1.889  0.00  0.00     0.076 C 
ATOM      7  C8  UNL d   1       1.148  -0.301  -1.073  0.00  0.00     0.001 A 
ENDROOT
BRANCH   1   8
ATOM      8  C1  UNL d   1       0.347   1.979  -0.340  0.00  0.00     0.053 C 
ATOM      9  C   UNL d   1       0.968   2.578   0.912  0.00  0.00     0.018 C 
ENDBRANCH   1   8
TORSDOF 1
ENDMDL
