MODEL 1
REMARK minimizedAffinity 0.710190713
REMARK minimizedRMSD -1
REMARK  1 active torsions:
REMARK  status: ('A' for Active; 'I' for Inactive)
REMARK    1  A    between atoms: C1_2  and  C2_3 
ROOT
ATOM      1  C2  UNL d   1       5.418   1.914   5.291  0.00  0.00    -0.073 A 
ATOM      2  C3  UNL d   1       5.777   3.066   6.000  0.00  0.00    -0.002 A 
ATOM      3  C4  UNL d   1       5.901   4.290   5.340  0.00  0.00     0.004 A 
ATOM      4  C5  UNL d   1       5.662   4.376   3.969  0.00  0.00    -0.004 A 
ATOM      5  C6  UNL d   1       5.290   3.238   3.245  0.00  0.00    -0.075 A 
ATOM      6  C7  UNL d   1       5.031   3.313   1.769  0.00  0.00     0.076 C 
ATOM      7  C8  UNL d   1       5.170   2.013   3.914  0.00  0.00     0.001 A 
ENDROOT
BRANCH   1   8
ATOM      8  C1  UNL d   1       5.276   0.592   5.999  0.00  0.00     0.053 C 
ATOM      9  C   UNL d   1       5.743  -0.570   5.137  0.00  0.00     0.018 C 
ENDBRANCH   1   8
TORSDOF 1
ENDMDL
