MODEL 1
REMARK minimizedAffinity 6.00347853
REMARK minimizedRMSD -1
REMARK  1 active torsions:
REMARK  status: ('A' for Active; 'I' for Inactive)
REMARK    1  A    between atoms: C1_2  and  C2_3 
ROOT
ATOM      1  C2  UNL d   1      -0.753  -1.280   0.293  0.00  0.00    -0.073 A 
ATOM      2  C3  UNL d   1      -0.740  -2.624   0.682  0.00  0.00    -0.002 A 
ATOM      3  C4  UNL d   1       0.291  -3.468   0.267  0.00  0.00     0.004 A 
ATOM      4  C5  UNL d   1       1.322  -2.975  -0.533  0.00  0.00    -0.004 A 
ATOM      5  C6  UNL d   1       1.333  -1.632  -0.922  0.00  0.00    -0.075 A 
ATOM      6  C7  UNL d   1       2.433  -1.087  -1.785  0.00  0.00     0.076 C 
ATOM      7  C8  UNL d   1       0.292  -0.791  -0.504  0.00  0.00     0.001 A 
ENDROOT
BRANCH   1   8
ATOM      8  C1  UNL d   1      -1.862  -0.363   0.744  0.00  0.00     0.053 C 
ATOM      9  C   UNL d   1      -2.181  -0.539   2.220  0.00  0.00     0.018 C 
ENDBRANCH   1   8
TORSDOF 1
ENDMDL
