MODEL 1
REMARK minimizedAffinity 9.05376625
REMARK minimizedRMSD -1
REMARK  0 active torsions:
REMARK  status: ('A' for Active; 'I' for Inactive)
ROOT
ATOM      1  C2' OXE d   1       3.140   0.266   1.074  0.00  0.00     0.078 C 
ATOM      2  C1' OXE d   1       0.758   0.222   2.560  0.00  0.00     0.078 C 
ATOM      3  C1  OXE d   1       1.125   1.505   1.857  0.00  0.00    -0.078 A 
ATOM      4  C2  OXE d   1       2.315   1.532   1.170  0.00  0.00    -0.078 A 
ATOM      5  C3  OXE d   1       2.675   2.673   0.459  0.00  0.00     0.003 A 
ATOM      6  C4  OXE d   1       1.912   3.843   0.562  0.00  0.00    -0.002 A 
ATOM      7  C5  OXE d   1       0.717   3.849   1.288  0.00  0.00    -0.002 A 
ATOM      8  C6  OXE d   1       0.288   2.678   1.905  0.00  0.00     0.003 A 
ENDROOT
TORSDOF 0
ENDMDL
