MODEL 1
REMARK minimizedAffinity 12.266057
REMARK minimizedRMSD -1
REMARK  0 active torsions:
REMARK  status: ('A' for Active; 'I' for Inactive)
ROOT
ATOM      1  C2' OXE d   1       2.566  -0.031   0.889  0.00  0.00     0.078 C 
ATOM      2  C1' OXE d   1       1.889   2.632   0.317  0.00  0.00     0.078 C 
ATOM      3  C1  OXE d   1       2.597   1.841  -0.754  0.00  0.00    -0.078 A 
ATOM      4  C2  OXE d   1       2.966   0.553  -0.449  0.00  0.00    -0.078 A 
ATOM      5  C3  OXE d   1       3.572  -0.239  -1.420  0.00  0.00     0.003 A 
ATOM      6  C4  OXE d   1       3.947   0.312  -2.651  0.00  0.00    -0.002 A 
ATOM      7  C5  OXE d   1       3.616   1.633  -2.968  0.00  0.00    -0.002 A 
ATOM      8  C6  OXE d   1       2.905   2.397  -2.049  0.00  0.00     0.003 A 
ENDROOT
TORSDOF 0
ENDMDL
