MODEL 1
REMARK minimizedAffinity -0.813724697
REMARK minimizedRMSD -1
REMARK  0 active torsions:
REMARK  status: ('A' for Active; 'I' for Inactive)
ROOT
ATOM      1  C2' OXE d   1       2.163   1.039   1.312  0.00  0.00     0.078 C 
ATOM      2  C1' OXE d   1       4.472  -0.485   1.788  0.00  0.00     0.078 C 
ATOM      3  C1  OXE d   1       4.614   0.767   0.959  0.00  0.00    -0.078 A 
ATOM      4  C2  OXE d   1       3.471   1.481   0.692  0.00  0.00    -0.078 A 
ATOM      5  C3  OXE d   1       3.554   2.673  -0.023  0.00  0.00     0.003 A 
ATOM      6  C4  OXE d   1       4.766   3.069  -0.602  0.00  0.00    -0.002 A 
ATOM      7  C5  OXE d   1       5.935   2.335  -0.376  0.00  0.00    -0.002 A 
ATOM      8  C6  OXE d   1       5.884   1.207   0.436  0.00  0.00     0.003 A 
ENDROOT
TORSDOF 0
ENDMDL
