MODEL 1
REMARK minimizedAffinity 17.7277412
REMARK minimizedRMSD -1
REMARK  0 active torsions:
REMARK  status: ('A' for Active; 'I' for Inactive)
ROOT
ATOM      1  C2' OXE d   1       2.039  -2.402  -5.290  0.00  0.00     0.078 C 
ATOM      2  C1' OXE d   1       2.212   0.320  -5.955  0.00  0.00     0.078 C 
ATOM      3  C1  OXE d   1       3.500  -0.449  -5.795  0.00  0.00    -0.078 A 
ATOM      4  C2  OXE d   1       3.407  -1.768  -5.424  0.00  0.00    -0.078 A 
ATOM      5  C3  OXE d   1       4.562  -2.537  -5.316  0.00  0.00     0.003 A 
ATOM      6  C4  OXE d   1       5.824  -1.941  -5.431  0.00  0.00    -0.002 A 
ATOM      7  C5  OXE d   1       5.942  -0.589  -5.769  0.00  0.00    -0.002 A 
ATOM      8  C6  OXE d   1       4.792   0.160  -5.996  0.00  0.00     0.003 A 
ENDROOT
TORSDOF 0
ENDMDL
