MODEL 1
REMARK minimizedAffinity 5.76885653
REMARK minimizedRMSD -1
REMARK  0 active torsions:
REMARK  status: ('A' for Active; 'I' for Inactive)
ROOT
ATOM      1  C2' OXE d   1      -2.622  -2.470  -3.398  0.00  0.00     0.078 C 
ATOM      2  C1' OXE d   1      -4.947  -3.406  -2.133  0.00  0.00     0.078 C 
ATOM      3  C1  OXE d   1      -3.769  -3.045  -1.263  0.00  0.00    -0.078 A 
ATOM      4  C2  OXE d   1      -2.620  -2.633  -1.894  0.00  0.00    -0.078 A 
ATOM      5  C3  OXE d   1      -1.522  -2.235  -1.136  0.00  0.00     0.003 A 
ATOM      6  C4  OXE d   1      -1.524  -2.398   0.255  0.00  0.00    -0.002 A 
ATOM      7  C5  OXE d   1      -2.671  -2.854   0.914  0.00  0.00    -0.002 A 
ATOM      8  C6  OXE d   1      -3.813  -3.141   0.175  0.00  0.00     0.003 A 
ENDROOT
TORSDOF 0
ENDMDL
