MODEL 1
REMARK minimizedAffinity 7.42528582
REMARK minimizedRMSD -1
REMARK  0 active torsions:
REMARK  status: ('A' for Active; 'I' for Inactive)
ROOT
ATOM      1  C2' OXE d   1      -0.604  -4.456  -3.165  0.00  0.00     0.078 C 
ATOM      2  C1' OXE d   1      -1.982  -2.060  -2.675  0.00  0.00     0.078 C 
ATOM      3  C1  OXE d   1      -2.686  -3.354  -2.354  0.00  0.00    -0.078 A 
ATOM      4  C2  OXE d   1      -2.022  -4.523  -2.641  0.00  0.00    -0.078 A 
ATOM      5  C3  OXE d   1      -2.605  -5.744  -2.314  0.00  0.00     0.003 A 
ATOM      6  C4  OXE d   1      -3.920  -5.798  -1.838  0.00  0.00    -0.002 A 
ATOM      7  C5  OXE d   1      -4.629  -4.620  -1.577  0.00  0.00    -0.002 A 
ATOM      8  C6  OXE d   1      -4.012  -3.392  -1.789  0.00  0.00     0.003 A 
ENDROOT
TORSDOF 0
ENDMDL
