MODEL 1
REMARK minimizedAffinity 13.3305502
REMARK minimizedRMSD -1
REMARK  0 active torsions:
REMARK  status: ('A' for Active; 'I' for Inactive)
ROOT
ATOM      1  C2' OXE d   1      -5.227   4.466   1.704  0.00  0.00     0.078 C 
ATOM      2  C1' OXE d   1      -3.520   2.933   3.321  0.00  0.00     0.078 C 
ATOM      3  C1  OXE d   1      -4.363   3.989   3.991  0.00  0.00    -0.078 A 
ATOM      4  C2  OXE d   1      -5.161   4.766   3.186  0.00  0.00    -0.078 A 
ATOM      5  C3  OXE d   1      -5.999   5.718   3.759  0.00  0.00     0.003 A 
ATOM      6  C4  OXE d   1      -5.924   5.997   5.129  0.00  0.00    -0.002 A 
ATOM      7  C5  OXE d   1      -5.089   5.244   5.961  0.00  0.00    -0.002 A 
ATOM      8  C6  OXE d   1      -4.335   4.210   5.416  0.00  0.00     0.003 A 
ENDROOT
TORSDOF 0
ENDMDL
