MODEL 1
REMARK minimizedAffinity 4.61104679
REMARK minimizedRMSD -1
REMARK  0 active torsions:
REMARK  status: ('A' for Active; 'I' for Inactive)
ROOT
ATOM      1  C2' OXE d   1       5.541  -0.237   0.969  0.00  0.00     0.078 C 
ATOM      2  C1' OXE d   1       4.982   1.916  -0.743  0.00  0.00     0.078 C 
ATOM      3  C1  OXE d   1       3.870   1.417   0.145  0.00  0.00    -0.078 A 
ATOM      4  C2  OXE d   1       4.139   0.333   0.945  0.00  0.00    -0.078 A 
ATOM      5  C3  OXE d   1       3.165  -0.134   1.824  0.00  0.00     0.003 A 
ATOM      6  C4  OXE d   1       1.868   0.392   1.789  0.00  0.00    -0.002 A 
ATOM      7  C5  OXE d   1       1.562   1.471   0.952  0.00  0.00    -0.002 A 
ATOM      8  C6  OXE d   1       2.560   2.021   0.156  0.00  0.00     0.003 A 
ENDROOT
TORSDOF 0
ENDMDL
