MODEL 1
REMARK minimizedAffinity 13.3504648
REMARK minimizedRMSD -1
REMARK  0 active torsions:
REMARK  status: ('A' for Active; 'I' for Inactive)
ROOT
ATOM      1  C2' OXE d   1      -4.059   2.622   3.061  0.00  0.00     0.078 C 
ATOM      2  C1' OXE d   1      -5.932   4.319   1.840  0.00  0.00     0.078 C 
ATOM      3  C1  OXE d   1      -5.503   4.643   3.249  0.00  0.00    -0.078 A 
ATOM      4  C2  OXE d   1      -4.621   3.781   3.856  0.00  0.00    -0.078 A 
ATOM      5  C3  OXE d   1      -4.151   4.063   5.135  0.00  0.00     0.003 A 
ATOM      6  C4  OXE d   1      -4.684   5.132   5.867  0.00  0.00    -0.002 A 
ATOM      7  C5  OXE d   1      -5.612   5.999   5.282  0.00  0.00    -0.002 A 
ATOM      8  C6  OXE d   1      -6.000   5.794   3.962  0.00  0.00     0.003 A 
ENDROOT
TORSDOF 0
ENDMDL
