MODEL 1
REMARK minimizedAffinity 13.3175583
REMARK minimizedRMSD -1
REMARK  0 active torsions:
REMARK  status: ('A' for Active; 'I' for Inactive)
ROOT
ATOM      1  C2' OXE d   1      -3.008  -2.539  -2.799  0.00  0.00     0.078 C 
ATOM      2  C1' OXE d   1      -5.547  -2.621  -3.993  0.00  0.00     0.078 C 
ATOM      3  C1  OXE d   1      -5.132  -3.793  -3.140  0.00  0.00    -0.078 A 
ATOM      4  C2  OXE d   1      -3.870  -3.766  -2.598  0.00  0.00    -0.078 A 
ATOM      5  C3  OXE d   1      -3.458  -4.796  -1.758  0.00  0.00     0.003 A 
ATOM      6  C4  OXE d   1      -4.258  -5.932  -1.584  0.00  0.00    -0.002 A 
ATOM      7  C5  OXE d   1      -5.531  -5.998  -2.160  0.00  0.00    -0.002 A 
ATOM      8  C6  OXE d   1      -6.000  -4.921  -2.904  0.00  0.00     0.003 A 
ENDROOT
TORSDOF 0
ENDMDL
