MODEL 1
REMARK minimizedAffinity 12.2321491
REMARK minimizedRMSD -1
REMARK  0 active torsions:
REMARK  status: ('A' for Active; 'I' for Inactive)
ROOT
ATOM      1  C2' OXE d   1      -0.327  -5.224  -2.590  0.00  0.00     0.078 C 
ATOM      2  C1' OXE d   1       2.240  -4.102  -2.412  0.00  0.00     0.078 C 
ATOM      3  C1  OXE d   1       1.457  -3.869  -3.680  0.00  0.00    -0.078 A 
ATOM      4  C2  OXE d   1       0.221  -4.460  -3.777  0.00  0.00    -0.078 A 
ATOM      5  C3  OXE d   1      -0.566  -4.233  -4.902  0.00  0.00     0.003 A 
ATOM      6  C4  OXE d   1      -0.048  -3.534  -6.000  0.00  0.00    -0.002 A 
ATOM      7  C5  OXE d   1       1.225  -2.957  -5.937  0.00  0.00    -0.002 A 
ATOM      8  C6  OXE d   1       1.972  -3.078  -4.771  0.00  0.00     0.003 A 
ENDROOT
TORSDOF 0
ENDMDL
