MODEL 1
REMARK minimizedAffinity 8.59079838
REMARK minimizedRMSD -1
REMARK  0 active torsions:
REMARK  status: ('A' for Active; 'I' for Inactive)
ROOT
ATOM      1  C2' OXE d   1      -3.294  -2.633  -1.446  0.00  0.00     0.078 C 
ATOM      2  C1' OXE d   1      -5.998  -2.333  -0.758  0.00  0.00     0.078 C 
ATOM      3  C1  OXE d   1      -5.318  -3.627  -0.388  0.00  0.00    -0.078 A 
ATOM      4  C2  OXE d   1      -4.007  -3.784  -0.770  0.00  0.00    -0.078 A 
ATOM      5  C3  OXE d   1      -3.316  -4.936  -0.406  0.00  0.00     0.003 A 
ATOM      6  C4  OXE d   1      -3.986  -6.000   0.210  0.00  0.00    -0.002 A 
ATOM      7  C5  OXE d   1      -5.332  -5.877   0.572  0.00  0.00    -0.002 A 
ATOM      8  C6  OXE d   1      -5.999  -4.683   0.319  0.00  0.00     0.003 A 
ENDROOT
TORSDOF 0
ENDMDL
