MODEL 1
REMARK minimizedAffinity 0.293847173
REMARK minimizedRMSD -1
REMARK  0 active torsions:
REMARK  status: ('A' for Active; 'I' for Inactive)
ROOT
ATOM      1  C2' OXE d   1      -3.422   0.472   2.860  0.00  0.00     0.078 C 
ATOM      2  C1' OXE d   1      -1.970  -1.405   1.360  0.00  0.00     0.078 C 
ATOM      3  C1  OXE d   1      -1.254  -0.154   1.805  0.00  0.00    -0.078 A 
ATOM      4  C2  OXE d   1      -1.985   0.780   2.499  0.00  0.00    -0.078 A 
ATOM      5  C3  OXE d   1      -1.359   1.927   2.980  0.00  0.00     0.003 A 
ATOM      6  C4  OXE d   1      -0.033   2.209   2.633  0.00  0.00    -0.002 A 
ATOM      7  C5  OXE d   1       0.719   1.289   1.893  0.00  0.00    -0.002 A 
ATOM      8  C6  OXE d   1       0.137   0.086   1.509  0.00  0.00     0.003 A 
ENDROOT
TORSDOF 0
ENDMDL
