MODEL 1
REMARK minimizedAffinity 8.12497616
REMARK minimizedRMSD -1
REMARK  0 active torsions:
REMARK  status: ('A' for Active; 'I' for Inactive)
ROOT
ATOM      1  C2' OXE d   1      -2.856   0.423   2.971  0.00  0.00     0.078 C 
ATOM      2  C1' OXE d   1      -2.015   2.846   1.828  0.00  0.00     0.078 C 
ATOM      3  C1  OXE d   1      -0.992   1.749   1.985  0.00  0.00    -0.078 A 
ATOM      4  C2  OXE d   1      -1.400   0.584   2.588  0.00  0.00    -0.078 A 
ATOM      5  C3  OXE d   1      -0.510  -0.479   2.707  0.00  0.00     0.003 A 
ATOM      6  C4  OXE d   1       0.837  -0.319   2.359  0.00  0.00    -0.002 A 
ATOM      7  C5  OXE d   1       1.283   0.874   1.780  0.00  0.00    -0.002 A 
ATOM      8  C6  OXE d   1       0.374   1.900   1.547  0.00  0.00     0.003 A 
ENDROOT
TORSDOF 0
ENDMDL
