MODEL 1
REMARK minimizedAffinity 2.32779551
REMARK minimizedRMSD -1
REMARK  0 active torsions:
REMARK  status: ('A' for Active; 'I' for Inactive)
ROOT
ATOM      1  C2' OXE d   1       1.884   2.377   2.023  0.00  0.00     0.078 C 
ATOM      2  C1' OXE d   1       2.003  -0.309   2.829  0.00  0.00     0.078 C 
ATOM      3  C1  OXE d   1       0.645   0.278   2.539  0.00  0.00    -0.078 A 
ATOM      4  C2  OXE d   1       0.592   1.607   2.190  0.00  0.00    -0.078 A 
ATOM      5  C3  OXE d   1      -0.630   2.184   1.859  0.00  0.00     0.003 A 
ATOM      6  C4  OXE d   1      -1.822   1.468   2.026  0.00  0.00    -0.002 A 
ATOM      7  C5  OXE d   1      -1.793   0.125   2.418  0.00  0.00    -0.002 A 
ATOM      8  C6  OXE d   1      -0.568  -0.495   2.637  0.00  0.00     0.003 A 
ENDROOT
TORSDOF 0
ENDMDL
