MODEL 1
REMARK minimizedAffinity 1.45195687
REMARK minimizedRMSD -1
REMARK  0 active torsions:
REMARK  status: ('A' for Active; 'I' for Inactive)
ROOT
ATOM      1  C2' OXE d   1      -4.373  -4.042  -6.000  0.00  0.00     0.078 C 
ATOM      2  C1' OXE d   1      -2.062  -3.501  -4.502  0.00  0.00     0.078 C 
ATOM      3  C1  OXE d   1      -3.391  -3.096  -3.915  0.00  0.00    -0.078 A 
ATOM      4  C2  OXE d   1      -4.513  -3.323  -4.675  0.00  0.00    -0.078 A 
ATOM      5  C3  OXE d   1      -5.769  -3.019  -4.158  0.00  0.00     0.003 A 
ATOM      6  C4  OXE d   1      -5.889  -2.345  -2.937  0.00  0.00    -0.002 A 
ATOM      7  C5  OXE d   1      -4.755  -2.069  -2.164  0.00  0.00    -0.002 A 
ATOM      8  C6  OXE d   1      -3.506  -2.475  -2.618  0.00  0.00     0.003 A 
ENDROOT
TORSDOF 0
ENDMDL
