MODEL 1
REMARK minimizedAffinity 9.50995064
REMARK minimizedRMSD -1
REMARK  0 active torsions:
REMARK  status: ('A' for Active; 'I' for Inactive)
ROOT
ATOM      1  C   UNL d   1      -5.943   3.646  -0.558  0.00  0.00     0.077 C 
ATOM      2  C1  UNL d   1      -5.711   2.217  -0.951  0.00  0.00    -0.074 A 
ATOM      3  C2  UNL d   1      -5.279   1.274  -0.012  0.00  0.00    -0.005 A 
ATOM      4  C3  UNL d   1      -5.077  -0.053  -0.390  0.00  0.00     0.006 A 
ATOM      5  C4  UNL d   1      -5.305  -0.451  -1.708  0.00  0.00    -0.005 A 
ATOM      6  C5  UNL d   1      -5.738   0.478  -2.660  0.00  0.00    -0.074 A 
ATOM      7  C6  UNL d   1      -5.997   0.065  -4.079  0.00  0.00     0.077 C 
ATOM      8  C7  UNL d   1      -5.946   1.808  -2.271  0.00  0.00    -0.001 A 
ENDROOT
TORSDOF 0
ENDMDL
