MODEL 1
REMARK minimizedAffinity 9.89650249
REMARK minimizedRMSD -1
REMARK  0 active torsions:
REMARK  status: ('A' for Active; 'I' for Inactive)
ROOT
ATOM      1  C   UNL d   1       0.806  -1.869   3.762  0.00  0.00     0.077 C 
ATOM      2  C1  UNL d   1       0.087  -2.683   2.728  0.00  0.00    -0.074 A 
ATOM      3  C2  UNL d   1       0.786  -3.551   1.882  0.00  0.00    -0.005 A 
ATOM      4  C3  UNL d   1       0.102  -4.308   0.931  0.00  0.00     0.006 A 
ATOM      5  C4  UNL d   1      -1.284  -4.205   0.815  0.00  0.00    -0.005 A 
ATOM      6  C5  UNL d   1      -2.000  -3.343   1.652  0.00  0.00    -0.074 A 
ATOM      7  C6  UNL d   1      -3.492  -3.228   1.548  0.00  0.00     0.077 C 
ATOM      8  C7  UNL d   1      -1.307  -2.591   2.611  0.00  0.00    -0.001 A 
ENDROOT
TORSDOF 0
ENDMDL
