MODEL 1
REMARK minimizedAffinity 15.4984369
REMARK minimizedRMSD -1
REMARK  0 active torsions:
REMARK  status: ('A' for Active; 'I' for Inactive)
ROOT
ATOM      1  C   UNL d   1       2.640   1.441   0.342  0.00  0.00     0.077 C 
ATOM      2  C1  UNL d   1       3.807   2.382   0.369  0.00  0.00    -0.074 A 
ATOM      3  C2  UNL d   1       4.380   2.782   1.580  0.00  0.00    -0.005 A 
ATOM      4  C3  UNL d   1       5.472   3.651   1.588  0.00  0.00     0.006 A 
ATOM      5  C4  UNL d   1       5.999   4.128   0.387  0.00  0.00    -0.005 A 
ATOM      6  C5  UNL d   1       5.439   3.738  -0.833  0.00  0.00    -0.074 A 
ATOM      7  C6  UNL d   1       6.000   4.234  -2.133  0.00  0.00     0.077 C 
ATOM      8  C7  UNL d   1       4.347   2.860  -0.834  0.00  0.00    -0.001 A 
ENDROOT
TORSDOF 0
ENDMDL
