MODEL 1
REMARK minimizedAffinity 9.50080585
REMARK minimizedRMSD -1
REMARK  0 active torsions:
REMARK  status: ('A' for Active; 'I' for Inactive)
ROOT
ATOM      1  C   UNL d   1       1.828   3.010  -3.241  0.00  0.00     0.077 C 
ATOM      2  C1  UNL d   1       3.283   3.374  -3.259  0.00  0.00    -0.074 A 
ATOM      3  C2  UNL d   1       3.988   3.459  -4.464  0.00  0.00    -0.005 A 
ATOM      4  C3  UNL d   1       5.338   3.808  -4.466  0.00  0.00     0.006 A 
ATOM      5  C4  UNL d   1       5.996   4.075  -3.265  0.00  0.00    -0.005 A 
ATOM      6  C5  UNL d   1       5.308   3.997  -2.050  0.00  0.00    -0.074 A 
ATOM      7  C6  UNL d   1       5.998   4.290  -0.751  0.00  0.00     0.077 C 
ATOM      8  C7  UNL d   1       3.949   3.652  -2.057  0.00  0.00    -0.001 A 
ENDROOT
TORSDOF 0
ENDMDL
