MODEL 1
REMARK minimizedAffinity 5.09333372
REMARK minimizedRMSD -1
REMARK  0 active torsions:
REMARK  status: ('A' for Active; 'I' for Inactive)
ROOT
ATOM      1  C   UNL d   1       2.430   2.086   0.374  0.00  0.00     0.077 C 
ATOM      2  C1  UNL d   1       3.673   2.794   0.825  0.00  0.00    -0.074 A 
ATOM      3  C2  UNL d   1       4.484   2.253   1.829  0.00  0.00    -0.005 A 
ATOM      4  C3  UNL d   1       5.642   2.918   2.232  0.00  0.00     0.006 A 
ATOM      5  C4  UNL d   1       6.000   4.129   1.637  0.00  0.00    -0.005 A 
ATOM      6  C5  UNL d   1       5.202   4.684   0.632  0.00  0.00    -0.074 A 
ATOM      7  C6  UNL d   1       5.578   5.979  -0.025  0.00  0.00     0.077 C 
ATOM      8  C7  UNL d   1       4.044   4.006   0.227  0.00  0.00    -0.001 A 
ENDROOT
TORSDOF 0
ENDMDL
