MODEL 1
REMARK minimizedAffinity 13.2762146
REMARK minimizedRMSD -1
REMARK  0 active torsions:
REMARK  status: ('A' for Active; 'I' for Inactive)
ROOT
ATOM      1  C   UNL d   1      -1.620   0.861   4.393  0.00  0.00     0.077 C 
ATOM      2  C1  UNL d   1      -1.840  -0.277   3.441  0.00  0.00    -0.074 A 
ATOM      3  C2  UNL d   1      -0.768  -0.856   2.754  0.00  0.00    -0.005 A 
ATOM      4  C3  UNL d   1      -0.986  -1.920   1.879  0.00  0.00     0.006 A 
ATOM      5  C4  UNL d   1      -2.276  -2.416   1.684  0.00  0.00    -0.005 A 
ATOM      6  C5  UNL d   1      -3.359  -1.851   2.363  0.00  0.00    -0.074 A 
ATOM      7  C6  UNL d   1      -4.750  -2.379   2.172  0.00  0.00     0.077 C 
ATOM      8  C7  UNL d   1      -3.131  -0.786   3.246  0.00  0.00    -0.001 A 
ENDROOT
TORSDOF 0
ENDMDL
