MODEL 1
REMARK minimizedAffinity 23.2483768
REMARK minimizedRMSD -1
REMARK  0 active torsions:
REMARK  status: ('A' for Active; 'I' for Inactive)
ROOT
ATOM      1  C   UNL d   1       2.030   2.251  -2.649  0.00  0.00     0.077 C 
ATOM      2  C1  UNL d   1       1.317   3.560  -2.816  0.00  0.00    -0.074 A 
ATOM      3  C2  UNL d   1       1.647   4.663  -2.022  0.00  0.00    -0.005 A 
ATOM      4  C3  UNL d   1       0.982   5.877  -2.195  0.00  0.00     0.006 A 
ATOM      5  C4  UNL d   1      -0.018   5.999  -3.161  0.00  0.00    -0.005 A 
ATOM      6  C5  UNL d   1      -0.360   4.907  -3.964  0.00  0.00    -0.074 A 
ATOM      7  C6  UNL d   1      -1.425   5.024  -5.014  0.00  0.00     0.077 C 
ATOM      8  C7  UNL d   1       0.318   3.693  -3.789  0.00  0.00    -0.001 A 
ENDROOT
TORSDOF 0
ENDMDL
