MODEL 1
REMARK minimizedAffinity 14.8107491
REMARK minimizedRMSD -1
REMARK  0 active torsions:
REMARK  status: ('A' for Active; 'I' for Inactive)
ROOT
ATOM      1  C   UNL d   1       4.470   2.537  -5.823  0.00  0.00     0.077 C 
ATOM      2  C1  UNL d   1       3.781   2.979  -4.567  0.00  0.00    -0.074 A 
ATOM      3  C2  UNL d   1       2.581   2.388  -4.159  0.00  0.00    -0.005 A 
ATOM      4  C3  UNL d   1       1.956   2.803  -2.983  0.00  0.00     0.006 A 
ATOM      5  C4  UNL d   1       2.523   3.812  -2.204  0.00  0.00    -0.005 A 
ATOM      6  C5  UNL d   1       3.723   4.415  -2.596  0.00  0.00    -0.074 A 
ATOM      7  C6  UNL d   1       4.352   5.494  -1.765  0.00  0.00     0.077 C 
ATOM      8  C7  UNL d   1       4.349   3.987  -3.775  0.00  0.00    -0.001 A 
ENDROOT
TORSDOF 0
ENDMDL
