MODEL 1
REMARK minimizedAffinity 20.3639355
REMARK minimizedRMSD -1
REMARK  0 active torsions:
REMARK  status: ('A' for Active; 'I' for Inactive)
ROOT
ATOM      1  C   UNL d   1      -5.999   0.385  -3.699  0.00  0.00     0.077 C 
ATOM      2  C1  UNL d   1      -5.435   0.460  -2.311  0.00  0.00    -0.074 A 
ATOM      3  C2  UNL d   1      -5.772   1.513  -1.455  0.00  0.00    -0.005 A 
ATOM      4  C3  UNL d   1      -5.247   1.565  -0.163  0.00  0.00     0.006 A 
ATOM      5  C4  UNL d   1      -4.382   0.566   0.284  0.00  0.00    -0.005 A 
ATOM      6  C5  UNL d   1      -4.034  -0.495  -0.558  0.00  0.00    -0.074 A 
ATOM      7  C6  UNL d   1      -3.112  -1.582  -0.090  0.00  0.00     0.077 C 
ATOM      8  C7  UNL d   1      -4.571  -0.544  -1.852  0.00  0.00    -0.001 A 
ENDROOT
TORSDOF 0
ENDMDL
