MODEL 1
REMARK minimizedAffinity 5.52652884
REMARK minimizedRMSD -1
REMARK  0 active torsions:
REMARK  status: ('A' for Active; 'I' for Inactive)
ROOT
ATOM      1  C   UNL d   1       5.058   3.396   1.694  0.00  0.00     0.077 C 
ATOM      2  C1  UNL d   1       4.061   2.546   0.964  0.00  0.00    -0.074 A 
ATOM      3  C2  UNL d   1       2.705   2.574   1.308  0.00  0.00    -0.005 A 
ATOM      4  C3  UNL d   1       1.788   1.785   0.614  0.00  0.00     0.006 A 
ATOM      5  C4  UNL d   1       2.216   0.961  -0.428  0.00  0.00    -0.005 A 
ATOM      6  C5  UNL d   1       3.568   0.921  -0.786  0.00  0.00    -0.074 A 
ATOM      7  C6  UNL d   1       4.043   0.049  -1.910  0.00  0.00     0.077 C 
ATOM      8  C7  UNL d   1       4.482   1.722  -0.089  0.00  0.00    -0.001 A 
ENDROOT
TORSDOF 0
ENDMDL
