MODEL 1
REMARK minimizedAffinity 14.9663906
REMARK minimizedRMSD -1
REMARK  0 active torsions:
REMARK  status: ('A' for Active; 'I' for Inactive)
ROOT
ATOM      1  C   UNL d   1      -4.335  -0.779  -1.127  0.00  0.00     0.077 C 
ATOM      2  C1  UNL d   1      -3.624  -1.563  -0.065  0.00  0.00    -0.074 A 
ATOM      3  C2  UNL d   1      -2.542  -1.013   0.631  0.00  0.00    -0.005 A 
ATOM      4  C3  UNL d   1      -1.896  -1.751   1.623  0.00  0.00     0.006 A 
ATOM      5  C4  UNL d   1      -2.324  -3.044   1.929  0.00  0.00    -0.005 A 
ATOM      6  C5  UNL d   1      -3.405  -3.609   1.244  0.00  0.00    -0.074 A 
ATOM      7  C6  UNL d   1      -3.884  -4.993   1.566  0.00  0.00     0.077 C 
ATOM      8  C7  UNL d   1      -4.053  -2.859   0.253  0.00  0.00    -0.001 A 
ENDROOT
TORSDOF 0
ENDMDL
