MODEL 1
REMARK minimizedAffinity 10.9759312
REMARK minimizedRMSD -1
REMARK  0 active torsions:
REMARK  status: ('A' for Active; 'I' for Inactive)
ROOT
ATOM      1  C   UNL d   1      -2.585   0.746   4.756  0.00  0.00     0.077 C 
ATOM      2  C1  UNL d   1      -2.552   0.184   3.366  0.00  0.00    -0.074 A 
ATOM      3  C2  UNL d   1      -1.483  -0.608   2.936  0.00  0.00    -0.005 A 
ATOM      4  C3  UNL d   1      -1.471  -1.131   1.643  0.00  0.00     0.006 A 
ATOM      5  C4  UNL d   1      -2.526  -0.868   0.769  0.00  0.00    -0.005 A 
ATOM      6  C5  UNL d   1      -3.604  -0.078   1.181  0.00  0.00    -0.074 A 
ATOM      7  C6  UNL d   1      -4.751   0.206   0.257  0.00  0.00     0.077 C 
ATOM      8  C7  UNL d   1      -3.612   0.438   2.484  0.00  0.00    -0.001 A 
ENDROOT
TORSDOF 0
ENDMDL
