MODEL 1
REMARK minimizedAffinity 7.4440937
REMARK minimizedRMSD -1
REMARK  0 active torsions:
REMARK  status: ('A' for Active; 'I' for Inactive)
ROOT
ATOM      1  C   UNL d   1      -1.893   1.143   3.437  0.00  0.00     0.077 C 
ATOM      2  C1  UNL d   1      -1.593  -0.129   2.702  0.00  0.00    -0.074 A 
ATOM      3  C2  UNL d   1      -0.282  -0.464   2.350  0.00  0.00    -0.005 A 
ATOM      4  C3  UNL d   1      -0.017  -1.655   1.675  0.00  0.00     0.006 A 
ATOM      5  C4  UNL d   1      -1.059  -2.522   1.345  0.00  0.00    -0.005 A 
ATOM      6  C5  UNL d   1      -2.377  -2.205   1.689  0.00  0.00    -0.074 A 
ATOM      7  C6  UNL d   1      -3.508  -3.130   1.351  0.00  0.00     0.077 C 
ATOM      8  C7  UNL d   1      -2.634  -1.009   2.374  0.00  0.00    -0.001 A 
ENDROOT
TORSDOF 0
ENDMDL
