MODEL 1
REMARK minimizedAffinity 6.70322132
REMARK minimizedRMSD -1
REMARK  0 active torsions:
REMARK  status: ('A' for Active; 'I' for Inactive)
ROOT
ATOM      1  C   UNL d   1       1.902   2.231  -2.757  0.00  0.00     0.077 C 
ATOM      2  C1  UNL d   1       3.263   2.815  -2.996  0.00  0.00    -0.074 A 
ATOM      3  C2  UNL d   1       3.925   2.619  -4.212  0.00  0.00    -0.005 A 
ATOM      4  C3  UNL d   1       5.187   3.175  -4.423  0.00  0.00     0.006 A 
ATOM      5  C4  UNL d   1       5.798   3.932  -3.422  0.00  0.00    -0.005 A 
ATOM      6  C5  UNL d   1       5.150   4.139  -2.200  0.00  0.00    -0.074 A 
ATOM      7  C6  UNL d   1       5.788   4.958  -1.117  0.00  0.00     0.077 C 
ATOM      8  C7  UNL d   1       3.879   3.582  -1.998  0.00  0.00    -0.001 A 
ENDROOT
TORSDOF 0
ENDMDL
