MODEL 1
REMARK minimizedAffinity 13.9080362
REMARK minimizedRMSD -1
REMARK  0 active torsions:
REMARK  status: ('A' for Active; 'I' for Inactive)
ROOT
ATOM      1  C   UNL d   1       5.999  -5.999   1.551  0.00  0.00     0.077 C 
ATOM      2  C1  UNL d   1       5.136  -5.250   0.580  0.00  0.00    -0.074 A 
ATOM      3  C2  UNL d   1       4.010  -5.849   0.007  0.00  0.00    -0.005 A 
ATOM      4  C3  UNL d   1       3.211  -5.136  -0.887  0.00  0.00     0.006 A 
ATOM      5  C4  UNL d   1       3.530  -3.818  -1.216  0.00  0.00    -0.005 A 
ATOM      6  C5  UNL d   1       4.651  -3.202  -0.653  0.00  0.00    -0.074 A 
ATOM      7  C6  UNL d   1       5.002  -1.783  -0.989  0.00  0.00     0.077 C 
ATOM      8  C7  UNL d   1       5.445  -3.923   0.250  0.00  0.00    -0.001 A 
ENDROOT
TORSDOF 0
ENDMDL
