MODEL 1
REMARK minimizedAffinity 11.1372614
REMARK minimizedRMSD -1
REMARK  0 active torsions:
REMARK  status: ('A' for Active; 'I' for Inactive)
ROOT
ATOM      1  C   UNL d   1       0.752   6.000  -1.865  0.00  0.00     0.077 C 
ATOM      2  C1  UNL d   1       1.796   4.946  -2.088  0.00  0.00    -0.074 A 
ATOM      3  C2  UNL d   1       1.444   3.670  -2.538  0.00  0.00    -0.005 A 
ATOM      4  C3  UNL d   1       2.427   2.703  -2.750  0.00  0.00     0.006 A 
ATOM      5  C4  UNL d   1       3.769   3.002  -2.514  0.00  0.00    -0.005 A 
ATOM      6  C5  UNL d   1       4.140   4.273  -2.065  0.00  0.00    -0.074 A 
ATOM      7  C6  UNL d   1       5.580   4.615  -1.817  0.00  0.00     0.077 C 
ATOM      8  C7  UNL d   1       3.148   5.242  -1.861  0.00  0.00    -0.001 A 
ENDROOT
TORSDOF 0
ENDMDL
