MODEL 1
REMARK minimizedAffinity 1.05353582
REMARK minimizedRMSD -1
REMARK  1 active torsions:
REMARK  status: ('A' for Active; 'I' for Inactive)
REMARK    1  A    between atoms: C1_2  and  C2_3 
ROOT
ATOM      1  C2  UNL d   1      -5.443   4.277   4.101  0.00  0.00    -0.073 A 
ATOM      2  C3  UNL d   1      -4.424   3.361   3.816  0.00  0.00    -0.002 A 
ATOM      3  C4  UNL d   1      -3.923   3.245   2.519  0.00  0.00     0.004 A 
ATOM      4  C5  UNL d   1      -4.428   4.047   1.497  0.00  0.00    -0.004 A 
ATOM      5  C6  UNL d   1      -5.438   4.977   1.763  0.00  0.00    -0.075 A 
ATOM      6  C7  UNL d   1      -5.994   5.846   0.674  0.00  0.00     0.076 C 
ATOM      7  C8  UNL d   1      -5.939   5.086   3.068  0.00  0.00     0.001 A 
ENDROOT
BRANCH   1   8
ATOM      8  C1  UNL d   1      -5.984   4.411   5.501  0.00  0.00     0.053 C 
ATOM      9  C   UNL d   1      -5.985   5.855   5.976  0.00  0.00     0.018 C 
ENDBRANCH   1   8
TORSDOF 1
ENDMDL
