MODEL 1
REMARK minimizedAffinity 1.44488394
REMARK minimizedRMSD -1
REMARK  1 active torsions:
REMARK  status: ('A' for Active; 'I' for Inactive)
REMARK    1  A    between atoms: C1_2  and  C2_3 
ROOT
ATOM      1  C2  UNL d   1      -1.972  -1.179  -2.359  0.00  0.00    -0.073 A 
ATOM      2  C3  UNL d   1      -0.651  -0.854  -2.033  0.00  0.00    -0.002 A 
ATOM      3  C4  UNL d   1      -0.347  -0.305  -0.786  0.00  0.00     0.004 A 
ATOM      4  C5  UNL d   1      -1.358  -0.083   0.148  0.00  0.00    -0.004 A 
ATOM      5  C6  UNL d   1      -2.684  -0.412  -0.155  0.00  0.00    -0.075 A 
ATOM      6  C7  UNL d   1      -3.784  -0.177   0.838  0.00  0.00     0.076 C 
ATOM      7  C8  UNL d   1      -2.981  -0.960  -1.410  0.00  0.00     0.001 A 
ENDROOT
BRANCH   1   8
ATOM      8  C1  UNL d   1      -2.304  -1.777  -3.702  0.00  0.00     0.053 C 
ATOM      9  C   UNL d   1      -2.120  -3.286  -3.715  0.00  0.00     0.018 C 
ENDBRANCH   1   8
TORSDOF 1
ENDMDL
