MODEL 1
REMARK minimizedAffinity -0.416926414
REMARK minimizedRMSD -1
REMARK  1 active torsions:
REMARK  status: ('A' for Active; 'I' for Inactive)
REMARK    1  A    between atoms: C1_2  and  C2_3 
ROOT
ATOM      1  C2  UNL d   1      -3.645   1.559   2.732  0.00  0.00    -0.073 A 
ATOM      2  C3  UNL d   1      -3.327   1.499   1.370  0.00  0.00    -0.002 A 
ATOM      3  C4  UNL d   1      -2.931   0.292   0.792  0.00  0.00     0.004 A 
ATOM      4  C5  UNL d   1      -2.855  -0.865   1.566  0.00  0.00    -0.004 A 
ATOM      5  C6  UNL d   1      -3.180  -0.828   2.926  0.00  0.00    -0.075 A 
ATOM      6  C7  UNL d   1      -3.101  -2.064   3.772  0.00  0.00     0.076 C 
ATOM      7  C8  UNL d   1      -3.575   0.388   3.500  0.00  0.00     0.001 A 
ENDROOT
BRANCH   1   8
ATOM      8  C1  UNL d   1      -4.080   2.859   3.359  0.00  0.00     0.053 C 
ATOM      9  C   UNL d   1      -4.083   4.003   2.358  0.00  0.00     0.018 C 
ENDBRANCH   1   8
TORSDOF 1
ENDMDL
