MODEL 1
REMARK minimizedAffinity 12.2100897
REMARK minimizedRMSD -1
REMARK  1 active torsions:
REMARK  status: ('A' for Active; 'I' for Inactive)
REMARK    1  A    between atoms: C1_2  and  C2_3 
ROOT
ATOM      1  C2  UNL d   1       0.880  -0.387  -3.690  0.00  0.00    -0.073 A 
ATOM      2  C3  UNL d   1      -0.448  -0.361  -4.131  0.00  0.00    -0.002 A 
ATOM      3  C4  UNL d   1      -1.495  -0.527  -3.225  0.00  0.00     0.004 A 
ATOM      4  C5  UNL d   1      -1.227  -0.714  -1.869  0.00  0.00    -0.004 A 
ATOM      5  C6  UNL d   1       0.093  -0.731  -1.406  0.00  0.00    -0.075 A 
ATOM      6  C7  UNL d   1       0.398  -0.933   0.049  0.00  0.00     0.076 C 
ATOM      7  C8  UNL d   1       1.139  -0.566  -2.324  0.00  0.00     0.001 A 
ENDROOT
BRANCH   1   8
ATOM      8  C1  UNL d   1       2.014  -0.202  -4.664  0.00  0.00     0.053 C 
ATOM      9  C   UNL d   1       1.535   0.345  -6.000  0.00  0.00     0.018 C 
ENDBRANCH   1   8
TORSDOF 1
ENDMDL
