MODEL 1
REMARK minimizedAffinity -2.10727906
REMARK minimizedRMSD -1
REMARK  1 active torsions:
REMARK  status: ('A' for Active; 'I' for Inactive)
REMARK    1  A    between atoms: C1_2  and  C2_3 
ROOT
ATOM      1  C2  UNL d   1      -5.602   4.249   2.569  0.00  0.00    -0.073 A 
ATOM      2  C3  UNL d   1      -5.299   2.930   2.922  0.00  0.00    -0.002 A 
ATOM      3  C4  UNL d   1      -5.214   2.562   4.266  0.00  0.00     0.004 A 
ATOM      4  C5  UNL d   1      -5.439   3.506   5.268  0.00  0.00    -0.004 A 
ATOM      5  C6  UNL d   1      -5.755   4.827   4.934  0.00  0.00    -0.075 A 
ATOM      6  C7  UNL d   1      -5.997   5.855   6.000  0.00  0.00     0.076 C 
ATOM      7  C8  UNL d   1      -5.835   5.189   3.583  0.00  0.00     0.001 A 
ENDROOT
BRANCH   1   8
ATOM      8  C1  UNL d   1      -5.700   4.650   1.119  0.00  0.00     0.053 C 
ATOM      9  C   UNL d   1      -4.989   5.965   0.842  0.00  0.00     0.018 C 
ENDBRANCH   1   8
TORSDOF 1
ENDMDL
