MODEL 1
REMARK minimizedAffinity 1.61313033
REMARK minimizedRMSD -1
REMARK  1 active torsions:
REMARK  status: ('A' for Active; 'I' for Inactive)
REMARK    1  A    between atoms: C1_2  and  C2_3 
ROOT
ATOM      1  C2  UNL d   1      -5.998   4.679   2.985  0.00  0.00    -0.073 A 
ATOM      2  C3  UNL d   1      -5.996   5.920   3.632  0.00  0.00    -0.002 A 
ATOM      3  C4  UNL d   1      -6.000   5.988   5.026  0.00  0.00     0.004 A 
ATOM      4  C5  UNL d   1      -5.999   4.819   5.786  0.00  0.00    -0.004 A 
ATOM      5  C6  UNL d   1      -5.990   3.569   5.157  0.00  0.00    -0.075 A 
ATOM      6  C7  UNL d   1      -5.992   2.302   5.960  0.00  0.00     0.076 C 
ATOM      7  C8  UNL d   1      -5.989   3.509   3.757  0.00  0.00     0.001 A 
ENDROOT
BRANCH   1   8
ATOM      8  C1  UNL d   1      -5.988   4.601   1.480  0.00  0.00     0.053 C 
ATOM      9  C   UNL d   1      -5.982   5.978   0.837  0.00  0.00     0.018 C 
ENDBRANCH   1   8
TORSDOF 1
ENDMDL
