MODEL 1
REMARK minimizedAffinity -3.56191897
REMARK minimizedRMSD -1
REMARK  1 active torsions:
REMARK  status: ('A' for Active; 'I' for Inactive)
REMARK    1  A    between atoms: C1_2  and  C2_3 
ROOT
ATOM      1  C2  UNL d   1      -5.511   4.694   3.201  0.00  0.00    -0.073 A 
ATOM      2  C3  UNL d   1      -5.617   5.897   3.908  0.00  0.00    -0.002 A 
ATOM      3  C4  UNL d   1      -5.851   5.888   5.284  0.00  0.00     0.004 A 
ATOM      4  C5  UNL d   1      -5.974   4.678   5.967  0.00  0.00    -0.004 A 
ATOM      5  C6  UNL d   1      -5.859   3.465   5.280  0.00  0.00    -0.075 A 
ATOM      6  C7  UNL d   1      -5.990   2.155   6.000  0.00  0.00     0.076 C 
ATOM      7  C8  UNL d   1      -5.626   3.483   3.898  0.00  0.00     0.001 A 
ENDROOT
BRANCH   1   8
ATOM      8  C1  UNL d   1      -5.252   4.699   1.717  0.00  0.00     0.053 C 
ATOM      9  C   UNL d   1      -4.614   5.999   1.254  0.00  0.00     0.018 C 
ENDBRANCH   1   8
TORSDOF 1
ENDMDL
