MODEL 1
REMARK minimizedAffinity -1.94658077
REMARK minimizedRMSD -1
REMARK  1 active torsions:
REMARK  status: ('A' for Active; 'I' for Inactive)
REMARK    1  A    between atoms: C1_2  and  C2_3 
ROOT
ATOM      1  C2  UNL d   1      -5.109   4.948   3.262  0.00  0.00    -0.073 A 
ATOM      2  C3  UNL d   1      -5.691   5.999   3.978  0.00  0.00    -0.002 A 
ATOM      3  C4  UNL d   1      -5.967   5.858   5.339  0.00  0.00     0.004 A 
ATOM      4  C5  UNL d   1      -5.656   4.669   5.998  0.00  0.00    -0.004 A 
ATOM      5  C6  UNL d   1      -5.063   3.611   5.302  0.00  0.00    -0.075 A 
ATOM      6  C7  UNL d   1      -4.725   2.324   5.997  0.00  0.00     0.076 C 
ATOM      7  C8  UNL d   1      -4.792   3.759   3.935  0.00  0.00     0.001 A 
ENDROOT
BRANCH   1   8
ATOM      8  C1  UNL d   1      -4.803   5.098   1.794  0.00  0.00     0.053 C 
ATOM      9  C   UNL d   1      -4.500   3.761   1.135  0.00  0.00     0.018 C 
ENDBRANCH   1   8
TORSDOF 1
ENDMDL
