MODEL 1
REMARK minimizedAffinity -2.49563456
REMARK minimizedRMSD -1
REMARK  1 active torsions:
REMARK  status: ('A' for Active; 'I' for Inactive)
REMARK    1  A    between atoms: C1_2  and  C2_3 
ROOT
ATOM      1  C2  UNL d   1      -5.658   4.328   2.569  0.00  0.00    -0.073 A 
ATOM      2  C3  UNL d   1      -5.378   3.004   2.924  0.00  0.00    -0.002 A 
ATOM      3  C4  UNL d   1      -5.291   2.638   4.268  0.00  0.00     0.004 A 
ATOM      4  C5  UNL d   1      -5.491   3.589   5.269  0.00  0.00    -0.004 A 
ATOM      5  C6  UNL d   1      -5.784   4.914   4.934  0.00  0.00    -0.075 A 
ATOM      6  C7  UNL d   1      -5.999   5.950   5.998  0.00  0.00     0.076 C 
ATOM      7  C8  UNL d   1      -5.866   5.275   3.582  0.00  0.00     0.001 A 
ENDROOT
BRANCH   1   8
ATOM      8  C1  UNL d   1      -5.759   4.727   1.119  0.00  0.00     0.053 C 
ATOM      9  C   UNL d   1      -4.538   5.505   0.656  0.00  0.00     0.018 C 
ENDBRANCH   1   8
TORSDOF 1
ENDMDL
