MODEL 1
REMARK minimizedAffinity 0.578980029
REMARK minimizedRMSD -1
REMARK  1 active torsions:
REMARK  status: ('A' for Active; 'I' for Inactive)
REMARK    1  A    between atoms: C1_2  and  C2_3 
ROOT
ATOM      1  C2  UNL d   1      -5.625   4.546   2.315  0.00  0.00    -0.073 A 
ATOM      2  C3  UNL d   1      -4.952   3.463   1.739  0.00  0.00    -0.002 A 
ATOM      3  C4  UNL d   1      -4.613   2.352   2.512  0.00  0.00     0.004 A 
ATOM      4  C5  UNL d   1      -4.947   2.310   3.866  0.00  0.00    -0.004 A 
ATOM      5  C6  UNL d   1      -5.630   3.378   4.457  0.00  0.00    -0.075 A 
ATOM      6  C7  UNL d   1      -5.996   3.349   5.912  0.00  0.00     0.076 C 
ATOM      7  C8  UNL d   1      -5.966   4.491   3.674  0.00  0.00     0.001 A 
ENDROOT
BRANCH   1   8
ATOM      8  C1  UNL d   1      -6.000   5.745   1.482  0.00  0.00     0.053 C 
ATOM      9  C   UNL d   1      -5.998   5.429  -0.005  0.00  0.00     0.018 C 
ENDBRANCH   1   8
TORSDOF 1
ENDMDL
