MODEL 1
REMARK minimizedAffinity -1.35296655
REMARK minimizedRMSD -1
REMARK  1 active torsions:
REMARK  status: ('A' for Active; 'I' for Inactive)
REMARK    1  A    between atoms: C1_2  and  C2_3 
ROOT
ATOM      1  C2  UNL d   1      -5.954   3.834   4.406  0.00  0.00    -0.073 A 
ATOM      2  C3  UNL d   1      -5.891   5.230   4.471  0.00  0.00    -0.002 A 
ATOM      3  C4  UNL d   1      -5.855   5.990   3.301  0.00  0.00     0.004 A 
ATOM      4  C5  UNL d   1      -5.888   5.362   2.056  0.00  0.00    -0.004 A 
ATOM      5  C6  UNL d   1      -5.964   3.968   1.970  0.00  0.00    -0.075 A 
ATOM      6  C7  UNL d   1      -5.998   3.278   0.638  0.00  0.00     0.076 C 
ATOM      7  C8  UNL d   1      -5.997   3.213   3.150  0.00  0.00     0.001 A 
ENDROOT
BRANCH   1   8
ATOM      8  C1  UNL d   1      -5.999   3.010   5.667  0.00  0.00     0.053 C 
ATOM      9  C   UNL d   1      -4.649   2.392   5.994  0.00  0.00     0.018 C 
ENDBRANCH   1   8
TORSDOF 1
ENDMDL
