MODEL 1
REMARK minimizedAffinity -4.24582291
REMARK minimizedRMSD -1
REMARK  1 active torsions:
REMARK  status: ('A' for Active; 'I' for Inactive)
REMARK    1  A    between atoms: C1_2  and  C2_3 
ROOT
ATOM      1  C2  UNL d   1      -5.108   3.558   3.725  0.00  0.00    -0.073 A 
ATOM      2  C3  UNL d   1      -5.101   4.773   4.419  0.00  0.00    -0.002 A 
ATOM      3  C4  UNL d   1      -5.026   5.981   3.725  0.00  0.00     0.004 A 
ATOM      4  C5  UNL d   1      -4.964   5.987   2.332  0.00  0.00    -0.004 A 
ATOM      5  C6  UNL d   1      -4.981   4.784   1.620  0.00  0.00    -0.075 A 
ATOM      6  C7  UNL d   1      -4.913   4.773   0.121  0.00  0.00     0.076 C 
ATOM      7  C8  UNL d   1      -5.055   3.575   2.324  0.00  0.00     0.001 A 
ENDROOT
BRANCH   1   8
ATOM      8  C1  UNL d   1      -5.196   2.251   4.470  0.00  0.00     0.053 C 
ATOM      9  C   UNL d   1      -5.599   2.449   5.923  0.00  0.00     0.018 C 
ENDBRANCH   1   8
TORSDOF 1
ENDMDL
