MODEL 1
REMARK minimizedAffinity -2.55550504
REMARK minimizedRMSD -1
REMARK  1 active torsions:
REMARK  status: ('A' for Active; 'I' for Inactive)
REMARK    1  A    between atoms: C1_2  and  C2_3 
ROOT
ATOM      1  C2  UNL d   1      -5.663   3.589   5.251  0.00  0.00    -0.073 A 
ATOM      2  C3  UNL d   1      -5.777   4.799   5.946  0.00  0.00    -0.002 A 
ATOM      3  C4  UNL d   1      -5.940   5.998   5.251  0.00  0.00     0.004 A 
ATOM      4  C5  UNL d   1      -5.998   5.999   3.857  0.00  0.00    -0.004 A 
ATOM      5  C6  UNL d   1      -5.899   4.799   3.146  0.00  0.00    -0.075 A 
ATOM      6  C7  UNL d   1      -5.957   4.784   1.647  0.00  0.00     0.076 C 
ATOM      7  C8  UNL d   1      -5.732   3.600   3.851  0.00  0.00     0.001 A 
ENDROOT
BRANCH   1   8
ATOM      8  C1  UNL d   1      -5.494   2.291   5.998  0.00  0.00     0.053 C 
ATOM      9  C   UNL d   1      -4.050   1.813   5.989  0.00  0.00     0.018 C 
ENDBRANCH   1   8
TORSDOF 1
ENDMDL
