MODEL 1
REMARK minimizedAffinity 1.52694488
REMARK minimizedRMSD -1
REMARK  1 active torsions:
REMARK  status: ('A' for Active; 'I' for Inactive)
REMARK    1  A    between atoms: C1_2  and  C2_3 
ROOT
ATOM      1  C2  UNL d   1      -5.291   3.581   0.922  0.00  0.00    -0.073 A 
ATOM      2  C3  UNL d   1      -5.472   4.846   0.352  0.00  0.00    -0.002 A 
ATOM      3  C4  UNL d   1      -5.827   5.935   1.149  0.00  0.00     0.004 A 
ATOM      4  C5  UNL d   1      -5.998   5.772   2.524  0.00  0.00    -0.004 A 
ATOM      5  C6  UNL d   1      -5.810   4.518   3.114  0.00  0.00    -0.075 A 
ATOM      6  C7  UNL d   1      -5.993   4.325   4.591  0.00  0.00     0.076 C 
ATOM      7  C8  UNL d   1      -5.456   3.429   2.306  0.00  0.00     0.001 A 
ENDROOT
BRANCH   1   8
ATOM      8  C1  UNL d   1      -4.901   2.404   0.066  0.00  0.00     0.053 C 
ATOM      9  C   UNL d   1      -4.381   1.242   0.897  0.00  0.00     0.018 C 
ENDBRANCH   1   8
TORSDOF 1
ENDMDL
