MODEL 1
REMARK minimizedAffinity -3.47397518
REMARK minimizedRMSD -1
REMARK  1 active torsions:
REMARK  status: ('A' for Active; 'I' for Inactive)
REMARK    1  A    between atoms: C1_2  and  C2_3 
ROOT
ATOM      1  C2  UNL d   1      -4.715   4.618   3.018  0.00  0.00    -0.073 A 
ATOM      2  C3  UNL d   1      -5.811   5.098   3.745  0.00  0.00    -0.002 A 
ATOM      3  C4  UNL d   1      -5.994   4.719   5.076  0.00  0.00     0.004 A 
ATOM      4  C5  UNL d   1      -5.082   3.864   5.694  0.00  0.00    -0.004 A 
ATOM      5  C6  UNL d   1      -3.975   3.384   4.988  0.00  0.00    -0.075 A 
ATOM      6  C7  UNL d   1      -2.985   2.462   5.638  0.00  0.00     0.076 C 
ATOM      7  C8  UNL d   1      -3.799   3.767   3.652  0.00  0.00     0.001 A 
ENDROOT
BRANCH   1   8
ATOM      8  C1  UNL d   1      -4.510   5.030   1.583  0.00  0.00     0.053 C 
ATOM      9  C   UNL d   1      -4.475   3.833   0.647  0.00  0.00     0.018 C 
ENDBRANCH   1   8
TORSDOF 1
ENDMDL
