MODEL 1
REMARK minimizedAffinity 14.4540777
REMARK minimizedRMSD -1
REMARK  1 active torsions:
REMARK  status: ('A' for Active; 'I' for Inactive)
REMARK    1  A    between atoms: N_2  and  C1_3 
ROOT
ATOM      1  C1  UNL d   1       3.219  -3.050   4.800  0.00  0.00     0.143 A 
ATOM      2  C2  UNL d   1       2.808  -1.887   4.140  0.00  0.00    -0.057 A 
ATOM      3  C3  UNL d   1       1.644  -1.866   3.361  0.00  0.00     0.033 A 
ATOM      4  C4  UNL d   1       0.884  -3.021   3.205  0.00  0.00    -0.042 A 
ATOM      5  C5  UNL d   1       1.287  -4.195   3.832  0.00  0.00     0.033 A 
ATOM      6  C6  UNL d   1       2.446  -4.207   4.614  0.00  0.00    -0.057 A 
ENDROOT
BRANCH   1   7
ATOM      7  N   UNL d   1       4.418  -3.159   5.509  0.00  0.00    -0.732 N 
ATOM      8  C   UNL d   1       5.689  -3.105   4.819  0.00  0.00     0.284 C 
ATOM      9  H3  UNL d   1       4.399  -2.646   6.387  0.00  0.00     0.395 HD
ENDBRANCH   1   7
TORSDOF 1
ENDMDL
