MODEL 1
REMARK minimizedAffinity 8.51551342
REMARK minimizedRMSD -1
REMARK  1 active torsions:
REMARK  status: ('A' for Active; 'I' for Inactive)
REMARK    1  A    between atoms: N_2  and  C1_3 
ROOT
ATOM      1  C1  UNL d   1       2.193   2.225   0.518  0.00  0.00     0.143 A 
ATOM      2  C2  UNL d   1       2.839   2.809  -0.577  0.00  0.00    -0.057 A 
ATOM      3  C3  UNL d   1       2.383   4.010  -1.134  0.00  0.00     0.033 A 
ATOM      4  C4  UNL d   1       1.251   4.635  -0.621  0.00  0.00    -0.042 A 
ATOM      5  C5  UNL d   1       0.578   4.059   0.451  0.00  0.00     0.033 A 
ATOM      6  C6  UNL d   1       1.043   2.863   1.006  0.00  0.00    -0.057 A 
ENDROOT
BRANCH   1   7
ATOM      7  N   UNL d   1       2.540   0.982   1.053  0.00  0.00    -0.732 N 
ATOM      8  C   UNL d   1       1.535   0.133   1.656  0.00  0.00     0.284 C 
ATOM      9  H3  UNL d   1       3.212   0.483   0.474  0.00  0.00     0.395 HD
ENDBRANCH   1   7
TORSDOF 1
ENDMDL
