MODEL 1
REMARK minimizedAffinity 1.9307009
REMARK minimizedRMSD -1
REMARK  1 active torsions:
REMARK  status: ('A' for Active; 'I' for Inactive)
REMARK    1  A    between atoms: N_2  and  C1_3 
ROOT
ATOM      1  C1  UNL d   1       3.778  -1.503  -4.543  0.00  0.00     0.143 A 
ATOM      2  C2  UNL d   1       2.975  -0.377  -4.749  0.00  0.00    -0.057 A 
ATOM      3  C3  UNL d   1       3.441   0.724  -5.479  0.00  0.00     0.033 A 
ATOM      4  C4  UNL d   1       4.733   0.728  -5.993  0.00  0.00    -0.042 A 
ATOM      5  C5  UNL d   1       5.558  -0.370  -5.778  0.00  0.00     0.033 A 
ATOM      6  C6  UNL d   1       5.085  -1.469  -5.054  0.00  0.00    -0.057 A 
ENDROOT
BRANCH   1   7
ATOM      7  N   UNL d   1       3.408  -2.587  -3.742  0.00  0.00    -0.732 N 
ATOM      8  C   UNL d   1       2.037  -2.746  -3.306  0.00  0.00     0.284 C 
ATOM      9  H3  UNL d   1       3.856  -3.453  -4.031  0.00  0.00     0.395 HD
ENDBRANCH   1   7
TORSDOF 1
ENDMDL
