MODEL 1
REMARK minimizedAffinity 4.14989758
REMARK minimizedRMSD -1
REMARK  1 active torsions:
REMARK  status: ('A' for Active; 'I' for Inactive)
REMARK    1  A    between atoms: N_2  and  C1_3 
ROOT
ATOM      1  C1  UNL d   1       1.558  -1.167   2.114  0.00  0.00     0.143 A 
ATOM      2  C2  UNL d   1       2.604  -0.745   1.287  0.00  0.00    -0.057 A 
ATOM      3  C3  UNL d   1       3.310   0.434   1.554  0.00  0.00     0.033 A 
ATOM      4  C4  UNL d   1       2.963   1.229   2.641  0.00  0.00    -0.042 A 
ATOM      5  C5  UNL d   1       1.910   0.842   3.462  0.00  0.00     0.033 A 
ATOM      6  C6  UNL d   1       1.212  -0.339   3.194  0.00  0.00    -0.057 A 
ENDROOT
BRANCH   1   7
ATOM      7  N   UNL d   1       0.753  -2.277   1.846  0.00  0.00    -0.732 N 
ATOM      8  C   UNL d   1       1.223  -3.336   0.978  0.00  0.00     0.284 C 
ATOM      9  H3  UNL d   1       0.256  -2.605   2.671  0.00  0.00     0.395 HD
ENDBRANCH   1   7
TORSDOF 1
ENDMDL
