MODEL 1
REMARK minimizedAffinity 8.42830563
REMARK minimizedRMSD -1
REMARK  1 active torsions:
REMARK  status: ('A' for Active; 'I' for Inactive)
REMARK    1  A    between atoms: N_2  and  C1_3 
ROOT
ATOM      1  C1  UNL d   1      -4.514  -3.213  -5.002  0.00  0.00     0.143 A 
ATOM      2  C2  UNL d   1      -5.406  -3.554  -3.979  0.00  0.00    -0.057 A 
ATOM      3  C3  UNL d   1      -5.999  -4.821  -3.926  0.00  0.00     0.033 A 
ATOM      4  C4  UNL d   1      -5.732  -5.763  -4.913  0.00  0.00    -0.042 A 
ATOM      5  C5  UNL d   1      -4.868  -5.438  -5.953  0.00  0.00     0.033 A 
ATOM      6  C6  UNL d   1      -4.273  -4.173  -5.997  0.00  0.00    -0.057 A 
ENDROOT
BRANCH   1   7
ATOM      7  N   UNL d   1      -3.968  -1.938  -5.165  0.00  0.00    -0.732 N 
ATOM      8  C   UNL d   1      -3.823  -1.048  -4.033  0.00  0.00     0.284 C 
ATOM      9  H3  UNL d   1      -3.174  -1.933  -5.801  0.00  0.00     0.395 HD
ENDBRANCH   1   7
TORSDOF 1
ENDMDL
