MODEL 1
REMARK minimizedAffinity 0.287342399
REMARK minimizedRMSD -1
REMARK  1 active torsions:
REMARK  status: ('A' for Active; 'I' for Inactive)
REMARK    1  A    between atoms: N_2  and  C1_3 
ROOT
ATOM      1  C1  UNL d   1       5.283  -2.009  -4.757  0.00  0.00     0.143 A 
ATOM      2  C2  UNL d   1       3.918  -2.108  -4.468  0.00  0.00    -0.057 A 
ATOM      3  C3  UNL d   1       3.281  -1.173  -3.643  0.00  0.00     0.033 A 
ATOM      4  C4  UNL d   1       4.007  -0.135  -3.068  0.00  0.00    -0.042 A 
ATOM      5  C5  UNL d   1       5.370  -0.031  -3.322  0.00  0.00     0.033 A 
ATOM      6  C6  UNL d   1       5.999  -0.965  -4.152  0.00  0.00    -0.057 A 
ENDROOT
BRANCH   1   7
ATOM      7  N   UNL d   1       5.994  -2.963  -5.490  0.00  0.00    -0.732 N 
ATOM      8  C   UNL d   1       5.634  -4.363  -5.422  0.00  0.00     0.284 C 
ATOM      9  H3  UNL d   1       6.228  -2.639  -6.425  0.00  0.00     0.395 HD
ENDBRANCH   1   7
TORSDOF 1
ENDMDL
