MODEL 1
REMARK minimizedAffinity -4.29290199
REMARK minimizedRMSD -1
REMARK  1 active torsions:
REMARK  status: ('A' for Active; 'I' for Inactive)
REMARK    1  A    between atoms: C1_2  and  C2_3 
ROOT
ATOM      1  C2  UNL d   1      -0.020   0.461  -0.126  0.00  0.00    -0.076 A 
ATOM      2  C3  UNL d   1       0.295   0.089   1.193  0.00  0.00     0.004 A 
ATOM      3  C4  UNL d   1      -0.061   0.898   2.271  0.00  0.00    -0.003 A 
ATOM      4  C5  UNL d   1      -0.739   2.091   2.048  0.00  0.00     0.000 A 
ATOM      5  C6  UNL d   1      -1.076   2.467   0.748  0.00  0.00     0.000 A 
ATOM      6  C7  UNL d   1      -0.739   1.655  -0.349  0.00  0.00    -0.073 A 
ATOM      7  C8  UNL d   1      -1.121   2.112  -1.730  0.00  0.00     0.078 C 
ENDROOT
BRANCH   1   8
ATOM      8  C1  UNL d   1       0.415  -0.443  -1.257  0.00  0.00     0.053 C 
ATOM      9  C   UNL d   1       0.261  -1.918  -0.917  0.00  0.00     0.018 C 
ENDBRANCH   1   8
TORSDOF 1
ENDMDL
