MODEL 1
REMARK minimizedAffinity 9.7256031
REMARK minimizedRMSD -1
REMARK  1 active torsions:
REMARK  status: ('A' for Active; 'I' for Inactive)
REMARK    1  A    between atoms: C1_2  and  C2_3 
ROOT
ATOM      1  C2  UNL d   1      -0.336   1.769   0.286  0.00  0.00    -0.076 A 
ATOM      2  C3  UNL d   1       0.734   0.887   0.520  0.00  0.00     0.004 A 
ATOM      3  C4  UNL d   1       1.172   0.619   1.816  0.00  0.00    -0.003 A 
ATOM      4  C5  UNL d   1       0.546   1.227   2.899  0.00  0.00     0.000 A 
ATOM      5  C6  UNL d   1      -0.528   2.091   2.686  0.00  0.00     0.000 A 
ATOM      6  C7  UNL d   1      -0.992   2.359   1.387  0.00  0.00    -0.073 A 
ATOM      7  C8  UNL d   1      -2.150   3.304   1.215  0.00  0.00     0.078 C 
ENDROOT
BRANCH   1   8
ATOM      8  C1  UNL d   1      -0.749   2.042  -1.142  0.00  0.00     0.053 C 
ATOM      9  C   UNL d   1      -0.083   1.099  -2.133  0.00  0.00     0.018 C 
ENDBRANCH   1   8
TORSDOF 1
ENDMDL
