MODEL 1
REMARK minimizedAffinity -3.7755537
REMARK minimizedRMSD -1
REMARK  1 active torsions:
REMARK  status: ('A' for Active; 'I' for Inactive)
REMARK    1  A    between atoms: C1_2  and  C2_3 
ROOT
ATOM      1  C2  UNL d   1       0.260  -0.219  -0.108  0.00  0.00    -0.076 A 
ATOM      2  C3  UNL d   1       0.243  -0.711   1.209  0.00  0.00     0.004 A 
ATOM      3  C4  UNL d   1      -0.058   0.125   2.283  0.00  0.00    -0.003 A 
ATOM      4  C5  UNL d   1      -0.348   1.466   2.058  0.00  0.00     0.000 A 
ATOM      5  C6  UNL d   1      -0.353   1.967   0.757  0.00  0.00     0.000 A 
ATOM      6  C7  UNL d   1      -0.067   1.135  -0.339  0.00  0.00    -0.073 A 
ATOM      7  C8  UNL d   1      -0.081   1.730  -1.720  0.00  0.00     0.078 C 
ENDROOT
BRANCH   1   8
ATOM      8  C1  UNL d   1       0.620  -1.165  -1.230  0.00  0.00     0.053 C 
ATOM      9  C   UNL d   1      -0.106  -2.497  -1.124  0.00  0.00     0.018 C 
ENDBRANCH   1   8
TORSDOF 1
ENDMDL
