MODEL 1
REMARK minimizedAffinity -4.63852787
REMARK minimizedRMSD -1
REMARK  1 active torsions:
REMARK  status: ('A' for Active; 'I' for Inactive)
REMARK    1  A    between atoms: C1_2  and  C2_3 
ROOT
ATOM      1  C2  UNL d   1      -0.082   1.770   0.940  0.00  0.00    -0.076 A 
ATOM      2  C3  UNL d   1       0.407   0.639   1.618  0.00  0.00     0.004 A 
ATOM      3  C4  UNL d   1       0.686  -0.542   0.934  0.00  0.00    -0.003 A 
ATOM      4  C5  UNL d   1       0.481  -0.613  -0.439  0.00  0.00     0.000 A 
ATOM      5  C6  UNL d   1       0.013   0.504  -1.131  0.00  0.00     0.000 A 
ATOM      6  C7  UNL d   1      -0.258   1.708  -0.459  0.00  0.00    -0.073 A 
ATOM      7  C8  UNL d   1      -0.766   2.880  -1.253  0.00  0.00     0.078 C 
ENDROOT
BRANCH   1   8
ATOM      8  C1  UNL d   1      -0.393   3.015   1.739  0.00  0.00     0.053 C 
ATOM      9  C   UNL d   1      -1.872   3.144   2.067  0.00  0.00     0.018 C 
ENDBRANCH   1   8
TORSDOF 1
ENDMDL
