MODEL 1
REMARK minimizedAffinity -4.49705982
REMARK minimizedRMSD -1
REMARK  1 active torsions:
REMARK  status: ('A' for Active; 'I' for Inactive)
REMARK    1  A    between atoms: C1_2  and  C2_3 
ROOT
ATOM      1  C2  UNL d   1       0.283   0.461  -0.293  0.00  0.00    -0.076 A 
ATOM      2  C3  UNL d   1      -0.632   1.456  -0.678  0.00  0.00     0.004 A 
ATOM      3  C4  UNL d   1      -1.166   2.341   0.257  0.00  0.00    -0.003 A 
ATOM      4  C5  UNL d   1      -0.793   2.245   1.594  0.00  0.00     0.000 A 
ATOM      5  C6  UNL d   1       0.127   1.275   1.991  0.00  0.00     0.000 A 
ATOM      6  C7  UNL d   1       0.687   0.386   1.057  0.00  0.00    -0.073 A 
ATOM      7  C8  UNL d   1       1.670  -0.644   1.542  0.00  0.00     0.078 C 
ENDROOT
BRANCH   1   8
ATOM      8  C1  UNL d   1       0.809  -0.487  -1.347  0.00  0.00     0.053 C 
ATOM      9  C   UNL d   1       0.147  -1.855  -1.282  0.00  0.00     0.018 C 
ENDBRANCH   1   8
TORSDOF 1
ENDMDL
