MODEL 1
REMARK minimizedAffinity -1.54287052
REMARK minimizedRMSD -1
REMARK  0 active torsions:
REMARK  status: ('A' for Active; 'I' for Inactive)
ROOT
ATOM      1  C   UNL d   1       2.583  -1.127   1.323  0.00  0.00    -0.002 A 
ATOM      2  C1  UNL d   1       2.598   0.148   1.870  0.00  0.00     0.010 A 
ATOM      3  C2  UNL d   1       1.642   1.094   1.493  0.00  0.00     0.041 A 
ATOM      4  C3  UNL d   1       0.661   0.732   0.548  0.00  0.00    -0.075 A 
ATOM      5  S   UNL d   1      -0.609   1.725  -0.063  0.00  0.00     0.015 SA
ATOM      6  C4  UNL d   1      -1.201   0.479  -1.065  0.00  0.00     0.022 A 
ATOM      7  C5  UNL d   1      -0.459  -0.673  -0.948  0.00  0.00     0.026 A 
ATOM      8  C6  UNL d   1       0.626  -0.546  -0.016  0.00  0.00    -0.082 A 
ATOM      9  C7  UNL d   1       1.609  -1.482   0.386  0.00  0.00     0.045 A 
ENDROOT
TORSDOF 0
ENDMDL
