MODEL 1
REMARK minimizedAffinity -1.37787354
REMARK minimizedRMSD -1
REMARK  0 active torsions:
REMARK  status: ('A' for Active; 'I' for Inactive)
ROOT
ATOM      1  C   UNL d   1       2.440  -1.825   0.789  0.00  0.00    -0.002 A 
ATOM      2  C1  UNL d   1       1.489  -2.357  -0.070  0.00  0.00     0.010 A 
ATOM      3  C2  UNL d   1       0.447  -1.564  -0.555  0.00  0.00     0.041 A 
ATOM      4  C3  UNL d   1       0.378  -0.213  -0.159  0.00  0.00    -0.075 A 
ATOM      5  S   UNL d   1      -0.808   0.947  -0.627  0.00  0.00     0.015 SA
ATOM      6  C4  UNL d   1      -0.080   2.176   0.302  0.00  0.00     0.022 A 
ATOM      7  C5  UNL d   1       1.042   1.730   0.960  0.00  0.00     0.026 A 
ATOM      8  C6  UNL d   1       1.324   0.345   0.704  0.00  0.00    -0.082 A 
ATOM      9  C7  UNL d   1       2.368  -0.485   1.179  0.00  0.00     0.045 A 
ENDROOT
TORSDOF 0
ENDMDL
