MODEL 1
REMARK minimizedAffinity -2.24742627
REMARK minimizedRMSD -1
REMARK  0 active torsions:
REMARK  status: ('A' for Active; 'I' for Inactive)
ROOT
ATOM      1  C   UNL d   1       1.880  -2.334   0.175  0.00  0.00    -0.002 A 
ATOM      2  C1  UNL d   1       2.659  -1.191   0.285  0.00  0.00     0.010 A 
ATOM      3  C2  UNL d   1       2.090   0.074   0.127  0.00  0.00     0.041 A 
ATOM      4  C3  UNL d   1       0.711   0.172  -0.144  0.00  0.00    -0.075 A 
ATOM      5  S   UNL d   1      -0.204   1.616  -0.374  0.00  0.00     0.015 SA
ATOM      6  C4  UNL d   1      -1.650   0.749  -0.622  0.00  0.00     0.022 A 
ATOM      7  C5  UNL d   1      -1.458  -0.609  -0.535  0.00  0.00     0.026 A 
ATOM      8  C6  UNL d   1      -0.095  -0.964  -0.257  0.00  0.00    -0.082 A 
ATOM      9  C7  UNL d   1       0.512  -2.233  -0.093  0.00  0.00     0.045 A 
ENDROOT
TORSDOF 0
ENDMDL
