MODEL 1
REMARK minimizedAffinity -3.59322023
REMARK minimizedRMSD -1
REMARK  0 active torsions:
REMARK  status: ('A' for Active; 'I' for Inactive)
ROOT
ATOM      1  C   UNL d   1      -4.595   1.226   0.700  0.00  0.00    -0.002 A 
ATOM      2  C1  UNL d   1      -4.209   0.831   1.973  0.00  0.00     0.010 A 
ATOM      3  C2  UNL d   1      -2.905   0.395   2.217  0.00  0.00     0.041 A 
ATOM      4  C3  UNL d   1      -1.986   0.365   1.150  0.00  0.00    -0.075 A 
ATOM      5  S   UNL d   1      -0.335  -0.130   1.214  0.00  0.00     0.015 SA
ATOM      6  C4  UNL d   1      -0.103   0.173  -0.447  0.00  0.00     0.022 A 
ATOM      7  C5  UNL d   1      -1.246   0.640  -1.051  0.00  0.00     0.026 A 
ATOM      8  C6  UNL d   1      -2.350   0.760  -0.140  0.00  0.00    -0.082 A 
ATOM      9  C7  UNL d   1      -3.680   1.195  -0.356  0.00  0.00     0.045 A 
ENDROOT
TORSDOF 0
ENDMDL
