MODEL 1
REMARK minimizedAffinity 7.27410507
REMARK minimizedRMSD -1
REMARK  3 active torsions:
REMARK  status: ('A' for Active; 'I' for Inactive)
REMARK    1  A    between atoms: C3'_2  and  C2'_3 
REMARK    2  A    between atoms: C2'_3  and  C1'_4 
REMARK    3  A    between atoms: C1'_4  and  C1_5 
ROOT
ATOM      1  C1  N4B d   1       2.533  -2.291  -0.326  0.00  0.00    -0.075 A 
ATOM      2  C2  N4B d   1       1.760  -1.109  -0.297  0.00  0.00     0.002 A 
ATOM      3  C3  N4B d   1       0.415  -1.162  -0.569  0.00  0.00     0.002 A 
ATOM      4  C4  N4B d   1      -0.173  -2.376  -0.890  0.00  0.00    -0.004 A 
ATOM      5  C5  N4B d   1       0.576  -3.517  -0.891  0.00  0.00     0.002 A 
ATOM      6  C6  N4B d   1       1.928  -3.479  -0.616  0.00  0.00     0.002 A 
ENDROOT
BRANCH   1   7
ATOM      7  C1' N4B d   1       4.023  -2.271  -0.120  0.00  0.00     0.057 C 
BRANCH   7   8
ATOM      8  C2' N4B d   1       4.710  -2.795  -1.378  0.00  0.00     0.009 C 
BRANCH   8   9
ATOM      9  C3' N4B d   1       5.752  -3.853  -1.057  0.00  0.00     0.004 C 
ATOM     10  C4' N4B d   1       5.208  -5.248  -1.133  0.00  0.00     0.003 C 
ENDBRANCH   8   9
ENDBRANCH   7   8
ENDBRANCH   1   7
TORSDOF 3
ENDMDL
