MODEL 1
REMARK minimizedAffinity 10.1771936
REMARK minimizedRMSD -1
REMARK  3 active torsions:
REMARK  status: ('A' for Active; 'I' for Inactive)
REMARK    1  A    between atoms: C3'_2  and  C2'_3 
REMARK    2  A    between atoms: C2'_3  and  C1'_4 
REMARK    3  A    between atoms: C1'_4  and  C1_5 
ROOT
ATOM      1  C1  N4B d   1       4.370  -3.466  -0.519  0.00  0.00    -0.075 A 
ATOM      2  C2  N4B d   1       4.172  -2.088  -0.758  0.00  0.00     0.002 A 
ATOM      3  C3  N4B d   1       3.079  -1.450  -0.225  0.00  0.00     0.002 A 
ATOM      4  C4  N4B d   1       2.165  -2.169   0.531  0.00  0.00    -0.004 A 
ATOM      5  C5  N4B d   1       2.378  -3.494   0.778  0.00  0.00     0.002 A 
ATOM      6  C6  N4B d   1       3.474  -4.147   0.252  0.00  0.00     0.002 A 
ENDROOT
BRANCH   1   7
ATOM      7  C1' N4B d   1       5.504  -4.226  -1.152  0.00  0.00     0.057 C 
BRANCH   7   8
ATOM      8  C2' N4B d   1       4.935  -5.265  -2.114  0.00  0.00     0.009 C 
BRANCH   8   9
ATOM      9  C3' N4B d   1       4.964  -4.781  -3.554  0.00  0.00     0.004 C 
ATOM     10  C4' N4B d   1       4.254  -5.710  -4.493  0.00  0.00     0.003 C 
ENDBRANCH   8   9
ENDBRANCH   7   8
ENDBRANCH   1   7
TORSDOF 3
ENDMDL
