MODEL 1
REMARK minimizedAffinity 12.4826078
REMARK minimizedRMSD -1
REMARK  3 active torsions:
REMARK  status: ('A' for Active; 'I' for Inactive)
REMARK    1  A    between atoms: C3'_2  and  C2'_3 
REMARK    2  A    between atoms: C2'_3  and  C1'_4 
REMARK    3  A    between atoms: C1'_4  and  C1_5 
ROOT
ATOM      1  C1  N4B d   1      -3.669   4.429  -1.523  0.00  0.00    -0.075 A 
ATOM      2  C2  N4B d   1      -3.665   3.071  -1.136  0.00  0.00     0.002 A 
ATOM      3  C3  N4B d   1      -4.829   2.472  -0.719  0.00  0.00     0.002 A 
ATOM      4  C4  N4B d   1      -6.000   3.214  -0.662  0.00  0.00    -0.004 A 
ATOM      5  C5  N4B d   1      -6.000   4.519  -1.062  0.00  0.00     0.002 A 
ATOM      6  C6  N4B d   1      -4.839   5.132  -1.487  0.00  0.00     0.002 A 
ENDROOT
BRANCH   1   7
ATOM      7  C1' N4B d   1      -2.405   5.149  -1.904  0.00  0.00     0.057 C 
BRANCH   7   8
ATOM      8  C2' N4B d   1      -1.265   4.140  -2.007  0.00  0.00     0.009 C 
BRANCH   8   9
ATOM      9  C3' N4B d   1      -0.245   4.320  -0.896  0.00  0.00     0.004 C 
ATOM     10  C4' N4B d   1       0.066   3.040  -0.180  0.00  0.00     0.003 C 
ENDBRANCH   8   9
ENDBRANCH   7   8
ENDBRANCH   1   7
TORSDOF 3
ENDMDL
