MODEL 1
REMARK minimizedAffinity -4.85418367
REMARK minimizedRMSD -1
REMARK  1 active torsions:
REMARK  status: ('A' for Active; 'I' for Inactive)
REMARK    1  A    between atoms: C1_2  and  C2_3 
ROOT
ATOM      1  C2  UNL d   1      -0.610   0.274  -0.842  0.00  0.00    -0.081 A 
ATOM      2  C3  UNL d   1      -1.306   0.085   0.358  0.00  0.00     0.006 A 
ATOM      3  C4  UNL d   1      -0.645  -0.387   1.494  0.00  0.00     0.002 A 
ATOM      4  C5  UNL d   1       0.725  -0.670   1.451  0.00  0.00    -0.080 A 
ATOM      5  C6  UNL d   1       1.453  -1.149   2.672  0.00  0.00     0.076 C 
ATOM      6  C7  UNL d   1       1.417  -0.498   0.248  0.00  0.00     0.002 A 
ATOM      7  C8  UNL d   1       0.756  -0.027  -0.889  0.00  0.00     0.006 A 
ENDROOT
BRANCH   1   8
ATOM      8  C1  UNL d   1      -1.306   0.844  -2.051  0.00  0.00     0.054 C 
ATOM      9  C   UNL d   1      -0.639   2.130  -2.519  0.00  0.00     0.018 C 
ENDBRANCH   1   8
TORSDOF 1
ENDMDL
