MODEL 1
REMARK minimizedAffinity -0.678719342
REMARK minimizedRMSD -1
REMARK  1 active torsions:
REMARK  status: ('A' for Active; 'I' for Inactive)
REMARK    1  A    between atoms: C1_2  and  C2_3 
ROOT
ATOM      1  C2  UNL d   1      -0.729   0.554  -1.078  0.00  0.00    -0.081 A 
ATOM      2  C3  UNL d   1      -1.483   0.811   0.073  0.00  0.00     0.006 A 
ATOM      3  C4  UNL d   1      -1.163   0.190   1.283  0.00  0.00     0.002 A 
ATOM      4  C5  UNL d   1      -0.080  -0.691   1.363  0.00  0.00    -0.080 A 
ATOM      5  C6  UNL d   1       0.293  -1.341   2.663  0.00  0.00     0.076 C 
ATOM      6  C7  UNL d   1       0.663  -0.962   0.209  0.00  0.00     0.002 A 
ATOM      7  C8  UNL d   1       0.344  -0.342  -1.001  0.00  0.00     0.006 A 
ENDROOT
BRANCH   1   8
ATOM      8  C1  UNL d   1      -1.031   1.272  -2.369  0.00  0.00     0.054 C 
ATOM      9  C   UNL d   1      -1.973   2.445  -2.142  0.00  0.00     0.018 C 
ENDBRANCH   1   8
TORSDOF 1
ENDMDL
