MODEL 1
REMARK minimizedAffinity -5.21153641
REMARK minimizedRMSD -1
REMARK  1 active torsions:
REMARK  status: ('A' for Active; 'I' for Inactive)
REMARK    1  A    between atoms: C1_2  and  C2_3 
ROOT
ATOM      1  C2  UNL d   1       1.091  -1.243   0.963  0.00  0.00    -0.081 A 
ATOM      2  C3  UNL d   1       1.430  -1.319  -0.394  0.00  0.00     0.006 A 
ATOM      3  C4  UNL d   1       0.647  -0.678  -1.356  0.00  0.00     0.002 A 
ATOM      4  C5  UNL d   1      -0.483   0.056  -0.979  0.00  0.00    -0.080 A 
ATOM      5  C6  UNL d   1      -1.315   0.774  -1.999  0.00  0.00     0.076 C 
ATOM      6  C7  UNL d   1      -0.831   0.117   0.375  0.00  0.00     0.002 A 
ATOM      7  C8  UNL d   1      -0.049  -0.524   1.338  0.00  0.00     0.006 A 
ENDROOT
BRANCH   1   8
ATOM      8  C1  UNL d   1       1.970  -1.879   2.009  0.00  0.00     0.054 C 
ATOM      9  C   UNL d   1       1.570  -1.438   3.410  0.00  0.00     0.018 C 
ENDBRANCH   1   8
TORSDOF 1
ENDMDL
