MODEL 1
REMARK minimizedAffinity -2.21800017
REMARK minimizedRMSD -1
REMARK  2 active torsions:
REMARK  status: ('A' for Active; 'I' for Inactive)
REMARK    1  A    between atoms: C1_2  and  C2_3 
REMARK    2  A    between atoms: C2_3  and  C3_4 
ROOT
ATOM      1  C3  UNL d   1       5.904   1.022   3.621  0.00  0.00    -0.075 A 
ATOM      2  C4  UNL d   1       5.970   1.442   4.958  0.00  0.00     0.002 A 
ATOM      3  C5  UNL d   1       5.910   0.512   5.996  0.00  0.00     0.002 A 
ATOM      4  C6  UNL d   1       5.773  -0.845   5.713  0.00  0.00    -0.004 A 
ATOM      5  C7  UNL d   1       5.689  -1.272   4.389  0.00  0.00     0.002 A 
ATOM      6  C8  UNL d   1       5.754  -0.344   3.348  0.00  0.00     0.002 A 
ENDROOT
BRANCH   1   7
ATOM      7  C2  UNL d   1       5.998   2.020   2.492  0.00  0.00     0.056 C 
BRANCH   7   8
ATOM      8  C1  UNL d   1       5.999   3.483   2.951  0.00  0.00     0.007 C 
ATOM      9  C   UNL d   1       5.584   4.456   1.856  0.00  0.00     0.009 C 
ENDBRANCH   7   8
ENDBRANCH   1   7
TORSDOF 2
ENDMDL
