MODEL 1
REMARK minimizedAffinity 0.916364551
REMARK minimizedRMSD -1
REMARK  2 active torsions:
REMARK  status: ('A' for Active; 'I' for Inactive)
REMARK    1  A    between atoms: C1_2  and  C2_3 
REMARK    2  A    between atoms: C2_3  and  C3_4 
ROOT
ATOM      1  C3  UNL d   1       5.097   0.700   4.160  0.00  0.00    -0.075 A 
ATOM      2  C4  UNL d   1       4.727  -0.447   3.442  0.00  0.00     0.002 A 
ATOM      3  C5  UNL d   1       4.980  -1.718   3.958  0.00  0.00     0.002 A 
ATOM      4  C6  UNL d   1       5.614  -1.859   5.191  0.00  0.00    -0.004 A 
ATOM      5  C7  UNL d   1       6.000  -0.727   5.905  0.00  0.00     0.002 A 
ATOM      6  C8  UNL d   1       5.744   0.546   5.393  0.00  0.00     0.002 A 
ENDROOT
BRANCH   1   7
ATOM      7  C2  UNL d   1       4.799   2.078   3.620  0.00  0.00     0.056 C 
BRANCH   7   8
ATOM      8  C1  UNL d   1       6.000   3.030   3.644  0.00  0.00     0.007 C 
ATOM      9  C   UNL d   1       5.645   4.433   4.116  0.00  0.00     0.009 C 
ENDBRANCH   7   8
ENDBRANCH   1   7
TORSDOF 2
ENDMDL
