MODEL 1
REMARK minimizedAffinity 6.34357452
REMARK minimizedRMSD -1
REMARK  2 active torsions:
REMARK  status: ('A' for Active; 'I' for Inactive)
REMARK    1  A    between atoms: C1_2  and  C2_3 
REMARK    2  A    between atoms: C2_3  and  C3_4 
ROOT
ATOM      1  C3  UNL d   1      -1.998   2.697   4.079  0.00  0.00    -0.075 A 
ATOM      2  C4  UNL d   1      -1.781   1.644   3.178  0.00  0.00     0.002 A 
ATOM      3  C5  UNL d   1      -2.225   0.355   3.475  0.00  0.00     0.002 A 
ATOM      4  C6  UNL d   1      -2.880   0.100   4.678  0.00  0.00    -0.004 A 
ATOM      5  C7  UNL d   1      -3.086   1.135   5.588  0.00  0.00     0.002 A 
ATOM      6  C8  UNL d   1      -2.647   2.427   5.291  0.00  0.00     0.002 A 
ENDROOT
BRANCH   1   7
ATOM      7  C2  UNL d   1      -1.546   4.099   3.751  0.00  0.00     0.056 C 
BRANCH   7   8
ATOM      8  C1  UNL d   1      -0.223   4.164   2.980  0.00  0.00     0.007 C 
ATOM      9  C   UNL d   1      -0.409   4.207   1.469  0.00  0.00     0.009 C 
ENDBRANCH   7   8
ENDBRANCH   1   7
TORSDOF 2
ENDMDL
