MODEL 1
REMARK minimizedAffinity -3.91382694
REMARK minimizedRMSD -1
REMARK  2 active torsions:
REMARK  status: ('A' for Active; 'I' for Inactive)
REMARK    1  A    between atoms: C1_2  and  C2_3 
REMARK    2  A    between atoms: C2_3  and  C3_4 
ROOT
ATOM      1  C3  UNL d   1       5.135   1.561   4.441  0.00  0.00    -0.075 A 
ATOM      2  C4  UNL d   1       4.920   0.539   3.505  0.00  0.00     0.002 A 
ATOM      3  C5  UNL d   1       5.223  -0.786   3.820  0.00  0.00     0.002 A 
ATOM      4  C6  UNL d   1       5.754  -1.104   5.068  0.00  0.00    -0.004 A 
ATOM      5  C7  UNL d   1       5.987  -0.095   6.000  0.00  0.00     0.002 A 
ATOM      6  C8  UNL d   1       5.680   1.231   5.689  0.00  0.00     0.002 A 
ENDROOT
BRANCH   1   7
ATOM      7  C2  UNL d   1       4.780   2.992   4.117  0.00  0.00     0.056 C 
BRANCH   7   8
ATOM      8  C1  UNL d   1       5.993   3.888   3.843  0.00  0.00     0.007 C 
ATOM      9  C   UNL d   1       5.633   5.186   3.132  0.00  0.00     0.009 C 
ENDBRANCH   7   8
ENDBRANCH   1   7
TORSDOF 2
ENDMDL
