MODEL 1
REMARK minimizedAffinity -0.90797919
REMARK minimizedRMSD -1
REMARK  2 active torsions:
REMARK  status: ('A' for Active; 'I' for Inactive)
REMARK    1  A    between atoms: C1_2  and  C2_3 
REMARK    2  A    between atoms: C2_3  and  C3_4 
ROOT
ATOM      1  C3  UNL d   1       5.971   2.220   4.315  0.00  0.00    -0.075 A 
ATOM      2  C4  UNL d   1       5.943   1.801   5.653  0.00  0.00     0.002 A 
ATOM      3  C5  UNL d   1       5.944   0.442   5.971  0.00  0.00     0.002 A 
ATOM      4  C6  UNL d   1       5.963  -0.513   4.957  0.00  0.00    -0.004 A 
ATOM      5  C7  UNL d   1       5.975  -0.109   3.624  0.00  0.00     0.002 A 
ATOM      6  C8  UNL d   1       5.978   1.250   3.303  0.00  0.00     0.002 A 
ENDROOT
BRANCH   1   7
ATOM      7  C2  UNL d   1       5.999   3.688   3.965  0.00  0.00     0.056 C 
BRANCH   7   8
ATOM      8  C1  UNL d   1       5.348   4.592   5.017  0.00  0.00     0.007 C 
ATOM      9  C   UNL d   1       5.928   6.000   5.041  0.00  0.00     0.009 C 
ENDBRANCH   7   8
ENDBRANCH   1   7
TORSDOF 2
ENDMDL
