MODEL 1
REMARK minimizedAffinity 4.39378405
REMARK minimizedRMSD -1
REMARK  2 active torsions:
REMARK  status: ('A' for Active; 'I' for Inactive)
REMARK    1  A    between atoms: C1_2  and  C2_3 
REMARK    2  A    between atoms: C2_3  and  C3_4 
ROOT
ATOM      1  C3  UNL d   1       5.796   1.520   3.254  0.00  0.00    -0.075 A 
ATOM      2  C4  UNL d   1       5.681   0.464   2.338  0.00  0.00     0.002 A 
ATOM      3  C5  UNL d   1       5.530  -0.849   2.785  0.00  0.00     0.002 A 
ATOM      4  C6  UNL d   1       5.503  -1.124   4.151  0.00  0.00    -0.004 A 
ATOM      5  C7  UNL d   1       5.633  -0.085   5.069  0.00  0.00     0.002 A 
ATOM      6  C8  UNL d   1       5.779   1.230   4.624  0.00  0.00     0.002 A 
ENDROOT
BRANCH   1   7
ATOM      7  C2  UNL d   1       5.930   2.946   2.776  0.00  0.00     0.056 C 
BRANCH   7   8
ATOM      8  C1  UNL d   1       5.994   3.979   3.906  0.00  0.00     0.007 C 
ATOM      9  C   UNL d   1       5.989   5.417   3.405  0.00  0.00     0.009 C 
ENDBRANCH   7   8
ENDBRANCH   1   7
TORSDOF 2
ENDMDL
