MODEL 1
REMARK minimizedAffinity 10.2346554
REMARK minimizedRMSD -1
REMARK  2 active torsions:
REMARK  status: ('A' for Active; 'I' for Inactive)
REMARK    1  A    between atoms: C1_2  and  C2_3 
REMARK    2  A    between atoms: C2_3  and  C3_4 
ROOT
ATOM      1  C3  UNL d   1       4.209   2.289  -4.549  0.00  0.00    -0.075 A 
ATOM      2  C4  UNL d   1       4.022   3.678  -4.600  0.00  0.00     0.002 A 
ATOM      3  C5  UNL d   1       2.956   4.224  -5.317  0.00  0.00     0.002 A 
ATOM      4  C6  UNL d   1       2.073   3.391  -5.999  0.00  0.00    -0.004 A 
ATOM      5  C7  UNL d   1       2.259   2.010  -5.969  0.00  0.00     0.002 A 
ATOM      6  C8  UNL d   1       3.321   1.461  -5.249  0.00  0.00     0.002 A 
ENDROOT
BRANCH   1   7
ATOM      7  C2  UNL d   1       5.343   1.691  -3.751  0.00  0.00     0.056 C 
BRANCH   7   8
ATOM      8  C1  UNL d   1       4.935   0.487  -2.895  0.00  0.00     0.007 C 
ATOM      9  C   UNL d   1       3.901   0.829  -1.831  0.00  0.00     0.009 C 
ENDBRANCH   7   8
ENDBRANCH   1   7
TORSDOF 2
ENDMDL
