MODEL 1
REMARK minimizedAffinity -2.2293148
REMARK minimizedRMSD -1
REMARK  2 active torsions:
REMARK  status: ('A' for Active; 'I' for Inactive)
REMARK    1  A    between atoms: C1_2  and  C2_3 
REMARK    2  A    between atoms: C2_3  and  C3_4 
ROOT
ATOM      1  C3  UNL d   1       5.984   1.555   3.878  0.00  0.00    -0.075 A 
ATOM      2  C4  UNL d   1       5.979   2.622   2.968  0.00  0.00     0.002 A 
ATOM      3  C5  UNL d   1       5.992   3.941   3.424  0.00  0.00     0.002 A 
ATOM      4  C6  UNL d   1       6.000   4.209   4.791  0.00  0.00    -0.004 A 
ATOM      5  C7  UNL d   1       5.988   3.156   5.704  0.00  0.00     0.002 A 
ATOM      6  C8  UNL d   1       5.979   1.836   5.251  0.00  0.00     0.002 A 
ENDROOT
BRANCH   1   7
ATOM      7  C2  UNL d   1       6.000   0.125   3.391  0.00  0.00     0.056 C 
BRANCH   7   8
ATOM      8  C1  UNL d   1       5.392  -0.876   4.379  0.00  0.00     0.007 C 
ATOM      9  C   UNL d   1       5.985  -2.274   4.257  0.00  0.00     0.009 C 
ENDBRANCH   7   8
ENDBRANCH   1   7
TORSDOF 2
ENDMDL
