MODEL 1
REMARK minimizedAffinity 3.60624576
REMARK minimizedRMSD -1
REMARK  2 active torsions:
REMARK  status: ('A' for Active; 'I' for Inactive)
REMARK    1  A    between atoms: C1_2  and  C2_3 
REMARK    2  A    between atoms: C2_3  and  C3_4 
ROOT
ATOM      1  C3  UNL d   1       4.071   4.223   1.026  0.00  0.00    -0.075 A 
ATOM      2  C4  UNL d   1       4.785   5.129   0.229  0.00  0.00     0.002 A 
ATOM      3  C5  UNL d   1       5.715   5.997   0.802  0.00  0.00     0.002 A 
ATOM      4  C6  UNL d   1       5.935   5.977   2.178  0.00  0.00    -0.004 A 
ATOM      5  C7  UNL d   1       5.220   5.092   2.981  0.00  0.00     0.002 A 
ATOM      6  C8  UNL d   1       4.291   4.220   2.410  0.00  0.00     0.002 A 
ENDROOT
BRANCH   1   7
ATOM      7  C2  UNL d   1       3.084   3.261   0.408  0.00  0.00     0.056 C 
BRANCH   7   8
ATOM      8  C1  UNL d   1       3.672   2.401  -0.715  0.00  0.00     0.007 C 
ATOM      9  C   UNL d   1       3.617   0.908  -0.419  0.00  0.00     0.009 C 
ENDBRANCH   7   8
ENDBRANCH   1   7
TORSDOF 2
ENDMDL
