MODEL 1
REMARK minimizedAffinity -2.22947931
REMARK minimizedRMSD -1
REMARK  2 active torsions:
REMARK  status: ('A' for Active; 'I' for Inactive)
REMARK    1  A    between atoms: C1_2  and  C2_3 
REMARK    2  A    between atoms: C2_3  and  C3_4 
ROOT
ATOM      1  C3  UNL d   1       5.310   1.027   4.798  0.00  0.00    -0.075 A 
ATOM      2  C4  UNL d   1       5.345   2.389   5.131  0.00  0.00     0.002 A 
ATOM      3  C5  UNL d   1       5.683   3.344   4.171  0.00  0.00     0.002 A 
ATOM      4  C6  UNL d   1       5.999   2.949   2.873  0.00  0.00    -0.004 A 
ATOM      5  C7  UNL d   1       5.984   1.597   2.536  0.00  0.00     0.002 A 
ATOM      6  C8  UNL d   1       5.642   0.640   3.493  0.00  0.00     0.002 A 
ENDROOT
BRANCH   1   7
ATOM      7  C2  UNL d   1       4.916  -0.009   5.825  0.00  0.00     0.056 C 
BRANCH   7   8
ATOM      8  C1  UNL d   1       5.936  -1.141   5.991  0.00  0.00     0.007 C 
ATOM      9  C   UNL d   1       5.545  -2.414   5.253  0.00  0.00     0.009 C 
ENDBRANCH   7   8
ENDBRANCH   1   7
TORSDOF 2
ENDMDL
