MODEL 1
REMARK minimizedAffinity 2.4811914
REMARK minimizedRMSD -1
REMARK  2 active torsions:
REMARK  status: ('A' for Active; 'I' for Inactive)
REMARK    1  A    between atoms: C1_2  and  C2_3 
REMARK    2  A    between atoms: C2_3  and  C3_4 
ROOT
ATOM      1  C3  UNL d   1       0.234   2.604   0.326  0.00  0.00    -0.075 A 
ATOM      2  C4  UNL d   1      -0.266   1.347  -0.044  0.00  0.00     0.002 A 
ATOM      3  C5  UNL d   1       0.603   0.312  -0.390  0.00  0.00     0.002 A 
ATOM      4  C6  UNL d   1       1.980   0.523  -0.381  0.00  0.00    -0.004 A 
ATOM      5  C7  UNL d   1       2.488   1.772  -0.031  0.00  0.00     0.002 A 
ATOM      6  C8  UNL d   1       1.620   2.808   0.320  0.00  0.00     0.002 A 
ENDROOT
BRANCH   1   7
ATOM      7  C2  UNL d   1      -0.700   3.719   0.730  0.00  0.00     0.056 C 
BRANCH   7   8
ATOM      8  C1  UNL d   1      -0.418   4.296   2.121  0.00  0.00     0.007 C 
ATOM      9  C   UNL d   1      -1.223   3.624   3.225  0.00  0.00     0.009 C 
ENDBRANCH   7   8
ENDBRANCH   1   7
TORSDOF 2
ENDMDL
