MODEL 1
REMARK minimizedAffinity -0.933318794
REMARK minimizedRMSD -1
REMARK  2 active torsions:
REMARK  status: ('A' for Active; 'I' for Inactive)
REMARK    1  A    between atoms: C1_2  and  C2_3 
REMARK    2  A    between atoms: C2_3  and  C3_4 
ROOT
ATOM      1  C3  UNL d   1       5.670   2.172   4.163  0.00  0.00    -0.075 A 
ATOM      2  C4  UNL d   1       5.914   1.323   3.074  0.00  0.00     0.002 A 
ATOM      3  C5  UNL d   1       5.999  -0.057   3.256  0.00  0.00     0.002 A 
ATOM      4  C6  UNL d   1       5.851  -0.605   4.528  0.00  0.00    -0.004 A 
ATOM      5  C7  UNL d   1       5.624   0.229   5.620  0.00  0.00     0.002 A 
ATOM      6  C8  UNL d   1       5.534   1.611   5.440  0.00  0.00     0.002 A 
ENDROOT
BRANCH   1   7
ATOM      7  C2  UNL d   1       5.548   3.664   3.968  0.00  0.00     0.056 C 
BRANCH   7   8
ATOM      8  C1  UNL d   1       5.959   4.489   5.193  0.00  0.00     0.007 C 
ATOM      9  C   UNL d   1       5.993   5.987   4.923  0.00  0.00     0.009 C 
ENDBRANCH   7   8
ENDBRANCH   1   7
TORSDOF 2
ENDMDL
