MODEL 1
REMARK minimizedAffinity 12.7467747
REMARK minimizedRMSD -1
REMARK  0 active torsions:
REMARK  status: ('A' for Active; 'I' for Inactive)
ROOT
ATOM      1  C   UNL d   1       2.960   4.859   5.614  0.00  0.00     0.077 C 
ATOM      2  C1  UNL d   1       4.020   4.944   4.556  0.00  0.00    -0.074 A 
ATOM      3  C2  UNL d   1       5.001   5.939   4.600  0.00  0.00    -0.005 A 
ATOM      4  C3  UNL d   1       5.986   5.999   3.614  0.00  0.00     0.006 A 
ATOM      5  C4  UNL d   1       5.999   5.067   2.576  0.00  0.00    -0.005 A 
ATOM      6  C5  UNL d   1       5.026   4.064   2.516  0.00  0.00    -0.074 A 
ATOM      7  C6  UNL d   1       5.032   3.048   1.412  0.00  0.00     0.077 C 
ATOM      8  C7  UNL d   1       4.044   4.006   3.514  0.00  0.00    -0.001 A 
ENDROOT
TORSDOF 0
ENDMDL
