MODEL 1
REMARK minimizedAffinity 0.83695519
REMARK minimizedRMSD -1
REMARK  0 active torsions:
REMARK  status: ('A' for Active; 'I' for Inactive)
ROOT
ATOM      1  C   UNL d   1       4.133   1.733   2.910  0.00  0.00     0.077 C 
ATOM      2  C1  UNL d   1       4.297   3.222   2.996  0.00  0.00    -0.074 A 
ATOM      3  C2  UNL d   1       3.747   3.945   4.060  0.00  0.00    -0.005 A 
ATOM      4  C3  UNL d   1       3.916   5.327   4.132  0.00  0.00     0.006 A 
ATOM      5  C4  UNL d   1       4.634   6.000   3.143  0.00  0.00    -0.005 A 
ATOM      6  C5  UNL d   1       5.192   5.294   2.072  0.00  0.00    -0.074 A 
ATOM      7  C6  UNL d   1       5.975   6.000   1.006  0.00  0.00     0.077 C 
ATOM      8  C7  UNL d   1       5.024   3.904   2.011  0.00  0.00    -0.001 A 
ENDROOT
TORSDOF 0
ENDMDL
