MODEL 1
REMARK minimizedAffinity -0.140812948
REMARK minimizedRMSD -1
REMARK  0 active torsions:
REMARK  status: ('A' for Active; 'I' for Inactive)
ROOT
ATOM      1  C   UNL d   1       6.000   4.073   4.453  0.00  0.00     0.077 C 
ATOM      2  C1  UNL d   1       5.254   3.947   3.158  0.00  0.00    -0.074 A 
ATOM      3  C2  UNL d   1       4.473   2.820   2.884  0.00  0.00    -0.005 A 
ATOM      4  C3  UNL d   1       3.778   2.721   1.679  0.00  0.00     0.006 A 
ATOM      5  C4  UNL d   1       3.856   3.748   0.737  0.00  0.00    -0.005 A 
ATOM      6  C5  UNL d   1       4.631   4.883   0.993  0.00  0.00    -0.074 A 
ATOM      7  C6  UNL d   1       4.719   6.000  -0.004  0.00  0.00     0.077 C 
ATOM      8  C7  UNL d   1       5.322   4.978   2.209  0.00  0.00    -0.001 A 
ENDROOT
TORSDOF 0
ENDMDL
