MODEL 1
REMARK minimizedAffinity 8.7717371
REMARK minimizedRMSD -1
REMARK  0 active torsions:
REMARK  status: ('A' for Active; 'I' for Inactive)
ROOT
ATOM      1  C   UNL d   1      -5.997   5.982  -2.438  0.00  0.00     0.077 C 
ATOM      2  C1  UNL d   1      -4.852   5.364  -1.691  0.00  0.00    -0.074 A 
ATOM      3  C2  UNL d   1      -3.607   5.997  -1.632  0.00  0.00    -0.005 A 
ATOM      4  C3  UNL d   1      -2.554   5.415  -0.926  0.00  0.00     0.006 A 
ATOM      5  C4  UNL d   1      -2.736   4.195  -0.273  0.00  0.00    -0.005 A 
ATOM      6  C5  UNL d   1      -3.974   3.548  -0.320  0.00  0.00    -0.074 A 
ATOM      7  C6  UNL d   1      -4.189   2.241   0.384  0.00  0.00     0.077 C 
ATOM      8  C7  UNL d   1      -5.029   4.142  -1.026  0.00  0.00    -0.001 A 
ENDROOT
TORSDOF 0
ENDMDL
