MODEL 1
REMARK minimizedAffinity 14.0032196
REMARK minimizedRMSD -1
REMARK  0 active torsions:
REMARK  status: ('A' for Active; 'I' for Inactive)
ROOT
ATOM      1  C   UNL d   1       2.645  -2.777   4.367  0.00  0.00     0.077 C 
ATOM      2  C1  UNL d   1       1.976  -1.649   3.639  0.00  0.00    -0.074 A 
ATOM      3  C2  UNL d   1       2.020  -0.344   4.140  0.00  0.00    -0.005 A 
ATOM      4  C3  UNL d   1       1.402   0.697   3.447  0.00  0.00     0.006 A 
ATOM      5  C4  UNL d   1       0.735   0.444   2.247  0.00  0.00    -0.005 A 
ATOM      6  C5  UNL d   1       0.681  -0.855   1.730  0.00  0.00    -0.074 A 
ATOM      7  C6  UNL d   1      -0.023  -1.143   0.438  0.00  0.00     0.077 C 
ATOM      8  C7  UNL d   1       1.311  -1.894   2.429  0.00  0.00    -0.001 A 
ENDROOT
TORSDOF 0
ENDMDL
