MODEL 1
REMARK minimizedAffinity 18.9047832
REMARK minimizedRMSD -1
REMARK  0 active torsions:
REMARK  status: ('A' for Active; 'I' for Inactive)
ROOT
ATOM      1  C   UNL d   1      -1.065  -3.045  -1.475  0.00  0.00     0.077 C 
ATOM      2  C1  UNL d   1      -0.806  -2.187  -2.677  0.00  0.00    -0.074 A 
ATOM      3  C2  UNL d   1      -1.860  -1.727  -3.473  0.00  0.00    -0.005 A 
ATOM      4  C3  UNL d   1      -1.604  -0.921  -4.583  0.00  0.00     0.006 A 
ATOM      5  C4  UNL d   1      -0.293  -0.568  -4.907  0.00  0.00    -0.005 A 
ATOM      6  C5  UNL d   1       0.773  -1.017  -4.122  0.00  0.00    -0.074 A 
ATOM      7  C6  UNL d   1       2.187  -0.638  -4.450  0.00  0.00     0.077 C 
ATOM      8  C7  UNL d   1       0.507  -1.820  -3.005  0.00  0.00    -0.001 A 
ENDROOT
TORSDOF 0
ENDMDL
