MODEL 1
REMARK minimizedAffinity 12.2661791
REMARK minimizedRMSD -1
REMARK  0 active torsions:
REMARK  status: ('A' for Active; 'I' for Inactive)
ROOT
ATOM      1  C   UNL d   1       0.827  -0.687  -4.012  0.00  0.00     0.077 C 
ATOM      2  C1  UNL d   1       1.462  -1.925  -4.573  0.00  0.00    -0.074 A 
ATOM      3  C2  UNL d   1       0.704  -2.864  -5.280  0.00  0.00    -0.005 A 
ATOM      4  C3  UNL d   1       1.310  -4.006  -5.804  0.00  0.00     0.006 A 
ATOM      5  C4  UNL d   1       2.677  -4.219  -5.628  0.00  0.00    -0.005 A 
ATOM      6  C5  UNL d   1       3.451  -3.291  -4.925  0.00  0.00    -0.074 A 
ATOM      7  C6  UNL d   1       4.924  -3.500  -4.735  0.00  0.00     0.077 C 
ATOM      8  C7  UNL d   1       2.836  -2.143  -4.407  0.00  0.00    -0.001 A 
ENDROOT
TORSDOF 0
ENDMDL
