MODEL 1
REMARK minimizedAffinity 14.6316137
REMARK minimizedRMSD -1
REMARK  0 active torsions:
REMARK  status: ('A' for Active; 'I' for Inactive)
ROOT
ATOM      1  C   UNL d   1       5.988   2.305   0.480  0.00  0.00     0.077 C 
ATOM      2  C1  UNL d   1       5.673   2.007   1.915  0.00  0.00    -0.074 A 
ATOM      3  C2  UNL d   1       5.920   0.742   2.458  0.00  0.00    -0.005 A 
ATOM      4  C3  UNL d   1       5.630   0.483   3.797  0.00  0.00     0.006 A 
ATOM      5  C4  UNL d   1       5.091   1.484   4.606  0.00  0.00    -0.005 A 
ATOM      6  C5  UNL d   1       4.838   2.755   4.082  0.00  0.00    -0.074 A 
ATOM      7  C6  UNL d   1       4.269   3.845   4.940  0.00  0.00     0.077 C 
ATOM      8  C7  UNL d   1       5.139   3.010   2.737  0.00  0.00    -0.001 A 
ENDROOT
TORSDOF 0
ENDMDL
