MODEL 1
REMARK minimizedAffinity -2.87435818
REMARK minimizedRMSD -1
REMARK  0 active torsions:
REMARK  status: ('A' for Active; 'I' for Inactive)
ROOT
ATOM      1  C1  DEN d   1       1.426   0.471  -0.511  0.00  0.00     0.130 A 
ATOM      2  C2  DEN d   1       2.759   0.021  -0.118  0.00  0.00    -0.031 A 
ATOM      3  C3  DEN d   1       2.621  -0.808   1.096  0.00  0.00     0.027 A 
ATOM      4  C4  DEN d   1       0.485  -1.441   2.395  0.00  0.00     0.027 A 
ATOM      5  C5  DEN d   1      -0.883  -1.287   2.450  0.00  0.00    -0.003 A 
ATOM      6  C6  DEN d   1      -1.567  -0.514   1.549  0.00  0.00     0.001 A 
ATOM      7  C7  DEN d   1      -0.890   0.097   0.527  0.00  0.00     0.017 A 
ATOM      8  C8  DEN d   1       0.490  -0.048   0.469  0.00  0.00    -0.094 A 
ATOM      9  C9  DEN d   1       1.162  -0.843   1.382  0.00  0.00    -0.072 A 
ENDROOT
TORSDOF 0
ENDMDL
