MODEL 1
REMARK minimizedAffinity -4.79102421
REMARK minimizedRMSD -1
REMARK  0 active torsions:
REMARK  status: ('A' for Active; 'I' for Inactive)
ROOT
ATOM      1  C1  DEN d   1       2.382  -1.520  -0.137  0.00  0.00     0.130 A 
ATOM      2  C2  DEN d   1       2.962  -2.175   1.032  0.00  0.00    -0.031 A 
ATOM      3  C3  DEN d   1       2.074  -1.921   2.185  0.00  0.00     0.027 A 
ATOM      4  C4  DEN d   1      -0.133  -0.588   2.270  0.00  0.00     0.027 A 
ATOM      5  C5  DEN d   1      -1.021   0.161   1.531  0.00  0.00    -0.003 A 
ATOM      6  C6  DEN d   1      -0.821   0.429   0.202  0.00  0.00     0.001 A 
ATOM      7  C7  DEN d   1       0.270  -0.094  -0.439  0.00  0.00     0.017 A 
ATOM      8  C8  DEN d   1       1.174  -0.844   0.302  0.00  0.00    -0.094 A 
ATOM      9  C9  DEN d   1       0.948  -1.114   1.641  0.00  0.00    -0.072 A 
ENDROOT
TORSDOF 0
ENDMDL
