MODEL 1
REMARK minimizedAffinity -3.62514448
REMARK minimizedRMSD -1
REMARK  0 active torsions:
REMARK  status: ('A' for Active; 'I' for Inactive)
ROOT
ATOM      1  C1  DEN d   1       1.993   0.011   1.707  0.00  0.00     0.130 A 
ATOM      2  C2  DEN d   1       1.462  -0.745   2.837  0.00  0.00    -0.031 A 
ATOM      3  C3  DEN d   1       0.047  -1.058   2.553  0.00  0.00     0.027 A 
ATOM      4  C4  DEN d   1      -1.365  -0.453   0.481  0.00  0.00     0.027 A 
ATOM      5  C5  DEN d   1      -1.352   0.192  -0.736  0.00  0.00    -0.003 A 
ATOM      6  C6  DEN d   1      -0.244   0.846  -1.205  0.00  0.00     0.001 A 
ATOM      7  C7  DEN d   1       0.914   0.831  -0.472  0.00  0.00     0.017 A 
ATOM      8  C8  DEN d   1       0.907   0.189   0.759  0.00  0.00    -0.094 A 
ATOM      9  C9  DEN d   1      -0.220  -0.477   1.210  0.00  0.00    -0.072 A 
ENDROOT
TORSDOF 0
ENDMDL
