MODEL 1
REMARK minimizedAffinity -1.17902362
REMARK minimizedRMSD -1
REMARK  0 active torsions:
REMARK  status: ('A' for Active; 'I' for Inactive)
ROOT
ATOM      1  C1  DEN d   1       2.124  -1.877  -0.396  0.00  0.00     0.130 A 
ATOM      2  C2  DEN d   1       2.770  -2.715   0.611  0.00  0.00    -0.031 A 
ATOM      3  C3  DEN d   1       2.020  -2.569   1.875  0.00  0.00     0.027 A 
ATOM      4  C4  DEN d   1      -0.069  -1.139   2.367  0.00  0.00     0.027 A 
ATOM      5  C5  DEN d   1      -0.972  -0.249   1.829  0.00  0.00    -0.003 A 
ATOM      6  C6  DEN d   1      -0.888   0.183   0.532  0.00  0.00     0.001 A 
ATOM      7  C7  DEN d   1       0.096  -0.309  -0.284  0.00  0.00     0.017 A 
ATOM      8  C8  DEN d   1       1.015  -1.201   0.253  0.00  0.00    -0.094 A 
ATOM      9  C9  DEN d   1       0.905  -1.635   1.563  0.00  0.00    -0.072 A 
ENDROOT
TORSDOF 0
ENDMDL
