MODEL 1
REMARK minimizedAffinity -5.2138629
REMARK minimizedRMSD -1
REMARK  0 active torsions:
REMARK  status: ('A' for Active; 'I' for Inactive)
ROOT
ATOM      1  C1  DEN d   1       1.954  -2.064  -0.113  0.00  0.00     0.130 A 
ATOM      2  C2  DEN d   1       2.600  -2.617   1.074  0.00  0.00    -0.031 A 
ATOM      3  C3  DEN d   1       1.867  -2.132   2.260  0.00  0.00     0.027 A 
ATOM      4  C4  DEN d   1      -0.197  -0.589   2.373  0.00  0.00     0.027 A 
ATOM      5  C5  DEN d   1      -1.094   0.143   1.627  0.00  0.00    -0.003 A 
ATOM      6  C6  DEN d   1      -1.018   0.217   0.261  0.00  0.00     0.001 A 
ATOM      7  C7  DEN d   1      -0.050  -0.489  -0.404  0.00  0.00     0.017 A 
ATOM      8  C8  DEN d   1       0.862  -1.223   0.342  0.00  0.00    -0.094 A 
ATOM      9  C9  DEN d   1       0.761  -1.295   1.721  0.00  0.00    -0.072 A 
ENDROOT
TORSDOF 0
ENDMDL
