MODEL 1
REMARK minimizedAffinity -2.91983986
REMARK minimizedRMSD -1
REMARK  0 active torsions:
REMARK  status: ('A' for Active; 'I' for Inactive)
ROOT
ATOM      1  C1  DEN d   1      -1.699  -0.881   1.069  0.00  0.00     0.130 A 
ATOM      2  C2  DEN d   1      -1.781  -0.140  -0.186  0.00  0.00    -0.031 A 
ATOM      3  C3  DEN d   1      -0.406   0.066  -0.685  0.00  0.00     0.027 A 
ATOM      4  C4  DEN d   1       1.828  -0.693   0.356  0.00  0.00     0.027 A 
ATOM      5  C5  DEN d   1       2.406  -1.343   1.424  0.00  0.00    -0.003 A 
ATOM      6  C6  DEN d   1       1.664  -1.852   2.457  0.00  0.00     0.001 A 
ATOM      7  C7  DEN d   1       0.297  -1.758   2.422  0.00  0.00     0.017 A 
ATOM      8  C8  DEN d   1      -0.291  -1.096   1.352  0.00  0.00    -0.094 A 
ATOM      9  C9  DEN d   1       0.475  -0.600   0.311  0.00  0.00    -0.072 A 
ENDROOT
TORSDOF 0
ENDMDL
