MODEL 1
REMARK minimizedAffinity -2.87045693
REMARK minimizedRMSD -1
REMARK  0 active torsions:
REMARK  status: ('A' for Active; 'I' for Inactive)
ROOT
ATOM      1  C1  DEN d   1       2.501  -0.330  -0.325  0.00  0.00     0.130 A 
ATOM      2  C2  DEN d   1       1.977  -1.067  -1.472  0.00  0.00    -0.031 A 
ATOM      3  C3  DEN d   1       0.916  -1.972  -0.986  0.00  0.00     0.027 A 
ATOM      4  C4  DEN d   1       0.035  -2.299   1.416  0.00  0.00     0.027 A 
ATOM      5  C5  DEN d   1       0.179  -1.904   2.727  0.00  0.00    -0.003 A 
ATOM      6  C6  DEN d   1       1.122  -0.990   3.116  0.00  0.00     0.001 A 
ATOM      7  C7  DEN d   1       1.929  -0.405   2.175  0.00  0.00     0.017 A 
ATOM      8  C8  DEN d   1       1.794  -0.804   0.851  0.00  0.00    -0.094 A 
ATOM      9  C9  DEN d   1       0.827  -1.721   0.477  0.00  0.00    -0.072 A 
ENDROOT
TORSDOF 0
ENDMDL
