MODEL 1
REMARK minimizedAffinity -0.573191762
REMARK minimizedRMSD -1
REMARK  0 active torsions:
REMARK  status: ('A' for Active; 'I' for Inactive)
ROOT
ATOM      1  C1  DEN d   1      -1.036  -1.119   0.313  0.00  0.00     0.130 A 
ATOM      2  C2  DEN d   1      -1.936  -1.181   1.461  0.00  0.00    -0.031 A 
ATOM      3  C3  DEN d   1      -1.116  -1.116   2.688  0.00  0.00     0.027 A 
ATOM      4  C4  DEN d   1       1.445  -0.921   2.919  0.00  0.00     0.027 A 
ATOM      5  C5  DEN d   1       2.633  -0.847   2.225  0.00  0.00    -0.003 A 
ATOM      6  C6  DEN d   1       2.683  -0.893   0.857  0.00  0.00     0.001 A 
ATOM      7  C7  DEN d   1       1.519  -0.970   0.137  0.00  0.00     0.017 A 
ATOM      8  C8  DEN d   1       0.319  -1.052   0.830  0.00  0.00    -0.094 A 
ATOM      9  C9  DEN d   1       0.288  -0.992   2.213  0.00  0.00    -0.072 A 
ENDROOT
TORSDOF 0
ENDMDL
