MODEL 1
REMARK minimizedAffinity -1.1347326
REMARK minimizedRMSD -1
REMARK  2 active torsions:
REMARK  status: ('A' for Active; 'I' for Inactive)
REMARK    1  A    between atoms: C2'_3  and  C1'_4 
REMARK    2  A    between atoms: C1'_4  and  C1_5 
ROOT
ATOM      1  C1  I4B d   1      -0.562  -0.348  -0.961  0.00  0.00    -0.075 A 
ATOM      2  C2  I4B d   1       0.631   0.305  -1.144  0.00  0.00     0.003 A 
ATOM      3  C3  I4B d   1       1.427   0.031  -2.283  0.00  0.00     0.002 A 
ATOM      4  C4  I4B d   1       1.017  -0.933  -3.182  0.00  0.00    -0.004 A 
ATOM      5  C5  I4B d   1      -0.204  -1.577  -3.007  0.00  0.00     0.002 A 
ATOM      6  C6  I4B d   1      -1.005  -1.274  -1.897  0.00  0.00     0.003 A 
ENDROOT
BRANCH   1   7
ATOM      7  C1' I4B d   1      -1.362  -0.058   0.269  0.00  0.00     0.060 C 
BRANCH   7   8
ATOM      8  C2' I4B d   1      -0.718  -0.793   1.427  0.00  0.00    -0.013 C 
ATOM      9  C4' I4B d   1      -0.511   0.121   2.606  0.00  0.00     0.013 C 
ATOM     10  C3' I4B d   1      -1.601  -1.951   1.788  0.00  0.00     0.013 C 
ENDBRANCH   7   8
ENDBRANCH   1   7
TORSDOF 2
ENDMDL
