MODEL 1
REMARK minimizedAffinity -4.17880058
REMARK minimizedRMSD -1
REMARK  2 active torsions:
REMARK  status: ('A' for Active; 'I' for Inactive)
REMARK    1  A    between atoms: C2'_3  and  C1'_4 
REMARK    2  A    between atoms: C1'_4  and  C1_5 
ROOT
ATOM      1  C1  I4B d   1      -0.038   0.196  -0.472  0.00  0.00    -0.075 A 
ATOM      2  C2  I4B d   1      -1.011  -0.279   0.371  0.00  0.00     0.003 A 
ATOM      3  C3  I4B d   1      -0.775  -0.347   1.765  0.00  0.00     0.002 A 
ATOM      4  C4  I4B d   1       0.458   0.020   2.265  0.00  0.00    -0.004 A 
ATOM      5  C5  I4B d   1       1.436   0.523   1.411  0.00  0.00     0.002 A 
ATOM      6  C6  I4B d   1       1.183   0.623   0.035  0.00  0.00     0.003 A 
ENDROOT
BRANCH   1   7
ATOM      7  C1' I4B d   1      -0.309   0.224  -1.943  0.00  0.00     0.060 C 
BRANCH   7   8
ATOM      8  C2' I4B d   1       0.588  -0.805  -2.602  0.00  0.00    -0.013 C 
ATOM      9  C4' I4B d   1      -0.176  -1.631  -3.604  0.00  0.00     0.013 C 
ATOM     10  C3' I4B d   1       1.725  -0.077  -3.255  0.00  0.00     0.013 C 
ENDBRANCH   7   8
ENDBRANCH   1   7
TORSDOF 2
ENDMDL
