MODEL 1
REMARK minimizedAffinity -2.56393886
REMARK minimizedRMSD -1
REMARK  2 active torsions:
REMARK  status: ('A' for Active; 'I' for Inactive)
REMARK    1  A    between atoms: C2'_3  and  C1'_4 
REMARK    2  A    between atoms: C1'_4  and  C1_5 
ROOT
ATOM      1  C1  I4B d   1      -0.059  -0.072  -0.645  0.00  0.00    -0.075 A 
ATOM      2  C2  I4B d   1       1.047   0.128   0.144  0.00  0.00     0.003 A 
ATOM      3  C3  I4B d   1       0.978  -0.105   1.539  0.00  0.00     0.002 A 
ATOM      4  C4  I4B d   1      -0.220  -0.486   2.106  0.00  0.00    -0.004 A 
ATOM      5  C5  I4B d   1      -1.334  -0.711   1.302  0.00  0.00     0.002 A 
ATOM      6  C6  I4B d   1      -1.250  -0.515  -0.084  0.00  0.00     0.003 A 
ENDROOT
BRANCH   1   7
ATOM      7  C1' I4B d   1       0.040   0.215  -2.110  0.00  0.00     0.060 C 
BRANCH   7   8
ATOM      8  C2' I4B d   1       0.783  -0.933  -2.762  0.00  0.00    -0.013 C 
ATOM      9  C4' I4B d   1      -0.111  -1.696  -3.704  0.00  0.00     0.013 C 
ATOM     10  C3' I4B d   1       1.971  -0.367  -3.481  0.00  0.00     0.013 C 
ENDBRANCH   7   8
ENDBRANCH   1   7
TORSDOF 2
ENDMDL
