MODEL 1
REMARK minimizedAffinity -3.4580307
REMARK minimizedRMSD -1
REMARK  2 active torsions:
REMARK  status: ('A' for Active; 'I' for Inactive)
REMARK    1  A    between atoms: C2'_3  and  C1'_4 
REMARK    2  A    between atoms: C1'_4  and  C1_5 
ROOT
ATOM      1  C1  I4B d   1       0.217   0.102  -0.286  0.00  0.00    -0.075 A 
ATOM      2  C2  I4B d   1       1.441   0.191   0.329  0.00  0.00     0.003 A 
ATOM      3  C3  I4B d   1       1.560  -0.053   1.718  0.00  0.00     0.002 A 
ATOM      4  C4  I4B d   1       0.429  -0.331   2.459  0.00  0.00    -0.004 A 
ATOM      5  C5  I4B d   1      -0.808  -0.443   1.830  0.00  0.00     0.002 A 
ATOM      6  C6  I4B d   1      -0.913  -0.237   0.447  0.00  0.00     0.003 A 
ENDROOT
BRANCH   1   7
ATOM      7  C1' I4B d   1       0.122   0.398  -1.749  0.00  0.00     0.060 C 
BRANCH   7   8
ATOM      8  C2' I4B d   1       0.716  -0.775  -2.502  0.00  0.00    -0.013 C 
ATOM      9  C4' I4B d   1      -0.211  -1.250  -3.591  0.00  0.00     0.013 C 
ATOM     10  C3' I4B d   1       2.037  -0.342  -3.066  0.00  0.00     0.013 C 
ENDBRANCH   7   8
ENDBRANCH   1   7
TORSDOF 2
ENDMDL
