MODEL 1
REMARK minimizedAffinity -4.68556261
REMARK minimizedRMSD -1
REMARK  2 active torsions:
REMARK  status: ('A' for Active; 'I' for Inactive)
REMARK    1  A    between atoms: C2'_3  and  C1'_4 
REMARK    2  A    between atoms: C1'_4  and  C1_5 
ROOT
ATOM      1  C1  I4B d   1       0.102  -0.051  -0.114  0.00  0.00    -0.075 A 
ATOM      2  C2  I4B d   1       1.161   0.456   0.596  0.00  0.00     0.003 A 
ATOM      3  C3  I4B d   1       1.237   0.265   1.997  0.00  0.00     0.002 A 
ATOM      4  C4  I4B d   1       0.212  -0.390   2.650  0.00  0.00    -0.004 A 
ATOM      5  C5  I4B d   1      -0.850  -0.923   1.925  0.00  0.00     0.002 A 
ATOM      6  C6  I4B d   1      -0.900  -0.763   0.533  0.00  0.00     0.003 A 
ENDROOT
BRANCH   1   7
ATOM      7  C1' I4B d   1       0.037   0.198  -1.588  0.00  0.00     0.060 C 
BRANCH   7   8
ATOM      8  C2' I4B d   1       0.893  -0.847  -2.275  0.00  0.00    -0.013 C 
ATOM      9  C4' I4B d   1       0.042  -1.900  -2.936  0.00  0.00     0.013 C 
ATOM     10  C3' I4B d   1       1.763  -0.147  -3.276  0.00  0.00     0.013 C 
ENDBRANCH   7   8
ENDBRANCH   1   7
TORSDOF 2
ENDMDL
