MODEL 1
REMARK minimizedAffinity -3.59568787
REMARK minimizedRMSD -1
REMARK  2 active torsions:
REMARK  status: ('A' for Active; 'I' for Inactive)
REMARK    1  A    between atoms: C2'_3  and  C1'_4 
REMARK    2  A    between atoms: C1'_4  and  C1_5 
ROOT
ATOM      1  C1  I4B d   1      -0.283  -0.089  -0.411  0.00  0.00    -0.075 A 
ATOM      2  C2  I4B d   1      -1.451  -0.654   0.034  0.00  0.00     0.003 A 
ATOM      3  C3  I4B d   1      -1.674  -0.831   1.421  0.00  0.00     0.002 A 
ATOM      4  C4  I4B d   1      -0.688  -0.477   2.319  0.00  0.00    -0.004 A 
ATOM      5  C5  I4B d   1       0.487   0.118   1.867  0.00  0.00     0.002 A 
ATOM      6  C6  I4B d   1       0.686   0.325   0.495  0.00  0.00     0.003 A 
ENDROOT
BRANCH   1   7
ATOM      7  C1' I4B d   1      -0.066   0.053  -1.884  0.00  0.00     0.060 C 
BRANCH   7   8
ATOM      8  C2' I4B d   1       0.515  -1.249  -2.398  0.00  0.00    -0.013 C 
ATOM      9  C4' I4B d   1      -0.495  -2.012  -3.214  0.00  0.00     0.013 C 
ATOM     10  C3' I4B d   1       1.733  -0.924  -3.210  0.00  0.00     0.013 C 
ENDBRANCH   7   8
ENDBRANCH   1   7
TORSDOF 2
ENDMDL
