MODEL 1
REMARK minimizedAffinity -5.34322309
REMARK minimizedRMSD -1
REMARK  2 active torsions:
REMARK  status: ('A' for Active; 'I' for Inactive)
REMARK    1  A    between atoms: C2'_3  and  C1'_4 
REMARK    2  A    between atoms: C1'_4  and  C1_5 
ROOT
ATOM      1  C1  I4B d   1      -0.088   0.046  -0.566  0.00  0.00    -0.075 A 
ATOM      2  C2  I4B d   1      -1.427  -0.217  -0.413  0.00  0.00     0.003 A 
ATOM      3  C3  I4B d   1      -1.957  -0.493   0.871  0.00  0.00     0.002 A 
ATOM      4  C4  I4B d   1      -1.110  -0.546   1.959  0.00  0.00    -0.004 A 
ATOM      5  C5  I4B d   1       0.243  -0.257   1.806  0.00  0.00     0.002 A 
ATOM      6  C6  I4B d   1       0.755   0.053   0.538  0.00  0.00     0.003 A 
ENDROOT
BRANCH   1   7
ATOM      7  C1' I4B d   1       0.444   0.301  -1.940  0.00  0.00     0.060 C 
BRANCH   7   8
ATOM      8  C2' I4B d   1       0.452  -1.016  -2.690  0.00  0.00    -0.013 C 
ATOM      9  C4' I4B d   1      -0.470  -0.971  -3.880  0.00  0.00     0.013 C 
ATOM     10  C3' I4B d   1       1.864  -1.301  -3.108  0.00  0.00     0.013 C 
ENDBRANCH   7   8
ENDBRANCH   1   7
TORSDOF 2
ENDMDL
