MODEL 1
REMARK minimizedAffinity -4.61655331
REMARK minimizedRMSD -1
REMARK  2 active torsions:
REMARK  status: ('A' for Active; 'I' for Inactive)
REMARK    1  A    between atoms: C2'_3  and  C1'_4 
REMARK    2  A    between atoms: C1'_4  and  C1_5 
ROOT
ATOM      1  C1  I4B d   1      -0.102  -0.039  -0.011  0.00  0.00    -0.075 A 
ATOM      2  C2  I4B d   1       1.014   0.385   0.667  0.00  0.00     0.003 A 
ATOM      3  C3  I4B d   1       1.096   0.231   2.072  0.00  0.00     0.002 A 
ATOM      4  C4  I4B d   1       0.026  -0.302   2.761  0.00  0.00    -0.004 A 
ATOM      5  C5  I4B d   1      -1.095  -0.752   2.070  0.00  0.00     0.002 A 
ATOM      6  C6  I4B d   1      -1.155  -0.632   0.674  0.00  0.00     0.003 A 
ENDROOT
BRANCH   1   7
ATOM      7  C1' I4B d   1      -0.169   0.169  -1.491  0.00  0.00     0.060 C 
BRANCH   7   8
ATOM      8  C2' I4B d   1       0.886  -0.709  -2.133  0.00  0.00    -0.013 C 
ATOM      9  C4' I4B d   1       0.260  -1.874  -2.854  0.00  0.00     0.013 C 
ATOM     10  C3' I4B d   1       1.686   0.143  -3.074  0.00  0.00     0.013 C 
ENDBRANCH   7   8
ENDBRANCH   1   7
TORSDOF 2
ENDMDL
