MODEL 1
REMARK minimizedAffinity -4.89435911
REMARK minimizedRMSD -1
REMARK  2 active torsions:
REMARK  status: ('A' for Active; 'I' for Inactive)
REMARK    1  A    between atoms: C2'_3  and  C1'_4 
REMARK    2  A    between atoms: C1'_4  and  C1_5 
ROOT
ATOM      1  C1  I4B d   1       0.253  -0.003  -1.446  0.00  0.00    -0.075 A 
ATOM      2  C2  I4B d   1       1.022   0.644  -2.381  0.00  0.00     0.003 A 
ATOM      3  C3  I4B d   1       1.335   0.010  -3.608  0.00  0.00     0.002 A 
ATOM      4  C4  I4B d   1       0.904  -1.281  -3.836  0.00  0.00    -0.004 A 
ATOM      5  C5  I4B d   1       0.106  -1.926  -2.896  0.00  0.00     0.002 A 
ATOM      6  C6  I4B d   1      -0.233  -1.279  -1.699  0.00  0.00     0.003 A 
ENDROOT
BRANCH   1   7
ATOM      7  C1' I4B d   1      -0.031   0.683  -0.148  0.00  0.00     0.060 C 
BRANCH   7   8
ATOM      8  C2' I4B d   1       0.912   0.118   0.895  0.00  0.00    -0.013 C 
ATOM      9  C4' I4B d   1       2.131   0.988   1.055  0.00  0.00     0.013 C 
ATOM     10  C3' I4B d   1       0.158   0.000   2.186  0.00  0.00     0.013 C 
ENDBRANCH   7   8
ENDBRANCH   1   7
TORSDOF 2
ENDMDL
