MODEL 1
REMARK minimizedAffinity -4.5716424
REMARK minimizedRMSD -1
REMARK  2 active torsions:
REMARK  status: ('A' for Active; 'I' for Inactive)
REMARK    1  A    between atoms: C2'_3  and  C1'_4 
REMARK    2  A    between atoms: C1'_4  and  C1_5 
ROOT
ATOM      1  C1  I4B d   1       0.467  -0.900   0.986  0.00  0.00    -0.075 A 
ATOM      2  C2  I4B d   1      -0.616  -1.497   1.582  0.00  0.00     0.003 A 
ATOM      3  C3  I4B d   1      -1.140  -0.978   2.791  0.00  0.00     0.002 A 
ATOM      4  C4  I4B d   1      -0.524   0.101   3.390  0.00  0.00    -0.004 A 
ATOM      5  C5  I4B d   1       0.560   0.719   2.772  0.00  0.00     0.002 A 
ATOM      6  C6  I4B d   1       1.051   0.223   1.556  0.00  0.00     0.003 A 
ENDROOT
BRANCH   1   7
ATOM      7  C1' I4B d   1       1.015  -1.495  -0.273  0.00  0.00     0.060 C 
BRANCH   7   8
ATOM      8  C2' I4B d   1       0.089  -1.115  -1.410  0.00  0.00    -0.013 C 
ATOM      9  C4' I4B d   1      -0.006   0.380  -1.560  0.00  0.00     0.013 C 
ATOM     10  C3' I4B d   1       0.609  -1.753  -2.664  0.00  0.00     0.013 C 
ENDBRANCH   7   8
ENDBRANCH   1   7
TORSDOF 2
ENDMDL
