MODEL 1
REMARK minimizedAffinity 1.29075527
REMARK minimizedRMSD -1
REMARK  2 active torsions:
REMARK  status: ('A' for Active; 'I' for Inactive)
REMARK    1  A    between atoms: C2'_3  and  C1'_4 
REMARK    2  A    between atoms: C1'_4  and  C1_5 
ROOT
ATOM      1  C1  I4B d   1      -0.738   0.008   1.421  0.00  0.00    -0.075 A 
ATOM      2  C2  I4B d   1      -1.921   0.508   0.938  0.00  0.00     0.003 A 
ATOM      3  C3  I4B d   1      -2.199   0.466  -0.449  0.00  0.00     0.002 A 
ATOM      4  C4  I4B d   1      -1.251  -0.035  -1.318  0.00  0.00    -0.004 A 
ATOM      5  C5  I4B d   1      -0.062  -0.563  -0.824  0.00  0.00     0.002 A 
ATOM      6  C6  I4B d   1       0.192  -0.553   0.556  0.00  0.00     0.003 A 
ENDROOT
BRANCH   1   7
ATOM      7  C1' I4B d   1      -0.463   0.098   2.889  0.00  0.00     0.060 C 
BRANCH   7   8
ATOM      8  C2' I4B d   1       0.603   1.155   3.100  0.00  0.00    -0.013 C 
ATOM      9  C4' I4B d   1       1.308   1.483   1.810  0.00  0.00     0.013 C 
ATOM     10  C3' I4B d   1      -0.058   2.369   3.681  0.00  0.00     0.013 C 
ENDBRANCH   7   8
ENDBRANCH   1   7
TORSDOF 2
ENDMDL
