MODEL 1
REMARK minimizedAffinity 8.02671337
REMARK minimizedRMSD -1
REMARK  1 active torsions:
REMARK  status: ('A' for Active; 'I' for Inactive)
REMARK    1  A    between atoms: C1_2  and  C2_3 
ROOT
ATOM      1  C2  UNL d   1      -4.827  -5.099   1.293  0.00  0.00    -0.081 A 
ATOM      2  C3  UNL d   1      -5.049  -5.875   0.149  0.00  0.00     0.006 A 
ATOM      3  C4  UNL d   1      -4.067  -5.975  -0.840  0.00  0.00     0.002 A 
ATOM      4  C5  UNL d   1      -2.845  -5.309  -0.697  0.00  0.00    -0.080 A 
ATOM      5  C6  UNL d   1      -1.771  -5.433  -1.737  0.00  0.00     0.076 C 
ATOM      6  C7  UNL d   1      -2.630  -4.519   0.438  0.00  0.00     0.002 A 
ATOM      7  C8  UNL d   1      -3.612  -4.418   1.426  0.00  0.00     0.006 A 
ENDROOT
BRANCH   1   8
ATOM      8  C1  UNL d   1      -5.858  -5.040   2.391  0.00  0.00     0.054 C 
ATOM      9  C   UNL d   1      -5.273  -5.486   3.724  0.00  0.00     0.018 C 
ENDBRANCH   1   8
TORSDOF 1
ENDMDL
