MODEL 1
REMARK minimizedAffinity 2.71886635
REMARK minimizedRMSD -1
REMARK  1 active torsions:
REMARK  status: ('A' for Active; 'I' for Inactive)
REMARK    1  A    between atoms: C1_2  and  C2_3 
ROOT
ATOM      1  C2  UNL d   1      -1.711  -5.942  -2.956  0.00  0.00    -0.081 A 
ATOM      2  C3  UNL d   1      -2.055  -5.990  -4.312  0.00  0.00     0.006 A 
ATOM      3  C4  UNL d   1      -1.063  -5.997  -5.295  0.00  0.00     0.002 A 
ATOM      4  C5  UNL d   1       0.289  -5.963  -4.939  0.00  0.00    -0.080 A 
ATOM      5  C6  UNL d   1       1.365  -6.000  -5.983  0.00  0.00     0.076 C 
ATOM      6  C7  UNL d   1       0.633  -5.896  -3.584  0.00  0.00     0.002 A 
ATOM      7  C8  UNL d   1      -0.358  -5.889  -2.601  0.00  0.00     0.006 A 
ENDROOT
BRANCH   1   8
ATOM      8  C1  UNL d   1      -2.777  -6.000  -1.892  0.00  0.00     0.054 C 
ATOM      9  C   UNL d   1      -4.170  -5.937  -2.500  0.00  0.00     0.018 C 
ENDBRANCH   1   8
TORSDOF 1
ENDMDL
