MODEL 1
REMARK minimizedAffinity 3.30502939
REMARK minimizedRMSD -1
REMARK  1 active torsions:
REMARK  status: ('A' for Active; 'I' for Inactive)
REMARK    1  A    between atoms: C1_2  and  C2_3 
ROOT
ATOM      1  C2  UNL d   1       3.332   3.981  -0.025  0.00  0.00    -0.081 A 
ATOM      2  C3  UNL d   1       2.095   3.405  -0.341  0.00  0.00     0.006 A 
ATOM      3  C4  UNL d   1       0.913   3.932   0.186  0.00  0.00     0.002 A 
ATOM      4  C5  UNL d   1       0.948   5.047   1.030  0.00  0.00    -0.080 A 
ATOM      5  C6  UNL d   1      -0.316   5.641   1.578  0.00  0.00     0.076 C 
ATOM      6  C7  UNL d   1       2.185   5.612   1.360  0.00  0.00     0.002 A 
ATOM      7  C8  UNL d   1       3.366   5.085   0.834  0.00  0.00     0.006 A 
ENDROOT
BRANCH   1   8
ATOM      8  C1  UNL d   1       4.602   3.455  -0.643  0.00  0.00     0.054 C 
ATOM      9  C   UNL d   1       5.528   4.590  -1.055  0.00  0.00     0.018 C 
ENDBRANCH   1   8
TORSDOF 1
ENDMDL
