MODEL 1
REMARK minimizedAffinity -1.62781596
REMARK minimizedRMSD -1
REMARK  1 active torsions:
REMARK  status: ('A' for Active; 'I' for Inactive)
REMARK    1  A    between atoms: C1_2  and  C2_3 
ROOT
ATOM      1  C2  UNL d   1       0.076  -5.653  -4.897  0.00  0.00    -0.081 A 
ATOM      2  C3  UNL d   1      -0.482  -5.899  -3.636  0.00  0.00     0.006 A 
ATOM      3  C4  UNL d   1      -1.867  -6.000  -3.482  0.00  0.00     0.002 A 
ATOM      4  C5  UNL d   1      -2.716  -5.864  -4.585  0.00  0.00    -0.080 A 
ATOM      5  C6  UNL d   1      -4.202  -6.000  -4.438  0.00  0.00     0.076 C 
ATOM      6  C7  UNL d   1      -2.160  -5.600  -5.842  0.00  0.00     0.002 A 
ATOM      7  C8  UNL d   1      -0.775  -5.499  -5.997  0.00  0.00     0.006 A 
ENDROOT
BRANCH   1   8
ATOM      8  C1  UNL d   1       1.571  -5.608  -5.078  0.00  0.00     0.054 C 
ATOM      9  C   UNL d   1       2.296  -5.956  -3.785  0.00  0.00     0.018 C 
ENDBRANCH   1   8
TORSDOF 1
ENDMDL
