MODEL 1
REMARK minimizedAffinity 5.98871231
REMARK minimizedRMSD -1
REMARK  1 active torsions:
REMARK  status: ('A' for Active; 'I' for Inactive)
REMARK    1  A    between atoms: C1_2  and  C2_3 
ROOT
ATOM      1  C2  UNL d   1       1.216   0.650   0.204  0.00  0.00    -0.081 A 
ATOM      2  C3  UNL d   1       0.325   0.039  -0.687  0.00  0.00     0.006 A 
ATOM      3  C4  UNL d   1      -0.242  -1.201  -0.383  0.00  0.00     0.002 A 
ATOM      4  C5  UNL d   1       0.066  -1.846   0.820  0.00  0.00    -0.080 A 
ATOM      5  C6  UNL d   1      -0.559  -3.163   1.172  0.00  0.00     0.076 C 
ATOM      6  C7  UNL d   1       0.970  -1.245   1.702  0.00  0.00     0.002 A 
ATOM      7  C8  UNL d   1       1.537  -0.005   1.398  0.00  0.00     0.006 A 
ENDROOT
BRANCH   1   8
ATOM      8  C1  UNL d   1       1.779   2.017  -0.091  0.00  0.00     0.054 C 
ATOM      9  C   UNL d   1       3.282   1.958  -0.322  0.00  0.00     0.018 C 
ENDBRANCH   1   8
TORSDOF 1
ENDMDL
