MODEL 1
REMARK minimizedAffinity 0.125435248
REMARK minimizedRMSD -1
REMARK  1 active torsions:
REMARK  status: ('A' for Active; 'I' for Inactive)
REMARK    1  A    between atoms: C1_2  and  C2_3 
ROOT
ATOM      1  C2  UNL d   1       1.374  -0.806   0.621  0.00  0.00    -0.081 A 
ATOM      2  C3  UNL d   1       1.368  -2.205   0.577  0.00  0.00     0.006 A 
ATOM      3  C4  UNL d   1       0.175  -2.914   0.745  0.00  0.00     0.002 A 
ATOM      4  C5  UNL d   1      -1.030  -2.235   0.951  0.00  0.00    -0.080 A 
ATOM      5  C6  UNL d   1      -2.322  -2.983   1.102  0.00  0.00     0.076 C 
ATOM      6  C7  UNL d   1      -1.022  -0.838   1.012  0.00  0.00     0.002 A 
ATOM      7  C8  UNL d   1       0.170  -0.129   0.845  0.00  0.00     0.006 A 
ENDROOT
BRANCH   1   8
ATOM      8  C1  UNL d   1       2.647  -0.037   0.376  0.00  0.00     0.054 C 
ATOM      9  C   UNL d   1       3.865  -0.947   0.444  0.00  0.00     0.018 C 
ENDBRANCH   1   8
TORSDOF 1
ENDMDL
