MODEL 1
REMARK minimizedAffinity -0.436649233
REMARK minimizedRMSD -1
REMARK  1 active torsions:
REMARK  status: ('A' for Active; 'I' for Inactive)
REMARK    1  A    between atoms: C1_2  and  C2_3 
ROOT
ATOM      1  C2  UNL d   1      -2.058  -5.943  -2.604  0.00  0.00    -0.081 A 
ATOM      2  C3  UNL d   1      -0.727  -5.949  -2.168  0.00  0.00     0.006 A 
ATOM      3  C4  UNL d   1       0.321  -5.975  -3.092  0.00  0.00     0.002 A 
ATOM      4  C5  UNL d   1       0.056  -5.987  -4.465  0.00  0.00    -0.080 A 
ATOM      5  C6  UNL d   1       1.172  -5.984  -5.468  0.00  0.00     0.076 C 
ATOM      6  C7  UNL d   1      -1.273  -5.998  -4.901  0.00  0.00     0.002 A 
ATOM      7  C8  UNL d   1      -2.321  -5.973  -3.978  0.00  0.00     0.006 A 
ENDROOT
BRANCH   1   8
ATOM      8  C1  UNL d   1      -3.189  -5.850  -1.612  0.00  0.00     0.054 C 
ATOM      9  C   UNL d   1      -4.539  -5.998  -2.298  0.00  0.00     0.018 C 
ENDBRANCH   1   8
TORSDOF 1
ENDMDL
