MODEL 1
REMARK minimizedAffinity -3.56786418
REMARK minimizedRMSD -1
REMARK  1 active torsions:
REMARK  status: ('A' for Active; 'I' for Inactive)
REMARK    1  A    between atoms: C1_2  and  C2_3 
ROOT
ATOM      1  C2  UNL d   1      -0.271  -5.744  -3.899  0.00  0.00    -0.081 A 
ATOM      2  C3  UNL d   1      -1.408  -5.692  -4.714  0.00  0.00     0.006 A 
ATOM      3  C4  UNL d   1      -2.685  -5.786  -4.155  0.00  0.00     0.002 A 
ATOM      4  C5  UNL d   1      -2.846  -5.925  -2.772  0.00  0.00    -0.080 A 
ATOM      5  C6  UNL d   1      -4.211  -5.996  -2.156  0.00  0.00     0.076 C 
ATOM      6  C7  UNL d   1      -1.709  -5.994  -1.960  0.00  0.00     0.002 A 
ATOM      7  C8  UNL d   1      -0.432  -5.902  -2.518  0.00  0.00     0.006 A 
ENDROOT
BRANCH   1   8
ATOM      8  C1  UNL d   1       1.105  -5.579  -4.492  0.00  0.00     0.054 C 
ATOM      9  C   UNL d   1       1.087  -5.791  -5.999  0.00  0.00     0.018 C 
ENDBRANCH   1   8
TORSDOF 1
ENDMDL
