MODEL 1
REMARK minimizedAffinity -0.0411535501
REMARK minimizedRMSD -1
REMARK  1 active torsions:
REMARK  status: ('A' for Active; 'I' for Inactive)
REMARK    1  A    between atoms: C1_2  and  C2_3 
ROOT
ATOM      1  C2  UNL d   1       3.029  -0.435   0.338  0.00  0.00    -0.081 A 
ATOM      2  C3  UNL d   1       2.013   0.389  -0.161  0.00  0.00     0.006 A 
ATOM      3  C4  UNL d   1       0.684  -0.044  -0.157  0.00  0.00     0.002 A 
ATOM      4  C5  UNL d   1       0.350  -1.303   0.352  0.00  0.00    -0.080 A 
ATOM      5  C6  UNL d   1      -1.076  -1.767   0.390  0.00  0.00     0.076 C 
ATOM      6  C7  UNL d   1       1.367  -2.133   0.835  0.00  0.00     0.002 A 
ATOM      7  C8  UNL d   1       2.695  -1.701   0.831  0.00  0.00     0.006 A 
ENDROOT
BRANCH   1   8
ATOM      8  C1  UNL d   1       4.454   0.055   0.395  0.00  0.00     0.054 C 
ATOM      9  C   UNL d   1       5.058  -0.162   1.775  0.00  0.00     0.018 C 
ENDBRANCH   1   8
TORSDOF 1
ENDMDL
