MODEL 1
REMARK minimizedAffinity 2.18943
REMARK minimizedRMSD -1
REMARK  1 active torsions:
REMARK  status: ('A' for Active; 'I' for Inactive)
REMARK    1  A    between atoms: C1_2  and  C2_3 
ROOT
ATOM      1  C2  UNL d   1      -2.266  -5.968  -3.951  0.00  0.00    -0.081 A 
ATOM      2  C3  UNL d   1      -3.621  -5.962  -4.304  0.00  0.00     0.006 A 
ATOM      3  C4  UNL d   1      -4.609  -5.970  -3.316  0.00  0.00     0.002 A 
ATOM      4  C5  UNL d   1      -4.260  -5.976  -1.962  0.00  0.00    -0.080 A 
ATOM      5  C6  UNL d   1      -5.311  -5.953  -0.892  0.00  0.00     0.076 C 
ATOM      6  C7  UNL d   1      -2.906  -6.000  -1.610  0.00  0.00     0.002 A 
ATOM      7  C8  UNL d   1      -1.917  -5.993  -2.596  0.00  0.00     0.006 A 
ENDROOT
BRANCH   1   8
ATOM      8  C1  UNL d   1      -1.198  -5.895  -5.012  0.00  0.00     0.054 C 
ATOM      9  C   UNL d   1       0.194  -5.989  -4.404  0.00  0.00     0.018 C 
ENDBRANCH   1   8
TORSDOF 1
ENDMDL
