MODEL 1
REMARK minimizedAffinity 6.61543608
REMARK minimizedRMSD -1
REMARK  1 active torsions:
REMARK  status: ('A' for Active; 'I' for Inactive)
REMARK    1  A    between atoms: C1_2  and  C2_3 
ROOT
ATOM      1  C2  UNL d   1      -0.294  -2.314   0.701  0.00  0.00    -0.081 A 
ATOM      2  C3  UNL d   1      -0.141  -0.925   0.605  0.00  0.00     0.006 A 
ATOM      3  C4  UNL d   1       1.133  -0.354   0.578  0.00  0.00     0.002 A 
ATOM      4  C5  UNL d   1       2.274  -1.160   0.639  0.00  0.00    -0.080 A 
ATOM      5  C6  UNL d   1       3.648  -0.561   0.581  0.00  0.00     0.076 C 
ATOM      6  C7  UNL d   1       2.121  -2.546   0.753  0.00  0.00     0.002 A 
ATOM      7  C8  UNL d   1       0.848  -3.118   0.780  0.00  0.00     0.006 A 
ENDROOT
BRANCH   1   8
ATOM      8  C1  UNL d   1      -1.666  -2.938   0.664  0.00  0.00     0.054 C 
ATOM      9  C   UNL d   1      -2.721  -1.931   0.229  0.00  0.00     0.018 C 
ENDBRANCH   1   8
TORSDOF 1
ENDMDL
