MODEL 1
REMARK minimizedAffinity -0.606982946
REMARK minimizedRMSD -1
REMARK  0 active torsions:
REMARK  status: ('A' for Active; 'I' for Inactive)
ROOT
ATOM      1  C   UNL d   1       1.763  -3.752  -3.760  0.00  0.00     0.023 A 
ATOM      2  C1  UNL d   1       1.778  -3.137  -5.012  0.00  0.00     0.003 A 
ATOM      3  C2  UNL d   1       2.993  -2.891  -5.656  0.00  0.00     0.048 A 
ATOM      4  C3  UNL d   1       4.188  -3.264  -5.043  0.00  0.00     0.023 A 
ATOM      5  C4  UNL d   1       4.178  -3.880  -3.790  0.00  0.00     0.048 A 
ATOM      6  C5  UNL d   1       2.962  -4.124  -3.150  0.00  0.00     0.003 A 
ATOM      7  I   UNL d   1       5.997  -2.899  -5.999  0.00  0.00    -0.146 I 
ENDROOT
TORSDOF 0
ENDMDL
