MODEL 1
REMARK minimizedAffinity 9.25416756
REMARK minimizedRMSD -1
REMARK  0 active torsions:
REMARK  status: ('A' for Active; 'I' for Inactive)
ROOT
ATOM      1  C   UNL d   1       5.971  -4.693  -5.780  0.00  0.00     0.023 A 
ATOM      2  C1  UNL d   1       5.242  -3.527  -5.547  0.00  0.00     0.003 A 
ATOM      3  C2  UNL d   1       4.017  -3.590  -4.878  0.00  0.00     0.048 A 
ATOM      4  C3  UNL d   1       3.529  -4.822  -4.445  0.00  0.00     0.023 A 
ATOM      5  C4  UNL d   1       4.256  -5.991  -4.675  0.00  0.00     0.048 A 
ATOM      6  C5  UNL d   1       5.479  -5.923  -5.344  0.00  0.00     0.003 A 
ATOM      7  I   UNL d   1       1.707  -4.918  -3.450  0.00  0.00    -0.146 I 
ENDROOT
TORSDOF 0
ENDMDL
