MODEL 1
REMARK minimizedAffinity 5.48333311
REMARK minimizedRMSD -1
REMARK  0 active torsions:
REMARK  status: ('A' for Active; 'I' for Inactive)
ROOT
ATOM      1  C   UNL d   1       5.688  -5.719  -5.677  0.00  0.00     0.023 A 
ATOM      2  C1  UNL d   1       6.000  -4.398  -5.999  0.00  0.00     0.003 A 
ATOM      3  C2  UNL d   1       5.204  -3.355  -5.520  0.00  0.00     0.048 A 
ATOM      4  C3  UNL d   1       4.099  -3.640  -4.719  0.00  0.00     0.023 A 
ATOM      5  C4  UNL d   1       3.784  -4.960  -4.394  0.00  0.00     0.048 A 
ATOM      6  C5  UNL d   1       4.582  -6.000  -4.875  0.00  0.00     0.003 A 
ATOM      7  I   UNL d   1       2.913  -2.089  -4.005  0.00  0.00    -0.146 I 
ENDROOT
TORSDOF 0
ENDMDL
