MODEL 1
REMARK minimizedAffinity 11.9113178
REMARK minimizedRMSD -1
REMARK  0 active torsions:
REMARK  status: ('A' for Active; 'I' for Inactive)
ROOT
ATOM      1  C   UNL d   1       5.557  -5.264   1.753  0.00  0.00     0.023 A 
ATOM      2  C1  UNL d   1       4.211  -5.617   1.855  0.00  0.00     0.003 A 
ATOM      3  C2  UNL d   1       3.238  -4.627   2.013  0.00  0.00     0.048 A 
ATOM      4  C3  UNL d   1       3.618  -3.287   2.067  0.00  0.00     0.023 A 
ATOM      5  C4  UNL d   1       4.964  -2.929   1.965  0.00  0.00     0.048 A 
ATOM      6  C5  UNL d   1       5.933  -3.922   1.808  0.00  0.00     0.003 A 
ATOM      7  I   UNL d   1       2.173  -1.812   2.302  0.00  0.00    -0.146 I 
ENDROOT
TORSDOF 0
ENDMDL
