MODEL 1
REMARK minimizedAffinity 11.1093054
REMARK minimizedRMSD -1
REMARK  0 active torsions:
REMARK  status: ('A' for Active; 'I' for Inactive)
ROOT
ATOM      1  C   UNL d   1       0.328  -2.933  -0.063  0.00  0.00     0.023 A 
ATOM      2  C1  UNL d   1       0.792  -2.670  -1.353  0.00  0.00     0.003 A 
ATOM      3  C2  UNL d   1       0.242  -1.622  -2.094  0.00  0.00     0.048 A 
ATOM      4  C3  UNL d   1      -0.769  -0.839  -1.539  0.00  0.00     0.023 A 
ATOM      5  C4  UNL d   1      -1.236  -1.097  -0.249  0.00  0.00     0.048 A 
ATOM      6  C5  UNL d   1      -0.685  -2.147   0.488  0.00  0.00     0.003 A 
ATOM      7  I   UNL d   1      -1.588   0.722  -2.640  0.00  0.00    -0.146 I 
ENDROOT
TORSDOF 0
ENDMDL
