MODEL 1
REMARK minimizedAffinity 6.26894951
REMARK minimizedRMSD -1
REMARK  0 active torsions:
REMARK  status: ('A' for Active; 'I' for Inactive)
ROOT
ATOM      1  C   UNL d   1      -2.621   1.567  -2.022  0.00  0.00     0.023 A 
ATOM      2  C1  UNL d   1      -3.921   1.960  -2.341  0.00  0.00     0.003 A 
ATOM      3  C2  UNL d   1      -4.777   1.076  -3.000  0.00  0.00     0.048 A 
ATOM      4  C3  UNL d   1      -4.328  -0.200  -3.337  0.00  0.00     0.023 A 
ATOM      5  C4  UNL d   1      -3.028  -0.598  -3.020  0.00  0.00     0.048 A 
ATOM      6  C5  UNL d   1      -2.175   0.290  -2.361  0.00  0.00     0.003 A 
ATOM      7  I   UNL d   1      -5.600  -1.518  -4.319  0.00  0.00    -0.146 I 
ENDROOT
TORSDOF 0
ENDMDL
