MODEL 1
REMARK minimizedAffinity 10.6714563
REMARK minimizedRMSD -1
REMARK  0 active torsions:
REMARK  status: ('A' for Active; 'I' for Inactive)
ROOT
ATOM      1  C   UNL d   1       5.999  -4.009  -6.000  0.00  0.00     0.023 A 
ATOM      2  C1  UNL d   1       5.998  -5.379  -5.740  0.00  0.00     0.003 A 
ATOM      3  C2  UNL d   1       4.955  -5.952  -5.010  0.00  0.00     0.048 A 
ATOM      4  C3  UNL d   1       3.915  -5.149  -4.544  0.00  0.00     0.023 A 
ATOM      5  C4  UNL d   1       3.911  -3.777  -4.802  0.00  0.00     0.048 A 
ATOM      6  C5  UNL d   1       4.957  -3.209  -5.531  0.00  0.00     0.003 A 
ATOM      7  I   UNL d   1       2.361  -6.000  -3.457  0.00  0.00    -0.146 I 
ENDROOT
TORSDOF 0
ENDMDL
