MODEL 1
REMARK minimizedAffinity 0.188943848
REMARK minimizedRMSD -1
REMARK  0 active torsions:
REMARK  status: ('A' for Active; 'I' for Inactive)
ROOT
ATOM      1  C   UNL d   1      -2.176  -1.568   1.167  0.00  0.00     0.124 A 
ATOM      2  C1  UNL d   1      -0.896  -2.020   1.457  0.00  0.00     0.062 A 
ATOM      3  C2  UNL d   1       0.212  -1.244   1.129  0.00  0.00     0.162 A 
ATOM      4  C3  UNL d   1       0.045  -0.007   0.507  0.00  0.00    -0.034 A 
ATOM      5  C4  UNL d   1      -1.246   0.440   0.217  0.00  0.00     0.162 A 
ATOM      6  C5  UNL d   1      -2.349  -0.339   0.547  0.00  0.00     0.062 A 
ATOM      7  F   UNL d   1      -3.585   0.099   0.266  0.00  0.00    -0.097 F 
ATOM      8  F1  UNL d   1      -1.442   1.625  -0.380  0.00  0.00    -0.096 F 
ATOM      9  I   UNL d   1       1.698   1.156   0.014  0.00  0.00    -0.060 I 
ATOM     10  F2  UNL d   1       1.437  -1.706   1.421  0.00  0.00    -0.096 F 
ATOM     11  F3  UNL d   1      -0.725  -3.208   2.055  0.00  0.00    -0.097 F 
ATOM     12  F4  UNL d   1      -3.240  -2.318   1.483  0.00  0.00    -0.092 F 
ENDROOT
TORSDOF 0
ENDMDL
