MODEL 1
REMARK minimizedAffinity 1.45555961
REMARK minimizedRMSD -1
REMARK  0 active torsions:
REMARK  status: ('A' for Active; 'I' for Inactive)
ROOT
ATOM      1  C   UNL d   1      -1.564  -0.779  -0.974  0.00  0.00     0.124 A 
ATOM      2  C1  UNL d   1      -2.042   0.093  -0.006  0.00  0.00     0.062 A 
ATOM      3  C2  UNL d   1      -1.177   0.986   0.620  0.00  0.00     0.162 A 
ATOM      4  C3  UNL d   1       0.176   1.010   0.281  0.00  0.00    -0.034 A 
ATOM      5  C4  UNL d   1       0.650   0.129  -0.693  0.00  0.00     0.162 A 
ATOM      6  C5  UNL d   1      -0.219  -0.761  -1.316  0.00  0.00     0.062 A 
ATOM      7  F   UNL d   1       0.245  -1.603  -2.251  0.00  0.00    -0.097 F 
ATOM      8  F1  UNL d   1       1.944   0.126  -1.043  0.00  0.00    -0.096 F 
ATOM      9  I   UNL d   1       1.473   2.343   1.216  0.00  0.00    -0.060 I 
ATOM     10  F2  UNL d   1      -1.666   1.817   1.552  0.00  0.00    -0.096 F 
ATOM     11  F3  UNL d   1      -3.340   0.077   0.327  0.00  0.00    -0.097 F 
ATOM     12  F4  UNL d   1      -2.398  -1.637  -1.575  0.00  0.00    -0.092 F 
ENDROOT
TORSDOF 0
ENDMDL
