MODEL 1
REMARK minimizedAffinity -4.15952063
REMARK minimizedRMSD -1
REMARK  0 active torsions:
REMARK  status: ('A' for Active; 'I' for Inactive)
ROOT
ATOM      1  C   UNL d   1      -2.624  -1.683   0.807  0.00  0.00     0.124 A 
ATOM      2  C1  UNL d   1      -2.549  -0.665  -0.134  0.00  0.00     0.062 A 
ATOM      3  C2  UNL d   1      -1.317  -0.110  -0.467  0.00  0.00     0.162 A 
ATOM      4  C3  UNL d   1      -0.149  -0.572   0.140  0.00  0.00    -0.034 A 
ATOM      5  C4  UNL d   1      -0.233  -1.596   1.086  0.00  0.00     0.162 A 
ATOM      6  C5  UNL d   1      -1.467  -2.147   1.416  0.00  0.00     0.062 A 
ATOM      7  F   UNL d   1      -1.537  -3.130   2.325  0.00  0.00    -0.097 F 
ATOM      8  F1  UNL d   1       0.870  -2.064   1.688  0.00  0.00    -0.096 F 
ATOM      9  I   UNL d   1       1.695   0.255  -0.357  0.00  0.00    -0.060 I 
ATOM     10  F2  UNL d   1      -1.274   0.872  -1.380  0.00  0.00    -0.096 F 
ATOM     11  F3  UNL d   1      -3.666  -0.214  -0.722  0.00  0.00    -0.097 F 
ATOM     12  F4  UNL d   1      -3.811  -2.215   1.127  0.00  0.00    -0.092 F 
ENDROOT
TORSDOF 0
ENDMDL
