MODEL 1
REMARK minimizedAffinity 3.75879574
REMARK minimizedRMSD -1
REMARK  0 active torsions:
REMARK  status: ('A' for Active; 'I' for Inactive)
ROOT
ATOM      1  C   UNL d   1      -2.677  -1.508  -0.585  0.00  0.00     0.124 A 
ATOM      2  C1  UNL d   1      -2.182  -1.363   0.704  0.00  0.00     0.062 A 
ATOM      3  C2  UNL d   1      -0.993  -0.674   0.923  0.00  0.00     0.162 A 
ATOM      4  C3  UNL d   1      -0.290  -0.123  -0.149  0.00  0.00    -0.034 A 
ATOM      5  C4  UNL d   1      -0.794  -0.274  -1.442  0.00  0.00     0.162 A 
ATOM      6  C5  UNL d   1      -1.983  -0.964  -1.656  0.00  0.00     0.062 A 
ATOM      7  F   UNL d   1      -2.460  -1.103  -2.902  0.00  0.00    -0.097 F 
ATOM      8  F1  UNL d   1      -0.144   0.242  -2.495  0.00  0.00    -0.096 F 
ATOM      9  I   UNL d   1       1.488   0.908   0.175  0.00  0.00    -0.060 I 
ATOM     10  F2  UNL d   1      -0.538  -0.549   2.179  0.00  0.00    -0.096 F 
ATOM     11  F3  UNL d   1      -2.850  -1.888   1.741  0.00  0.00    -0.097 F 
ATOM     12  F4  UNL d   1      -3.821  -2.172  -0.793  0.00  0.00    -0.092 F 
ENDROOT
TORSDOF 0
ENDMDL
