MODEL 1
REMARK minimizedAffinity -1.71370244
REMARK minimizedRMSD -1
REMARK  0 active torsions:
REMARK  status: ('A' for Active; 'I' for Inactive)
ROOT
ATOM      1  C   UNL d   1      -1.848  -1.150  -0.096  0.00  0.00     0.124 A 
ATOM      2  C1  UNL d   1      -0.919  -1.342   0.917  0.00  0.00     0.062 A 
ATOM      3  C2  UNL d   1       0.255  -0.594   0.941  0.00  0.00     0.162 A 
ATOM      4  C3  UNL d   1       0.505   0.355  -0.050  0.00  0.00    -0.034 A 
ATOM      5  C4  UNL d   1      -0.434   0.542  -1.066  0.00  0.00     0.162 A 
ATOM      6  C5  UNL d   1      -1.605  -0.209  -1.086  0.00  0.00     0.062 A 
ATOM      7  F   UNL d   1      -2.502  -0.022  -2.066  0.00  0.00    -0.097 F 
ATOM      8  F1  UNL d   1      -0.225   1.446  -2.035  0.00  0.00    -0.096 F 
ATOM      9  I   UNL d   1       2.258   1.476  -0.017  0.00  0.00    -0.060 I 
ATOM     10  F2  UNL d   1       1.135  -0.800   1.932  0.00  0.00    -0.096 F 
ATOM     11  F3  UNL d   1      -1.151  -2.252   1.874  0.00  0.00    -0.097 F 
ATOM     12  F4  UNL d   1      -2.976  -1.873  -0.118  0.00  0.00    -0.092 F 
ENDROOT
TORSDOF 0
ENDMDL
