MODEL 1
REMARK minimizedAffinity 0.805016458
REMARK minimizedRMSD -1
REMARK  0 active torsions:
REMARK  status: ('A' for Active; 'I' for Inactive)
ROOT
ATOM      1  C   UNL d   1      -1.334  -1.353   0.043  0.00  0.00     0.124 A 
ATOM      2  C1  UNL d   1      -1.252  -0.395  -0.957  0.00  0.00     0.062 A 
ATOM      3  C2  UNL d   1      -0.131   0.424  -1.052  0.00  0.00     0.162 A 
ATOM      4  C3  UNL d   1       0.920   0.287  -0.144  0.00  0.00    -0.034 A 
ATOM      5  C4  UNL d   1       0.830  -0.679   0.860  0.00  0.00     0.162 A 
ATOM      6  C5  UNL d   1      -0.294  -1.495   0.951  0.00  0.00     0.062 A 
ATOM      7  F   UNL d   1      -0.371  -2.420   1.918  0.00  0.00    -0.097 F 
ATOM      8  F1  UNL d   1       1.821  -0.837   1.749  0.00  0.00    -0.096 F 
ATOM      9  I   UNL d   1       2.598   1.509  -0.282  0.00  0.00    -0.060 I 
ATOM     10  F2  UNL d   1      -0.078   1.342  -2.028  0.00  0.00    -0.096 F 
ATOM     11  F3  UNL d   1      -2.257  -0.255  -1.834  0.00  0.00    -0.097 F 
ATOM     12  F4  UNL d   1      -2.415  -2.139   0.133  0.00  0.00    -0.092 F 
ENDROOT
TORSDOF 0
ENDMDL
