MODEL 1
REMARK minimizedAffinity 0.795068085
REMARK minimizedRMSD -1
REMARK  0 active torsions:
REMARK  status: ('A' for Active; 'I' for Inactive)
ROOT
ATOM      1  C   UNL d   1      -1.533  -1.949   0.116  0.00  0.00     0.124 A 
ATOM      2  C1  UNL d   1      -0.560  -1.969   1.106  0.00  0.00     0.062 A 
ATOM      3  C2  UNL d   1       0.451  -1.013   1.113  0.00  0.00     0.162 A 
ATOM      4  C3  UNL d   1       0.494  -0.027   0.127  0.00  0.00    -0.034 A 
ATOM      5  C4  UNL d   1      -0.487  -0.014  -0.866  0.00  0.00     0.162 A 
ATOM      6  C5  UNL d   1      -1.496  -0.972  -0.868  0.00  0.00     0.062 A 
ATOM      7  F   UNL d   1      -2.435  -0.951  -1.825  0.00  0.00    -0.097 F 
ATOM      8  F1  UNL d   1      -0.475   0.919  -1.829  0.00  0.00    -0.096 F 
ATOM      9  I   UNL d   1       2.005   1.404   0.134  0.00  0.00    -0.060 I 
ATOM     10  F2  UNL d   1       1.378  -1.056   2.082  0.00  0.00    -0.096 F 
ATOM     11  F3  UNL d   1      -0.594  -2.913   2.058  0.00  0.00    -0.097 F 
ATOM     12  F4  UNL d   1      -2.505  -2.871   0.112  0.00  0.00    -0.092 F 
ENDROOT
TORSDOF 0
ENDMDL
