MODEL 1
REMARK minimizedAffinity -2.00825572
REMARK minimizedRMSD -1
REMARK  0 active torsions:
REMARK  status: ('A' for Active; 'I' for Inactive)
ROOT
ATOM      1  C   UNL d   1      -2.490  -1.683   0.237  0.00  0.00     0.124 A 
ATOM      2  C1  UNL d   1      -2.436  -0.587  -0.613  0.00  0.00     0.062 A 
ATOM      3  C2  UNL d   1      -1.254   0.135  -0.748  0.00  0.00     0.162 A 
ATOM      4  C3  UNL d   1      -0.115  -0.237  -0.033  0.00  0.00    -0.034 A 
ATOM      5  C4  UNL d   1      -0.178  -1.340   0.820  0.00  0.00     0.162 A 
ATOM      6  C5  UNL d   1      -1.362  -2.059   0.952  0.00  0.00     0.062 A 
ATOM      7  F   UNL d   1      -1.413  -3.118   1.773  0.00  0.00    -0.097 F 
ATOM      8  F1  UNL d   1       0.897  -1.726   1.522  0.00  0.00    -0.096 F 
ATOM      9  I   UNL d   1       1.654   0.840  -0.233  0.00  0.00    -0.060 I 
ATOM     10  F2  UNL d   1      -1.230   1.190  -1.576  0.00  0.00    -0.096 F 
ATOM     11  F3  UNL d   1      -3.525  -0.221  -1.304  0.00  0.00    -0.097 F 
ATOM     12  F4  UNL d   1      -3.629  -2.376   0.366  0.00  0.00    -0.092 F 
ENDROOT
TORSDOF 0
ENDMDL
