MODEL 1
REMARK minimizedAffinity -4.16486931
REMARK minimizedRMSD -1
REMARK  0 active torsions:
REMARK  status: ('A' for Active; 'I' for Inactive)
ROOT
ATOM      1  C   UNL d   1      -2.932  -1.809   0.571  0.00  0.00     0.124 A 
ATOM      2  C1  UNL d   1      -2.682  -0.645  -0.143  0.00  0.00     0.062 A 
ATOM      3  C2  UNL d   1      -1.425  -0.049  -0.091  0.00  0.00     0.162 A 
ATOM      4  C3  UNL d   1      -0.408  -0.615   0.677  0.00  0.00    -0.034 A 
ATOM      5  C4  UNL d   1      -0.668  -1.785   1.393  0.00  0.00     0.162 A 
ATOM      6  C5  UNL d   1      -1.925  -2.377   1.339  0.00  0.00     0.062 A 
ATOM      7  F   UNL d   1      -2.165  -3.502   2.029  0.00  0.00    -0.097 F 
ATOM      8  F1  UNL d   1       0.288  -2.356   2.142  0.00  0.00    -0.096 F 
ATOM      9  I   UNL d   1       1.472   0.274   0.757  0.00  0.00    -0.060 I 
ATOM     10  F2  UNL d   1      -1.212   1.075  -0.792  0.00  0.00    -0.096 F 
ATOM     11  F3  UNL d   1      -3.653  -0.093  -0.884  0.00  0.00    -0.097 F 
ATOM     12  F4  UNL d   1      -4.142  -2.380   0.521  0.00  0.00    -0.092 F 
ENDROOT
TORSDOF 0
ENDMDL
