MODEL 1
REMARK minimizedAffinity -4.01327229
REMARK minimizedRMSD -1
REMARK  0 active torsions:
REMARK  status: ('A' for Active; 'I' for Inactive)
ROOT
ATOM      1  C   UNL d   1      -2.363  -0.411  -1.565  0.00  0.00     0.124 A 
ATOM      2  C1  UNL d   1      -2.422  -1.408  -0.601  0.00  0.00     0.062 A 
ATOM      3  C2  UNL d   1      -1.297  -1.715   0.158  0.00  0.00     0.162 A 
ATOM      4  C3  UNL d   1      -0.103  -1.023  -0.042  0.00  0.00    -0.034 A 
ATOM      5  C4  UNL d   1      -0.050  -0.023  -1.014  0.00  0.00     0.162 A 
ATOM      6  C5  UNL d   1      -1.178   0.280  -1.771  0.00  0.00     0.062 A 
ATOM      7  F   UNL d   1      -1.119   1.244  -2.702  0.00  0.00    -0.097 F 
ATOM      8  F1  UNL d   1       1.082   0.662  -1.233  0.00  0.00    -0.096 F 
ATOM      9  I   UNL d   1       1.582  -1.479   1.092  0.00  0.00    -0.060 I 
ATOM     10  F2  UNL d   1      -1.383  -2.683   1.083  0.00  0.00    -0.096 F 
ATOM     11  F3  UNL d   1      -3.566  -2.078  -0.401  0.00  0.00    -0.097 F 
ATOM     12  F4  UNL d   1      -3.447  -0.119  -2.295  0.00  0.00    -0.092 F 
ENDROOT
TORSDOF 0
ENDMDL
