MODEL 1
REMARK minimizedAffinity -2.27516723
REMARK minimizedRMSD -1
REMARK  0 active torsions:
REMARK  status: ('A' for Active; 'I' for Inactive)
ROOT
ATOM      1  C   UNL d   1      -2.499  -1.750   0.314  0.00  0.00     0.124 A 
ATOM      2  C1  UNL d   1      -2.447  -0.542  -0.369  0.00  0.00     0.062 A 
ATOM      3  C2  UNL d   1      -1.297   0.240  -0.321  0.00  0.00     0.162 A 
ATOM      4  C3  UNL d   1      -0.188  -0.182   0.412  0.00  0.00    -0.034 A 
ATOM      5  C4  UNL d   1      -0.248  -1.398   1.097  0.00  0.00     0.162 A 
ATOM      6  C5  UNL d   1      -1.400  -2.176   1.046  0.00  0.00     0.062 A 
ATOM      7  F   UNL d   1      -1.448  -3.343   1.706  0.00  0.00    -0.097 F 
ATOM      8  F1  UNL d   1       0.800  -1.834   1.811  0.00  0.00    -0.096 F 
ATOM      9  I   UNL d   1       1.533   0.985   0.487  0.00  0.00    -0.060 I 
ATOM     10  F2  UNL d   1      -1.276   1.403  -0.990  0.00  0.00    -0.096 F 
ATOM     11  F3  UNL d   1      -3.508  -0.128  -1.076  0.00  0.00    -0.097 F 
ATOM     12  F4  UNL d   1      -3.607  -2.501   0.266  0.00  0.00    -0.092 F 
ENDROOT
TORSDOF 0
ENDMDL
