MODEL 1
REMARK minimizedAffinity -4.7372818
REMARK minimizedRMSD -1
REMARK  0 active torsions:
REMARK  status: ('A' for Active; 'I' for Inactive)
ROOT
ATOM      1  C   UNL d   1      -2.714  -1.857   0.305  0.00  0.00     0.124 A 
ATOM      2  C1  UNL d   1      -1.570  -2.400   0.873  0.00  0.00     0.062 A 
ATOM      3  C2  UNL d   1      -0.390  -1.663   0.912  0.00  0.00     0.162 A 
ATOM      4  C3  UNL d   1      -0.348  -0.373   0.381  0.00  0.00    -0.034 A 
ATOM      5  C4  UNL d   1      -1.503   0.166  -0.190  0.00  0.00     0.162 A 
ATOM      6  C5  UNL d   1      -2.680  -0.575  -0.226  0.00  0.00     0.062 A 
ATOM      7  F   UNL d   1      -3.784  -0.049  -0.775  0.00  0.00    -0.097 F 
ATOM      8  F1  UNL d   1      -1.497   1.402  -0.710  0.00  0.00    -0.096 F 
ATOM      9  I   UNL d   1       1.414   0.732   0.436  0.00  0.00    -0.060 I 
ATOM     10  F2  UNL d   1       0.700  -2.212   1.467  0.00  0.00    -0.096 F 
ATOM     11  F3  UNL d   1      -1.601  -3.638   1.386  0.00  0.00    -0.097 F 
ATOM     12  F4  UNL d   1      -3.848  -2.569   0.269  0.00  0.00    -0.092 F 
ENDROOT
TORSDOF 0
ENDMDL
