MODEL 1
REMARK minimizedAffinity 0.433587074
REMARK minimizedRMSD -1
REMARK  0 active torsions:
REMARK  status: ('A' for Active; 'I' for Inactive)
ROOT
ATOM      1  C   UNL d   1       2.170   0.868   0.822  0.00  0.00     0.124 A 
ATOM      2  C1  UNL d   1       1.725  -0.444   0.919  0.00  0.00     0.062 A 
ATOM      3  C2  UNL d   1       0.408  -0.762   0.600  0.00  0.00     0.162 A 
ATOM      4  C3  UNL d   1      -0.474   0.233   0.179  0.00  0.00    -0.034 A 
ATOM      5  C4  UNL d   1      -0.020   1.549   0.084  0.00  0.00     0.162 A 
ATOM      6  C5  UNL d   1       1.297   1.863   0.404  0.00  0.00     0.062 A 
ATOM      7  F   UNL d   1       1.724   3.130   0.309  0.00  0.00    -0.097 F 
ATOM      8  F1  UNL d   1      -0.842   2.530  -0.318  0.00  0.00    -0.096 F 
ATOM      9  I   UNL d   1      -2.444  -0.239  -0.300  0.00  0.00    -0.060 I 
ATOM     10  F2  UNL d   1       0.006  -2.038   0.703  0.00  0.00    -0.096 F 
ATOM     11  F3  UNL d   1       2.566  -1.407   1.323  0.00  0.00    -0.097 F 
ATOM     12  F4  UNL d   1       3.437   1.171   1.130  0.00  0.00    -0.092 F 
ENDROOT
TORSDOF 0
ENDMDL
