MODEL 1
REMARK minimizedAffinity -3.41189241
REMARK minimizedRMSD -1
REMARK  0 active torsions:
REMARK  status: ('A' for Active; 'I' for Inactive)
ROOT
ATOM      1  C   UNL d   1      -2.505  -1.543   0.075  0.00  0.00     0.124 A 
ATOM      2  C1  UNL d   1      -1.644  -2.047   1.039  0.00  0.00     0.062 A 
ATOM      3  C2  UNL d   1      -0.366  -1.515   1.183  0.00  0.00     0.162 A 
ATOM      4  C3  UNL d   1       0.058  -0.471   0.361  0.00  0.00    -0.034 A 
ATOM      5  C4  UNL d   1      -0.814   0.031  -0.607  0.00  0.00     0.162 A 
ATOM      6  C5  UNL d   1      -2.090  -0.505  -0.747  0.00  0.00     0.062 A 
ATOM      7  F   UNL d   1      -2.921  -0.016  -1.679  0.00  0.00    -0.097 F 
ATOM      8  F1  UNL d   1      -0.438   1.034  -1.414  0.00  0.00    -0.096 F 
ATOM      9  I   UNL d   1       1.969   0.328   0.573  0.00  0.00    -0.060 I 
ATOM     10  F2  UNL d   1       0.446  -2.022   2.123  0.00  0.00    -0.096 F 
ATOM     11  F3  UNL d   1      -2.043  -3.051   1.833  0.00  0.00    -0.097 F 
ATOM     12  F4  UNL d   1      -3.734  -2.058  -0.062  0.00  0.00    -0.092 F 
ENDROOT
TORSDOF 0
ENDMDL
