MODEL 1
REMARK minimizedAffinity -1.46391892
REMARK minimizedRMSD -1
REMARK  0 active torsions:
REMARK  status: ('A' for Active; 'I' for Inactive)
ROOT
ATOM      1  C   UNL d   1      -1.786  -1.291  -0.457  0.00  0.00     0.124 A 
ATOM      2  C1  UNL d   1      -0.900  -1.319   0.612  0.00  0.00     0.062 A 
ATOM      3  C2  UNL d   1       0.194  -0.460   0.637  0.00  0.00     0.162 A 
ATOM      4  C3  UNL d   1       0.409   0.437  -0.410  0.00  0.00    -0.034 A 
ATOM      5  C4  UNL d   1      -0.485   0.459  -1.481  0.00  0.00     0.162 A 
ATOM      6  C5  UNL d   1      -1.578  -0.402  -1.502  0.00  0.00     0.062 A 
ATOM      7  F   UNL d   1      -2.432  -0.373  -2.535  0.00  0.00    -0.097 F 
ATOM      8  F1  UNL d   1      -0.309   1.309  -2.504  0.00  0.00    -0.096 F 
ATOM      9  I   UNL d   1       2.045   1.724  -0.376  0.00  0.00    -0.060 I 
ATOM     10  F2  UNL d   1       1.034  -0.509   1.682  0.00  0.00    -0.096 F 
ATOM     11  F3  UNL d   1      -1.098  -2.178   1.622  0.00  0.00    -0.097 F 
ATOM     12  F4  UNL d   1      -2.837  -2.119  -0.479  0.00  0.00    -0.092 F 
ENDROOT
TORSDOF 0
ENDMDL
