MODEL 1
REMARK minimizedAffinity -3.47702074
REMARK minimizedRMSD -1
REMARK  0 active torsions:
REMARK  status: ('A' for Active; 'I' for Inactive)
ROOT
ATOM      1  C   UNL d   1      -2.489  -1.951   0.049  0.00  0.00     0.124 A 
ATOM      2  C1  UNL d   1      -1.758  -2.491   1.098  0.00  0.00     0.062 A 
ATOM      3  C2  UNL d   1      -0.429  -2.124   1.288  0.00  0.00     0.162 A 
ATOM      4  C3  UNL d   1       0.178  -1.209   0.427  0.00  0.00    -0.034 A 
ATOM      5  C4  UNL d   1      -0.563  -0.671  -0.627  0.00  0.00     0.162 A 
ATOM      6  C5  UNL d   1      -1.891  -1.041  -0.812  0.00  0.00     0.062 A 
ATOM      7  F   UNL d   1      -2.595  -0.518  -1.827  0.00  0.00    -0.097 F 
ATOM      8  F1  UNL d   1      -0.010   0.211  -1.473  0.00  0.00    -0.096 F 
ATOM      9  I   UNL d   1       2.165  -0.657   0.708  0.00  0.00    -0.060 I 
ATOM     10  F2  UNL d   1       0.252  -2.662   2.310  0.00  0.00    -0.096 F 
ATOM     11  F3  UNL d   1      -2.334  -3.371   1.930  0.00  0.00    -0.097 F 
ATOM     12  F4  UNL d   1      -3.767  -2.307  -0.133  0.00  0.00    -0.092 F 
ENDROOT
TORSDOF 0
ENDMDL
