MODEL 1
REMARK minimizedAffinity -3.45337248
REMARK minimizedRMSD -1
REMARK  0 active torsions:
REMARK  status: ('A' for Active; 'I' for Inactive)
ROOT
ATOM      1  C   UNL d   1      -0.349  -0.946  -0.403  0.00  0.00     0.172 C 
ATOM      2  N   UNL d   1       0.085   0.223   0.327  0.00  0.00    -0.070 N 
ATOM      3  C1  UNL d   1       1.256   0.902   0.123  0.00  0.00    -0.004 A 
ATOM      4  C2  UNL d   1       1.296   1.951   1.016  0.00  0.00    -0.047 A 
ATOM      5  C3  UNL d   1       0.108   1.901   1.783  0.00  0.00    -0.047 A 
ATOM      6  C4  UNL d   1      -0.624   0.821   1.335  0.00  0.00    -0.004 A 
ENDROOT
TORSDOF 0
ENDMDL
