MODEL 1
REMARK minimizedAffinity -4.11767101
REMARK minimizedRMSD -1
REMARK  0 active torsions:
REMARK  status: ('A' for Active; 'I' for Inactive)
ROOT
ATOM      1  C   UNL d   1      -0.595  -0.679  -0.245  0.00  0.00     0.172 C 
ATOM      2  N   UNL d   1      -0.051   0.484   0.415  0.00  0.00    -0.070 N 
ATOM      3  C1  UNL d   1      -0.478   0.995   1.611  0.00  0.00    -0.004 A 
ATOM      4  C2  UNL d   1       0.293   2.102   1.897  0.00  0.00    -0.047 A 
ATOM      5  C3  UNL d   1       1.214   2.261   0.835  0.00  0.00    -0.047 A 
ATOM      6  C4  UNL d   1       0.979   1.246  -0.069  0.00  0.00    -0.004 A 
ENDROOT
TORSDOF 0
ENDMDL
