MODEL 1
REMARK minimizedAffinity -1.70608306
REMARK minimizedRMSD -1
REMARK  0 active torsions:
REMARK  status: ('A' for Active; 'I' for Inactive)
ROOT
ATOM      1  C   UNL d   1      -0.517  -0.953  -0.890  0.00  0.00     0.172 C 
ATOM      2  N   UNL d   1       0.087  -0.072   0.082  0.00  0.00    -0.070 N 
ATOM      3  C1  UNL d   1       1.430   0.145   0.237  0.00  0.00    -0.004 A 
ATOM      4  C2  UNL d   1       1.595   1.048   1.265  0.00  0.00    -0.047 A 
ATOM      5  C3  UNL d   1       0.307   1.384   1.745  0.00  0.00    -0.047 A 
ATOM      6  C4  UNL d   1      -0.608   0.676   0.995  0.00  0.00    -0.004 A 
ENDROOT
TORSDOF 0
ENDMDL
