MODEL 1
REMARK minimizedAffinity -2.90040803
REMARK minimizedRMSD -1
REMARK  0 active torsions:
REMARK  status: ('A' for Active; 'I' for Inactive)
ROOT
ATOM      1  C   UNL d   1      -1.680  -1.928  -2.011  0.00  0.00     0.172 C 
ATOM      2  N   UNL d   1      -0.623  -1.439  -1.157  0.00  0.00    -0.070 N 
ATOM      3  C1  UNL d   1       0.719  -1.588  -1.382  0.00  0.00    -0.004 A 
ATOM      4  C2  UNL d   1       1.392  -0.985  -0.342  0.00  0.00    -0.047 A 
ATOM      5  C3  UNL d   1       0.420  -0.456   0.540  0.00  0.00    -0.047 A 
ATOM      6  C4  UNL d   1      -0.819  -0.751   0.011  0.00  0.00    -0.004 A 
ENDROOT
TORSDOF 0
ENDMDL
