MODEL 1
REMARK minimizedAffinity -3.98615932
REMARK minimizedRMSD -1
REMARK  0 active torsions:
REMARK  status: ('A' for Active; 'I' for Inactive)
ROOT
ATOM      1  C   UNL d   1       0.272   2.886   0.654  0.00  0.00     0.172 C 
ATOM      2  N   UNL d   1       1.339   1.975   0.310  0.00  0.00    -0.070 N 
ATOM      3  C1  UNL d   1       1.209   0.847  -0.456  0.00  0.00    -0.004 A 
ATOM      4  C2  UNL d   1       2.450   0.256  -0.551  0.00  0.00    -0.047 A 
ATOM      5  C3  UNL d   1       3.357   1.057   0.183  0.00  0.00    -0.047 A 
ATOM      6  C4  UNL d   1       2.643   2.114   0.705  0.00  0.00    -0.004 A 
ENDROOT
TORSDOF 0
ENDMDL
