MODEL 1
REMARK minimizedAffinity -3.17354822
REMARK minimizedRMSD -1
REMARK  0 active torsions:
REMARK  status: ('A' for Active; 'I' for Inactive)
ROOT
ATOM      1  C   UNL d   1       0.592   2.107   1.473  0.00  0.00     0.172 C 
ATOM      2  N   UNL d   1       0.312   0.846   0.827  0.00  0.00    -0.070 N 
ATOM      3  C1  UNL d   1      -0.736   0.015   1.119  0.00  0.00    -0.004 A 
ATOM      4  C2  UNL d   1      -0.652  -1.080   0.286  0.00  0.00    -0.047 A 
ATOM      5  C3  UNL d   1       0.486  -0.900  -0.535  0.00  0.00    -0.047 A 
ATOM      6  C4  UNL d   1       1.064   0.300  -0.179  0.00  0.00    -0.004 A 
ENDROOT
TORSDOF 0
ENDMDL
