MODEL 1
REMARK minimizedAffinity -4.24851704
REMARK minimizedRMSD -1
REMARK  0 active torsions:
REMARK  status: ('A' for Active; 'I' for Inactive)
ROOT
ATOM      1  C   UNL d   1      -0.851   0.080   1.124  0.00  0.00     0.172 C 
ATOM      2  N   UNL d   1       0.345   0.875   0.977  0.00  0.00    -0.070 N 
ATOM      3  C1  UNL d   1       1.296   0.714   0.004  0.00  0.00    -0.004 A 
ATOM      4  C2  UNL d   1       2.272   1.665   0.207  0.00  0.00    -0.047 A 
ATOM      5  C3  UNL d   1       1.897   2.422   1.342  0.00  0.00    -0.047 A 
ATOM      6  C4  UNL d   1       0.700   1.912   1.798  0.00  0.00    -0.004 A 
ENDROOT
TORSDOF 0
ENDMDL
