MODEL 1
REMARK minimizedAffinity -4.20838213
REMARK minimizedRMSD -1
REMARK  0 active torsions:
REMARK  status: ('A' for Active; 'I' for Inactive)
ROOT
ATOM      1  C   UNL d   1       0.507  -0.328  -0.283  0.00  0.00     0.172 C 
ATOM      2  N   UNL d   1       1.091   0.834   0.345  0.00  0.00    -0.070 N 
ATOM      3  C1  UNL d   1       2.421   1.156   0.346  0.00  0.00    -0.004 A 
ATOM      4  C2  UNL d   1       2.570   2.333   1.048  0.00  0.00    -0.047 A 
ATOM      5  C3  UNL d   1       1.284   2.731   1.484  0.00  0.00    -0.047 A 
ATOM      6  C4  UNL d   1       0.387   1.785   1.036  0.00  0.00    -0.004 A 
ENDROOT
TORSDOF 0
ENDMDL
