MODEL 1
REMARK minimizedAffinity -3.72125745
REMARK minimizedRMSD -1
REMARK  0 active torsions:
REMARK  status: ('A' for Active; 'I' for Inactive)
ROOT
ATOM      1  C   UNL d   1      -0.126   0.302   0.063  0.00  0.00     0.172 C 
ATOM      2  N   UNL d   1       1.039   1.094   0.382  0.00  0.00    -0.070 N 
ATOM      3  C1  UNL d   1       2.199   1.136  -0.344  0.00  0.00    -0.004 A 
ATOM      4  C2  UNL d   1       3.061   2.006   0.288  0.00  0.00    -0.047 A 
ATOM      5  C3  UNL d   1       2.395   2.504   1.434  0.00  0.00    -0.047 A 
ATOM      6  C4  UNL d   1       1.145   1.923   1.468  0.00  0.00    -0.004 A 
ENDROOT
TORSDOF 0
ENDMDL
