MODEL 1
REMARK minimizedAffinity -3.91420722
REMARK minimizedRMSD -1
REMARK  0 active torsions:
REMARK  status: ('A' for Active; 'I' for Inactive)
ROOT
ATOM      1  C   UNL d   1       0.152   0.010   0.788  0.00  0.00     0.172 C 
ATOM      2  N   UNL d   1       1.328   0.845   0.701  0.00  0.00    -0.070 N 
ATOM      3  C1  UNL d   1       2.517   0.491   0.121  0.00  0.00    -0.004 A 
ATOM      4  C2  UNL d   1       3.380   1.558   0.243  0.00  0.00    -0.047 A 
ATOM      5  C3  UNL d   1       2.686   2.589   0.920  0.00  0.00    -0.047 A 
ATOM      6  C4  UNL d   1       1.418   2.120   1.192  0.00  0.00    -0.004 A 
ENDROOT
TORSDOF 0
ENDMDL
