MODEL 1
REMARK minimizedAffinity -2.86817861
REMARK minimizedRMSD -1
REMARK  0 active torsions:
REMARK  status: ('A' for Active; 'I' for Inactive)
ROOT
ATOM      1  C   UNL d   1       2.822   1.190   0.764  0.00  0.00     0.172 C 
ATOM      2  N   UNL d   1       1.464   0.698   0.747  0.00  0.00    -0.070 N 
ATOM      3  C1  UNL d   1       0.939  -0.164  -0.178  0.00  0.00    -0.004 A 
ATOM      4  C2  UNL d   1      -0.380  -0.388   0.155  0.00  0.00    -0.047 A 
ATOM      5  C3  UNL d   1      -0.656   0.365   1.321  0.00  0.00    -0.047 A 
ATOM      6  C4  UNL d   1       0.503   1.028   1.666  0.00  0.00    -0.004 A 
ENDROOT
TORSDOF 0
ENDMDL
