MODEL 1
REMARK minimizedAffinity -3.90812731
REMARK minimizedRMSD -1
REMARK  0 active torsions:
REMARK  status: ('A' for Active; 'I' for Inactive)
ROOT
ATOM      1  C   UNL d   1       0.377  -0.911  -0.380  0.00  0.00     0.172 C 
ATOM      2  N   UNL d   1       0.840   0.269   0.312  0.00  0.00    -0.070 N 
ATOM      3  C1  UNL d   1       2.141   0.691   0.388  0.00  0.00    -0.004 A 
ATOM      4  C2  UNL d   1       2.166   1.851   1.132  0.00  0.00    -0.047 A 
ATOM      5  C3  UNL d   1       0.834   2.136   1.517  0.00  0.00    -0.047 A 
ATOM      6  C4  UNL d   1       0.034   1.141   0.996  0.00  0.00    -0.004 A 
ENDROOT
TORSDOF 0
ENDMDL
