MODEL 1
REMARK minimizedAffinity -2.52681303
REMARK minimizedRMSD -1
REMARK  0 active torsions:
REMARK  status: ('A' for Active; 'I' for Inactive)
ROOT
ATOM      1  C   UNL d   1      -1.710  -1.476  -2.750  0.00  0.00     0.172 C 
ATOM      2  N   UNL d   1      -0.875  -1.027  -1.660  0.00  0.00    -0.070 N 
ATOM      3  C1  UNL d   1      -0.730   0.271  -1.247  0.00  0.00    -0.004 A 
ATOM      4  C2  UNL d   1       0.148   0.280  -0.185  0.00  0.00    -0.047 A 
ATOM      5  C3  UNL d   1       0.546  -1.058   0.047  0.00  0.00    -0.047 A 
ATOM      6  C4  UNL d   1      -0.102  -1.846  -0.880  0.00  0.00    -0.004 A 
ENDROOT
TORSDOF 0
ENDMDL
