MODEL 1
REMARK minimizedAffinity -2.3151207
REMARK minimizedRMSD -1
REMARK  0 active torsions:
REMARK  status: ('A' for Active; 'I' for Inactive)
ROOT
ATOM      1  C   UNL d   1       2.880   0.011   0.011  0.00  0.00     0.172 C 
ATOM      2  N   UNL d   1       1.504  -0.417   0.102  0.00  0.00    -0.070 N 
ATOM      3  C1  UNL d   1       0.989  -1.568  -0.432  0.00  0.00    -0.004 A 
ATOM      4  C2  UNL d   1      -0.355  -1.610  -0.127  0.00  0.00    -0.047 A 
ATOM      5  C3  UNL d   1      -0.658  -0.444   0.615  0.00  0.00    -0.047 A 
ATOM      6  C4  UNL d   1       0.511   0.277   0.742  0.00  0.00    -0.004 A 
ENDROOT
TORSDOF 0
ENDMDL
