MODEL 1
REMARK minimizedAffinity -1.66270936
REMARK minimizedRMSD -1
REMARK  0 active torsions:
REMARK  status: ('A' for Active; 'I' for Inactive)
ROOT
ATOM      1  C   UNL d   1       0.006   0.068  -1.024  0.00  0.00     0.172 C 
ATOM      2  N   UNL d   1      -0.527   0.400   0.276  0.00  0.00    -0.070 N 
ATOM      3  C1  UNL d   1      -1.233   1.533   0.584  0.00  0.00    -0.004 A 
ATOM      4  C2  UNL d   1      -1.562   1.475   1.921  0.00  0.00    -0.047 A 
ATOM      5  C3  UNL d   1      -1.035   0.266   2.435  0.00  0.00    -0.047 A 
ATOM      6  C4  UNL d   1      -0.399  -0.379   1.395  0.00  0.00    -0.004 A 
ENDROOT
TORSDOF 0
ENDMDL
