MODEL 1
REMARK minimizedAffinity 3.82976794
REMARK minimizedRMSD -1
REMARK  0 active torsions:
REMARK  status: ('A' for Active; 'I' for Inactive)
ROOT
ATOM      1  C   UNL d   1       2.620   0.716   0.545  0.00  0.00     0.172 C 
ATOM      2  N   UNL d   1       2.096   0.002  -0.595  0.00  0.00    -0.070 N 
ATOM      3  C1  UNL d   1       1.711  -1.312  -0.606  0.00  0.00    -0.004 A 
ATOM      4  C2  UNL d   1       1.271  -1.613  -1.877  0.00  0.00    -0.047 A 
ATOM      5  C3  UNL d   1       1.396  -0.439  -2.657  0.00  0.00    -0.047 A 
ATOM      6  C4  UNL d   1       1.909   0.545  -1.839  0.00  0.00    -0.004 A 
ENDROOT
TORSDOF 0
ENDMDL
