MODEL 1
REMARK minimizedAffinity 3.68442798
REMARK minimizedRMSD -1
REMARK  0 active torsions:
REMARK  status: ('A' for Active; 'I' for Inactive)
ROOT
ATOM      1  C4' PXY d   1      -1.035  -0.563   1.174  0.00  0.00     0.077 C 
ATOM      2  C1' PXY d   1      -3.648  -3.422   5.465  0.00  0.00     0.077 C 
ATOM      3  C1  PXY d   1      -2.955  -2.682   4.338  0.00  0.00    -0.082 A 
ATOM      4  C2  PXY d   1      -3.046  -1.364   4.267  0.00  0.00     0.003 A 
ATOM      5  C3  PXY d   1      -2.451  -0.682   3.237  0.00  0.00     0.003 A 
ATOM      6  C4  PXY d   1      -1.711  -1.351   2.299  0.00  0.00    -0.082 A 
ATOM      7  C5  PXY d   1      -1.604  -2.694   2.370  0.00  0.00     0.003 A 
ATOM      8  C6  PXY d   1      -2.250  -3.372   3.401  0.00  0.00     0.003 A 
ENDROOT
TORSDOF 0
ENDMDL
