MODEL 1
REMARK minimizedAffinity 2.7766428
REMARK minimizedRMSD -1
REMARK  0 active torsions:
REMARK  status: ('A' for Active; 'I' for Inactive)
ROOT
ATOM      1  C4' PXY d   1      -2.089   5.992  -4.149  0.00  0.00     0.077 C 
ATOM      2  C1' PXY d   1       3.585   5.859  -5.243  0.00  0.00     0.077 C 
ATOM      3  C1  PXY d   1       2.095   5.898  -4.968  0.00  0.00    -0.082 A 
ATOM      4  C2  PXY d   1       1.662   5.995  -3.722  0.00  0.00     0.003 A 
ATOM      5  C3  PXY d   1       0.317   6.000  -3.453  0.00  0.00     0.003 A 
ATOM      6  C4  PXY d   1      -0.594   5.959  -4.474  0.00  0.00    -0.082 A 
ATOM      7  C5  PXY d   1      -0.160   5.870  -5.749  0.00  0.00     0.003 A 
ATOM      8  C6  PXY d   1       1.209   5.825  -5.998  0.00  0.00     0.003 A 
ENDROOT
TORSDOF 0
ENDMDL
