MODEL 1
REMARK minimizedAffinity 4.43335629
REMARK minimizedRMSD -1
REMARK  0 active torsions:
REMARK  status: ('A' for Active; 'I' for Inactive)
ROOT
ATOM      1  C4' PXY d   1      -2.246   5.999  -1.256  0.00  0.00     0.077 C 
ATOM      2  C1' PXY d   1       1.071   5.979  -5.991  0.00  0.00     0.077 C 
ATOM      3  C1  PXY d   1       0.191   5.989  -4.756  0.00  0.00    -0.082 A 
ATOM      4  C2  PXY d   1       0.749   5.999  -3.556  0.00  0.00     0.003 A 
ATOM      5  C3  PXY d   1      -0.032   5.976  -2.429  0.00  0.00     0.003 A 
ATOM      6  C4  PXY d   1      -1.397   5.997  -2.531  0.00  0.00    -0.082 A 
ATOM      7  C5  PXY d   1      -1.973   5.998  -3.751  0.00  0.00     0.003 A 
ATOM      8  C6  PXY d   1      -1.163   5.979  -4.883  0.00  0.00     0.003 A 
ENDROOT
TORSDOF 0
ENDMDL
