MODEL 1
REMARK minimizedAffinity -1.47063732
REMARK minimizedRMSD -1
REMARK  0 active torsions:
REMARK  status: ('A' for Active; 'I' for Inactive)
ROOT
ATOM      1  C4' PXY d   1      -3.631   5.977  -1.907  0.00  0.00     0.077 C 
ATOM      2  C1' PXY d   1       1.113   5.993  -5.209  0.00  0.00     0.077 C 
ATOM      3  C1  PXY d   1      -0.124   5.983  -4.333  0.00  0.00    -0.082 A 
ATOM      4  C2  PXY d   1      -1.322   5.968  -4.894  0.00  0.00     0.003 A 
ATOM      5  C3  PXY d   1      -2.452   5.991  -4.118  0.00  0.00     0.003 A 
ATOM      6  C4  PXY d   1      -2.354   5.977  -2.752  0.00  0.00    -0.082 A 
ATOM      7  C5  PXY d   1      -1.135   5.982  -2.172  0.00  0.00     0.003 A 
ATOM      8  C6  PXY d   1      -0.001   6.000  -2.978  0.00  0.00     0.003 A 
ENDROOT
TORSDOF 0
ENDMDL
