MODEL 1
REMARK minimizedAffinity -0.292863995
REMARK minimizedRMSD -1
REMARK  0 active torsions:
REMARK  status: ('A' for Active; 'I' for Inactive)
ROOT
ATOM      1  C4' PXY d   1       0.700   5.998  -4.280  0.00  0.00     0.077 C 
ATOM      2  C1' PXY d   1      -5.006   5.981  -3.355  0.00  0.00     0.077 C 
ATOM      3  C1  PXY d   1      -3.508   5.991  -3.586  0.00  0.00    -0.082 A 
ATOM      4  C2  PXY d   1      -3.037   6.000  -4.822  0.00  0.00     0.003 A 
ATOM      5  C3  PXY d   1      -1.685   5.976  -5.049  0.00  0.00     0.003 A 
ATOM      6  C4  PXY d   1      -0.806   5.998  -3.999  0.00  0.00    -0.082 A 
ATOM      7  C5  PXY d   1      -1.279   6.000  -2.735  0.00  0.00     0.003 A 
ATOM      8  C6  PXY d   1      -2.655   5.982  -2.526  0.00  0.00     0.003 A 
ENDROOT
TORSDOF 0
ENDMDL
