MODEL 1
REMARK minimizedAffinity 0.522027731
REMARK minimizedRMSD -1
REMARK  0 active torsions:
REMARK  status: ('A' for Active; 'I' for Inactive)
ROOT
ATOM      1  C4' PXY d   1      -3.393   5.974  -0.750  0.00  0.00     0.077 C 
ATOM      2  C1' PXY d   1       0.100   5.998  -5.355  0.00  0.00     0.077 C 
ATOM      3  C1  PXY d   1      -0.825   5.997  -4.155  0.00  0.00    -0.082 A 
ATOM      4  C2  PXY d   1      -0.314   5.993  -2.934  0.00  0.00     0.003 A 
ATOM      5  C3  PXY d   1      -1.136   5.960  -1.838  0.00  0.00     0.003 A 
ATOM      6  C4  PXY d   1      -2.497   5.985  -1.991  0.00  0.00    -0.082 A 
ATOM      7  C5  PXY d   1      -3.026   6.000  -3.233  0.00  0.00     0.003 A 
ATOM      8  C6  PXY d   1      -2.174   5.992  -4.333  0.00  0.00     0.003 A 
ENDROOT
TORSDOF 0
ENDMDL
