MODEL 1
REMARK minimizedAffinity 5.22801542
REMARK minimizedRMSD -1
REMARK  0 active torsions:
REMARK  status: ('A' for Active; 'I' for Inactive)
ROOT
ATOM      1  C4' PXY d   1      -2.330  -1.799  -4.257  0.00  0.00     0.077 C 
ATOM      2  C1' PXY d   1      -5.381  -3.275   0.426  0.00  0.00     0.077 C 
ATOM      3  C1  PXY d   1      -4.582  -2.875  -0.799  0.00  0.00    -0.082 A 
ATOM      4  C2  PXY d   1      -4.570  -3.667  -1.859  0.00  0.00     0.003 A 
ATOM      5  C3  PXY d   1      -3.827  -3.336  -2.963  0.00  0.00     0.003 A 
ATOM      6  C4  PXY d   1      -3.131  -2.158  -3.002  0.00  0.00    -0.082 A 
ATOM      7  C5  PXY d   1      -3.146  -1.340  -1.928  0.00  0.00     0.003 A 
ATOM      8  C6  PXY d   1      -3.874  -1.713  -0.802  0.00  0.00     0.003 A 
ENDROOT
TORSDOF 0
ENDMDL
