MODEL 1
REMARK minimizedAffinity 3.269382
REMARK minimizedRMSD -1
REMARK  0 active torsions:
REMARK  status: ('A' for Active; 'I' for Inactive)
ROOT
ATOM      1  C4' PXY d   1       0.189   5.888  -4.715  0.00  0.00     0.077 C 
ATOM      2  C1' PXY d   1       5.966   6.000  -4.861  0.00  0.00     0.077 C 
ATOM      3  C1  PXY d   1       4.451   5.976  -4.835  0.00  0.00    -0.082 A 
ATOM      4  C2  PXY d   1       3.818   5.925  -3.674  0.00  0.00     0.003 A 
ATOM      5  C3  PXY d   1       2.448   5.870  -3.633  0.00  0.00     0.003 A 
ATOM      6  C4  PXY d   1       1.718   5.923  -4.790  0.00  0.00    -0.082 A 
ATOM      7  C5  PXY d   1       2.356   5.986  -5.977  0.00  0.00     0.003 A 
ATOM      8  C6  PXY d   1       3.748   5.999  -5.999  0.00  0.00     0.003 A 
ENDROOT
TORSDOF 0
ENDMDL
