MODEL 1
REMARK minimizedAffinity -2.18781424
REMARK minimizedRMSD -1
REMARK  0 active torsions:
REMARK  status: ('A' for Active; 'I' for Inactive)
ROOT
ATOM      1  C4' PXY d   1      -4.184   5.989  -1.953  0.00  0.00     0.077 C 
ATOM      2  C1' PXY d   1       0.692   5.987  -5.059  0.00  0.00     0.077 C 
ATOM      3  C1  PXY d   1      -0.593   5.993  -4.254  0.00  0.00    -0.082 A 
ATOM      4  C2  PXY d   1      -0.537   6.000  -2.932  0.00  0.00     0.003 A 
ATOM      5  C3  PXY d   1      -1.689   5.973  -2.189  0.00  0.00     0.003 A 
ATOM      6  C4  PXY d   1      -2.912   5.993  -2.806  0.00  0.00    -0.082 A 
ATOM      7  C5  PXY d   1      -2.977   5.997  -4.154  0.00  0.00     0.003 A 
ATOM      8  C6  PXY d   1      -1.796   5.983  -4.890  0.00  0.00     0.003 A 
ENDROOT
TORSDOF 0
ENDMDL
