MODEL 1
REMARK minimizedAffinity -3.929106
REMARK minimizedRMSD -1
REMARK  0 active torsions:
REMARK  status: ('A' for Active; 'I' for Inactive)
ROOT
ATOM      1  C4' PXY d   1       3.772   0.780   2.436  0.00  0.00     0.077 C 
ATOM      2  C1' PXY d   1      -1.763   1.186   0.818  0.00  0.00     0.077 C 
ATOM      3  C1  PXY d   1      -0.308   1.079   1.230  0.00  0.00    -0.082 A 
ATOM      4  C2  PXY d   1      -0.000   0.612   2.429  0.00  0.00     0.003 A 
ATOM      5  C3  PXY d   1       1.309   0.538   2.830  0.00  0.00     0.003 A 
ATOM      6  C4  PXY d   1       2.317   0.897   1.974  0.00  0.00    -0.082 A 
ATOM      7  C5  PXY d   1       2.011   1.364   0.745  0.00  0.00     0.003 A 
ATOM      8  C6  PXY d   1       0.674   1.469   0.373  0.00  0.00     0.003 A 
ENDROOT
TORSDOF 0
ENDMDL
