MODEL 1
REMARK minimizedAffinity 1.7842952
REMARK minimizedRMSD -1
REMARK  0 active torsions:
REMARK  status: ('A' for Active; 'I' for Inactive)
ROOT
ATOM      1  C4' PXY d   1       1.219   5.972  -4.667  0.00  0.00     0.077 C 
ATOM      2  C1' PXY d   1      -3.520   5.999  -1.357  0.00  0.00     0.077 C 
ATOM      3  C1  PXY d   1      -2.284   5.986  -2.235  0.00  0.00    -0.082 A 
ATOM      4  C2  PXY d   1      -1.085   5.974  -1.676  0.00  0.00     0.003 A 
ATOM      5  C3  PXY d   1       0.043   5.995  -2.455  0.00  0.00     0.003 A 
ATOM      6  C4  PXY d   1      -0.057   5.975  -3.820  0.00  0.00    -0.082 A 
ATOM      7  C5  PXY d   1      -1.277   5.977  -4.398  0.00  0.00     0.003 A 
ATOM      8  C6  PXY d   1      -2.410   5.998  -3.590  0.00  0.00     0.003 A 
ENDROOT
TORSDOF 0
ENDMDL
