MODEL 1
REMARK minimizedAffinity -1.02805257
REMARK minimizedRMSD -1
REMARK  0 active torsions:
REMARK  status: ('A' for Active; 'I' for Inactive)
ROOT
ATOM      1  C4' PXY d   1      -3.246   5.979  -1.160  0.00  0.00     0.077 C 
ATOM      2  C1' PXY d   1      -0.084   5.962  -5.999  0.00  0.00     0.077 C 
ATOM      3  C1  PXY d   1      -0.923   5.972  -4.737  0.00  0.00    -0.082 A 
ATOM      4  C2  PXY d   1      -0.328   6.000  -3.556  0.00  0.00     0.003 A 
ATOM      5  C3  PXY d   1      -1.071   5.977  -2.404  0.00  0.00     0.003 A 
ATOM      6  C4  PXY d   1      -2.439   5.978  -2.461  0.00  0.00    -0.082 A 
ATOM      7  C5  PXY d   1      -3.054   5.960  -3.663  0.00  0.00     0.003 A 
ATOM      8  C6  PXY d   1      -2.281   5.942  -4.820  0.00  0.00     0.003 A 
ENDROOT
TORSDOF 0
ENDMDL
