MODEL 1
REMARK minimizedAffinity -3.21082401
REMARK minimizedRMSD -1
REMARK  0 active torsions:
REMARK  status: ('A' for Active; 'I' for Inactive)
ROOT
ATOM      1  C4' PXY d   1      -3.694   5.996  -2.358  0.00  0.00     0.077 C 
ATOM      2  C1' PXY d   1       0.937   5.977  -5.817  0.00  0.00     0.077 C 
ATOM      3  C1  PXY d   1      -0.270   5.977  -4.901  0.00  0.00    -0.082 A 
ATOM      4  C2  PXY d   1      -1.487   5.965  -5.421  0.00  0.00     0.003 A 
ATOM      5  C3  PXY d   1      -2.590   5.997  -4.607  0.00  0.00     0.003 A 
ATOM      6  C4  PXY d   1      -2.447   5.987  -3.245  0.00  0.00    -0.082 A 
ATOM      7  C5  PXY d   1      -1.209   5.989  -2.707  0.00  0.00     0.003 A 
ATOM      8  C6  PXY d   1      -0.102   5.998  -3.551  0.00  0.00     0.003 A 
ENDROOT
TORSDOF 0
ENDMDL
