MODEL 1
REMARK minimizedAffinity 0.633569419
REMARK minimizedRMSD -1
REMARK  0 active torsions:
REMARK  status: ('A' for Active; 'I' for Inactive)
ROOT
ATOM      1  C4' PXY d   1       0.272   5.992  -4.215  0.00  0.00     0.077 C 
ATOM      2  C1' PXY d   1       5.952   5.934  -5.287  0.00  0.00     0.077 C 
ATOM      3  C1  PXY d   1       4.465   5.944  -4.994  0.00  0.00    -0.082 A 
ATOM      4  C2  PXY d   1       3.601   5.912  -5.995  0.00  0.00     0.003 A 
ATOM      5  C3  PXY d   1       2.252   5.953  -5.749  0.00  0.00     0.003 A 
ATOM      6  C4  PXY d   1       1.783   5.974  -4.463  0.00  0.00    -0.082 A 
ATOM      7  C5  PXY d   1       2.658   5.996  -3.436  0.00  0.00     0.003 A 
ATOM      8  C6  PXY d   1       4.023   5.995  -3.708  0.00  0.00     0.003 A 
ENDROOT
TORSDOF 0
ENDMDL
