MODEL 1
REMARK minimizedAffinity -3.26821709
REMARK minimizedRMSD -1
REMARK  0 active torsions:
REMARK  status: ('A' for Active; 'I' for Inactive)
ROOT
ATOM      1  C4' PXY d   1      -3.027   5.997  -3.162  0.00  0.00     0.077 C 
ATOM      2  C1' PXY d   1       2.197   5.923  -5.635  0.00  0.00     0.077 C 
ATOM      3  C1  PXY d   1       0.832   5.938  -4.975  0.00  0.00    -0.082 A 
ATOM      4  C2  PXY d   1      -0.258   5.902  -5.726  0.00  0.00     0.003 A 
ATOM      5  C3  PXY d   1      -1.500   5.947  -5.147  0.00  0.00     0.003 A 
ATOM      6  C4  PXY d   1      -1.629   5.974  -3.784  0.00  0.00    -0.082 A 
ATOM      7  C5  PXY d   1      -0.522   6.000  -3.011  0.00  0.00     0.003 A 
ATOM      8  C6  PXY d   1       0.730   5.996  -3.620  0.00  0.00     0.003 A 
ENDROOT
TORSDOF 0
ENDMDL
