MODEL 1
REMARK minimizedAffinity 6.12084484
REMARK minimizedRMSD -1
REMARK  0 active torsions:
REMARK  status: ('A' for Active; 'I' for Inactive)
ROOT
ATOM      1  C4' PXY d   1       3.248   5.742  -5.170  0.00  0.00     0.077 C 
ATOM      2  C1' PXY d   1      -2.345   5.999  -3.734  0.00  0.00     0.077 C 
ATOM      3  C1  PXY d   1      -0.882   5.926  -4.122  0.00  0.00    -0.082 A 
ATOM      4  C2  PXY d   1       0.048   5.991  -3.182  0.00  0.00     0.003 A 
ATOM      5  C3  PXY d   1       1.377   5.958  -3.518  0.00  0.00     0.003 A 
ATOM      6  C4  PXY d   1       1.758   5.803  -4.824  0.00  0.00    -0.082 A 
ATOM      7  C5  PXY d   1       0.815   5.724  -5.787  0.00  0.00     0.003 A 
ATOM      8  C6  PXY d   1      -0.528   5.801  -5.430  0.00  0.00     0.003 A 
ENDROOT
TORSDOF 0
ENDMDL
