MODEL 1
REMARK minimizedAffinity -1.97837722
REMARK minimizedRMSD -1
REMARK  0 active torsions:
REMARK  status: ('A' for Active; 'I' for Inactive)
ROOT
ATOM      1  C4' PXY d   1      -0.085   5.967  -5.439  0.00  0.00     0.077 C 
ATOM      2  C1' PXY d   1       5.476   5.974  -3.859  0.00  0.00     0.077 C 
ATOM      3  C1  PXY d   1       4.021   5.978  -4.285  0.00  0.00    -0.082 A 
ATOM      4  C2  PXY d   1       3.070   5.963  -3.365  0.00  0.00     0.003 A 
ATOM      5  C3  PXY d   1       1.749   5.934  -3.732  0.00  0.00     0.003 A 
ATOM      6  C4  PXY d   1       1.397   5.974  -5.055  0.00  0.00    -0.082 A 
ATOM      7  C5  PXY d   1       2.361   6.000  -6.000  0.00  0.00     0.003 A 
ATOM      8  C6  PXY d   1       3.696   5.987  -5.606  0.00  0.00     0.003 A 
ENDROOT
TORSDOF 0
ENDMDL
