MODEL 1
REMARK minimizedAffinity 3.9112432
REMARK minimizedRMSD -1
REMARK  0 active torsions:
REMARK  status: ('A' for Active; 'I' for Inactive)
ROOT
ATOM      1  C4' PXY d   1      -2.290  -0.720  -4.264  0.00  0.00     0.077 C 
ATOM      2  C1' PXY d   1      -5.099  -3.359   0.044  0.00  0.00     0.077 C 
ATOM      3  C1  PXY d   1      -4.359  -2.657  -1.078  0.00  0.00    -0.082 A 
ATOM      4  C2  PXY d   1      -4.700  -2.893  -2.334  0.00  0.00     0.003 A 
ATOM      5  C3  PXY d   1      -4.020  -2.291  -3.362  0.00  0.00     0.003 A 
ATOM      6  C4  PXY d   1      -3.016  -1.399  -3.099  0.00  0.00    -0.082 A 
ATOM      7  C5  PXY d   1      -2.669  -1.145  -1.819  0.00  0.00     0.003 A 
ATOM      8  C6  PXY d   1      -3.344  -1.797  -0.792  0.00  0.00     0.003 A 
ENDROOT
TORSDOF 0
ENDMDL
