MODEL 1
REMARK minimizedAffinity 0.909468114
REMARK minimizedRMSD -1
REMARK  0 active torsions:
REMARK  status: ('A' for Active; 'I' for Inactive)
ROOT
ATOM      1  C4' PXY d   1      -4.013   5.977  -3.101  0.00  0.00     0.077 C 
ATOM      2  C1' PXY d   1       1.015   6.000  -5.953  0.00  0.00     0.077 C 
ATOM      3  C1  PXY d   1      -0.298   5.989  -5.195  0.00  0.00    -0.082 A 
ATOM      4  C2  PXY d   1      -1.439   5.976  -5.864  0.00  0.00     0.003 A 
ATOM      5  C3  PXY d   1      -2.636   5.998  -5.194  0.00  0.00     0.003 A 
ATOM      6  C4  PXY d   1      -2.664   5.979  -3.825  0.00  0.00    -0.082 A 
ATOM      7  C5  PXY d   1      -1.503   5.981  -3.136  0.00  0.00     0.003 A 
ATOM      8  C6  PXY d   1      -0.299   6.000  -3.834  0.00  0.00     0.003 A 
ENDROOT
TORSDOF 0
ENDMDL
