MODEL 1
REMARK minimizedAffinity -3.72977853
REMARK minimizedRMSD -1
REMARK  0 active torsions:
REMARK  status: ('A' for Active; 'I' for Inactive)
ROOT
ATOM      1  C4' PXY d   1       2.238   5.987  -5.260  0.00  0.00     0.077 C 
ATOM      2  C1' PXY d   1      -3.432   5.993  -4.134  0.00  0.00     0.077 C 
ATOM      3  C1  PXY d   1      -1.943   5.996  -4.418  0.00  0.00    -0.082 A 
ATOM      4  C2  PXY d   1      -1.515   6.000  -5.670  0.00  0.00     0.003 A 
ATOM      5  C3  PXY d   1      -0.172   5.971  -5.944  0.00  0.00     0.003 A 
ATOM      6  C4  PXY d   1       0.744   5.992  -4.926  0.00  0.00    -0.082 A 
ATOM      7  C5  PXY d   1       0.315   6.000  -3.646  0.00  0.00     0.003 A 
ATOM      8  C6  PXY d   1      -1.052   5.987  -3.389  0.00  0.00     0.003 A 
ENDROOT
TORSDOF 0
ENDMDL
