MODEL 1
REMARK minimizedAffinity -1.49359918
REMARK minimizedRMSD -1
REMARK  0 active torsions:
REMARK  status: ('A' for Active; 'I' for Inactive)
ROOT
ATOM      1  N1  IND d   1      -0.746   0.884  -2.728  0.00  0.00    -0.196 N 
ATOM      2  C2  IND d   1      -1.956   1.521  -2.733  0.00  0.00     0.054 A 
ATOM      3  C3  IND d   1      -2.545   1.423  -1.519  0.00  0.00    -0.031 A 
ATOM      4  C4  IND d   1      -1.657   0.351   0.647  0.00  0.00     0.051 A 
ATOM      5  C5  IND d   1      -0.615  -0.386   1.135  0.00  0.00    -0.031 A 
ATOM      6  C6  IND d   1       0.460  -0.742   0.346  0.00  0.00     0.015 A 
ATOM      7  C7  IND d   1       0.538  -0.363  -0.964  0.00  0.00    -0.016 A 
ATOM      8  C8  IND d   1      -0.522   0.380  -1.466  0.00  0.00    -0.047 A 
ATOM      9  C9  IND d   1      -1.635   0.708  -0.681  0.00  0.00    -0.096 A 
ATOM     10  HN1 IND d   1      -0.215   0.812  -3.400  0.00  0.00     0.298 HD
ENDROOT
TORSDOF 0
ENDMDL
