MODEL 1
REMARK minimizedAffinity -4.00705194
REMARK minimizedRMSD -1
REMARK  0 active torsions:
REMARK  status: ('A' for Active; 'I' for Inactive)
ROOT
ATOM      1  N1  IND d   1      -0.040   0.983   0.352  0.00  0.00    -0.196 N 
ATOM      2  C2  IND d   1      -1.032   0.762   1.267  0.00  0.00     0.054 A 
ATOM      3  C3  IND d   1      -0.924  -0.481   1.787  0.00  0.00    -0.031 A 
ATOM      4  C4  IND d   1       0.864  -2.283   1.358  0.00  0.00     0.051 A 
ATOM      5  C5  IND d   1       1.952  -2.557   0.577  0.00  0.00    -0.031 A 
ATOM      6  C6  IND d   1       2.443  -1.645  -0.335  0.00  0.00     0.015 A 
ATOM      7  C7  IND d   1       1.869  -0.416  -0.492  0.00  0.00    -0.016 A 
ATOM      8  C8  IND d   1       0.760  -0.137   0.293  0.00  0.00    -0.047 A 
ATOM      9  C9  IND d   1       0.231  -1.074   1.190  0.00  0.00    -0.096 A 
ATOM     10  HN1 IND d   1       0.067   1.702  -0.109  0.00  0.00     0.298 HD
ENDROOT
TORSDOF 0
ENDMDL
