MODEL 1
REMARK minimizedAffinity -2.72065949
REMARK minimizedRMSD -1
REMARK  0 active torsions:
REMARK  status: ('A' for Active; 'I' for Inactive)
ROOT
ATOM      1  N1  IND d   1      -1.168  -0.204   0.918  0.00  0.00    -0.196 N 
ATOM      2  C2  IND d   1      -1.293   0.986   0.258  0.00  0.00     0.054 A 
ATOM      3  C3  IND d   1      -0.131   1.309  -0.354  0.00  0.00    -0.031 A 
ATOM      4  C4  IND d   1       2.070  -0.020  -0.489  0.00  0.00     0.051 A 
ATOM      5  C5  IND d   1       2.678  -1.148  -0.014  0.00  0.00    -0.031 A 
ATOM      6  C6  IND d   1       2.021  -2.039   0.810  0.00  0.00     0.015 A 
ATOM      7  C7  IND d   1       0.722  -1.839   1.183  0.00  0.00    -0.016 A 
ATOM      8  C8  IND d   1       0.103  -0.691   0.708  0.00  0.00    -0.047 A 
ATOM      9  C9  IND d   1       0.778   0.238  -0.094  0.00  0.00    -0.096 A 
ATOM     10  HN1 IND d   1      -1.781  -0.585   1.386  0.00  0.00     0.298 HD
ENDROOT
TORSDOF 0
ENDMDL
