MODEL 1
REMARK minimizedAffinity -2.39236355
REMARK minimizedRMSD -1
REMARK  0 active torsions:
REMARK  status: ('A' for Active; 'I' for Inactive)
ROOT
ATOM      1  N1  IND d   1      -1.731   0.423   1.205  0.00  0.00    -0.196 N 
ATOM      2  C2  IND d   1      -1.370   1.539   0.503  0.00  0.00     0.054 A 
ATOM      3  C3  IND d   1      -0.160   1.362  -0.073  0.00  0.00    -0.031 A 
ATOM      4  C4  IND d   1       1.359  -0.716  -0.081  0.00  0.00     0.051 A 
ATOM      5  C5  IND d   1       1.473  -1.969   0.453  0.00  0.00    -0.031 A 
ATOM      6  C6  IND d   1       0.504  -2.501   1.279  0.00  0.00     0.015 A 
ATOM      7  C7  IND d   1      -0.626  -1.800   1.595  0.00  0.00    -0.016 A 
ATOM      8  C8  IND d   1      -0.741  -0.525   1.060  0.00  0.00    -0.047 A 
ATOM      9  C9  IND d   1       0.259   0.036   0.256  0.00  0.00    -0.096 A 
ATOM     10  HN1 IND d   1      -2.454   0.329   1.661  0.00  0.00     0.298 HD
ENDROOT
TORSDOF 0
ENDMDL
