MODEL 1
REMARK minimizedAffinity -4.07496119
REMARK minimizedRMSD -1
REMARK  0 active torsions:
REMARK  status: ('A' for Active; 'I' for Inactive)
ROOT
ATOM      1  N1  IND d   1       1.071   2.576   0.458  0.00  0.00    -0.196 N 
ATOM      2  C2  IND d   1       1.176   3.692  -0.325  0.00  0.00     0.054 A 
ATOM      3  C3  IND d   1       0.308   3.624  -1.359  0.00  0.00    -0.031 A 
ATOM      4  C4  IND d   1      -1.448   1.823  -1.906  0.00  0.00     0.051 A 
ATOM      5  C5  IND d   1      -1.894   0.596  -1.501  0.00  0.00    -0.031 A 
ATOM      6  C6  IND d   1      -1.366  -0.046  -0.399  0.00  0.00     0.015 A 
ATOM      7  C7  IND d   1      -0.375   0.524   0.349  0.00  0.00    -0.016 A 
ATOM      8  C8  IND d   1       0.085   1.767  -0.062  0.00  0.00    -0.047 A 
ATOM      9  C9  IND d   1      -0.417   2.403  -1.205  0.00  0.00    -0.096 A 
ATOM     10  HN1 IND d   1       1.542   2.408   1.158  0.00  0.00     0.298 HD
ENDROOT
TORSDOF 0
ENDMDL
