MODEL 1
REMARK minimizedAffinity -2.85249639
REMARK minimizedRMSD -1
REMARK  0 active torsions:
REMARK  status: ('A' for Active; 'I' for Inactive)
ROOT
ATOM      1  N1  IND d   1       0.733   3.599  -0.059  0.00  0.00    -0.196 N 
ATOM      2  C2  IND d   1       2.074   3.840   0.056  0.00  0.00     0.054 A 
ATOM      3  C3  IND d   1       2.763   2.677   0.034  0.00  0.00    -0.031 A 
ATOM      4  C4  IND d   1       1.904   0.271  -0.284  0.00  0.00     0.051 A 
ATOM      5  C5  IND d   1       0.751  -0.455  -0.394  0.00  0.00    -0.031 A 
ATOM      6  C6  IND d   1      -0.491   0.145  -0.400  0.00  0.00     0.015 A 
ATOM      7  C7  IND d   1      -0.627   1.501  -0.308  0.00  0.00    -0.016 A 
ATOM      8  C8  IND d   1       0.540   2.242  -0.189  0.00  0.00    -0.047 A 
ATOM      9  C9  IND d   1       1.802   1.635  -0.140  0.00  0.00    -0.096 A 
ATOM     10  HN1 IND d   1       0.114   4.196  -0.050  0.00  0.00     0.298 HD
ENDROOT
TORSDOF 0
ENDMDL
