MODEL 1
REMARK minimizedAffinity -2.76035452
REMARK minimizedRMSD -1
REMARK  0 active torsions:
REMARK  status: ('A' for Active; 'I' for Inactive)
ROOT
ATOM      1  N1  IND d   1       3.060   2.579   0.480  0.00  0.00    -0.196 N 
ATOM      2  C2  IND d   1       2.426   3.789   0.430  0.00  0.00     0.054 A 
ATOM      3  C3  IND d   1       1.091   3.616   0.306  0.00  0.00    -0.031 A 
ATOM      4  C4  IND d   1      -0.279   1.436   0.268  0.00  0.00     0.051 A 
ATOM      5  C5  IND d   1      -0.140   0.077   0.248  0.00  0.00    -0.031 A 
ATOM      6  C6  IND d   1       1.098  -0.530   0.309  0.00  0.00     0.015 A 
ATOM      7  C7  IND d   1       2.247   0.203   0.404  0.00  0.00    -0.016 A 
ATOM      8  C8  IND d   1       2.110   1.583   0.416  0.00  0.00    -0.047 A 
ATOM      9  C9  IND d   1       0.859   2.206   0.312  0.00  0.00    -0.096 A 
ATOM     10  HN1 IND d   1       3.909   2.460   0.540  0.00  0.00     0.298 HD
ENDROOT
TORSDOF 0
ENDMDL
