MODEL 1
REMARK minimizedAffinity 0.446926802
REMARK minimizedRMSD -1
REMARK  0 active torsions:
REMARK  status: ('A' for Active; 'I' for Inactive)
ROOT
ATOM      1  N1  IND d   1       0.268  -2.607   2.056  0.00  0.00    -0.196 N 
ATOM      2  C2  IND d   1       1.515  -2.845   1.549  0.00  0.00     0.054 A 
ATOM      3  C3  IND d   1       1.891  -1.837   0.731  0.00  0.00    -0.031 A 
ATOM      4  C4  IND d   1       0.660   0.350   0.158  0.00  0.00     0.051 A 
ATOM      5  C5  IND d   1      -0.527   1.001   0.350  0.00  0.00    -0.031 A 
ATOM      6  C6  IND d   1      -1.528   0.472   1.139  0.00  0.00     0.015 A 
ATOM      7  C7  IND d   1      -1.375  -0.726   1.776  0.00  0.00    -0.016 A 
ATOM      8  C8  IND d   1      -0.174  -1.393   1.578  0.00  0.00    -0.047 A 
ATOM      9  C9  IND d   1       0.829  -0.882   0.745  0.00  0.00    -0.096 A 
ATOM     10  HN1 IND d   1      -0.167  -3.127   2.584  0.00  0.00     0.298 HD
ENDROOT
TORSDOF 0
ENDMDL
