MODEL 1
REMARK minimizedAffinity -0.704685748
REMARK minimizedRMSD -1
REMARK  0 active torsions:
REMARK  status: ('A' for Active; 'I' for Inactive)
ROOT
ATOM      1  N1  IND d   1      -0.768   1.189  -0.929  0.00  0.00    -0.196 N 
ATOM      2  C2  IND d   1      -0.501  -0.062  -0.447  0.00  0.00     0.054 A 
ATOM      3  C3  IND d   1       0.686  -0.074   0.200  0.00  0.00    -0.031 A 
ATOM      4  C4  IND d   1       2.308   1.868   0.675  0.00  0.00     0.051 A 
ATOM      5  C5  IND d   1       2.513   3.192   0.403  0.00  0.00    -0.031 A 
ATOM      6  C6  IND d   1       1.615   3.931  -0.340  0.00  0.00     0.015 A 
ATOM      7  C7  IND d   1       0.468   3.374  -0.831  0.00  0.00    -0.016 A 
ATOM      8  C8  IND d   1       0.260   2.029  -0.562  0.00  0.00    -0.047 A 
ATOM      9  C9  IND d   1       1.188   1.263   0.155  0.00  0.00    -0.096 A 
ATOM     10  HN1 IND d   1      -1.462   1.413  -1.385  0.00  0.00     0.298 HD
ENDROOT
TORSDOF 0
ENDMDL
