MODEL 1
REMARK minimizedAffinity -2.31994486
REMARK minimizedRMSD -1
REMARK  0 active torsions:
REMARK  status: ('A' for Active; 'I' for Inactive)
ROOT
ATOM      1  N1  IND d   1       0.697   3.585   0.428  0.00  0.00    -0.196 N 
ATOM      2  C2  IND d   1       2.043   3.816   0.494  0.00  0.00     0.054 A 
ATOM      3  C3  IND d   1       2.720   2.646   0.508  0.00  0.00    -0.031 A 
ATOM      4  C4  IND d   1       1.828   0.237   0.329  0.00  0.00     0.051 A 
ATOM      5  C5  IND d   1       0.666  -0.481   0.287  0.00  0.00    -0.031 A 
ATOM      6  C6  IND d   1      -0.570   0.133   0.287  0.00  0.00     0.015 A 
ATOM      7  C7  IND d   1      -0.691   1.493   0.318  0.00  0.00    -0.016 A 
ATOM      8  C8  IND d   1       0.487   2.225   0.368  0.00  0.00    -0.047 A 
ATOM      9  C9  IND d   1       1.744   1.607   0.411  0.00  0.00    -0.096 A 
ATOM     10  HN1 IND d   1       0.084   4.189   0.426  0.00  0.00     0.298 HD
ENDROOT
TORSDOF 0
ENDMDL
