MODEL 1
REMARK minimizedAffinity -1.33066916
REMARK minimizedRMSD -1
REMARK  0 active torsions:
REMARK  status: ('A' for Active; 'I' for Inactive)
ROOT
ATOM      1  N1  IND d   1       1.991  -1.800   0.358  0.00  0.00    -0.196 N 
ATOM      2  C2  IND d   1       1.602  -2.981   0.928  0.00  0.00     0.054 A 
ATOM      3  C3  IND d   1       0.284  -2.949   1.223  0.00  0.00    -0.031 A 
ATOM      4  C4  IND d   1      -1.451  -1.102   0.768  0.00  0.00     0.051 A 
ATOM      5  C5  IND d   1      -1.565   0.177   0.300  0.00  0.00    -0.031 A 
ATOM      6  C6  IND d   1      -0.478   0.876  -0.184  0.00  0.00     0.015 A 
ATOM      7  C7  IND d   1       0.767   0.315  -0.230  0.00  0.00    -0.016 A 
ATOM      8  C8  IND d   1       0.888  -0.982   0.251  0.00  0.00    -0.047 A 
ATOM      9  C9  IND d   1      -0.204  -1.680   0.783  0.00  0.00    -0.096 A 
ATOM     10  HN1 IND d   1       2.789  -1.602   0.109  0.00  0.00     0.298 HD
ENDROOT
TORSDOF 0
ENDMDL
