MODEL 1
REMARK minimizedAffinity -3.32251835
REMARK minimizedRMSD -1
REMARK  0 active torsions:
REMARK  status: ('A' for Active; 'I' for Inactive)
ROOT
ATOM      1  N1  IND d   1      -1.262  -0.897   0.040  0.00  0.00    -0.196 N 
ATOM      2  C2  IND d   1      -1.196   0.438  -0.247  0.00  0.00     0.054 A 
ATOM      3  C3  IND d   1       0.063   0.896  -0.069  0.00  0.00    -0.031 A 
ATOM      4  C4  IND d   1       2.193  -0.391   0.591  0.00  0.00     0.051 A 
ATOM      5  C5  IND d   1       2.626  -1.624   0.990  0.00  0.00    -0.031 A 
ATOM      6  C6  IND d   1       1.768  -2.701   1.092  0.00  0.00     0.015 A 
ATOM      7  C7  IND d   1       0.442  -2.586   0.787  0.00  0.00    -0.016 A 
ATOM      8  C8  IND d   1      -0.003  -1.333   0.388  0.00  0.00    -0.047 A 
ATOM      9  C9  IND d   1       0.854  -0.227   0.323  0.00  0.00    -0.096 A 
ATOM     10  HN1 IND d   1      -1.971  -1.382   0.009  0.00  0.00     0.298 HD
ENDROOT
TORSDOF 0
ENDMDL
