MODEL 1
REMARK minimizedAffinity -4.78107834
REMARK minimizedRMSD -1
REMARK  0 active torsions:
REMARK  status: ('A' for Active; 'I' for Inactive)
ROOT
ATOM      1  N1  IND d   1       1.102   0.382  -0.313  0.00  0.00    -0.196 N 
ATOM      2  C2  IND d   1      -0.070   1.075  -0.188  0.00  0.00     0.054 A 
ATOM      3  C3  IND d   1      -0.978   0.344   0.496  0.00  0.00    -0.031 A 
ATOM      4  C4  IND d   1      -0.723  -1.972   1.591  0.00  0.00     0.051 A 
ATOM      5  C5  IND d   1       0.152  -3.014   1.715  0.00  0.00    -0.031 A 
ATOM      6  C6  IND d   1       1.415  -2.976   1.161  0.00  0.00     0.015 A 
ATOM      7  C7  IND d   1       1.856  -1.884   0.468  0.00  0.00    -0.016 A 
ATOM      8  C8  IND d   1       0.967  -0.827   0.334  0.00  0.00    -0.047 A 
ATOM      9  C9  IND d   1      -0.331  -0.877   0.858  0.00  0.00    -0.096 A 
ATOM     10  HN1 IND d   1       1.805   0.655  -0.727  0.00  0.00     0.298 HD
ENDROOT
TORSDOF 0
ENDMDL
