MODEL 1
REMARK minimizedAffinity -0.512565613
REMARK minimizedRMSD -1
REMARK  0 active torsions:
REMARK  status: ('A' for Active; 'I' for Inactive)
ROOT
ATOM      1  N1  IND d   1       0.276  -2.949   1.469  0.00  0.00    -0.196 N 
ATOM      2  C2  IND d   1       1.533  -3.299   1.061  0.00  0.00     0.054 A 
ATOM      3  C3  IND d   1       2.063  -2.326   0.286  0.00  0.00    -0.031 A 
ATOM      4  C4  IND d   1       1.085  -0.034  -0.359  0.00  0.00     0.051 A 
ATOM      5  C5  IND d   1      -0.049   0.721  -0.256  0.00  0.00    -0.031 A 
ATOM      6  C6  IND d   1      -1.155   0.283   0.445  0.00  0.00     0.015 A 
ATOM      7  C7  IND d   1      -1.162  -0.926   1.080  0.00  0.00    -0.016 A 
ATOM      8  C8  IND d   1      -0.015  -1.698   0.971  0.00  0.00    -0.047 A 
ATOM      9  C9  IND d   1       1.095  -1.278   0.226  0.00  0.00    -0.096 A 
ATOM     10  HN1 IND d   1      -0.245  -3.430   1.955  0.00  0.00     0.298 HD
ENDROOT
TORSDOF 0
ENDMDL
