MODEL 1
REMARK minimizedAffinity 1.03497207
REMARK minimizedRMSD -1
REMARK  0 active torsions:
REMARK  status: ('A' for Active; 'I' for Inactive)
ROOT
ATOM      1  N1  IND d   1      -0.989   1.489   0.109  0.00  0.00    -0.196 N 
ATOM      2  C2  IND d   1      -0.672   1.458  -1.220  0.00  0.00     0.054 A 
ATOM      3  C3  IND d   1      -0.326   0.205  -1.592  0.00  0.00    -0.031 A 
ATOM      4  C4  IND d   1      -0.310  -1.966  -0.208  0.00  0.00     0.051 A 
ATOM      5  C5  IND d   1      -0.488  -2.434   1.064  0.00  0.00    -0.031 A 
ATOM      6  C6  IND d   1      -0.852  -1.602   2.103  0.00  0.00     0.015 A 
ATOM      7  C7  IND d   1      -1.064  -0.266   1.905  0.00  0.00    -0.016 A 
ATOM      8  C8  IND d   1      -0.877   0.214   0.617  0.00  0.00    -0.047 A 
ATOM      9  C9  IND d   1      -0.466  -0.618  -0.433  0.00  0.00    -0.096 A 
ATOM     10  HN1 IND d   1      -1.220   2.188   0.553  0.00  0.00     0.298 HD
ENDROOT
TORSDOF 0
ENDMDL
