MODEL 1
REMARK minimizedAffinity -1.92957008
REMARK minimizedRMSD -1
REMARK  0 active torsions:
REMARK  status: ('A' for Active; 'I' for Inactive)
ROOT
ATOM      1  N1  IND d   1      -1.538  -0.551   1.843  0.00  0.00    -0.196 N 
ATOM      2  C2  IND d   1      -1.735   0.625   1.173  0.00  0.00     0.054 A 
ATOM      3  C3  IND d   1      -0.850   0.743   0.159  0.00  0.00    -0.031 A 
ATOM      4  C4  IND d   1       0.945  -0.917  -0.647  0.00  0.00     0.051 A 
ATOM      5  C5  IND d   1       1.528  -2.112  -0.329  0.00  0.00    -0.031 A 
ATOM      6  C6  IND d   1       1.108  -2.864   0.750  0.00  0.00     0.015 A 
ATOM      7  C7  IND d   1       0.078  -2.453   1.547  0.00  0.00    -0.016 A 
ATOM      8  C8  IND d   1      -0.511  -1.236   1.231  0.00  0.00    -0.047 A 
ATOM      9  C9  IND d   1      -0.062  -0.449   0.164  0.00  0.00    -0.096 A 
ATOM     10  HN1 IND d   1      -1.980  -0.817   2.531  0.00  0.00     0.298 HD
ENDROOT
TORSDOF 0
ENDMDL
