MODEL 1
REMARK minimizedAffinity -4.73004436
REMARK minimizedRMSD -1
REMARK  0 active torsions:
REMARK  status: ('A' for Active; 'I' for Inactive)
ROOT
ATOM      1  N1  IND d   1      -0.802   0.680   0.379  0.00  0.00    -0.196 N 
ATOM      2  C2  IND d   1      -0.193  -0.530   0.198  0.00  0.00     0.054 A 
ATOM      3  C3  IND d   1       1.128  -0.362  -0.031  0.00  0.00    -0.031 A 
ATOM      4  C4  IND d   1       2.522   1.803  -0.052  0.00  0.00     0.051 A 
ATOM      5  C5  IND d   1       2.402   3.162   0.027  0.00  0.00    -0.031 A 
ATOM      6  C6  IND d   1       1.184   3.776   0.234  0.00  0.00     0.015 A 
ATOM      7  C7  IND d   1       0.036   3.049   0.382  0.00  0.00    -0.016 A 
ATOM      8  C8  IND d   1       0.153   1.669   0.296  0.00  0.00    -0.047 A 
ATOM      9  C9  IND d   1       1.380   1.043   0.043  0.00  0.00    -0.096 A 
ATOM     10  HN1 IND d   1      -1.642   0.803   0.521  0.00  0.00     0.298 HD
ENDROOT
TORSDOF 0
ENDMDL
