MODEL 1
REMARK minimizedAffinity -4.00828838
REMARK minimizedRMSD -1
REMARK  0 active torsions:
REMARK  status: ('A' for Active; 'I' for Inactive)
ROOT
ATOM      1  N1  IND d   1       1.031   3.558  -0.048  0.00  0.00    -0.196 N 
ATOM      2  C2  IND d   1       2.376   3.803  -0.002  0.00  0.00     0.054 A 
ATOM      3  C3  IND d   1       3.067   2.644  -0.085  0.00  0.00    -0.031 A 
ATOM      4  C4  IND d   1       2.201   0.241  -0.404  0.00  0.00     0.051 A 
ATOM      5  C5  IND d   1       1.047  -0.489  -0.464  0.00  0.00    -0.031 A 
ATOM      6  C6  IND d   1      -0.196   0.105  -0.389  0.00  0.00     0.015 A 
ATOM      7  C7  IND d   1      -0.333   1.459  -0.263  0.00  0.00    -0.016 A 
ATOM      8  C8  IND d   1       0.837   2.202  -0.195  0.00  0.00    -0.047 A 
ATOM      9  C9  IND d   1       2.102   1.601  -0.227  0.00  0.00    -0.096 A 
ATOM     10  HN1 IND d   1       0.411   4.152   0.006  0.00  0.00     0.298 HD
ENDROOT
TORSDOF 0
ENDMDL
