MODEL 1
REMARK minimizedAffinity -1.76368165
REMARK minimizedRMSD -1
REMARK  0 active torsions:
REMARK  status: ('A' for Active; 'I' for Inactive)
ROOT
ATOM      1  N1  IND d   1       1.510   0.779   0.497  0.00  0.00    -0.196 N 
ATOM      2  C2  IND d   1       0.304   1.342   0.186  0.00  0.00     0.054 A 
ATOM      3  C3  IND d   1      -0.672   0.407   0.208  0.00  0.00    -0.031 A 
ATOM      4  C4  IND d   1      -0.533  -2.088   0.827  0.00  0.00     0.051 A 
ATOM      5  C5  IND d   1       0.363  -3.070   1.145  0.00  0.00    -0.031 A 
ATOM      6  C6  IND d   1       1.713  -2.814   1.269  0.00  0.00     0.015 A 
ATOM      7  C7  IND d   1       2.219  -1.558   1.089  0.00  0.00    -0.016 A 
ATOM      8  C8  IND d   1       1.314  -0.560   0.759  0.00  0.00    -0.047 A 
ATOM      9  C9  IND d   1      -0.052  -0.822   0.590  0.00  0.00    -0.096 A 
ATOM     10  HN1 IND d   1       2.264   1.191   0.524  0.00  0.00     0.298 HD
ENDROOT
TORSDOF 0
ENDMDL
