MODEL 1
REMARK minimizedAffinity -2.05928731
REMARK minimizedRMSD -1
REMARK  0 active torsions:
REMARK  status: ('A' for Active; 'I' for Inactive)
ROOT
ATOM      1  N1  IND d   1       0.385  -0.396  -1.732  0.00  0.00    -0.196 N 
ATOM      2  C2  IND d   1       0.345  -0.054  -0.409  0.00  0.00     0.054 A 
ATOM      3  C3  IND d   1      -0.883   0.406  -0.080  0.00  0.00    -0.031 A 
ATOM      4  C4  IND d   1      -3.003   0.590  -1.528  0.00  0.00     0.051 A 
ATOM      5  C5  IND d   1      -3.449   0.433  -2.811  0.00  0.00    -0.031 A 
ATOM      6  C6  IND d   1      -2.623  -0.021  -3.819  0.00  0.00     0.015 A 
ATOM      7  C7  IND d   1      -1.318  -0.346  -3.579  0.00  0.00    -0.016 A 
ATOM      8  C8  IND d   1      -0.860  -0.180  -2.279  0.00  0.00    -0.047 A 
ATOM      9  C9  IND d   1      -1.682   0.320  -1.261  0.00  0.00    -0.096 A 
ATOM     10  HN1 IND d   1       1.074  -0.695  -2.152  0.00  0.00     0.298 HD
ENDROOT
TORSDOF 0
ENDMDL
