MODEL 1
REMARK minimizedAffinity -1.67522717
REMARK minimizedRMSD -1
REMARK  0 active torsions:
REMARK  status: ('A' for Active; 'I' for Inactive)
ROOT
ATOM      1  N1  IND d   1      -3.935   2.442  -4.124  0.00  0.00    -0.196 N 
ATOM      2  C2  IND d   1      -4.084   3.497  -3.267  0.00  0.00     0.054 A 
ATOM      3  C3  IND d   1      -3.735   3.136  -2.012  0.00  0.00    -0.031 A 
ATOM      4  C4  IND d   1      -2.794   0.899  -1.154  0.00  0.00     0.051 A 
ATOM      5  C5  IND d   1      -2.515  -0.377  -1.556  0.00  0.00    -0.031 A 
ATOM      6  C6  IND d   1      -2.696  -0.787  -2.862  0.00  0.00     0.015 A 
ATOM      7  C7  IND d   1      -3.155   0.072  -3.820  0.00  0.00    -0.016 A 
ATOM      8  C8  IND d   1      -3.446   1.367  -3.414  0.00  0.00    -0.047 A 
ATOM      9  C9  IND d   1      -3.304   1.776  -2.082  0.00  0.00    -0.096 A 
ATOM     10  HN1 IND d   1      -4.117   2.448  -4.964  0.00  0.00     0.298 HD
ENDROOT
TORSDOF 0
ENDMDL
