MODEL 1
REMARK minimizedAffinity -3.96501923
REMARK minimizedRMSD -1
REMARK  0 active torsions:
REMARK  status: ('A' for Active; 'I' for Inactive)
ROOT
ATOM      1  N1  IND d   1      -0.577   1.303   0.067  0.00  0.00    -0.196 N 
ATOM      2  C2  IND d   1      -1.503   0.419  -0.415  0.00  0.00     0.054 A 
ATOM      3  C3  IND d   1      -0.940  -0.795  -0.604  0.00  0.00    -0.031 A 
ATOM      4  C4  IND d   1       1.457  -1.584  -0.094  0.00  0.00     0.051 A 
ATOM      5  C5  IND d   1       2.676  -1.127   0.322  0.00  0.00    -0.031 A 
ATOM      6  C6  IND d   1       2.876   0.189   0.684  0.00  0.00     0.015 A 
ATOM      7  C7  IND d   1       1.857   1.099   0.654  0.00  0.00    -0.016 A 
ATOM      8  C8  IND d   1       0.620   0.640   0.226  0.00  0.00    -0.047 A 
ATOM      9  C9  IND d   1       0.421  -0.685  -0.184  0.00  0.00    -0.096 A 
ATOM     10  HN1 IND d   1      -0.719   2.133   0.241  0.00  0.00     0.298 HD
ENDROOT
TORSDOF 0
ENDMDL
