MODEL 1
REMARK minimizedAffinity -1.91803992
REMARK minimizedRMSD -1
REMARK  0 active torsions:
REMARK  status: ('A' for Active; 'I' for Inactive)
ROOT
ATOM      1  N1  IND d   1       1.953  -1.107   1.053  0.00  0.00    -0.196 N 
ATOM      2  C2  IND d   1       2.965  -0.195   1.163  0.00  0.00     0.054 A 
ATOM      3  C3  IND d   1       2.576   1.002   0.669  0.00  0.00    -0.031 A 
ATOM      4  C4  IND d   1       0.290   1.717  -0.273  0.00  0.00     0.051 A 
ATOM      5  C5  IND d   1      -0.939   1.223  -0.609  0.00  0.00    -0.031 A 
ATOM      6  C6  IND d   1      -1.275  -0.100  -0.402  0.00  0.00     0.015 A 
ATOM      7  C7  IND d   1      -0.394  -0.978   0.163  0.00  0.00    -0.016 A 
ATOM      8  C8  IND d   1       0.858  -0.481   0.499  0.00  0.00    -0.047 A 
ATOM      9  C9  IND d   1       1.219   0.850   0.251  0.00  0.00    -0.096 A 
ATOM     10  HN1 IND d   1       1.993  -1.932   1.290  0.00  0.00     0.298 HD
ENDROOT
TORSDOF 0
ENDMDL
