MODEL 1
REMARK minimizedAffinity -5.82524729
REMARK minimizedRMSD -1
REMARK  0 active torsions:
REMARK  status: ('A' for Active; 'I' for Inactive)
ROOT
ATOM      1  N1  IND d   1      -0.936  -0.671   0.574  0.00  0.00    -0.196 N 
ATOM      2  C2  IND d   1      -1.493   0.558   0.354  0.00  0.00     0.054 A 
ATOM      3  C3  IND d   1      -0.530   1.504   0.280  0.00  0.00    -0.031 A 
ATOM      4  C4  IND d   1       2.029   1.244   0.387  0.00  0.00     0.051 A 
ATOM      5  C5  IND d   1       3.010   0.319   0.612  0.00  0.00    -0.031 A 
ATOM      6  C6  IND d   1       2.719  -1.011   0.838  0.00  0.00     0.015 A 
ATOM      7  C7  IND d   1       1.432  -1.469   0.836  0.00  0.00    -0.016 A 
ATOM      8  C8  IND d   1       0.434  -0.531   0.614  0.00  0.00    -0.047 A 
ATOM      9  C9  IND d   1       0.720   0.827   0.427  0.00  0.00    -0.096 A 
ATOM     10  HN1 IND d   1      -1.369  -1.408   0.670  0.00  0.00     0.298 HD
ENDROOT
TORSDOF 0
ENDMDL
