MODEL 1
REMARK minimizedAffinity -2.47465825
REMARK minimizedRMSD -1
REMARK  0 active torsions:
REMARK  status: ('A' for Active; 'I' for Inactive)
ROOT
ATOM      1  N1  IND d   1      -0.125  -1.798   1.170  0.00  0.00    -0.196 N 
ATOM      2  C2  IND d   1      -1.359  -1.472   0.680  0.00  0.00     0.054 A 
ATOM      3  C3  IND d   1      -1.331  -0.246   0.111  0.00  0.00    -0.031 A 
ATOM      4  C4  IND d   1       0.655   1.358  -0.218  0.00  0.00     0.051 A 
ATOM      5  C5  IND d   1       1.977   1.514   0.093  0.00  0.00    -0.031 A 
ATOM      6  C6  IND d   1       2.680   0.554   0.792  0.00  0.00     0.015 A 
ATOM      7  C7  IND d   1       2.088  -0.609   1.196  0.00  0.00    -0.016 A 
ATOM      8  C8  IND d   1       0.745  -0.768   0.887  0.00  0.00    -0.047 A 
ATOM      9  C9  IND d   1       0.015   0.222   0.216  0.00  0.00    -0.096 A 
ATOM     10  HN1 IND d   1       0.074  -2.525   1.585  0.00  0.00     0.298 HD
ENDROOT
TORSDOF 0
ENDMDL
