MODEL 1
REMARK minimizedAffinity -3.95828629
REMARK minimizedRMSD -1
REMARK  0 active torsions:
REMARK  status: ('A' for Active; 'I' for Inactive)
ROOT
ATOM      1  N1  IND d   1      -0.326  -2.257   1.469  0.00  0.00    -0.196 N 
ATOM      2  C2  IND d   1      -1.626  -1.838   1.518  0.00  0.00     0.054 A 
ATOM      3  C3  IND d   1      -1.725  -0.561   1.084  0.00  0.00    -0.031 A 
ATOM      4  C4  IND d   1       0.101   0.995   0.151  0.00  0.00     0.051 A 
ATOM      5  C5  IND d   1       1.450   1.070  -0.056  0.00  0.00    -0.031 A 
ATOM      6  C6  IND d   1       2.293   0.018   0.239  0.00  0.00     0.015 A 
ATOM      7  C7  IND d   1       1.814  -1.159   0.743  0.00  0.00    -0.016 A 
ATOM      8  C8  IND d   1       0.445  -1.236   0.960  0.00  0.00    -0.047 A 
ATOM      9  C9  IND d   1      -0.409  -0.156   0.703  0.00  0.00    -0.096 A 
ATOM     10  HN1 IND d   1      -0.039  -3.029   1.715  0.00  0.00     0.298 HD
ENDROOT
TORSDOF 0
ENDMDL
