MODEL 1
REMARK minimizedAffinity 1.65878808
REMARK minimizedRMSD -1
REMARK  1 active torsions:
REMARK  status: ('A' for Active; 'I' for Inactive)
REMARK    1  A    between atoms: C1_2  and  C2_3 
ROOT
ATOM      1  C2  UNL d   1      -2.146  -0.392   4.581  0.00  0.00    -0.081 A 
ATOM      2  C3  UNL d   1      -2.042  -1.481   5.454  0.00  0.00     0.006 A 
ATOM      3  C4  UNL d   1      -0.799  -2.063   5.716  0.00  0.00     0.002 A 
ATOM      4  C5  UNL d   1       0.360  -1.561   5.115  0.00  0.00    -0.080 A 
ATOM      5  C6  UNL d   1       1.704  -2.157   5.411  0.00  0.00     0.076 C 
ATOM      6  C7  UNL d   1       0.254  -0.484   4.229  0.00  0.00     0.002 A 
ATOM      7  C8  UNL d   1      -0.989   0.098   3.966  0.00  0.00     0.006 A 
ENDROOT
BRANCH   1   8
ATOM      8  C1  UNL d   1      -3.476   0.278   4.346  0.00  0.00     0.054 C 
ATOM      9  C   UNL d   1      -3.493   1.027   3.021  0.00  0.00     0.018 C 
ENDBRANCH   1   8
TORSDOF 1
ENDMDL
