MODEL 1
REMARK minimizedAffinity 1.76462269
REMARK minimizedRMSD -1
REMARK  1 active torsions:
REMARK  status: ('A' for Active; 'I' for Inactive)
REMARK    1  A    between atoms: C1_2  and  C2_3 
ROOT
ATOM      1  C2  UNL d   1      -1.708  -1.376   5.198  0.00  0.00    -0.081 A 
ATOM      2  C3  UNL d   1      -0.693  -0.667   4.545  0.00  0.00     0.006 A 
ATOM      3  C4  UNL d   1       0.629  -1.117   4.593  0.00  0.00     0.002 A 
ATOM      4  C5  UNL d   1       0.956  -2.287   5.287  0.00  0.00    -0.080 A 
ATOM      5  C6  UNL d   1       2.366  -2.797   5.321  0.00  0.00     0.076 C 
ATOM      6  C7  UNL d   1      -0.056  -2.986   5.954  0.00  0.00     0.002 A 
ATOM      7  C8  UNL d   1      -1.377  -2.536   5.907  0.00  0.00     0.006 A 
ENDROOT
BRANCH   1   8
ATOM      8  C1  UNL d   1      -3.144  -0.930   5.095  0.00  0.00     0.054 C 
ATOM      9  C   UNL d   1      -3.295   0.222   4.111  0.00  0.00     0.018 C 
ENDBRANCH   1   8
TORSDOF 1
ENDMDL
