MODEL 1
REMARK minimizedAffinity -5.76419735
REMARK minimizedRMSD -1
REMARK  1 active torsions:
REMARK  status: ('A' for Active; 'I' for Inactive)
REMARK    1  A    between atoms: C1_2  and  C2_3 
ROOT
ATOM      1  C2  UNL d   1       0.852   1.362   0.177  0.00  0.00    -0.081 A 
ATOM      2  C3  UNL d   1       0.448   0.640  -0.953  0.00  0.00     0.006 A 
ATOM      3  C4  UNL d   1       0.076  -0.702  -0.840  0.00  0.00     0.002 A 
ATOM      4  C5  UNL d   1       0.095  -1.341   0.404  0.00  0.00    -0.080 A 
ATOM      5  C6  UNL d   1      -0.331  -2.773   0.543  0.00  0.00     0.076 C 
ATOM      6  C7  UNL d   1       0.515  -0.625   1.530  0.00  0.00     0.002 A 
ATOM      7  C8  UNL d   1       0.888   0.716   1.417  0.00  0.00     0.006 A 
ENDROOT
BRANCH   1   8
ATOM      8  C1  UNL d   1       1.192   2.827   0.069  0.00  0.00     0.054 C 
ATOM      9  C   UNL d   1       2.657   3.080   0.395  0.00  0.00     0.018 C 
ENDBRANCH   1   8
TORSDOF 1
ENDMDL
