MODEL 1
REMARK minimizedAffinity -5.63480473
REMARK minimizedRMSD -1
REMARK  1 active torsions:
REMARK  status: ('A' for Active; 'I' for Inactive)
REMARK    1  A    between atoms: C1_2  and  C2_3 
ROOT
ATOM      1  C2  UNL d   1       0.075  -0.144   0.822  0.00  0.00    -0.081 A 
ATOM      2  C3  UNL d   1      -0.308   0.913  -0.013  0.00  0.00     0.006 A 
ATOM      3  C4  UNL d   1       0.464   2.075  -0.085  0.00  0.00     0.002 A 
ATOM      4  C5  UNL d   1       1.634   2.197   0.672  0.00  0.00    -0.080 A 
ATOM      5  C6  UNL d   1       2.487   3.428   0.581  0.00  0.00     0.076 C 
ATOM      6  C7  UNL d   1       2.008   1.149   1.520  0.00  0.00     0.002 A 
ATOM      7  C8  UNL d   1       1.237  -0.013   1.592  0.00  0.00     0.006 A 
ENDROOT
BRANCH   1   8
ATOM      8  C1  UNL d   1      -0.719  -1.424   0.852  0.00  0.00     0.054 C 
ATOM      9  C   UNL d   1       0.029  -2.523   1.594  0.00  0.00     0.018 C 
ENDBRANCH   1   8
TORSDOF 1
ENDMDL
