MODEL 1
REMARK minimizedAffinity -5.0452261
REMARK minimizedRMSD -1
REMARK  1 active torsions:
REMARK  status: ('A' for Active; 'I' for Inactive)
REMARK    1  A    between atoms: C1_2  and  C2_3 
ROOT
ATOM      1  C2  UNL d   1       1.015   0.591   0.603  0.00  0.00    -0.081 A 
ATOM      2  C3  UNL d   1       0.925  -0.465  -0.312  0.00  0.00     0.006 A 
ATOM      3  C4  UNL d   1      -0.073  -1.434  -0.179  0.00  0.00     0.002 A 
ATOM      4  C5  UNL d   1      -1.000  -1.359   0.866  0.00  0.00    -0.080 A 
ATOM      5  C6  UNL d   1      -2.094  -2.376   1.002  0.00  0.00     0.076 C 
ATOM      6  C7  UNL d   1      -0.899  -0.315   1.791  0.00  0.00     0.002 A 
ATOM      7  C8  UNL d   1       0.099   0.654   1.658  0.00  0.00     0.006 A 
ENDROOT
BRANCH   1   8
ATOM      8  C1  UNL d   1       2.049   1.673   0.425  0.00  0.00     0.054 C 
ATOM      9  C   UNL d   1       1.418   3.057   0.485  0.00  0.00     0.018 C 
ENDBRANCH   1   8
TORSDOF 1
ENDMDL
