MODEL 1
REMARK minimizedAffinity -3.59536004
REMARK minimizedRMSD -1
REMARK  1 active torsions:
REMARK  status: ('A' for Active; 'I' for Inactive)
REMARK    1  A    between atoms: C1_2  and  C2_3 
ROOT
ATOM      1  C2  UNL d   1      -1.278  -1.661   1.094  0.00  0.00    -0.081 A 
ATOM      2  C3  UNL d   1      -1.000  -0.484   0.387  0.00  0.00     0.006 A 
ATOM      3  C4  UNL d   1       0.033  -0.451  -0.553  0.00  0.00     0.002 A 
ATOM      4  C5  UNL d   1       0.799  -1.594  -0.807  0.00  0.00    -0.080 A 
ATOM      5  C6  UNL d   1       1.891  -1.579  -1.836  0.00  0.00     0.076 C 
ATOM      6  C7  UNL d   1       0.532  -2.764  -0.088  0.00  0.00     0.002 A 
ATOM      7  C8  UNL d   1      -0.500  -2.798   0.852  0.00  0.00     0.006 A 
ENDROOT
BRANCH   1   8
ATOM      8  C1  UNL d   1      -2.433  -1.718   2.061  0.00  0.00     0.054 C 
ATOM      9  C   UNL d   1      -2.890  -0.323   2.461  0.00  0.00     0.018 C 
ENDBRANCH   1   8
TORSDOF 1
ENDMDL
