MODEL 1
REMARK minimizedAffinity -0.626999974
REMARK minimizedRMSD -1
REMARK  1 active torsions:
REMARK  status: ('A' for Active; 'I' for Inactive)
REMARK    1  A    between atoms: C1_2  and  C2_3 
ROOT
ATOM      1  C2  UNL d   1      -1.690  -1.811   1.054  0.00  0.00    -0.081 A 
ATOM      2  C3  UNL d   1      -2.023  -0.574   1.619  0.00  0.00     0.006 A 
ATOM      3  C4  UNL d   1      -1.300   0.574   1.286  0.00  0.00     0.002 A 
ATOM      4  C5  UNL d   1      -0.238   0.506   0.378  0.00  0.00    -0.080 A 
ATOM      5  C6  UNL d   1       0.526   1.737  -0.010  0.00  0.00     0.076 C 
ATOM      6  C7  UNL d   1       0.106  -0.732  -0.173  0.00  0.00     0.002 A 
ATOM      7  C8  UNL d   1      -0.616  -1.881   0.159  0.00  0.00     0.006 A 
ENDROOT
BRANCH   1   8
ATOM      8  C1  UNL d   1      -2.508  -3.039   1.360  0.00  0.00     0.054 C 
ATOM      9  C   UNL d   1      -3.638  -3.216   0.356  0.00  0.00     0.018 C 
ENDBRANCH   1   8
TORSDOF 1
ENDMDL
