MODEL 1
REMARK minimizedAffinity -3.57952952
REMARK minimizedRMSD -1
REMARK  1 active torsions:
REMARK  status: ('A' for Active; 'I' for Inactive)
REMARK    1  A    between atoms: C1_2  and  C2_3 
ROOT
ATOM      1  C2  UNL d   1      -0.083  -0.003  -0.114  0.00  0.00    -0.081 A 
ATOM      2  C3  UNL d   1      -0.550  -0.874   0.878  0.00  0.00     0.006 A 
ATOM      3  C4  UNL d   1      -0.439  -2.257   0.717  0.00  0.00     0.002 A 
ATOM      4  C5  UNL d   1       0.147  -2.792  -0.435  0.00  0.00    -0.080 A 
ATOM      5  C6  UNL d   1       0.300  -4.274  -0.608  0.00  0.00     0.076 C 
ATOM      6  C7  UNL d   1       0.598  -1.923  -1.435  0.00  0.00     0.002 A 
ATOM      7  C8  UNL d   1       0.486  -0.540  -1.274  0.00  0.00     0.006 A 
ENDROOT
BRANCH   1   8
ATOM      8  C1  UNL d   1      -0.143   1.490   0.086  0.00  0.00     0.054 C 
ATOM      9  C   UNL d   1       1.145   2.017   0.703  0.00  0.00     0.018 C 
ENDBRANCH   1   8
TORSDOF 1
ENDMDL
