MODEL 1
REMARK minimizedAffinity -3.32419896
REMARK minimizedRMSD -1
REMARK  1 active torsions:
REMARK  status: ('A' for Active; 'I' for Inactive)
REMARK    1  A    between atoms: C1_2  and  C2_3 
ROOT
ATOM      1  C2  UNL d   1      -0.323  -1.155  -1.045  0.00  0.00    -0.081 A 
ATOM      2  C3  UNL d   1      -0.837  -2.325  -0.471  0.00  0.00     0.006 A 
ATOM      3  C4  UNL d   1      -1.301  -2.322   0.847  0.00  0.00     0.002 A 
ATOM      4  C5  UNL d   1      -1.267  -1.149   1.609  0.00  0.00    -0.080 A 
ATOM      5  C6  UNL d   1      -1.791  -1.125   3.014  0.00  0.00     0.076 C 
ATOM      6  C7  UNL d   1      -0.738   0.015   1.041  0.00  0.00     0.002 A 
ATOM      7  C8  UNL d   1      -0.273   0.013  -0.275  0.00  0.00     0.006 A 
ENDROOT
BRANCH   1   8
ATOM      8  C1  UNL d   1       0.118  -1.139  -2.486  0.00  0.00     0.054 C 
ATOM      9  C   UNL d   1      -0.191  -2.460  -3.174  0.00  0.00     0.018 C 
ENDBRANCH   1   8
TORSDOF 1
ENDMDL
