MODEL 1
REMARK minimizedAffinity -2.08043027
REMARK minimizedRMSD -1
REMARK  1 active torsions:
REMARK  status: ('A' for Active; 'I' for Inactive)
REMARK    1  A    between atoms: C1_2  and  C2_3 
ROOT
ATOM      1  C2  UNL d   1       0.393   1.660   0.238  0.00  0.00    -0.081 A 
ATOM      2  C3  UNL d   1      -0.229   1.290   1.437  0.00  0.00     0.006 A 
ATOM      3  C4  UNL d   1      -0.805   0.025   1.574  0.00  0.00     0.002 A 
ATOM      4  C5  UNL d   1      -0.763  -0.893   0.519  0.00  0.00    -0.080 A 
ATOM      5  C6  UNL d   1      -1.351  -2.265   0.665  0.00  0.00     0.076 C 
ATOM      6  C7  UNL d   1      -0.157  -0.517  -0.684  0.00  0.00     0.002 A 
ATOM      7  C8  UNL d   1       0.419   0.748  -0.823  0.00  0.00     0.006 A 
ENDROOT
BRANCH   1   8
ATOM      8  C1  UNL d   1       1.072   2.999   0.108  0.00  0.00     0.054 C 
ATOM      9  C   UNL d   1       1.199   3.688   1.460  0.00  0.00     0.018 C 
ENDBRANCH   1   8
TORSDOF 1
ENDMDL
