MODEL 1
REMARK minimizedAffinity -1.32914245
REMARK minimizedRMSD -1
REMARK  1 active torsions:
REMARK  status: ('A' for Active; 'I' for Inactive)
REMARK    1  A    between atoms: C1_2  and  C2_3 
ROOT
ATOM      1  C2  UNL d   1      -0.026  -0.885  -1.057  0.00  0.00    -0.081 A 
ATOM      2  C3  UNL d   1      -0.806  -1.955  -0.600  0.00  0.00     0.006 A 
ATOM      3  C4  UNL d   1      -1.287  -1.970   0.711  0.00  0.00     0.002 A 
ATOM      4  C5  UNL d   1      -1.005  -0.914   1.584  0.00  0.00    -0.080 A 
ATOM      5  C6  UNL d   1      -1.542  -0.904   2.984  0.00  0.00     0.076 C 
ATOM      6  C7  UNL d   1      -0.212   0.147   1.132  0.00  0.00     0.002 A 
ATOM      7  C8  UNL d   1       0.270   0.162  -0.178  0.00  0.00     0.006 A 
ENDROOT
BRANCH   1   8
ATOM      8  C1  UNL d   1       0.440  -0.834  -2.489  0.00  0.00     0.054 C 
ATOM      9  C   UNL d   1       0.121  -2.130  -3.222  0.00  0.00     0.018 C 
ENDBRANCH   1   8
TORSDOF 1
ENDMDL
