MODEL 1
REMARK minimizedAffinity -4.30857134
REMARK minimizedRMSD -1
REMARK  1 active torsions:
REMARK  status: ('A' for Active; 'I' for Inactive)
REMARK    1  A    between atoms: C1_2  and  C2_3 
ROOT
ATOM      1  C2  UNL d   1      -0.500  -0.847   1.272  0.00  0.00    -0.081 A 
ATOM      2  C3  UNL d   1      -0.366   0.177   0.327  0.00  0.00     0.006 A 
ATOM      3  C4  UNL d   1       0.666   1.112   0.437  0.00  0.00     0.002 A 
ATOM      4  C5  UNL d   1       1.585   1.034   1.489  0.00  0.00    -0.080 A 
ATOM      5  C6  UNL d   1       2.716   2.013   1.602  0.00  0.00     0.076 C 
ATOM      6  C7  UNL d   1       1.441   0.021   2.443  0.00  0.00     0.002 A 
ATOM      7  C8  UNL d   1       0.409  -0.914   2.334  0.00  0.00     0.006 A 
ENDROOT
BRANCH   1   8
ATOM      8  C1  UNL d   1      -1.573  -1.895   1.120  0.00  0.00     0.054 C 
ATOM      9  C   UNL d   1      -1.186  -2.936   0.080  0.00  0.00     0.018 C 
ENDBRANCH   1   8
TORSDOF 1
ENDMDL
