MODEL 1
REMARK minimizedAffinity -5.03603363
REMARK minimizedRMSD -1
REMARK  0 active torsions:
REMARK  status: ('A' for Active; 'I' for Inactive)
ROOT
ATOM      1  N1  IND d   1       0.463   0.630  -1.397  0.00  0.00    -0.196 N 
ATOM      2  C2  IND d   1      -0.273  -0.131  -0.532  0.00  0.00     0.054 A 
ATOM      3  C3  IND d   1      -1.589   0.148  -0.662  0.00  0.00    -0.031 A 
ATOM      4  C4  IND d   1      -2.768   1.744  -2.302  0.00  0.00     0.051 A 
ATOM      5  C5  IND d   1      -2.514   2.684  -3.262  0.00  0.00    -0.031 A 
ATOM      6  C6  IND d   1      -1.228   2.991  -3.658  0.00  0.00     0.015 A 
ATOM      7  C7  IND d   1      -0.145   2.359  -3.116  0.00  0.00    -0.016 A 
ATOM      8  C8  IND d   1      -0.399   1.410  -2.136  0.00  0.00    -0.047 A 
ATOM      9  C9  IND d   1      -1.699   1.124  -1.700  0.00  0.00    -0.096 A 
ATOM     10  HN1 IND d   1       1.320   0.624  -1.467  0.00  0.00     0.298 HD
ENDROOT
TORSDOF 0
ENDMDL
