MODEL 1
REMARK minimizedAffinity -1.10657942
REMARK minimizedRMSD -1
REMARK  0 active torsions:
REMARK  status: ('A' for Active; 'I' for Inactive)
ROOT
ATOM      1  N1  IND d   1       0.448  -0.331  -1.557  0.00  0.00    -0.196 N 
ATOM      2  C2  IND d   1       1.664  -0.946  -1.660  0.00  0.00     0.054 A 
ATOM      3  C3  IND d   1       2.067  -1.396  -0.450  0.00  0.00    -0.031 A 
ATOM      4  C4  IND d   1       0.844  -1.321   1.813  0.00  0.00     0.051 A 
ATOM      5  C5  IND d   1      -0.280  -0.827   2.415  0.00  0.00    -0.031 A 
ATOM      6  C6  IND d   1      -1.239  -0.131   1.708  0.00  0.00     0.015 A 
ATOM      7  C7  IND d   1      -1.115   0.089   0.366  0.00  0.00    -0.016 A 
ATOM      8  C8  IND d   1       0.028  -0.405  -0.247  0.00  0.00    -0.047 A 
ATOM      9  C9  IND d   1       1.025  -1.076   0.473  0.00  0.00    -0.096 A 
ATOM     10  HN1 IND d   1       0.018   0.041  -2.202  0.00  0.00     0.298 HD
ENDROOT
TORSDOF 0
ENDMDL
