MODEL 1
REMARK minimizedAffinity -3.71538782
REMARK minimizedRMSD -1
REMARK  0 active torsions:
REMARK  status: ('A' for Active; 'I' for Inactive)
ROOT
ATOM      1  N1  IND d   1       2.327  -1.898  -1.295  0.00  0.00    -0.196 N 
ATOM      2  C2  IND d   1       2.898  -2.622  -0.286  0.00  0.00     0.054 A 
ATOM      3  C3  IND d   1       2.287  -2.352   0.890  0.00  0.00    -0.031 A 
ATOM      4  C4  IND d   1       0.266  -0.833   1.373  0.00  0.00     0.051 A 
ATOM      5  C5  IND d   1      -0.575   0.064   0.775  0.00  0.00    -0.031 A 
ATOM      6  C6  IND d   1      -0.491   0.357  -0.571  0.00  0.00     0.015 A 
ATOM      7  C7  IND d   1       0.433  -0.248  -1.375  0.00  0.00    -0.016 A 
ATOM      8  C8  IND d   1       1.293  -1.154  -0.770  0.00  0.00    -0.047 A 
ATOM      9  C9  IND d   1       1.240  -1.423   0.604  0.00  0.00    -0.096 A 
ATOM     10  HN1 IND d   1       2.572  -1.905  -2.119  0.00  0.00     0.298 HD
ENDROOT
TORSDOF 0
ENDMDL
