MODEL 1
REMARK minimizedAffinity 8.08772659
REMARK minimizedRMSD -1
REMARK  0 active torsions:
REMARK  status: ('A' for Active; 'I' for Inactive)
ROOT
ATOM      1  N1  IND d   1      -1.948   4.204  -4.053  0.00  0.00    -0.196 N 
ATOM      2  C2  IND d   1      -2.857   3.528  -3.287  0.00  0.00     0.054 A 
ATOM      3  C3  IND d   1      -2.237   2.584  -2.545  0.00  0.00    -0.031 A 
ATOM      4  C4  IND d   1       0.272   2.040  -2.353  0.00  0.00     0.051 A 
ATOM      5  C5  IND d   1       1.488   2.364  -2.886  0.00  0.00    -0.031 A 
ATOM      6  C6  IND d   1       1.624   3.340  -3.853  0.00  0.00     0.015 A 
ATOM      7  C7  IND d   1       0.545   4.038  -4.316  0.00  0.00    -0.016 A 
ATOM      8  C8  IND d   1      -0.692   3.707  -3.783  0.00  0.00    -0.047 A 
ATOM      9  C9  IND d   1      -0.841   2.689  -2.832  0.00  0.00    -0.096 A 
ATOM     10  HN1 IND d   1      -2.130   4.833  -4.610  0.00  0.00     0.298 HD
ENDROOT
TORSDOF 0
ENDMDL
