MODEL 1
REMARK minimizedAffinity -3.10869312
REMARK minimizedRMSD -1
REMARK  0 active torsions:
REMARK  status: ('A' for Active; 'I' for Inactive)
ROOT
ATOM      1  N1  IND d   1      -1.036   3.390  -1.502  0.00  0.00    -0.196 N 
ATOM      2  C2  IND d   1      -1.127   3.182  -2.850  0.00  0.00     0.054 A 
ATOM      3  C3  IND d   1      -0.988   1.868  -3.134  0.00  0.00    -0.031 A 
ATOM      4  C4  IND d   1      -0.705  -0.130  -1.535  0.00  0.00     0.051 A 
ATOM      5  C5  IND d   1      -0.530  -0.436  -0.214  0.00  0.00    -0.031 A 
ATOM      6  C6  IND d   1      -0.517   0.536   0.764  0.00  0.00     0.015 A 
ATOM      7  C7  IND d   1      -0.691   1.857   0.459  0.00  0.00    -0.016 A 
ATOM      8  C8  IND d   1      -0.862   2.172  -0.882  0.00  0.00    -0.047 A 
ATOM      9  C9  IND d   1      -0.833   1.194  -1.884  0.00  0.00    -0.096 A 
ATOM     10  HN1 IND d   1      -1.080   4.153  -1.108  0.00  0.00     0.298 HD
ENDROOT
TORSDOF 0
ENDMDL
