MODEL 1
REMARK minimizedAffinity -2.57069683
REMARK minimizedRMSD -1
REMARK  0 active torsions:
REMARK  status: ('A' for Active; 'I' for Inactive)
ROOT
ATOM      1  N1  IND d   1      -0.020   1.064   0.506  0.00  0.00    -0.196 N 
ATOM      2  C2  IND d   1      -0.346  -0.257   0.634  0.00  0.00     0.054 A 
ATOM      3  C3  IND d   1      -0.984  -0.693  -0.476  0.00  0.00    -0.031 A 
ATOM      4  C4  IND d   1      -1.507   0.562  -2.662  0.00  0.00     0.051 A 
ATOM      5  C5  IND d   1      -1.436   1.800  -3.237  0.00  0.00    -0.031 A 
ATOM      6  C6  IND d   1      -0.875   2.877  -2.581  0.00  0.00     0.015 A 
ATOM      7  C7  IND d   1      -0.352   2.753  -1.325  0.00  0.00    -0.016 A 
ATOM      8  C8  IND d   1      -0.429   1.499  -0.736  0.00  0.00    -0.047 A 
ATOM      9  C9  IND d   1      -1.035   0.412  -1.379  0.00  0.00    -0.096 A 
ATOM     10  HN1 IND d   1       0.375   1.543   1.101  0.00  0.00     0.298 HD
ENDROOT
TORSDOF 0
ENDMDL
