MODEL 1
REMARK minimizedAffinity 2.9841063
REMARK minimizedRMSD -1
REMARK  3 active torsions:
REMARK  status: ('A' for Active; 'I' for Inactive)
REMARK    1  A    between atoms: C3'_2  and  C2'_3 
REMARK    2  A    between atoms: C2'_3  and  C1'_4 
REMARK    3  A    between atoms: C1'_4  and  C1_5 
ROOT
ATOM      1  C1  N4B d   1       4.062   5.030  -4.352  0.00  0.00    -0.075 A 
ATOM      2  C2  N4B d   1       4.870   5.821  -5.197  0.00  0.00     0.002 A 
ATOM      3  C3  N4B d   1       5.820   5.228  -5.992  0.00  0.00     0.002 A 
ATOM      4  C4  N4B d   1       5.991   3.852  -5.945  0.00  0.00    -0.004 A 
ATOM      5  C5  N4B d   1       5.189   3.092  -5.145  0.00  0.00     0.002 A 
ATOM      6  C6  N4B d   1       4.228   3.675  -4.344  0.00  0.00     0.002 A 
ENDROOT
BRANCH   1   7
ATOM      7  C1' N4B d   1       3.070   5.641  -3.401  0.00  0.00     0.057 C 
BRANCH   7   8
ATOM      8  C2' N4B d   1       3.773   5.973  -2.089  0.00  0.00     0.009 C 
BRANCH   8   9
ATOM      9  C3' N4B d   1       5.283   5.999  -2.244  0.00  0.00     0.004 C 
ATOM     10  C4' N4B d   1       5.996   5.337  -1.103  0.00  0.00     0.003 C 
ENDBRANCH   8   9
ENDBRANCH   7   8
ENDBRANCH   1   7
TORSDOF 3
ENDMDL
