MODEL 1
REMARK minimizedAffinity 19.3986931
REMARK minimizedRMSD -1
REMARK  3 active torsions:
REMARK  status: ('A' for Active; 'I' for Inactive)
REMARK    1  A    between atoms: C3'_2  and  C2'_3 
REMARK    2  A    between atoms: C2'_3  and  C1'_4 
REMARK    3  A    between atoms: C1'_4  and  C1_5 
ROOT
ATOM      1  C1  N4B d   1      -0.379  -2.143  -2.848  0.00  0.00    -0.075 A 
ATOM      2  C2  N4B d   1      -0.707  -1.093  -1.962  0.00  0.00     0.002 A 
ATOM      3  C3  N4B d   1      -0.355  -1.177  -0.637  0.00  0.00     0.002 A 
ATOM      4  C4  N4B d   1       0.307  -2.304  -0.174  0.00  0.00    -0.004 A 
ATOM      5  C5  N4B d   1       0.643  -3.302  -1.041  0.00  0.00     0.002 A 
ATOM      6  C6  N4B d   1       0.298  -3.230  -2.376  0.00  0.00     0.002 A 
ENDROOT
BRANCH   1   7
ATOM      7  C1' N4B d   1      -0.819  -2.135  -4.286  0.00  0.00     0.057 C 
BRANCH   7   8
ATOM      8  C2' N4B d   1      -1.925  -3.169  -4.477  0.00  0.00     0.009 C 
BRANCH   8   9
ATOM      9  C3' N4B d   1      -1.728  -3.983  -5.745  0.00  0.00     0.004 C 
ATOM     10  C4' N4B d   1      -2.028  -5.440  -5.551  0.00  0.00     0.003 C 
ENDBRANCH   8   9
ENDBRANCH   7   8
ENDBRANCH   1   7
TORSDOF 3
ENDMDL
