MODEL 1
REMARK minimizedAffinity 5.85842562
REMARK minimizedRMSD -1
REMARK  3 active torsions:
REMARK  status: ('A' for Active; 'I' for Inactive)
REMARK    1  A    between atoms: C3'_2  and  C2'_3 
REMARK    2  A    between atoms: C2'_3  and  C1'_4 
REMARK    3  A    between atoms: C1'_4  and  C1_5 
ROOT
ATOM      1  C1  N4B d   1       1.779  -2.008  -2.628  0.00  0.00    -0.075 A 
ATOM      2  C2  N4B d   1       1.347  -2.546  -1.396  0.00  0.00     0.002 A 
ATOM      3  C3  N4B d   1       0.043  -2.388  -0.997  0.00  0.00     0.002 A 
ATOM      4  C4  N4B d   1      -0.840  -1.683  -1.802  0.00  0.00    -0.004 A 
ATOM      5  C5  N4B d   1      -0.421  -1.189  -3.003  0.00  0.00     0.002 A 
ATOM      6  C6  N4B d   1       0.886  -1.344  -3.418  0.00  0.00     0.002 A 
ENDROOT
BRANCH   1   7
ATOM      7  C1' N4B d   1       3.217  -2.081  -3.066  0.00  0.00     0.057 C 
BRANCH   7   8
ATOM      8  C2' N4B d   1       3.270  -2.347  -4.568  0.00  0.00     0.009 C 
BRANCH   8   9
ATOM      9  C3' N4B d   1       3.798  -3.736  -4.881  0.00  0.00     0.004 C 
ATOM     10  C4' N4B d   1       4.625  -4.307  -3.768  0.00  0.00     0.003 C 
ENDBRANCH   8   9
ENDBRANCH   7   8
ENDBRANCH   1   7
TORSDOF 3
ENDMDL
