MODEL 1
REMARK minimizedAffinity 19.8086109
REMARK minimizedRMSD -1
REMARK  3 active torsions:
REMARK  status: ('A' for Active; 'I' for Inactive)
REMARK    1  A    between atoms: C3'_2  and  C2'_3 
REMARK    2  A    between atoms: C2'_3  and  C1'_4 
REMARK    3  A    between atoms: C1'_4  and  C1_5 
ROOT
ATOM      1  C1  N4B d   1      -3.798  -4.035  -4.574  0.00  0.00    -0.075 A 
ATOM      2  C2  N4B d   1      -3.166  -5.076  -5.290  0.00  0.00     0.002 A 
ATOM      3  C3  N4B d   1      -3.922  -5.994  -5.977  0.00  0.00     0.002 A 
ATOM      4  C4  N4B d   1      -5.306  -5.903  -5.948  0.00  0.00    -0.004 A 
ATOM      5  C5  N4B d   1      -5.908  -4.880  -5.275  0.00  0.00     0.002 A 
ATOM      6  C6  N4B d   1      -5.160  -3.948  -4.583  0.00  0.00     0.002 A 
ENDROOT
BRANCH   1   7
ATOM      7  C1' N4B d   1      -3.018  -3.059  -3.738  0.00  0.00     0.057 C 
BRANCH   7   8
ATOM      8  C2' N4B d   1      -1.595  -2.959  -4.281  0.00  0.00     0.009 C 
BRANCH   8   9
ATOM      9  C3' N4B d   1      -0.767  -1.937  -3.521  0.00  0.00     0.004 C 
ATOM     10  C4' N4B d   1      -0.733  -2.200  -2.045  0.00  0.00     0.003 C 
ENDBRANCH   8   9
ENDBRANCH   7   8
ENDBRANCH   1   7
TORSDOF 3
ENDMDL
