MODEL 1
REMARK minimizedAffinity 11.1605635
REMARK minimizedRMSD -1
REMARK  3 active torsions:
REMARK  status: ('A' for Active; 'I' for Inactive)
REMARK    1  A    between atoms: C3'_2  and  C2'_3 
REMARK    2  A    between atoms: C2'_3  and  C1'_4 
REMARK    3  A    between atoms: C1'_4  and  C1_5 
ROOT
ATOM      1  C1  N4B d   1       4.850   5.893  -3.291  0.00  0.00    -0.075 A 
ATOM      2  C2  N4B d   1       5.050   5.734  -4.680  0.00  0.00     0.002 A 
ATOM      3  C3  N4B d   1       3.971   5.657  -5.525  0.00  0.00     0.002 A 
ATOM      4  C4  N4B d   1       2.687   5.718  -5.005  0.00  0.00    -0.004 A 
ATOM      5  C5  N4B d   1       2.502   5.897  -3.665  0.00  0.00     0.002 A 
ATOM      6  C6  N4B d   1       3.577   5.979  -2.804  0.00  0.00     0.002 A 
ENDROOT
BRANCH   1   7
ATOM      7  C1' N4B d   1       5.997   5.895  -2.318  0.00  0.00     0.057 C 
BRANCH   7   8
ATOM      8  C2' N4B d   1       6.000   4.580  -1.544  0.00  0.00     0.009 C 
BRANCH   8   9
ATOM      9  C3' N4B d   1       5.787   4.796  -0.055  0.00  0.00     0.004 C 
ATOM     10  C4' N4B d   1       5.983   3.545   0.747  0.00  0.00     0.003 C 
ENDBRANCH   8   9
ENDBRANCH   7   8
ENDBRANCH   1   7
TORSDOF 3
ENDMDL
