MODEL 1
REMARK minimizedAffinity 9.41179085
REMARK minimizedRMSD -1
REMARK  3 active torsions:
REMARK  status: ('A' for Active; 'I' for Inactive)
REMARK    1  A    between atoms: C3'_2  and  C2'_3 
REMARK    2  A    between atoms: C2'_3  and  C1'_4 
REMARK    3  A    between atoms: C1'_4  and  C1_5 
ROOT
ATOM      1  C1  N4B d   1       1.650   4.343  -0.007  0.00  0.00    -0.075 A 
ATOM      2  C2  N4B d   1       0.815   4.502   1.121  0.00  0.00     0.002 A 
ATOM      3  C3  N4B d   1      -0.288   5.316   1.049  0.00  0.00     0.002 A 
ATOM      4  C4  N4B d   1      -0.566   5.994  -0.129  0.00  0.00    -0.004 A 
ATOM      5  C5  N4B d   1       0.231   5.814  -1.222  0.00  0.00     0.002 A 
ATOM      6  C6  N4B d   1       1.342   4.996  -1.165  0.00  0.00     0.002 A 
ENDROOT
BRANCH   1   7
ATOM      7  C1' N4B d   1       2.915   3.531   0.050  0.00  0.00     0.057 C 
BRANCH   7   8
ATOM      8  C2' N4B d   1       4.099   4.465   0.281  0.00  0.00     0.009 C 
BRANCH   8   9
ATOM      9  C3' N4B d   1       4.871   4.732  -1.000  0.00  0.00     0.004 C 
ATOM     10  C4' N4B d   1       5.971   5.734  -0.817  0.00  0.00     0.003 C 
ENDBRANCH   8   9
ENDBRANCH   7   8
ENDBRANCH   1   7
TORSDOF 3
ENDMDL
