MODEL 1
REMARK minimizedAffinity 4.18910837
REMARK minimizedRMSD -1
REMARK  3 active torsions:
REMARK  status: ('A' for Active; 'I' for Inactive)
REMARK    1  A    between atoms: C3'_2  and  C2'_3 
REMARK    2  A    between atoms: C2'_3  and  C1'_4 
REMARK    3  A    between atoms: C1'_4  and  C1_5 
ROOT
ATOM      1  C1  N4B d   1       1.115  -2.616  -3.556  0.00  0.00    -0.075 A 
ATOM      2  C2  N4B d   1      -0.003  -2.121  -2.849  0.00  0.00     0.002 A 
ATOM      3  C3  N4B d   1      -1.244  -2.124  -3.437  0.00  0.00     0.002 A 
ATOM      4  C4  N4B d   1      -1.387  -2.596  -4.733  0.00  0.00    -0.004 A 
ATOM      5  C5  N4B d   1      -0.307  -3.096  -5.400  0.00  0.00     0.002 A 
ATOM      6  C6  N4B d   1       0.945  -3.103  -4.819  0.00  0.00     0.002 A 
ENDROOT
BRANCH   1   7
ATOM      7  C1' N4B d   1       2.505  -2.554  -2.986  0.00  0.00     0.057 C 
BRANCH   7   8
ATOM      8  C2' N4B d   1       3.487  -2.196  -4.098  0.00  0.00     0.009 C 
BRANCH   8   9
ATOM      9  C3' N4B d   1       4.572  -1.249  -3.615  0.00  0.00     0.004 C 
ATOM     10  C4' N4B d   1       5.211  -0.479  -4.733  0.00  0.00     0.003 C 
ENDBRANCH   8   9
ENDBRANCH   7   8
ENDBRANCH   1   7
TORSDOF 3
ENDMDL
