MODEL 1
REMARK minimizedAffinity 14.6529989
REMARK minimizedRMSD -1
REMARK  3 active torsions:
REMARK  status: ('A' for Active; 'I' for Inactive)
REMARK    1  A    between atoms: C3'_2  and  C2'_3 
REMARK    2  A    between atoms: C2'_3  and  C1'_4 
REMARK    3  A    between atoms: C1'_4  and  C1_5 
ROOT
ATOM      1  C1  N4B d   1       2.334   4.677  -0.594  0.00  0.00    -0.075 A 
ATOM      2  C2  N4B d   1       1.861   3.904   0.489  0.00  0.00     0.002 A 
ATOM      3  C3  N4B d   1       0.613   4.143   1.010  0.00  0.00     0.002 A 
ATOM      4  C4  N4B d   1      -0.169   5.157   0.479  0.00  0.00    -0.004 A 
ATOM      5  C5  N4B d   1       0.285   5.883  -0.583  0.00  0.00     0.002 A 
ATOM      6  C6  N4B d   1       1.536   5.651  -1.119  0.00  0.00     0.002 A 
ENDROOT
BRANCH   1   7
ATOM      7  C1' N4B d   1       3.726   4.510  -1.141  0.00  0.00     0.057 C 
BRANCH   7   8
ATOM      8  C2' N4B d   1       4.628   5.590  -0.552  0.00  0.00     0.009 C 
BRANCH   8   9
ATOM      9  C3' N4B d   1       5.953   5.687  -1.289  0.00  0.00     0.004 C 
ATOM     10  C4' N4B d   1       5.998   4.830  -2.519  0.00  0.00     0.003 C 
ENDBRANCH   8   9
ENDBRANCH   7   8
ENDBRANCH   1   7
TORSDOF 3
ENDMDL
