MODEL 1
REMARK minimizedAffinity 11.0057268
REMARK minimizedRMSD -1
REMARK  3 active torsions:
REMARK  status: ('A' for Active; 'I' for Inactive)
REMARK    1  A    between atoms: C3'_2  and  C2'_3 
REMARK    2  A    between atoms: C2'_3  and  C1'_4 
REMARK    3  A    between atoms: C1'_4  and  C1_5 
ROOT
ATOM      1  C1  N4B d   1      -0.803  -0.966  -1.311  0.00  0.00    -0.075 A 
ATOM      2  C2  N4B d   1      -0.021  -1.882  -0.574  0.00  0.00     0.002 A 
ATOM      3  C3  N4B d   1       0.485  -3.002  -1.188  0.00  0.00     0.002 A 
ATOM      4  C4  N4B d   1       0.207  -3.234  -2.526  0.00  0.00    -0.004 A 
ATOM      5  C5  N4B d   1      -0.528  -2.331  -3.237  0.00  0.00     0.002 A 
ATOM      6  C6  N4B d   1      -1.039  -1.200  -2.634  0.00  0.00     0.002 A 
ENDROOT
BRANCH   1   7
ATOM      7  C1' N4B d   1      -1.449   0.228  -0.662  0.00  0.00     0.057 C 
BRANCH   7   8
ATOM      8  C2' N4B d   1      -0.590   1.463  -0.918  0.00  0.00     0.009 C 
BRANCH   8   9
ATOM      9  C3' N4B d   1      -0.798   2.530   0.143  0.00  0.00     0.004 C 
ATOM     10  C4' N4B d   1       0.471   3.243   0.506  0.00  0.00     0.003 C 
ENDBRANCH   8   9
ENDBRANCH   7   8
ENDBRANCH   1   7
TORSDOF 3
ENDMDL
