MODEL 1
REMARK minimizedAffinity 3.25334382
REMARK minimizedRMSD -1
REMARK  0 active torsions:
REMARK  status: ('A' for Active; 'I' for Inactive)
ROOT
ATOM      1  C   UNL d   1       1.933  -1.426   0.958  0.00  0.00     0.124 A 
ATOM      2  C1  UNL d   1       1.153  -0.969  -0.095  0.00  0.00     0.062 A 
ATOM      3  C2  UNL d   1      -0.148  -0.531   0.136  0.00  0.00     0.162 A 
ATOM      4  C3  UNL d   1      -0.678  -0.548   1.426  0.00  0.00    -0.034 A 
ATOM      5  C4  UNL d   1       0.113  -1.010   2.480  0.00  0.00     0.162 A 
ATOM      6  C5  UNL d   1       1.412  -1.447   2.244  0.00  0.00     0.062 A 
ATOM      7  F   UNL d   1       2.164  -1.888   3.263  0.00  0.00    -0.097 F 
ATOM      8  F1  UNL d   1      -0.365  -1.040   3.733  0.00  0.00    -0.096 F 
ATOM      9  I   UNL d   1      -2.622   0.106   1.776  0.00  0.00    -0.060 I 
ATOM     10  F2  UNL d   1      -0.879  -0.094  -0.901  0.00  0.00    -0.096 F 
ATOM     11  F3  UNL d   1       1.653  -0.949  -1.339  0.00  0.00    -0.097 F 
ATOM     12  F4  UNL d   1       3.184  -1.848   0.732  0.00  0.00    -0.092 F 
ENDROOT
TORSDOF 0
ENDMDL
