MODEL 1
REMARK minimizedAffinity 1.88438785
REMARK minimizedRMSD -1
REMARK  0 active torsions:
REMARK  status: ('A' for Active; 'I' for Inactive)
ROOT
ATOM      1  C   UNL d   1       0.857  -0.309  -1.401  0.00  0.00     0.124 A 
ATOM      2  C1  UNL d   1       0.697   0.144  -2.703  0.00  0.00     0.062 A 
ATOM      3  C2  UNL d   1      -0.255   1.118  -2.994  0.00  0.00     0.162 A 
ATOM      4  C3  UNL d   1      -1.053   1.646  -1.979  0.00  0.00    -0.034 A 
ATOM      5  C4  UNL d   1      -0.886   1.185  -0.672  0.00  0.00     0.162 A 
ATOM      6  C5  UNL d   1       0.066   0.212  -0.387  0.00  0.00     0.062 A 
ATOM      7  F   UNL d   1       0.220  -0.225   0.872  0.00  0.00    -0.097 F 
ATOM      8  F1  UNL d   1      -1.637   1.672   0.328  0.00  0.00    -0.096 F 
ATOM      9  I   UNL d   1      -2.477   3.102  -2.409  0.00  0.00    -0.060 I 
ATOM     10  F2  UNL d   1      -0.388   1.537  -4.261  0.00  0.00    -0.096 F 
ATOM     11  F3  UNL d   1       1.459  -0.358  -3.685  0.00  0.00    -0.097 F 
ATOM     12  F4  UNL d   1       1.773  -1.246  -1.125  0.00  0.00    -0.092 F 
ENDROOT
TORSDOF 0
ENDMDL
