MODEL 1
REMARK minimizedAffinity 1.77302969
REMARK minimizedRMSD -1
REMARK  0 active torsions:
REMARK  status: ('A' for Active; 'I' for Inactive)
ROOT
ATOM      1  C   UNL d   1      -1.181   0.527  -0.242  0.00  0.00     0.124 A 
ATOM      2  C1  UNL d   1      -1.407   0.122   1.067  0.00  0.00     0.062 A 
ATOM      3  C2  UNL d   1      -0.596  -0.847   1.649  0.00  0.00     0.162 A 
ATOM      4  C3  UNL d   1       0.451  -1.418   0.924  0.00  0.00    -0.034 A 
ATOM      5  C4  UNL d   1       0.671  -1.006  -0.391  0.00  0.00     0.162 A 
ATOM      6  C5  UNL d   1      -0.143  -0.037  -0.969  0.00  0.00     0.062 A 
ATOM      7  F   UNL d   1       0.077   0.353  -2.233  0.00  0.00    -0.097 F 
ATOM      8  F1  UNL d   1       1.668  -1.534  -1.117  0.00  0.00    -0.096 F 
ATOM      9  I   UNL d   1       1.666  -2.867   1.792  0.00  0.00    -0.060 I 
ATOM     10  F2  UNL d   1      -0.837  -1.220   2.915  0.00  0.00    -0.096 F 
ATOM     11  F3  UNL d   1      -2.410   0.665   1.771  0.00  0.00    -0.097 F 
ATOM     12  F4  UNL d   1      -1.964   1.459  -0.800  0.00  0.00    -0.092 F 
ENDROOT
TORSDOF 0
ENDMDL
