MODEL 1
REMARK minimizedAffinity 16.8963604
REMARK minimizedRMSD -1
REMARK  0 active torsions:
REMARK  status: ('A' for Active; 'I' for Inactive)
ROOT
ATOM      1  C   UNL d   1      -1.488   4.218  -3.653  0.00  0.00     0.124 A 
ATOM      2  C1  UNL d   1      -2.199   3.177  -3.073  0.00  0.00     0.062 A 
ATOM      3  C2  UNL d   1      -1.531   2.055  -2.591  0.00  0.00     0.162 A 
ATOM      4  C3  UNL d   1      -0.142   1.969  -2.686  0.00  0.00    -0.034 A 
ATOM      5  C4  UNL d   1       0.567   3.019  -3.272  0.00  0.00     0.162 A 
ATOM      6  C5  UNL d   1      -0.106   4.138  -3.752  0.00  0.00     0.062 A 
ATOM      7  F   UNL d   1       0.583   5.143  -4.312  0.00  0.00    -0.097 F 
ATOM      8  F1  UNL d   1       1.903   2.969  -3.379  0.00  0.00    -0.096 F 
ATOM      9  I   UNL d   1       0.861   0.293  -1.967  0.00  0.00    -0.060 I 
ATOM     10  F2  UNL d   1      -2.244   1.064  -2.036  0.00  0.00    -0.096 F 
ATOM     11  F3  UNL d   1      -3.535   3.251  -2.977  0.00  0.00    -0.097 F 
ATOM     12  F4  UNL d   1      -2.133   5.296  -4.116  0.00  0.00    -0.092 F 
ENDROOT
TORSDOF 0
ENDMDL
