MODEL 1
REMARK minimizedAffinity 18.5173264
REMARK minimizedRMSD -1
REMARK  0 active torsions:
REMARK  status: ('A' for Active; 'I' for Inactive)
ROOT
ATOM      1  C   UNL d   1      -4.135   3.753  -3.471  0.00  0.00     0.124 A 
ATOM      2  C1  UNL d   1      -3.183   2.891  -2.943  0.00  0.00     0.062 A 
ATOM      3  C2  UNL d   1      -3.175   1.548  -3.309  0.00  0.00     0.162 A 
ATOM      4  C3  UNL d   1      -4.121   1.058  -4.209  0.00  0.00    -0.034 A 
ATOM      5  C4  UNL d   1      -5.075   1.931  -4.735  0.00  0.00     0.162 A 
ATOM      6  C5  UNL d   1      -5.080   3.272  -4.366  0.00  0.00     0.062 A 
ATOM      7  F   UNL d   1      -6.000   4.102  -4.877  0.00  0.00    -0.097 F 
ATOM      8  F1  UNL d   1      -5.999   1.493  -5.603  0.00  0.00    -0.096 F 
ATOM      9  I   UNL d   1      -4.111  -0.949  -4.759  0.00  0.00    -0.060 I 
ATOM     10  F2  UNL d   1      -2.244   0.739  -2.783  0.00  0.00    -0.096 F 
ATOM     11  F3  UNL d   1      -2.270   3.353  -2.076  0.00  0.00    -0.097 F 
ATOM     12  F4  UNL d   1      -4.142   5.044  -3.116  0.00  0.00    -0.092 F 
ENDROOT
TORSDOF 0
ENDMDL
