MODEL 1
REMARK minimizedAffinity -1.69562459
REMARK minimizedRMSD -1
REMARK  0 active torsions:
REMARK  status: ('A' for Active; 'I' for Inactive)
ROOT
ATOM      1  C   UNL d   1      -1.465   1.522  -2.087  0.00  0.00     0.124 A 
ATOM      2  C1  UNL d   1      -0.143   1.390  -1.683  0.00  0.00     0.062 A 
ATOM      3  C2  UNL d   1       0.159   0.802  -0.459  0.00  0.00     0.162 A 
ATOM      4  C3  UNL d   1      -0.862   0.341   0.372  0.00  0.00    -0.034 A 
ATOM      5  C4  UNL d   1      -2.188   0.478  -0.039  0.00  0.00     0.162 A 
ATOM      6  C5  UNL d   1      -2.486   1.066  -1.265  0.00  0.00     0.062 A 
ATOM      7  F   UNL d   1      -3.763   1.193  -1.652  0.00  0.00    -0.097 F 
ATOM      8  F1  UNL d   1      -3.195   0.046   0.735  0.00  0.00    -0.096 F 
ATOM      9  I   UNL d   1      -0.413  -0.538   2.205  0.00  0.00    -0.060 I 
ATOM     10  F2  UNL d   1       1.445   0.688  -0.095  0.00  0.00    -0.096 F 
ATOM     11  F3  UNL d   1       0.845   1.830  -2.475  0.00  0.00    -0.097 F 
ATOM     12  F4  UNL d   1      -1.754   2.089  -3.265  0.00  0.00    -0.092 F 
ENDROOT
TORSDOF 0
ENDMDL
