MODEL 1
REMARK minimizedAffinity -0.131121427
REMARK minimizedRMSD -1
REMARK  0 active torsions:
REMARK  status: ('A' for Active; 'I' for Inactive)
ROOT
ATOM      1  C   UNL d   1      -0.974   0.686   1.337  0.00  0.00     0.124 A 
ATOM      2  C1  UNL d   1      -1.237   2.018   1.049  0.00  0.00     0.062 A 
ATOM      3  C2  UNL d   1      -1.156   2.479  -0.262  0.00  0.00     0.162 A 
ATOM      4  C3  UNL d   1      -0.812   1.607  -1.295  0.00  0.00    -0.034 A 
ATOM      5  C4  UNL d   1      -0.549   0.269  -0.997  0.00  0.00     0.162 A 
ATOM      6  C5  UNL d   1      -0.630  -0.187   0.315  0.00  0.00     0.062 A 
ATOM      7  F   UNL d   1      -0.376  -1.474   0.591  0.00  0.00    -0.097 F 
ATOM      8  F1  UNL d   1      -0.215  -0.596  -1.966  0.00  0.00    -0.096 F 
ATOM      9  I   UNL d   1      -0.691   2.293  -3.256  0.00  0.00    -0.060 I 
ATOM     10  F2  UNL d   1      -1.415   3.771  -0.512  0.00  0.00    -0.096 F 
ATOM     11  F3  UNL d   1      -1.568   2.863   2.035  0.00  0.00    -0.097 F 
ATOM     12  F4  UNL d   1      -1.051   0.245   2.599  0.00  0.00    -0.092 F 
ENDROOT
TORSDOF 0
ENDMDL
