MODEL 1
REMARK minimizedAffinity -2.22166109
REMARK minimizedRMSD -1
REMARK  0 active torsions:
REMARK  status: ('A' for Active; 'I' for Inactive)
ROOT
ATOM      1  C   UNL d   1       1.240  -1.924   1.686  0.00  0.00     0.124 A 
ATOM      2  C1  UNL d   1       1.824  -1.974   0.428  0.00  0.00     0.062 A 
ATOM      3  C2  UNL d   1       1.298  -1.222  -0.619  0.00  0.00     0.162 A 
ATOM      4  C3  UNL d   1       0.181  -0.412  -0.411  0.00  0.00    -0.034 A 
ATOM      5  C4  UNL d   1      -0.401  -0.367   0.856  0.00  0.00     0.162 A 
ATOM      6  C5  UNL d   1       0.128  -1.121   1.899  0.00  0.00     0.062 A 
ATOM      7  F   UNL d   1      -0.438  -1.071   3.114  0.00  0.00    -0.097 F 
ATOM      8  F1  UNL d   1      -1.476   0.401   1.090  0.00  0.00    -0.096 F 
ATOM      9  I   UNL d   1      -0.608   0.713  -1.974  0.00  0.00    -0.060 I 
ATOM     10  F2  UNL d   1       1.882  -1.290  -1.824  0.00  0.00    -0.096 F 
ATOM     11  F3  UNL d   1       2.897  -2.750   0.219  0.00  0.00    -0.097 F 
ATOM     12  F4  UNL d   1       1.747  -2.649   2.691  0.00  0.00    -0.092 F 
ENDROOT
TORSDOF 0
ENDMDL
