MODEL 1
REMARK minimizedAffinity 2.82436705
REMARK minimizedRMSD -1
REMARK  0 active torsions:
REMARK  status: ('A' for Active; 'I' for Inactive)
ROOT
ATOM      1  C   UNL d   1       0.932  -1.213   1.434  0.00  0.00     0.124 A 
ATOM      2  C1  UNL d   1      -0.087  -0.360   1.837  0.00  0.00     0.062 A 
ATOM      3  C2  UNL d   1      -0.771   0.406   0.898  0.00  0.00     0.162 A 
ATOM      4  C3  UNL d   1      -0.439   0.324  -0.454  0.00  0.00    -0.034 A 
ATOM      5  C4  UNL d   1       0.588  -0.535  -0.852  0.00  0.00     0.162 A 
ATOM      6  C5  UNL d   1       1.268  -1.299   0.090  0.00  0.00     0.062 A 
ATOM      7  F   UNL d   1       2.252  -2.122  -0.301  0.00  0.00    -0.097 F 
ATOM      8  F1  UNL d   1       0.933  -0.638  -2.144  0.00  0.00    -0.096 F 
ATOM      9  I   UNL d   1      -1.459   1.469  -1.862  0.00  0.00    -0.060 I 
ATOM     10  F2  UNL d   1      -1.751   1.221   1.316  0.00  0.00    -0.096 F 
ATOM     11  F3  UNL d   1      -0.413  -0.274   3.135  0.00  0.00    -0.097 F 
ATOM     12  F4  UNL d   1       1.588  -1.949   2.340  0.00  0.00    -0.092 F 
ENDROOT
TORSDOF 0
ENDMDL
