MODEL 1
REMARK minimizedAffinity 4.90600777
REMARK minimizedRMSD -1
REMARK  0 active torsions:
REMARK  status: ('A' for Active; 'I' for Inactive)
ROOT
ATOM      1  C   UNL d   1       0.721  -1.386   1.854  0.00  0.00     0.124 A 
ATOM      2  C1  UNL d   1       1.134  -1.377   0.530  0.00  0.00     0.062 A 
ATOM      3  C2  UNL d   1       0.602  -0.452  -0.364  0.00  0.00     0.162 A 
ATOM      4  C3  UNL d   1      -0.350   0.473   0.065  0.00  0.00    -0.034 A 
ATOM      5  C4  UNL d   1      -0.762   0.458   1.399  0.00  0.00     0.162 A 
ATOM      6  C5  UNL d   1      -0.227  -0.469   2.288  0.00  0.00     0.062 A 
ATOM      7  F   UNL d   1      -0.627  -0.476   3.567  0.00  0.00    -0.097 F 
ATOM      8  F1  UNL d   1      -1.675   1.333   1.845  0.00  0.00    -0.096 F 
ATOM      9  I   UNL d   1      -1.149   1.858  -1.268  0.00  0.00    -0.060 I 
ATOM     10  F2  UNL d   1       1.020  -0.466  -1.638  0.00  0.00    -0.096 F 
ATOM     11  F3  UNL d   1       2.049  -2.262   0.108  0.00  0.00    -0.097 F 
ATOM     12  F4  UNL d   1       1.234  -2.277   2.712  0.00  0.00    -0.092 F 
ENDROOT
TORSDOF 0
ENDMDL
