MODEL 1
REMARK minimizedAffinity 14.224431
REMARK minimizedRMSD -1
REMARK  1 active torsions:
REMARK  status: ('A' for Active; 'I' for Inactive)
REMARK    1  A    between atoms: N_2  and  C1_3 
ROOT
ATOM      1  C1  UNL d   1      -3.627  -4.498   0.878  0.00  0.00     0.143 A 
ATOM      2  C2  UNL d   1      -2.722  -4.360   1.935  0.00  0.00    -0.057 A 
ATOM      3  C3  UNL d   1      -2.929  -3.416   2.949  0.00  0.00     0.033 A 
ATOM      4  C4  UNL d   1      -4.034  -2.573   2.908  0.00  0.00    -0.042 A 
ATOM      5  C5  UNL d   1      -4.934  -2.676   1.853  0.00  0.00     0.033 A 
ATOM      6  C6  UNL d   1      -4.725  -3.624   0.847  0.00  0.00    -0.057 A 
ENDROOT
BRANCH   1   7
ATOM      7  N   UNL d   1      -3.426  -5.349  -0.212  0.00  0.00    -0.732 N 
ATOM      8  C   UNL d   1      -4.549  -5.970  -0.880  0.00  0.00     0.284 C 
ATOM      9  H3  UNL d   1      -2.703  -5.009  -0.842  0.00  0.00     0.395 HD
ENDBRANCH   1   7
TORSDOF 1
ENDMDL
