MODEL 1
REMARK minimizedAffinity 4.69829559
REMARK minimizedRMSD -1
REMARK  1 active torsions:
REMARK  status: ('A' for Active; 'I' for Inactive)
REMARK    1  A    between atoms: N_2  and  C1_3 
ROOT
ATOM      1  C1  UNL d   1       0.338  -1.189   3.208  0.00  0.00     0.143 A 
ATOM      2  C2  UNL d   1      -1.027  -1.300   3.494  0.00  0.00    -0.057 A 
ATOM      3  C3  UNL d   1      -1.538  -0.938   4.746  0.00  0.00     0.033 A 
ATOM      4  C4  UNL d   1      -0.685  -0.485   5.748  0.00  0.00    -0.042 A 
ATOM      5  C5  UNL d   1       0.679  -0.391   5.494  0.00  0.00     0.033 A 
ATOM      6  C6  UNL d   1       1.182  -0.747   4.239  0.00  0.00    -0.057 A 
ENDROOT
BRANCH   1   7
ATOM      7  N   UNL d   1       0.921  -1.625   2.015  0.00  0.00    -0.732 N 
ATOM      8  C   UNL d   1       1.282  -3.015   1.836  0.00  0.00     0.284 C 
ATOM      9  H3  UNL d   1       0.496  -1.198   1.196  0.00  0.00     0.395 HD
ENDBRANCH   1   7
TORSDOF 1
ENDMDL
