MODEL 1
REMARK minimizedAffinity 4.21064329
REMARK minimizedRMSD -1
REMARK  1 active torsions:
REMARK  status: ('A' for Active; 'I' for Inactive)
REMARK    1  A    between atoms: N_2  and  C1_3 
ROOT
ATOM      1  C1  UNL d   1      -1.730   2.307  -1.966  0.00  0.00     0.143 A 
ATOM      2  C2  UNL d   1      -1.088   3.228  -2.800  0.00  0.00    -0.057 A 
ATOM      3  C3  UNL d   1       0.161   3.765  -2.464  0.00  0.00     0.033 A 
ATOM      4  C4  UNL d   1       0.778   3.411  -1.269  0.00  0.00    -0.042 A 
ATOM      5  C5  UNL d   1       0.147   2.515  -0.412  0.00  0.00     0.033 A 
ATOM      6  C6  UNL d   1      -1.097   1.978  -0.757  0.00  0.00    -0.057 A 
ENDROOT
BRANCH   1   7
ATOM      7  N   UNL d   1      -3.016   1.813  -2.197  0.00  0.00    -0.732 N 
ATOM      8  C   UNL d   1      -4.151   2.347  -1.477  0.00  0.00     0.284 C 
ATOM      9  H3  UNL d   1      -3.193   1.639  -3.184  0.00  0.00     0.395 HD
ENDBRANCH   1   7
TORSDOF 1
ENDMDL
