MODEL 1
REMARK minimizedAffinity 0.994801521
REMARK minimizedRMSD -1
REMARK  1 active torsions:
REMARK  status: ('A' for Active; 'I' for Inactive)
REMARK    1  A    between atoms: N_2  and  C1_3 
ROOT
ATOM      1  C1  UNL d   1       0.029  -0.865   3.566  0.00  0.00     0.143 A 
ATOM      2  C2  UNL d   1       0.768  -0.231   2.561  0.00  0.00    -0.057 A 
ATOM      3  C3  UNL d   1       1.200  -0.930   1.427  0.00  0.00     0.033 A 
ATOM      4  C4  UNL d   1       0.925  -2.287   1.292  0.00  0.00    -0.042 A 
ATOM      5  C5  UNL d   1       0.214  -2.943   2.290  0.00  0.00     0.033 A 
ATOM      6  C6  UNL d   1      -0.221  -2.238   3.417  0.00  0.00    -0.057 A 
ENDROOT
BRANCH   1   7
ATOM      7  N   UNL d   1      -0.343  -0.249   4.763  0.00  0.00    -0.732 N 
ATOM      8  C   UNL d   1      -0.375  -1.000   6.000  0.00  0.00     0.284 C 
ATOM      9  H3  UNL d   1       0.043   0.688   4.855  0.00  0.00     0.395 HD
ENDBRANCH   1   7
TORSDOF 1
ENDMDL
