MODEL 1
REMARK minimizedAffinity 10.8955555
REMARK minimizedRMSD -1
REMARK  1 active torsions:
REMARK  status: ('A' for Active; 'I' for Inactive)
REMARK    1  A    between atoms: N_2  and  C1_3 
ROOT
ATOM      1  C1  UNL d   1       0.586  -0.157   4.030  0.00  0.00     0.143 A 
ATOM      2  C2  UNL d   1       1.107  -0.249   2.734  0.00  0.00    -0.057 A 
ATOM      3  C3  UNL d   1       2.451   0.043   2.470  0.00  0.00     0.033 A 
ATOM      4  C4  UNL d   1       3.293   0.462   3.495  0.00  0.00    -0.042 A 
ATOM      5  C5  UNL d   1       2.790   0.584   4.785  0.00  0.00     0.033 A 
ATOM      6  C6  UNL d   1       1.449   0.284   5.044  0.00  0.00    -0.057 A 
ENDROOT
BRANCH   1   7
ATOM      7  N   UNL d   1      -0.764  -0.339   4.340  0.00  0.00    -0.732 N 
ATOM      8  C   UNL d   1      -1.199  -0.424   5.717  0.00  0.00     0.284 C 
ATOM      9  H3  UNL d   1      -1.377   0.212   3.744  0.00  0.00     0.395 HD
ENDBRANCH   1   7
TORSDOF 1
ENDMDL
