MODEL 1
REMARK minimizedAffinity 6.98464155
REMARK minimizedRMSD -1
REMARK  1 active torsions:
REMARK  status: ('A' for Active; 'I' for Inactive)
REMARK    1  A    between atoms: N_2  and  C1_3 
ROOT
ATOM      1  C1  UNL d   1       0.207  -0.912   3.906  0.00  0.00     0.143 A 
ATOM      2  C2  UNL d   1       1.069  -0.371   2.945  0.00  0.00    -0.057 A 
ATOM      3  C3  UNL d   1       1.274  -1.006   1.714  0.00  0.00     0.033 A 
ATOM      4  C4  UNL d   1       0.642  -2.212   1.433  0.00  0.00    -0.042 A 
ATOM      5  C5  UNL d   1      -0.199  -2.781   2.383  0.00  0.00     0.033 A 
ATOM      6  C6  UNL d   1      -0.406  -2.139   3.607  0.00  0.00    -0.057 A 
ENDROOT
BRANCH   1   7
ATOM      7  N   UNL d   1       0.038  -0.380   5.186  0.00  0.00    -0.732 N 
ATOM      8  C   UNL d   1      -1.112  -0.740   5.988  0.00  0.00     0.284 C 
ATOM      9  H3  UNL d   1       0.910  -0.335   5.707  0.00  0.00     0.395 HD
ENDBRANCH   1   7
TORSDOF 1
ENDMDL
