MODEL 1
REMARK minimizedAffinity 10.2929068
REMARK minimizedRMSD -1
REMARK  1 active torsions:
REMARK  status: ('A' for Active; 'I' for Inactive)
REMARK    1  A    between atoms: N_2  and  C1_3 
ROOT
ATOM      1  C1  UNL d   1      -4.716  -4.957   0.304  0.00  0.00     0.143 A 
ATOM      2  C2  UNL d   1      -3.545  -4.528   0.938  0.00  0.00    -0.057 A 
ATOM      3  C3  UNL d   1      -3.592  -3.755   2.104  0.00  0.00     0.033 A 
ATOM      4  C4  UNL d   1      -4.816  -3.371   2.643  0.00  0.00    -0.042 A 
ATOM      5  C5  UNL d   1      -5.993  -3.765   2.015  0.00  0.00     0.033 A 
ATOM      6  C6  UNL d   1      -5.939  -4.543   0.855  0.00  0.00    -0.057 A 
ENDROOT
BRANCH   1   7
ATOM      7  N   UNL d   1      -4.735  -5.644  -0.912  0.00  0.00    -0.732 N 
ATOM      8  C   UNL d   1      -5.990  -5.998  -1.539  0.00  0.00     0.284 C 
ATOM      9  H3  UNL d   1      -4.027  -5.306  -1.560  0.00  0.00     0.395 HD
ENDBRANCH   1   7
TORSDOF 1
ENDMDL
