MODEL 1
REMARK minimizedAffinity 11.1797171
REMARK minimizedRMSD -1
REMARK  1 active torsions:
REMARK  status: ('A' for Active; 'I' for Inactive)
REMARK    1  A    between atoms: N_2  and  C1_3 
ROOT
ATOM      1  C1  UNL d   1      -0.960  -1.947   2.939  0.00  0.00     0.143 A 
ATOM      2  C2  UNL d   1      -0.482  -0.880   3.708  0.00  0.00    -0.057 A 
ATOM      3  C3  UNL d   1       0.623  -0.126   3.295  0.00  0.00     0.033 A 
ATOM      4  C4  UNL d   1       1.288  -0.444   2.115  0.00  0.00    -0.042 A 
ATOM      5  C5  UNL d   1       0.845  -1.515   1.348  0.00  0.00     0.033 A 
ATOM      6  C6  UNL d   1      -0.262  -2.261   1.762  0.00  0.00    -0.057 A 
ENDROOT
BRANCH   1   7
ATOM      7  N   UNL d   1      -1.993  -2.796   3.345  0.00  0.00    -0.732 N 
ATOM      8  C   UNL d   1      -2.960  -3.290   2.388  0.00  0.00     0.284 C 
ATOM      9  H3  UNL d   1      -1.681  -3.493   4.017  0.00  0.00     0.395 HD
ENDBRANCH   1   7
TORSDOF 1
ENDMDL
