MODEL 1
REMARK minimizedAffinity 1.37578344
REMARK minimizedRMSD -1
REMARK  1 active torsions:
REMARK  status: ('A' for Active; 'I' for Inactive)
REMARK    1  A    between atoms: N_2  and  C1_3 
ROOT
ATOM      1  C1  UNL d   1      -4.672  -5.198   1.297  0.00  0.00     0.143 A 
ATOM      2  C2  UNL d   1      -5.050  -3.868   1.507  0.00  0.00    -0.057 A 
ATOM      3  C3  UNL d   1      -4.580  -3.145   2.610  0.00  0.00     0.033 A 
ATOM      4  C4  UNL d   1      -3.744  -3.751   3.542  0.00  0.00    -0.042 A 
ATOM      5  C5  UNL d   1      -3.375  -5.080   3.367  0.00  0.00     0.033 A 
ATOM      6  C6  UNL d   1      -3.842  -5.795   2.260  0.00  0.00    -0.057 A 
ENDROOT
BRANCH   1   7
ATOM      7  N   UNL d   1      -5.184  -6.000   0.274  0.00  0.00    -0.732 N 
ATOM      8  C   UNL d   1      -4.573  -6.000  -1.038  0.00  0.00     0.284 C 
ATOM      9  H3  UNL d   1      -5.459  -6.922   0.604  0.00  0.00     0.395 HD
ENDBRANCH   1   7
TORSDOF 1
ENDMDL
