MODEL 1
REMARK minimizedAffinity 18.0426369
REMARK minimizedRMSD -1
REMARK  1 active torsions:
REMARK  status: ('A' for Active; 'I' for Inactive)
REMARK    1  A    between atoms: N_2  and  C1_3 
ROOT
ATOM      1  C1  UNL d   1      -1.814   3.659  -3.485  0.00  0.00     0.143 A 
ATOM      2  C2  UNL d   1      -1.398   4.895  -2.978  0.00  0.00    -0.057 A 
ATOM      3  C3  UNL d   1      -1.214   6.000  -3.819  0.00  0.00     0.033 A 
ATOM      4  C4  UNL d   1      -1.416   5.879  -5.190  0.00  0.00    -0.042 A 
ATOM      5  C5  UNL d   1      -1.805   4.654  -5.718  0.00  0.00     0.033 A 
ATOM      6  C6  UNL d   1      -1.994   3.556  -4.873  0.00  0.00    -0.057 A 
ENDROOT
BRANCH   1   7
ATOM      7  N   UNL d   1      -1.920   2.499  -2.714  0.00  0.00    -0.732 N 
ATOM      8  C   UNL d   1      -0.782   2.001  -1.971  0.00  0.00     0.284 C 
ATOM      9  H3  UNL d   1      -2.801   2.446  -2.209  0.00  0.00     0.395 HD
ENDBRANCH   1   7
TORSDOF 1
ENDMDL
