MODEL 1
REMARK minimizedAffinity 10.1017647
REMARK minimizedRMSD -1
REMARK  1 active torsions:
REMARK  status: ('A' for Active; 'I' for Inactive)
REMARK    1  A    between atoms: N_2  and  C1_3 
ROOT
ATOM      1  C1  UNL d   1       1.513  -1.810   1.805  0.00  0.00     0.143 A 
ATOM      2  C2  UNL d   1       1.818  -3.172   1.899  0.00  0.00    -0.057 A 
ATOM      3  C3  UNL d   1       0.824  -4.150   1.771  0.00  0.00     0.033 A 
ATOM      4  C4  UNL d   1      -0.502  -3.779   1.575  0.00  0.00    -0.042 A 
ATOM      5  C5  UNL d   1      -0.832  -2.431   1.503  0.00  0.00     0.033 A 
ATOM      6  C6  UNL d   1       0.166  -1.460   1.626  0.00  0.00    -0.057 A 
ENDROOT
BRANCH   1   7
ATOM      7  N   UNL d   1       2.441  -0.789   2.023  0.00  0.00    -0.732 N 
ATOM      8  C   UNL d   1       3.749  -0.836   1.404  0.00  0.00     0.284 C 
ATOM      9  H3  UNL d   1       2.012   0.134   2.017  0.00  0.00     0.395 HD
ENDBRANCH   1   7
TORSDOF 1
ENDMDL
