MODEL 1
REMARK minimizedAffinity 14.3492947
REMARK minimizedRMSD -1
REMARK  1 active torsions:
REMARK  status: ('A' for Active; 'I' for Inactive)
REMARK    1  A    between atoms: N_2  and  C1_3 
ROOT
ATOM      1  C1  UNL d   1      -3.946   2.499  -2.634  0.00  0.00     0.143 A 
ATOM      2  C2  UNL d   1      -4.319   3.599  -1.853  0.00  0.00    -0.057 A 
ATOM      3  C3  UNL d   1      -3.572   4.783  -1.864  0.00  0.00     0.033 A 
ATOM      4  C4  UNL d   1      -2.419   4.879  -2.636  0.00  0.00    -0.042 A 
ATOM      5  C5  UNL d   1      -2.016   3.790  -3.401  0.00  0.00     0.033 A 
ATOM      6  C6  UNL d   1      -2.770   2.612  -3.391  0.00  0.00    -0.057 A 
ENDROOT
BRANCH   1   7
ATOM      7  N   UNL d   1      -4.591   1.261  -2.591  0.00  0.00    -0.732 N 
ATOM      8  C   UNL d   1      -5.994   1.148  -2.928  0.00  0.00     0.284 C 
ATOM      9  H3  UNL d   1      -4.013   0.509  -2.961  0.00  0.00     0.395 HD
ENDBRANCH   1   7
TORSDOF 1
ENDMDL
