MODEL 1
REMARK minimizedAffinity 2.39440179
REMARK minimizedRMSD -1
REMARK  1 active torsions:
REMARK  status: ('A' for Active; 'I' for Inactive)
REMARK    1  A    between atoms: N_2  and  C1_3 
ROOT
ATOM      1  C1  UNL d   1       2.801  -4.750  -5.602  0.00  0.00     0.143 A 
ATOM      2  C2  UNL d   1       4.008  -5.425  -5.814  0.00  0.00    -0.057 A 
ATOM      3  C3  UNL d   1       5.207  -4.726  -5.996  0.00  0.00     0.033 A 
ATOM      4  C4  UNL d   1       5.216  -3.335  -6.000  0.00  0.00    -0.042 A 
ATOM      5  C5  UNL d   1       4.023  -2.644  -5.817  0.00  0.00     0.033 A 
ATOM      6  C6  UNL d   1       2.830  -3.347  -5.628  0.00  0.00    -0.057 A 
ENDROOT
BRANCH   1   7
ATOM      7  N   UNL d   1       1.560  -5.386  -5.513  0.00  0.00    -0.732 N 
ATOM      8  C   UNL d   1       0.341  -4.613  -5.411  0.00  0.00     0.284 C 
ATOM      9  H3  UNL d   1       1.491  -6.192  -6.130  0.00  0.00     0.395 HD
ENDBRANCH   1   7
TORSDOF 1
ENDMDL
