MODEL 1
REMARK minimizedAffinity 12.1683159
REMARK minimizedRMSD -1
REMARK  1 active torsions:
REMARK  status: ('A' for Active; 'I' for Inactive)
REMARK    1  A    between atoms: N_2  and  C1_3 
ROOT
ATOM      1  C1  UNL d   1       2.347  -1.433   1.138  0.00  0.00     0.143 A 
ATOM      2  C2  UNL d   1       1.119  -1.898   1.619  0.00  0.00    -0.057 A 
ATOM      3  C3  UNL d   1       0.498  -1.300   2.722  0.00  0.00     0.033 A 
ATOM      4  C4  UNL d   1       1.110  -0.241   3.383  0.00  0.00    -0.042 A 
ATOM      5  C5  UNL d   1       2.343   0.222   2.937  0.00  0.00     0.033 A 
ATOM      6  C6  UNL d   1       2.956  -0.375   1.831  0.00  0.00    -0.057 A 
ENDROOT
BRANCH   1   7
ATOM      7  N   UNL d   1       3.062  -2.048   0.107  0.00  0.00    -0.732 N 
ATOM      8  C   UNL d   1       2.441  -3.061  -0.719  0.00  0.00     0.284 C 
ATOM      9  H3  UNL d   1       3.644  -1.392  -0.408  0.00  0.00     0.395 HD
ENDBRANCH   1   7
TORSDOF 1
ENDMDL
