MODEL 1
REMARK minimizedAffinity 3.49014068
REMARK minimizedRMSD -1
REMARK  1 active torsions:
REMARK  status: ('A' for Active; 'I' for Inactive)
REMARK    1  A    between atoms: N_2  and  C1_3 
ROOT
ATOM      1  C1  UNL d   1      -3.925  -5.196   0.692  0.00  0.00     0.143 A 
ATOM      2  C2  UNL d   1      -3.382  -5.533   1.937  0.00  0.00    -0.057 A 
ATOM      3  C3  UNL d   1      -3.431  -4.643   3.016  0.00  0.00     0.033 A 
ATOM      4  C4  UNL d   1      -4.001  -3.383   2.860  0.00  0.00    -0.042 A 
ATOM      5  C5  UNL d   1      -4.524  -3.017   1.625  0.00  0.00     0.033 A 
ATOM      6  C6  UNL d   1      -4.478  -3.914   0.553  0.00  0.00    -0.057 A 
ENDROOT
BRANCH   1   7
ATOM      7  N   UNL d   1      -3.820  -6.000  -0.446  0.00  0.00    -0.732 N 
ATOM      8  C   UNL d   1      -4.864  -6.000  -1.447  0.00  0.00     0.284 C 
ATOM      9  H3  UNL d   1      -2.877  -6.010  -0.828  0.00  0.00     0.395 HD
ENDBRANCH   1   7
TORSDOF 1
ENDMDL
