MODEL 1
REMARK minimizedAffinity 16.6163635
REMARK minimizedRMSD -1
REMARK  0 active torsions:
REMARK  status: ('A' for Active; 'I' for Inactive)
ROOT
ATOM      1  C   UNL d   1      -5.200  -0.337  -4.079  0.00  0.00     0.077 C 
ATOM      2  C1  UNL d   1      -5.236  -0.481  -2.587  0.00  0.00    -0.074 A 
ATOM      3  C2  UNL d   1      -5.983  -1.495  -1.980  0.00  0.00    -0.005 A 
ATOM      4  C3  UNL d   1      -6.000  -1.622  -0.591  0.00  0.00     0.006 A 
ATOM      5  C4  UNL d   1      -5.271  -0.737   0.204  0.00  0.00    -0.005 A 
ATOM      6  C5  UNL d   1      -4.517   0.283  -0.385  0.00  0.00    -0.074 A 
ATOM      7  C6  UNL d   1      -3.720   1.237   0.455  0.00  0.00     0.077 C 
ATOM      8  C7  UNL d   1      -4.500   0.400  -1.781  0.00  0.00    -0.001 A 
ENDROOT
TORSDOF 0
ENDMDL
