MODEL 1
REMARK minimizedAffinity 8.20197678
REMARK minimizedRMSD -1
REMARK  0 active torsions:
REMARK  status: ('A' for Active; 'I' for Inactive)
ROOT
ATOM      1  C   UNL d   1       6.000   2.768  -1.468  0.00  0.00     0.077 C 
ATOM      2  C1  UNL d   1       4.940   1.733  -1.229  0.00  0.00    -0.074 A 
ATOM      3  C2  UNL d   1       4.299   1.100  -2.299  0.00  0.00    -0.005 A 
ATOM      4  C3  UNL d   1       3.322   0.133  -2.061  0.00  0.00     0.006 A 
ATOM      5  C4  UNL d   1       2.977  -0.209  -0.754  0.00  0.00    -0.005 A 
ATOM      6  C5  UNL d   1       3.607   0.413   0.329  0.00  0.00    -0.074 A 
ATOM      7  C6  UNL d   1       3.254   0.049   1.740  0.00  0.00     0.077 C 
ATOM      8  C7  UNL d   1       4.593   1.378   0.082  0.00  0.00    -0.001 A 
ENDROOT
TORSDOF 0
ENDMDL
