MODEL 1
REMARK minimizedAffinity 12.7039061
REMARK minimizedRMSD -1
REMARK  0 active torsions:
REMARK  status: ('A' for Active; 'I' for Inactive)
ROOT
ATOM      1  C   UNL d   1       5.901   5.969  -2.938  0.00  0.00     0.077 C 
ATOM      2  C1  UNL d   1       5.929   4.497  -2.650  0.00  0.00    -0.074 A 
ATOM      3  C2  UNL d   1       5.959   3.562  -3.689  0.00  0.00    -0.005 A 
ATOM      4  C3  UNL d   1       5.995   2.197  -3.405  0.00  0.00     0.006 A 
ATOM      5  C4  UNL d   1       6.000   1.754  -2.082  0.00  0.00    -0.005 A 
ATOM      6  C5  UNL d   1       5.970   2.675  -1.030  0.00  0.00    -0.074 A 
ATOM      7  C6  UNL d   1       5.985   2.216   0.398  0.00  0.00     0.077 C 
ATOM      8  C7  UNL d   1       5.942   4.045  -1.323  0.00  0.00    -0.001 A 
ENDROOT
TORSDOF 0
ENDMDL
