MODEL 1
REMARK minimizedAffinity 11.1804876
REMARK minimizedRMSD -1
REMARK  0 active torsions:
REMARK  status: ('A' for Active; 'I' for Inactive)
ROOT
ATOM      1  C   UNL d   1      -4.963  -4.732  -4.899  0.00  0.00     0.077 C 
ATOM      2  C1  UNL d   1      -3.892  -3.754  -4.518  0.00  0.00    -0.074 A 
ATOM      3  C2  UNL d   1      -3.860  -2.471  -5.073  0.00  0.00    -0.005 A 
ATOM      4  C3  UNL d   1      -2.863  -1.569  -4.701  0.00  0.00     0.006 A 
ATOM      5  C4  UNL d   1      -1.889  -1.941  -3.774  0.00  0.00    -0.005 A 
ATOM      6  C5  UNL d   1      -1.905  -3.220  -3.208  0.00  0.00    -0.074 A 
ATOM      7  C6  UNL d   1      -0.872  -3.632  -2.203  0.00  0.00     0.077 C 
ATOM      8  C7  UNL d   1      -2.915  -4.118  -3.581  0.00  0.00    -0.001 A 
ENDROOT
TORSDOF 0
ENDMDL
