MODEL 1
REMARK minimizedAffinity 10.0266933
REMARK minimizedRMSD -1
REMARK  0 active torsions:
REMARK  status: ('A' for Active; 'I' for Inactive)
ROOT
ATOM      1  C   UNL d   1       2.405  -0.107  -0.512  0.00  0.00     0.077 C 
ATOM      2  C1  UNL d   1       3.654   0.722  -0.521  0.00  0.00    -0.074 A 
ATOM      3  C2  UNL d   1       4.268   1.111   0.674  0.00  0.00    -0.005 A 
ATOM      4  C3  UNL d   1       5.436   1.874   0.650  0.00  0.00     0.006 A 
ATOM      5  C4  UNL d   1       6.000   2.256  -0.568  0.00  0.00    -0.005 A 
ATOM      6  C5  UNL d   1       5.401   1.876  -1.773  0.00  0.00    -0.074 A 
ATOM      7  C6  UNL d   1       5.999   2.270  -3.091  0.00  0.00     0.077 C 
ATOM      8  C7  UNL d   1       4.232   1.104  -1.740  0.00  0.00    -0.001 A 
ENDROOT
TORSDOF 0
ENDMDL
