MODEL 1
REMARK minimizedAffinity 7.6416502
REMARK minimizedRMSD -1
REMARK  0 active torsions:
REMARK  status: ('A' for Active; 'I' for Inactive)
ROOT
ATOM      1  C   UNL d   1       6.000   2.998  -3.198  0.00  0.00     0.077 C 
ATOM      2  C1  UNL d   1       5.432   2.303  -1.996  0.00  0.00    -0.074 A 
ATOM      3  C2  UNL d   1       6.000   2.479  -0.729  0.00  0.00    -0.005 A 
ATOM      4  C3  UNL d   1       5.455   1.834   0.381  0.00  0.00     0.006 A 
ATOM      5  C4  UNL d   1       4.340   1.008   0.237  0.00  0.00    -0.005 A 
ATOM      6  C5  UNL d   1       3.758   0.821  -1.021  0.00  0.00    -0.074 A 
ATOM      7  C6  UNL d   1       2.553  -0.055  -1.192  0.00  0.00     0.077 C 
ATOM      8  C7  UNL d   1       4.307   1.478  -2.131  0.00  0.00    -0.001 A 
ENDROOT
TORSDOF 0
ENDMDL
