MODEL 1
REMARK minimizedAffinity 6.20078754
REMARK minimizedRMSD -1
REMARK  0 active torsions:
REMARK  status: ('A' for Active; 'I' for Inactive)
ROOT
ATOM      1  C   UNL d   1       0.455  -0.779  -0.207  0.00  0.00     0.077 C 
ATOM      2  C1  UNL d   1       1.768  -0.087   0.013  0.00  0.00    -0.074 A 
ATOM      3  C2  UNL d   1       2.227   0.190   1.304  0.00  0.00    -0.005 A 
ATOM      4  C3  UNL d   1       3.454   0.825   1.494  0.00  0.00     0.006 A 
ATOM      5  C4  UNL d   1       4.233   1.189   0.395  0.00  0.00    -0.005 A 
ATOM      6  C5  UNL d   1       3.791   0.919  -0.904  0.00  0.00    -0.074 A 
ATOM      7  C6  UNL d   1       4.621   1.295  -2.096  0.00  0.00     0.077 C 
ATOM      8  C7  UNL d   1       2.560   0.274  -1.086  0.00  0.00    -0.001 A 
ENDROOT
TORSDOF 0
ENDMDL
