MODEL 1
REMARK minimizedAffinity 16.7817993
REMARK minimizedRMSD -1
REMARK  0 active torsions:
REMARK  status: ('A' for Active; 'I' for Inactive)
ROOT
ATOM      1  C   UNL d   1       3.678  -0.345   2.888  0.00  0.00     0.077 C 
ATOM      2  C1  UNL d   1       3.212  -0.220   1.468  0.00  0.00    -0.074 A 
ATOM      3  C2  UNL d   1       4.051   0.307   0.480  0.00  0.00    -0.005 A 
ATOM      4  C3  UNL d   1       3.607   0.408  -0.838  0.00  0.00     0.006 A 
ATOM      5  C4  UNL d   1       2.322  -0.015  -1.182  0.00  0.00    -0.005 A 
ATOM      6  C5  UNL d   1       1.470  -0.545  -0.208  0.00  0.00    -0.074 A 
ATOM      7  C6  UNL d   1       0.090  -1.013  -0.562  0.00  0.00     0.077 C 
ATOM      8  C7  UNL d   1       1.926  -0.650   1.114  0.00  0.00    -0.001 A 
ENDROOT
TORSDOF 0
ENDMDL
