MODEL 1
REMARK minimizedAffinity 13.4944029
REMARK minimizedRMSD -1
REMARK  0 active torsions:
REMARK  status: ('A' for Active; 'I' for Inactive)
ROOT
ATOM      1  C   UNL d   1       0.388   4.888   1.705  0.00  0.00     0.077 C 
ATOM      2  C1  UNL d   1       0.884   3.628   1.059  0.00  0.00    -0.074 A 
ATOM      3  C2  UNL d   1       0.168   3.024   0.021  0.00  0.00    -0.005 A 
ATOM      4  C3  UNL d   1       0.646   1.857  -0.577  0.00  0.00     0.006 A 
ATOM      5  C4  UNL d   1       1.842   1.285  -0.143  0.00  0.00    -0.005 A 
ATOM      6  C5  UNL d   1       2.572   1.876   0.893  0.00  0.00    -0.074 A 
ATOM      7  C6  UNL d   1       3.865   1.279   1.365  0.00  0.00     0.077 C 
ATOM      8  C7  UNL d   1       2.089   3.052   1.484  0.00  0.00    -0.001 A 
ENDROOT
TORSDOF 0
ENDMDL
