MODEL 1
REMARK minimizedAffinity -1.19840074
REMARK minimizedRMSD -1
REMARK  0 active torsions:
REMARK  status: ('A' for Active; 'I' for Inactive)
ROOT
ATOM      1  C4' PXY d   1       0.503  -0.003  -2.602  0.00  0.00     0.077 C 
ATOM      2  C1' PXY d   1      -0.685   0.563   3.027  0.00  0.00     0.077 C 
ATOM      3  C1  PXY d   1      -0.386   0.412   1.549  0.00  0.00    -0.082 A 
ATOM      4  C2  PXY d   1       0.842   0.111   1.157  0.00  0.00     0.003 A 
ATOM      5  C3  PXY d   1       1.137   0.002  -0.178  0.00  0.00     0.003 A 
ATOM      6  C4  PXY d   1       0.153   0.150  -1.119  0.00  0.00    -0.082 A 
ATOM      7  C5  PXY d   1      -1.104   0.447  -0.727  0.00  0.00     0.003 A 
ATOM      8  C6  PXY d   1      -1.374   0.594   0.631  0.00  0.00     0.003 A 
ENDROOT
TORSDOF 0
ENDMDL
