MODEL 1
REMARK minimizedAffinity -1.34108281
REMARK minimizedRMSD -1
REMARK  0 active torsions:
REMARK  status: ('A' for Active; 'I' for Inactive)
ROOT
ATOM      1  C4' PXY d   1       2.428   0.103   2.300  0.00  0.00     0.077 C 
ATOM      2  C1' PXY d   1      -2.354   0.749  -0.883  0.00  0.00     0.077 C 
ATOM      3  C1  PXY d   1      -1.107   0.581  -0.038  0.00  0.00    -0.082 A 
ATOM      4  C2  PXY d   1       0.076   0.875  -0.551  0.00  0.00     0.003 A 
ATOM      5  C3  PXY d   1       1.217   0.698   0.189  0.00  0.00     0.003 A 
ATOM      6  C4  PXY d   1       1.141   0.266   1.486  0.00  0.00    -0.082 A 
ATOM      7  C5  PXY d   1      -0.063  -0.026   2.021  0.00  0.00     0.003 A 
ATOM      8  C6  PXY d   1      -1.206   0.121   1.239  0.00  0.00     0.003 A 
ENDROOT
TORSDOF 0
ENDMDL
