MODEL 1
REMARK minimizedAffinity -4.99407005
REMARK minimizedRMSD -1
REMARK  0 active torsions:
REMARK  status: ('A' for Active; 'I' for Inactive)
ROOT
ATOM      1  C4' PXY d   1      -0.035   0.437  -1.997  0.00  0.00     0.077 C 
ATOM      2  C1' PXY d   1      -1.233  -0.684   3.546  0.00  0.00     0.077 C 
ATOM      3  C1  PXY d   1      -0.931  -0.395   2.089  0.00  0.00    -0.082 A 
ATOM      4  C2  PXY d   1       0.326  -0.274   1.693  0.00  0.00     0.003 A 
ATOM      5  C3  PXY d   1       0.617   0.019   0.386  0.00  0.00     0.003 A 
ATOM      6  C4  PXY d   1      -0.387   0.136  -0.537  0.00  0.00    -0.082 A 
ATOM      7  C5  PXY d   1      -1.672   0.004  -0.144  0.00  0.00     0.003 A 
ATOM      8  C6  PXY d   1      -1.947  -0.253   1.196  0.00  0.00     0.003 A 
ENDROOT
TORSDOF 0
ENDMDL
