MODEL 1
REMARK minimizedAffinity -3.50801063
REMARK minimizedRMSD -1
REMARK  0 active torsions:
REMARK  status: ('A' for Active; 'I' for Inactive)
ROOT
ATOM      1  C4' PXY d   1       2.261   0.093   1.495  0.00  0.00     0.077 C 
ATOM      2  C1' PXY d   1      -3.423   1.144   1.568  0.00  0.00     0.077 C 
ATOM      3  C1  PXY d   1      -1.933   0.862   1.537  0.00  0.00    -0.082 A 
ATOM      4  C2  PXY d   1      -1.245   0.860   2.667  0.00  0.00     0.003 A 
ATOM      5  C3  PXY d   1       0.108   0.638   2.655  0.00  0.00     0.003 A 
ATOM      6  C4  PXY d   1       0.754   0.363   1.479  0.00  0.00    -0.082 A 
ATOM      7  C5  PXY d   1       0.057   0.353   0.323  0.00  0.00     0.003 A 
ATOM      8  C6  PXY d   1      -1.309   0.621   0.353  0.00  0.00     0.003 A 
ENDROOT
TORSDOF 0
ENDMDL
