MODEL 1
REMARK minimizedAffinity -4.01330328
REMARK minimizedRMSD -1
REMARK  0 active torsions:
REMARK  status: ('A' for Active; 'I' for Inactive)
ROOT
ATOM      1  C4' PXY d   1       0.304  -1.144   0.773  0.00  0.00     0.077 C 
ATOM      2  C1' PXY d   1      -3.626   2.352   3.171  0.00  0.00     0.077 C 
ATOM      3  C1  PXY d   1      -2.587   1.437   2.552  0.00  0.00    -0.082 A 
ATOM      4  C2  PXY d   1      -2.620   1.196   1.251  0.00  0.00     0.003 A 
ATOM      5  C3  PXY d   1      -1.708   0.346   0.680  0.00  0.00     0.003 A 
ATOM      6  C4  PXY d   1      -0.719  -0.220   1.440  0.00  0.00    -0.082 A 
ATOM      7  C5  PXY d   1      -0.672   0.030   2.765  0.00  0.00     0.003 A 
ATOM      8  C6  PXY d   1      -1.633   0.863   3.333  0.00  0.00     0.003 A 
ENDROOT
TORSDOF 0
ENDMDL
