MODEL 1
REMARK minimizedAffinity -3.40456414
REMARK minimizedRMSD -1
REMARK  0 active torsions:
REMARK  status: ('A' for Active; 'I' for Inactive)
ROOT
ATOM      1  C4' PXY d   1      -0.184   1.073   2.820  0.00  0.00     0.077 C 
ATOM      2  C1' PXY d   1       0.937   0.057  -2.759  0.00  0.00     0.077 C 
ATOM      3  C1  PXY d   1       0.630   0.324  -1.299  0.00  0.00    -0.082 A 
ATOM      4  C2  PXY d   1       1.556   0.865  -0.524  0.00  0.00     0.003 A 
ATOM      5  C3  PXY d   1       1.306   1.084   0.806  0.00  0.00     0.003 A 
ATOM      6  C4  PXY d   1       0.078   0.794   1.337  0.00  0.00    -0.082 A 
ATOM      7  C5  PXY d   1      -0.875   0.251   0.551  0.00  0.00     0.003 A 
ATOM      8  C6  PXY d   1      -0.588  -0.001  -0.788  0.00  0.00     0.003 A 
ENDROOT
TORSDOF 0
ENDMDL
