MODEL 1
REMARK minimizedAffinity -1.73728204
REMARK minimizedRMSD -1
REMARK  0 active torsions:
REMARK  status: ('A' for Active; 'I' for Inactive)
ROOT
ATOM      1  C4' PXY d   1       4.716   0.071  -4.262  0.00  0.00     0.077 C 
ATOM      2  C1' PXY d   1      -0.602  -1.655  -2.795  0.00  0.00     0.077 C 
ATOM      3  C1  PXY d   1       0.797  -1.215  -3.179  0.00  0.00    -0.082 A 
ATOM      4  C2  PXY d   1       1.185   0.025  -2.926  0.00  0.00     0.003 A 
ATOM      5  C3  PXY d   1       2.435   0.449  -3.296  0.00  0.00     0.003 A 
ATOM      6  C4  PXY d   1       3.316  -0.420  -3.883  0.00  0.00    -0.082 A 
ATOM      7  C5  PXY d   1       2.931  -1.689  -4.135  0.00  0.00     0.003 A 
ATOM      8  C6  PXY d   1       1.643  -2.088  -3.789  0.00  0.00     0.003 A 
ENDROOT
TORSDOF 0
ENDMDL
