MODEL 1
REMARK minimizedAffinity -0.72989887
REMARK minimizedRMSD -1
REMARK  0 active torsions:
REMARK  status: ('A' for Active; 'I' for Inactive)
ROOT
ATOM      1  C4' PXY d   1      -2.948   0.205   0.074  0.00  0.00     0.077 C 
ATOM      2  C1' PXY d   1       2.680   0.660   1.311  0.00  0.00     0.077 C 
ATOM      3  C1  PXY d   1       1.202   0.535   0.998  0.00  0.00    -0.082 A 
ATOM      4  C2  PXY d   1       0.803   0.477  -0.262  0.00  0.00     0.003 A 
ATOM      5  C3  PXY d   1      -0.533   0.396  -0.563  0.00  0.00     0.003 A 
ATOM      6  C4  PXY d   1      -1.465   0.322   0.437  0.00  0.00    -0.082 A 
ATOM      7  C5  PXY d   1      -1.065   0.370   1.725  0.00  0.00     0.003 A 
ATOM      8  C6  PXY d   1       0.292   0.493   2.009  0.00  0.00     0.003 A 
ENDROOT
TORSDOF 0
ENDMDL
