MODEL 1
REMARK minimizedAffinity -3.10932088
REMARK minimizedRMSD -1
REMARK  0 active torsions:
REMARK  status: ('A' for Active; 'I' for Inactive)
ROOT
ATOM      1  C4' PXY d   1       2.867   1.084   0.767  0.00  0.00     0.077 C 
ATOM      2  C1' PXY d   1      -2.842   0.427   0.145  0.00  0.00     0.077 C 
ATOM      3  C1  PXY d   1      -1.346   0.602   0.321  0.00  0.00    -0.082 A 
ATOM      4  C2  PXY d   1      -0.601   0.944  -0.718  0.00  0.00     0.003 A 
ATOM      5  C3  PXY d   1       0.757   1.075  -0.584  0.00  0.00     0.003 A 
ATOM      6  C4  PXY d   1       1.352   0.906   0.638  0.00  0.00    -0.082 A 
ATOM      7  C5  PXY d   1       0.597   0.567   1.704  0.00  0.00     0.003 A 
ATOM      8  C6  PXY d   1      -0.774   0.398   1.538  0.00  0.00     0.003 A 
ENDROOT
TORSDOF 0
ENDMDL
