MODEL 1
REMARK minimizedAffinity -1.20087481
REMARK minimizedRMSD -1
REMARK  0 active torsions:
REMARK  status: ('A' for Active; 'I' for Inactive)
ROOT
ATOM      1  C4' PXY d   1       0.079  -2.803  -1.409  0.00  0.00     0.077 C 
ATOM      2  C1' PXY d   1      -0.460   0.548   3.270  0.00  0.00     0.077 C 
ATOM      3  C1  PXY d   1      -0.321  -0.341   2.050  0.00  0.00    -0.082 A 
ATOM      4  C2  PXY d   1       0.431   0.053   1.036  0.00  0.00     0.003 A 
ATOM      5  C3  PXY d   1       0.542  -0.725  -0.088  0.00  0.00     0.003 A 
ATOM      6  C4  PXY d   1      -0.082  -1.942  -0.153  0.00  0.00    -0.082 A 
ATOM      7  C5  PXY d   1      -0.843  -2.355   0.882  0.00  0.00     0.003 A 
ATOM      8  C6  PXY d   1      -0.976  -1.533   1.997  0.00  0.00     0.003 A 
ENDROOT
TORSDOF 0
ENDMDL
