MODEL 1
REMARK minimizedAffinity 0.421052694
REMARK minimizedRMSD -1
REMARK  0 active torsions:
REMARK  status: ('A' for Active; 'I' for Inactive)
ROOT
ATOM      1  C4' PXY d   1       0.882   0.383  -2.491  0.00  0.00     0.077 C 
ATOM      2  C1' PXY d   1      -2.097  -1.031   2.257  0.00  0.00     0.077 C 
ATOM      3  C1  PXY d   1      -1.327  -0.655   1.007  0.00  0.00    -0.082 A 
ATOM      4  C2  PXY d   1      -0.209  -1.299   0.709  0.00  0.00     0.003 A 
ATOM      5  C3  PXY d   1       0.516  -0.950  -0.401  0.00  0.00     0.003 A 
ATOM      6  C4  PXY d   1       0.067   0.031  -1.244  0.00  0.00    -0.082 A 
ATOM      7  C5  PXY d   1      -1.078   0.685  -0.952  0.00  0.00     0.003 A 
ATOM      8  C6  PXY d   1      -1.779   0.344   0.201  0.00  0.00     0.003 A 
ENDROOT
TORSDOF 0
ENDMDL
