MODEL 1
REMARK minimizedAffinity -3.67705083
REMARK minimizedRMSD -1
REMARK  0 active torsions:
REMARK  status: ('A' for Active; 'I' for Inactive)
ROOT
ATOM      1  C4' PXY d   1       2.880   1.203   1.156  0.00  0.00     0.077 C 
ATOM      2  C1' PXY d   1      -2.444  -1.038   1.370  0.00  0.00     0.077 C 
ATOM      3  C1  PXY d   1      -1.050  -0.443   1.324  0.00  0.00    -0.082 A 
ATOM      4  C2  PXY d   1      -0.381  -0.431   0.183  0.00  0.00     0.003 A 
ATOM      5  C3  PXY d   1       0.893   0.074   0.131  0.00  0.00     0.003 A 
ATOM      6  C4  PXY d   1       1.467   0.621   1.247  0.00  0.00    -0.082 A 
ATOM      7  C5  PXY d   1       0.786   0.622   2.413  0.00  0.00     0.003 A 
ATOM      8  C6  PXY d   1      -0.490   0.067   2.454  0.00  0.00     0.003 A 
ENDROOT
TORSDOF 0
ENDMDL
