MODEL 1
REMARK minimizedAffinity -2.81079245
REMARK minimizedRMSD -1
REMARK  0 active torsions:
REMARK  status: ('A' for Active; 'I' for Inactive)
ROOT
ATOM      1  C4' PXY d   1       0.737  -0.040  -2.981  0.00  0.00     0.077 C 
ATOM      2  C1' PXY d   1      -0.789  -0.079   2.595  0.00  0.00     0.077 C 
ATOM      3  C1  PXY d   1      -0.401  -0.071   1.129  0.00  0.00    -0.082 A 
ATOM      4  C2  PXY d   1       0.836  -0.383   0.778  0.00  0.00     0.003 A 
ATOM      5  C3  PXY d   1       1.212  -0.349  -0.540  0.00  0.00     0.003 A 
ATOM      6  C4  PXY d   1       0.299  -0.044  -1.514  0.00  0.00    -0.082 A 
ATOM      7  C5  PXY d   1      -0.968   0.265  -1.164  0.00  0.00     0.003 A 
ATOM      8  C6  PXY d   1      -1.319   0.265   0.183  0.00  0.00     0.003 A 
ENDROOT
TORSDOF 0
ENDMDL
