MODEL 1
REMARK minimizedAffinity -3.20582008
REMARK minimizedRMSD -1
REMARK  0 active torsions:
REMARK  status: ('A' for Active; 'I' for Inactive)
ROOT
ATOM      1  C4' PXY d   1       2.956   0.274   1.664  0.00  0.00     0.077 C 
ATOM      2  C1' PXY d   1      -2.584   0.580   0.044  0.00  0.00     0.077 C 
ATOM      3  C1  PXY d   1      -1.129   0.491   0.459  0.00  0.00    -0.082 A 
ATOM      4  C2  PXY d   1      -0.786   0.771   1.706  0.00  0.00     0.003 A 
ATOM      5  C3  PXY d   1       0.529   0.727   2.090  0.00  0.00     0.003 A 
ATOM      6  C4  PXY d   1       1.498   0.341   1.202  0.00  0.00    -0.082 A 
ATOM      7  C5  PXY d   1       1.155   0.044  -0.069  0.00  0.00     0.003 A 
ATOM      8  C6  PXY d   1      -0.181   0.135  -0.450  0.00  0.00     0.003 A 
ENDROOT
TORSDOF 0
ENDMDL
