MODEL 1
REMARK minimizedAffinity -3.14048505
REMARK minimizedRMSD -1
REMARK  0 active torsions:
REMARK  status: ('A' for Active; 'I' for Inactive)
ROOT
ATOM      1  C4' PXY d   1       2.228  -0.311   1.905  0.00  0.00     0.077 C 
ATOM      2  C1' PXY d   1      -2.931   0.748  -0.478  0.00  0.00     0.077 C 
ATOM      3  C1  PXY d   1      -1.581   0.477   0.157  0.00  0.00    -0.082 A 
ATOM      4  C2  PXY d   1      -0.553   0.147  -0.607  0.00  0.00     0.003 A 
ATOM      5  C3  PXY d   1       0.666  -0.132  -0.047  0.00  0.00     0.003 A 
ATOM      6  C4  PXY d   1       0.849  -0.020   1.306  0.00  0.00    -0.082 A 
ATOM      7  C5  PXY d   1      -0.192   0.328   2.091  0.00  0.00     0.003 A 
ATOM      8  C6  PXY d   1      -1.433   0.566   1.506  0.00  0.00     0.003 A 
ENDROOT
TORSDOF 0
ENDMDL
