MODEL 1
REMARK minimizedAffinity -3.04927015
REMARK minimizedRMSD -1
REMARK  0 active torsions:
REMARK  status: ('A' for Active; 'I' for Inactive)
ROOT
ATOM      1  C4' PXY d   1      -0.043   0.267   2.826  0.00  0.00     0.077 C 
ATOM      2  C1' PXY d   1       1.191  -0.162  -2.805  0.00  0.00     0.077 C 
ATOM      3  C1  PXY d   1       0.880  -0.052  -1.326  0.00  0.00    -0.082 A 
ATOM      4  C2  PXY d   1      -0.351  -0.279  -0.897  0.00  0.00     0.003 A 
ATOM      5  C3  PXY d   1      -0.657  -0.152   0.433  0.00  0.00     0.003 A 
ATOM      6  C4  PXY d   1       0.319   0.158   1.342  0.00  0.00    -0.082 A 
ATOM      7  C5  PXY d   1       1.580   0.381   0.914  0.00  0.00     0.003 A 
ATOM      8  C6  PXY d   1       1.861   0.287  -0.446  0.00  0.00     0.003 A 
ENDROOT
TORSDOF 0
ENDMDL
