MODEL 1
REMARK minimizedAffinity -3.17236543
REMARK minimizedRMSD -1
REMARK  0 active torsions:
REMARK  status: ('A' for Active; 'I' for Inactive)
ROOT
ATOM      1  C4' PXY d   1       0.773  -0.794  -2.533  0.00  0.00     0.077 C 
ATOM      2  C1' PXY d   1      -0.188   0.720   2.962  0.00  0.00     0.077 C 
ATOM      3  C1  PXY d   1       0.052   0.320   1.519  0.00  0.00    -0.082 A 
ATOM      4  C2  PXY d   1       1.264  -0.046   1.135  0.00  0.00     0.003 A 
ATOM      5  C3  PXY d   1       1.505  -0.380  -0.173  0.00  0.00     0.003 A 
ATOM      6  C4  PXY d   1       0.483  -0.391  -1.085  0.00  0.00    -0.082 A 
ATOM      7  C5  PXY d   1      -0.758  -0.029  -0.698  0.00  0.00     0.003 A 
ATOM      8  C6  PXY d   1      -0.973   0.347   0.625  0.00  0.00     0.003 A 
ENDROOT
TORSDOF 0
ENDMDL
