MODEL 1
REMARK minimizedAffinity -1.43109465
REMARK minimizedRMSD -1
REMARK  0 active torsions:
REMARK  status: ('A' for Active; 'I' for Inactive)
ROOT
ATOM      1  C4' PXY d   1       1.138  -0.638  -2.514  0.00  0.00     0.077 C 
ATOM      2  C1' PXY d   1      -0.810   0.703   2.761  0.00  0.00     0.077 C 
ATOM      3  C1  PXY d   1      -0.311   0.348   1.374  0.00  0.00    -0.082 A 
ATOM      4  C2  PXY d   1       0.960   0.025   1.199  0.00  0.00     0.003 A 
ATOM      5  C3  PXY d   1       1.435  -0.268  -0.054  0.00  0.00     0.003 A 
ATOM      6  C4  PXY d   1       0.588  -0.282  -1.130  0.00  0.00    -0.082 A 
ATOM      7  C5  PXY d   1      -0.712   0.036  -0.958  0.00  0.00     0.003 A 
ATOM      8  C6  PXY d   1      -1.165   0.370   0.315  0.00  0.00     0.003 A 
ENDROOT
TORSDOF 0
ENDMDL
