MODEL 1
REMARK minimizedAffinity -4.43572664
REMARK minimizedRMSD -1
REMARK  1 active torsions:
REMARK  status: ('A' for Active; 'I' for Inactive)
REMARK    1  A    between atoms: C1_2  and  C2_3 
ROOT
ATOM      1  C2  UNL d   1       0.271   0.019  -0.016  0.00  0.00    -0.081 A 
ATOM      2  C3  UNL d   1      -0.878   0.287  -0.770  0.00  0.00     0.006 A 
ATOM      3  C4  UNL d   1      -2.036  -0.473  -0.591  0.00  0.00     0.002 A 
ATOM      4  C5  UNL d   1      -2.068  -1.508   0.350  0.00  0.00    -0.080 A 
ATOM      5  C6  UNL d   1      -3.314  -2.311   0.574  0.00  0.00     0.076 C 
ATOM      6  C7  UNL d   1      -0.915  -1.787   1.091  0.00  0.00     0.002 A 
ATOM      7  C8  UNL d   1       0.244  -1.028   0.912  0.00  0.00     0.006 A 
ENDROOT
BRANCH   1   8
ATOM      8  C1  UNL d   1       1.501   0.878  -0.160  0.00  0.00     0.054 C 
ATOM      9  C   UNL d   1       1.806   1.629   1.128  0.00  0.00     0.018 C 
ENDBRANCH   1   8
TORSDOF 1
ENDMDL
