MODEL 1
REMARK minimizedAffinity -5.76964283
REMARK minimizedRMSD -1
REMARK  1 active torsions:
REMARK  status: ('A' for Active; 'I' for Inactive)
REMARK    1  A    between atoms: C1_2  and  C2_3 
ROOT
ATOM      1  C2  UNL d   1       0.593   0.038   0.064  0.00  0.00    -0.081 A 
ATOM      2  C3  UNL d   1      -0.321   0.417  -0.927  0.00  0.00     0.006 A 
ATOM      3  C4  UNL d   1      -1.642  -0.037  -0.883  0.00  0.00     0.002 A 
ATOM      4  C5  UNL d   1      -2.072  -0.869   0.155  0.00  0.00    -0.080 A 
ATOM      5  C6  UNL d   1      -3.495  -1.338   0.231  0.00  0.00     0.076 C 
ATOM      6  C7  UNL d   1      -1.155  -1.261   1.136  0.00  0.00     0.002 A 
ATOM      7  C8  UNL d   1       0.166  -0.809   1.092  0.00  0.00     0.006 A 
ENDROOT
BRANCH   1   8
ATOM      8  C1  UNL d   1       2.001   0.577   0.054  0.00  0.00     0.054 C 
ATOM      9  C   UNL d   1       2.111   1.850   0.882  0.00  0.00     0.018 C 
ENDBRANCH   1   8
TORSDOF 1
ENDMDL
