MODEL 1
REMARK minimizedAffinity -4.34770632
REMARK minimizedRMSD -1
REMARK  1 active torsions:
REMARK  status: ('A' for Active; 'I' for Inactive)
REMARK    1  A    between atoms: C1_2  and  C2_3 
ROOT
ATOM      1  C2  UNL d   1       1.430   1.194   0.698  0.00  0.00    -0.081 A 
ATOM      2  C3  UNL d   1       1.604  -0.005  -0.004  0.00  0.00     0.006 A 
ATOM      3  C4  UNL d   1       0.524  -0.607  -0.655  0.00  0.00     0.002 A 
ATOM      4  C5  UNL d   1      -0.744  -0.017  -0.622  0.00  0.00    -0.080 A 
ATOM      5  C6  UNL d   1      -1.904  -0.637  -1.342  0.00  0.00     0.076 C 
ATOM      6  C7  UNL d   1      -0.921   1.172   0.095  0.00  0.00     0.002 A 
ATOM      7  C8  UNL d   1       0.158   1.774   0.746  0.00  0.00     0.006 A 
ENDROOT
BRANCH   1   8
ATOM      8  C1  UNL d   1       2.606   1.879   1.347  0.00  0.00     0.054 C 
ATOM      9  C   UNL d   1       2.441   3.392   1.333  0.00  0.00     0.018 C 
ENDBRANCH   1   8
TORSDOF 1
ENDMDL
