MODEL 1
REMARK minimizedAffinity -4.84478903
REMARK minimizedRMSD -1
REMARK  1 active torsions:
REMARK  status: ('A' for Active; 'I' for Inactive)
REMARK    1  A    between atoms: C1_2  and  C2_3 
ROOT
ATOM      1  C2  UNL d   1       0.867   0.575   0.084  0.00  0.00    -0.081 A 
ATOM      2  C3  UNL d   1       0.052   0.045   1.092  0.00  0.00     0.006 A 
ATOM      3  C4  UNL d   1      -1.173  -0.548   0.774  0.00  0.00     0.002 A 
ATOM      4  C5  UNL d   1      -1.598  -0.628  -0.556  0.00  0.00    -0.080 A 
ATOM      5  C6  UNL d   1      -2.896  -1.289  -0.914  0.00  0.00     0.076 C 
ATOM      6  C7  UNL d   1      -0.792  -0.084  -1.561  0.00  0.00     0.002 A 
ATOM      7  C8  UNL d   1       0.432   0.510  -1.244  0.00  0.00     0.006 A 
ENDROOT
BRANCH   1   8
ATOM      8  C1  UNL d   1       2.217   1.157   0.417  0.00  0.00     0.054 C 
ATOM      9  C   UNL d   1       2.140   2.076   1.627  0.00  0.00     0.018 C 
ENDBRANCH   1   8
TORSDOF 1
ENDMDL
