MODEL 1
REMARK minimizedAffinity -3.3138082
REMARK minimizedRMSD -1
REMARK  1 active torsions:
REMARK  status: ('A' for Active; 'I' for Inactive)
REMARK    1  A    between atoms: C1_2  and  C2_3 
ROOT
ATOM      1  C2  UNL d   1       0.948   0.312   0.562  0.00  0.00    -0.081 A 
ATOM      2  C3  UNL d   1       0.354   0.866  -0.579  0.00  0.00     0.006 A 
ATOM      3  C4  UNL d   1      -0.931   0.480  -0.966  0.00  0.00     0.002 A 
ATOM      4  C5  UNL d   1      -1.647  -0.459  -0.216  0.00  0.00    -0.080 A 
ATOM      5  C6  UNL d   1      -3.040  -0.859  -0.603  0.00  0.00     0.076 C 
ATOM      6  C7  UNL d   1      -1.047  -1.025   0.915  0.00  0.00     0.002 A 
ATOM      7  C8  UNL d   1       0.238  -0.640   1.302  0.00  0.00     0.006 A 
ENDROOT
BRANCH   1   8
ATOM      8  C1  UNL d   1       2.308   0.774   1.019  0.00  0.00     0.054 C 
ATOM      9  C   UNL d   1       2.614   2.177   0.516  0.00  0.00     0.018 C 
ENDBRANCH   1   8
TORSDOF 1
ENDMDL
