MODEL 1
REMARK minimizedAffinity 2.62727237
REMARK minimizedRMSD -1
REMARK  1 active torsions:
REMARK  status: ('A' for Active; 'I' for Inactive)
REMARK    1  A    between atoms: C1_2  and  C2_3 
ROOT
ATOM      1  C2  UNL d   1      -3.012  -2.158   4.872  0.00  0.00    -0.081 A 
ATOM      2  C3  UNL d   1      -3.482  -1.475   6.000  0.00  0.00     0.006 A 
ATOM      3  C4  UNL d   1      -3.572  -0.081   5.997  0.00  0.00     0.002 A 
ATOM      4  C5  UNL d   1      -3.201   0.652   4.864  0.00  0.00    -0.080 A 
ATOM      5  C6  UNL d   1      -3.322   2.147   4.837  0.00  0.00     0.076 C 
ATOM      6  C7  UNL d   1      -2.715  -0.029   3.744  0.00  0.00     0.002 A 
ATOM      7  C8  UNL d   1      -2.624  -1.423   3.746  0.00  0.00     0.006 A 
ENDROOT
BRANCH   1   8
ATOM      8  C1  UNL d   1      -2.975  -3.665   4.849  0.00  0.00     0.054 C 
ATOM      9  C   UNL d   1      -3.778  -4.256   5.999  0.00  0.00     0.018 C 
ENDBRANCH   1   8
TORSDOF 1
ENDMDL
