MODEL 1
REMARK minimizedAffinity -3.83490419
REMARK minimizedRMSD -1
REMARK  1 active torsions:
REMARK  status: ('A' for Active; 'I' for Inactive)
REMARK    1  A    between atoms: C1_2  and  C2_3 
ROOT
ATOM      1  C2  UNL d   1       3.337   3.998  -1.041  0.00  0.00    -0.081 A 
ATOM      2  C3  UNL d   1       3.332   4.683   0.180  0.00  0.00     0.006 A 
ATOM      3  C4  UNL d   1       3.016   4.016   1.366  0.00  0.00     0.002 A 
ATOM      4  C5  UNL d   1       2.707   2.652   1.352  0.00  0.00    -0.080 A 
ATOM      5  C6  UNL d   1       2.396   1.917   2.621  0.00  0.00     0.076 C 
ATOM      6  C7  UNL d   1       2.695   1.971   0.130  0.00  0.00     0.002 A 
ATOM      7  C8  UNL d   1       3.010   2.637  -1.056  0.00  0.00     0.006 A 
ENDROOT
BRANCH   1   8
ATOM      8  C1  UNL d   1       3.740   4.699  -2.313  0.00  0.00     0.054 C 
ATOM      9  C   UNL d   1       4.813   3.919  -3.059  0.00  0.00     0.018 C 
ENDBRANCH   1   8
TORSDOF 1
ENDMDL
