MODEL 1
REMARK minimizedAffinity -3.87722301
REMARK minimizedRMSD -1
REMARK  1 active torsions:
REMARK  status: ('A' for Active; 'I' for Inactive)
REMARK    1  A    between atoms: C1_2  and  C2_3 
ROOT
ATOM      1  C2  UNL d   1       0.900   0.488  -0.219  0.00  0.00    -0.081 A 
ATOM      2  C3  UNL d   1       0.150   0.757  -1.370  0.00  0.00     0.006 A 
ATOM      3  C4  UNL d   1      -1.208   0.434  -1.422  0.00  0.00     0.002 A 
ATOM      4  C5  UNL d   1      -1.840  -0.156  -0.322  0.00  0.00    -0.080 A 
ATOM      5  C6  UNL d   1      -3.304  -0.480  -0.354  0.00  0.00     0.076 C 
ATOM      6  C7  UNL d   1      -1.087  -0.441   0.822  0.00  0.00     0.002 A 
ATOM      7  C8  UNL d   1       0.271  -0.119   0.874  0.00  0.00     0.006 A 
ENDROOT
BRANCH   1   8
ATOM      8  C1  UNL d   1       2.350   0.894  -0.136  0.00  0.00     0.054 C 
ATOM      9  C   UNL d   1       2.602   1.804   1.058  0.00  0.00     0.018 C 
ENDBRANCH   1   8
TORSDOF 1
ENDMDL
