MODEL 1
REMARK minimizedAffinity -5.24177837
REMARK minimizedRMSD -1
REMARK  1 active torsions:
REMARK  status: ('A' for Active; 'I' for Inactive)
REMARK    1  A    between atoms: C1_2  and  C2_3 
ROOT
ATOM      1  C2  UNL d   1      -1.550  -0.957  -0.178  0.00  0.00    -0.081 A 
ATOM      2  C3  UNL d   1      -1.062  -0.324  -1.327  0.00  0.00     0.006 A 
ATOM      3  C4  UNL d   1       0.172   0.331  -1.305  0.00  0.00     0.002 A 
ATOM      4  C5  UNL d   1       0.941   0.357  -0.137  0.00  0.00    -0.080 A 
ATOM      5  C6  UNL d   1       2.281   1.030  -0.108  0.00  0.00     0.076 C 
ATOM      6  C7  UNL d   1       0.446  -0.261   1.016  0.00  0.00     0.002 A 
ATOM      7  C8  UNL d   1      -0.788  -0.915   0.995  0.00  0.00     0.006 A 
ENDROOT
BRANCH   1   8
ATOM      8  C1  UNL d   1      -2.850  -1.719  -0.216  0.00  0.00     0.054 C 
ATOM      9  C   UNL d   1      -2.837  -2.885   0.762  0.00  0.00     0.018 C 
ENDBRANCH   1   8
TORSDOF 1
ENDMDL
