MODEL 1
REMARK minimizedAffinity -4.90935278
REMARK minimizedRMSD -1
REMARK  1 active torsions:
REMARK  status: ('A' for Active; 'I' for Inactive)
REMARK    1  A    between atoms: C1_2  and  C2_3 
ROOT
ATOM      1  C2  UNL d   1       0.919   0.558   0.212  0.00  0.00    -0.081 A 
ATOM      2  C3  UNL d   1       0.220   0.777  -0.982  0.00  0.00     0.006 A 
ATOM      3  C4  UNL d   1      -1.089   0.315  -1.131  0.00  0.00     0.002 A 
ATOM      4  C5  UNL d   1      -1.725  -0.365  -0.087  0.00  0.00    -0.080 A 
ATOM      5  C6  UNL d   1      -3.142  -0.839  -0.223  0.00  0.00     0.076 C 
ATOM      6  C7  UNL d   1      -1.022  -0.599   1.099  0.00  0.00     0.002 A 
ATOM      7  C8  UNL d   1       0.288  -0.138   1.249  0.00  0.00     0.006 A 
ENDROOT
BRANCH   1   8
ATOM      8  C1  UNL d   1       2.309   1.111   0.399  0.00  0.00     0.054 C 
ATOM      9  C   UNL d   1       2.403   1.954   1.663  0.00  0.00     0.018 C 
ENDBRANCH   1   8
TORSDOF 1
ENDMDL
