MODEL 1
REMARK minimizedAffinity 3.17012334
REMARK minimizedRMSD -1
REMARK  2 active torsions:
REMARK  status: ('A' for Active; 'I' for Inactive)
REMARK    1  A    between atoms: C1_2  and  C2_3 
REMARK    2  A    between atoms: C2_3  and  C3_4 
ROOT
ATOM      1  C3  UNL d   1       0.447   3.160   1.034  0.00  0.00    -0.075 A 
ATOM      2  C4  UNL d   1       0.554   4.555   1.138  0.00  0.00     0.002 A 
ATOM      3  C5  UNL d   1       1.322   5.133   2.150  0.00  0.00     0.002 A 
ATOM      4  C6  UNL d   1       1.982   4.326   3.074  0.00  0.00    -0.004 A 
ATOM      5  C7  UNL d   1       1.869   2.940   2.991  0.00  0.00     0.002 A 
ATOM      6  C8  UNL d   1       1.105   2.359   1.977  0.00  0.00     0.002 A 
ENDROOT
BRANCH   1   7
ATOM      7  C2  UNL d   1      -0.358   2.528  -0.076  0.00  0.00     0.056 C 
BRANCH   7   8
ATOM      8  C1  UNL d   1      -0.448   1.001   0.011  0.00  0.00     0.007 C 
ATOM      9  C   UNL d   1      -1.666   0.430  -0.703  0.00  0.00     0.009 C 
ENDBRANCH   7   8
ENDBRANCH   1   7
TORSDOF 2
ENDMDL
