MODEL 1
REMARK minimizedAffinity -1.23858261
REMARK minimizedRMSD -1
REMARK  2 active torsions:
REMARK  status: ('A' for Active; 'I' for Inactive)
REMARK    1  A    between atoms: C1_2  and  C2_3 
REMARK    2  A    between atoms: C2_3  and  C3_4 
ROOT
ATOM      1  C3  UNL d   1      -0.294  -0.227  -0.730  0.00  0.00    -0.075 A 
ATOM      2  C4  UNL d   1      -0.650   0.206   0.556  0.00  0.00     0.002 A 
ATOM      3  C5  UNL d   1      -1.253   1.450   0.743  0.00  0.00     0.002 A 
ATOM      4  C6  UNL d   1      -1.498   2.280  -0.349  0.00  0.00    -0.004 A 
ATOM      5  C7  UNL d   1      -1.133   1.867  -1.629  0.00  0.00     0.002 A 
ATOM      6  C8  UNL d   1      -0.533   0.621  -1.819  0.00  0.00     0.002 A 
ENDROOT
BRANCH   1   7
ATOM      7  C2  UNL d   1       0.332  -1.584  -0.942  0.00  0.00     0.056 C 
BRANCH   7   8
ATOM      8  C1  UNL d   1      -0.654  -2.659  -1.412  0.00  0.00     0.007 C 
ATOM      9  C   UNL d   1      -0.290  -4.058  -0.932  0.00  0.00     0.009 C 
ENDBRANCH   7   8
ENDBRANCH   1   7
TORSDOF 2
ENDMDL
