MODEL 1
REMARK minimizedAffinity -2.8066721
REMARK minimizedRMSD -1
REMARK  2 active torsions:
REMARK  status: ('A' for Active; 'I' for Inactive)
REMARK    1  A    between atoms: C1_2  and  C2_3 
REMARK    2  A    between atoms: C2_3  and  C3_4 
ROOT
ATOM      1  C3  UNL d   1       0.141  -0.346  -0.101  0.00  0.00    -0.075 A 
ATOM      2  C4  UNL d   1       0.331  -0.417   1.286  0.00  0.00     0.002 A 
ATOM      3  C5  UNL d   1       0.030   0.676   2.099  0.00  0.00     0.002 A 
ATOM      4  C6  UNL d   1      -0.454   1.855   1.536  0.00  0.00    -0.004 A 
ATOM      5  C7  UNL d   1      -0.631   1.942   0.157  0.00  0.00     0.002 A 
ATOM      6  C8  UNL d   1      -0.335   0.849  -0.659  0.00  0.00     0.002 A 
ENDROOT
BRANCH   1   7
ATOM      7  C2  UNL d   1       0.436  -1.535  -0.984  0.00  0.00     0.056 C 
BRANCH   7   8
ATOM      8  C1  UNL d   1      -0.732  -2.517  -1.120  0.00  0.00     0.007 C 
ATOM      9  C   UNL d   1      -0.289  -3.971  -1.199  0.00  0.00     0.009 C 
ENDBRANCH   7   8
ENDBRANCH   1   7
TORSDOF 2
ENDMDL
