MODEL 1
REMARK minimizedAffinity -6.12341452
REMARK minimizedRMSD -1
REMARK  2 active torsions:
REMARK  status: ('A' for Active; 'I' for Inactive)
REMARK    1  A    between atoms: C1_2  and  C2_3 
REMARK    2  A    between atoms: C2_3  and  C3_4 
ROOT
ATOM      1  C3  UNL d   1       0.182  -0.187  -0.607  0.00  0.00    -0.075 A 
ATOM      2  C4  UNL d   1       0.564  -0.493   0.707  0.00  0.00     0.002 A 
ATOM      3  C5  UNL d   1       0.264   0.380   1.754  0.00  0.00     0.002 A 
ATOM      4  C6  UNL d   1      -0.412   1.571   1.499  0.00  0.00    -0.004 A 
ATOM      5  C7  UNL d   1      -0.782   1.892   0.195  0.00  0.00     0.002 A 
ATOM      6  C8  UNL d   1      -0.487   1.019  -0.853  0.00  0.00     0.002 A 
ENDROOT
BRANCH   1   7
ATOM      7  C2  UNL d   1       0.478  -1.142  -1.739  0.00  0.00     0.056 C 
BRANCH   7   8
ATOM      8  C1  UNL d   1       0.388  -2.620  -1.349  0.00  0.00     0.007 C 
ATOM      9  C   UNL d   1      -1.020  -3.189  -1.467  0.00  0.00     0.009 C 
ENDBRANCH   7   8
ENDBRANCH   1   7
TORSDOF 2
ENDMDL
