MODEL 1
REMARK minimizedAffinity -3.67620468
REMARK minimizedRMSD -1
REMARK  2 active torsions:
REMARK  status: ('A' for Active; 'I' for Inactive)
REMARK    1  A    between atoms: C1_2  and  C2_3 
REMARK    2  A    between atoms: C2_3  and  C3_4 
ROOT
ATOM      1  C3  UNL d   1      -0.060  -0.210   0.259  0.00  0.00    -0.075 A 
ATOM      2  C4  UNL d   1      -0.855   0.761  -0.367  0.00  0.00     0.002 A 
ATOM      3  C5  UNL d   1      -1.283   1.887   0.338  0.00  0.00     0.002 A 
ATOM      4  C6  UNL d   1      -0.932   2.050   1.676  0.00  0.00    -0.004 A 
ATOM      5  C7  UNL d   1      -0.156   1.083   2.312  0.00  0.00     0.002 A 
ATOM      6  C8  UNL d   1       0.278  -0.042   1.608  0.00  0.00     0.002 A 
ENDROOT
BRANCH   1   7
ATOM      7  C2  UNL d   1       0.432  -1.416  -0.506  0.00  0.00     0.056 C 
BRANCH   7   8
ATOM      8  C1  UNL d   1      -0.305  -2.715  -0.163  0.00  0.00     0.007 C 
ATOM      9  C   UNL d   1      -0.922  -3.395  -1.378  0.00  0.00     0.009 C 
ENDBRANCH   7   8
ENDBRANCH   1   7
TORSDOF 2
ENDMDL
