MODEL 1
REMARK minimizedAffinity -3.95941782
REMARK minimizedRMSD -1
REMARK  2 active torsions:
REMARK  status: ('A' for Active; 'I' for Inactive)
REMARK    1  A    between atoms: C1_2  and  C2_3 
REMARK    2  A    between atoms: C2_3  and  C3_4 
ROOT
ATOM      1  C3  UNL d   1      -0.444  -0.221  -0.034  0.00  0.00    -0.075 A 
ATOM      2  C4  UNL d   1       0.448  -0.043   1.033  0.00  0.00     0.002 A 
ATOM      3  C5  UNL d   1       0.301   1.035   1.907  0.00  0.00     0.002 A 
ATOM      4  C6  UNL d   1      -0.732   1.951   1.720  0.00  0.00    -0.004 A 
ATOM      5  C7  UNL d   1      -1.614   1.793   0.653  0.00  0.00     0.002 A 
ATOM      6  C8  UNL d   1      -1.471   0.713  -0.221  0.00  0.00     0.002 A 
ENDROOT
BRANCH   1   7
ATOM      7  C2  UNL d   1      -0.307  -1.402  -0.966  0.00  0.00     0.056 C 
BRANCH   7   8
ATOM      8  C1  UNL d   1      -1.132  -2.624  -0.550  0.00  0.00     0.007 C 
ATOM      9  C   UNL d   1      -1.611  -3.456  -1.732  0.00  0.00     0.009 C 
ENDBRANCH   7   8
ENDBRANCH   1   7
TORSDOF 2
ENDMDL
