MODEL 1
REMARK minimizedAffinity -5.20826864
REMARK minimizedRMSD -1
REMARK  2 active torsions:
REMARK  status: ('A' for Active; 'I' for Inactive)
REMARK    1  A    between atoms: C1_2  and  C2_3 
REMARK    2  A    between atoms: C2_3  and  C3_4 
ROOT
ATOM      1  C3  UNL d   1      -0.036  -0.133   0.048  0.00  0.00    -0.075 A 
ATOM      2  C4  UNL d   1       0.343   0.101   1.378  0.00  0.00     0.002 A 
ATOM      3  C5  UNL d   1      -0.002   1.294   2.014  0.00  0.00     0.002 A 
ATOM      4  C6  UNL d   1      -0.720   2.271   1.327  0.00  0.00    -0.004 A 
ATOM      5  C7  UNL d   1      -1.086   2.056  -0.000  0.00  0.00     0.002 A 
ATOM      6  C8  UNL d   1      -0.746   0.862  -0.637  0.00  0.00     0.002 A 
ENDROOT
BRANCH   1   7
ATOM      7  C2  UNL d   1       0.309  -1.434  -0.636  0.00  0.00     0.056 C 
BRANCH   7   8
ATOM      8  C1  UNL d   1      -0.910  -2.232  -1.110  0.00  0.00     0.007 C 
ATOM      9  C   UNL d   1      -0.695  -3.739  -1.069  0.00  0.00     0.009 C 
ENDBRANCH   7   8
ENDBRANCH   1   7
TORSDOF 2
ENDMDL
