MODEL 1
REMARK minimizedAffinity -5.22641277
REMARK minimizedRMSD -1
REMARK  0 active torsions:
REMARK  status: ('A' for Active; 'I' for Inactive)
ROOT
ATOM      1  N1  IND d   1       1.796  -1.273   0.273  0.00  0.00    -0.196 N 
ATOM      2  C2  IND d   1       1.205  -1.815  -0.834  0.00  0.00     0.054 A 
ATOM      3  C3  IND d   1       0.024  -1.206  -1.082  0.00  0.00    -0.031 A 
ATOM      4  C4  IND d   1      -1.086   0.770   0.140  0.00  0.00     0.051 A 
ATOM      5  C5  IND d   1      -0.944   1.577   1.233  0.00  0.00    -0.031 A 
ATOM      6  C6  IND d   1       0.143   1.476   2.077  0.00  0.00     0.015 A 
ATOM      7  C7  IND d   1       1.137   0.567   1.853  0.00  0.00    -0.016 A 
ATOM      8  C8  IND d   1       0.992  -0.260   0.748  0.00  0.00    -0.047 A 
ATOM      9  C9  IND d   1      -0.129  -0.191  -0.089  0.00  0.00    -0.096 A 
ATOM     10  HN1 IND d   1       2.544  -1.523   0.616  0.00  0.00     0.298 HD
ENDROOT
TORSDOF 0
ENDMDL
