MODEL 1
REMARK minimizedAffinity -3.58866787
REMARK minimizedRMSD -1
REMARK  0 active torsions:
REMARK  status: ('A' for Active; 'I' for Inactive)
ROOT
ATOM      1  N1  IND d   1       0.606   0.708   0.197  0.00  0.00    -0.196 N 
ATOM      2  C2  IND d   1      -0.475   0.014   0.664  0.00  0.00     0.054 A 
ATOM      3  C3  IND d   1      -0.988  -0.770  -0.311  0.00  0.00    -0.031 A 
ATOM      4  C4  IND d   1      -0.150  -1.147  -2.716  0.00  0.00     0.051 A 
ATOM      5  C5  IND d   1       0.783  -0.707  -3.613  0.00  0.00    -0.031 A 
ATOM      6  C6  IND d   1       1.724   0.244  -3.279  0.00  0.00     0.015 A 
ATOM      7  C7  IND d   1       1.776   0.785  -2.025  0.00  0.00    -0.016 A 
ATOM      8  C8  IND d   1       0.827   0.346  -1.114  0.00  0.00    -0.047 A 
ATOM      9  C9  IND d   1      -0.158  -0.588  -1.460  0.00  0.00    -0.096 A 
ATOM     10  HN1 IND d   1       1.070   1.275   0.647  0.00  0.00     0.298 HD
ENDROOT
TORSDOF 0
ENDMDL
