MODEL 1
REMARK minimizedAffinity -5.37086964
REMARK minimizedRMSD -1
REMARK  0 active torsions:
REMARK  status: ('A' for Active; 'I' for Inactive)
ROOT
ATOM      1  N1  IND d   1       1.102  -0.339  -0.343  0.00  0.00    -0.196 N 
ATOM      2  C2  IND d   1       0.159  -0.710  -1.260  0.00  0.00     0.054 A 
ATOM      3  C3  IND d   1      -1.072  -0.330  -0.850  0.00  0.00    -0.031 A 
ATOM      4  C4  IND d   1      -1.759   1.002   1.244  0.00  0.00     0.051 A 
ATOM      5  C5  IND d   1      -1.253   1.531   2.397  0.00  0.00    -0.031 A 
ATOM      6  C6  IND d   1       0.091   1.466   2.702  0.00  0.00     0.015 A 
ATOM      7  C7  IND d   1       0.985   0.875   1.854  0.00  0.00    -0.016 A 
ATOM      8  C8  IND d   1       0.474   0.330   0.685  0.00  0.00    -0.047 A 
ATOM      9  C9  IND d   1      -0.895   0.356   0.391  0.00  0.00    -0.096 A 
ATOM     10  HN1 IND d   1       1.945  -0.497  -0.398  0.00  0.00     0.298 HD
ENDROOT
TORSDOF 0
ENDMDL
