MODEL 1
REMARK minimizedAffinity 0.987372518
REMARK minimizedRMSD -1
REMARK  0 active torsions:
REMARK  status: ('A' for Active; 'I' for Inactive)
ROOT
ATOM      1  N1  IND d   1       0.609  -1.113  -0.807  0.00  0.00    -0.196 N 
ATOM      2  C2  IND d   1      -0.488  -0.480  -1.321  0.00  0.00     0.054 A 
ATOM      3  C3  IND d   1      -0.731   0.664  -0.644  0.00  0.00    -0.031 A 
ATOM      4  C4  IND d   1       0.603   1.744   1.276  0.00  0.00     0.051 A 
ATOM      5  C5  IND d   1       1.661   1.520   2.111  0.00  0.00    -0.031 A 
ATOM      6  C6  IND d   1       2.441   0.386   2.012  0.00  0.00     0.015 A 
ATOM      7  C7  IND d   1       2.196  -0.566   1.063  0.00  0.00    -0.016 A 
ATOM      8  C8  IND d   1       1.118  -0.346   0.218  0.00  0.00    -0.047 A 
ATOM      9  C9  IND d   1       0.297   0.783   0.341  0.00  0.00    -0.096 A 
ATOM     10  HN1 IND d   1       0.928  -1.864  -1.078  0.00  0.00     0.298 HD
ENDROOT
TORSDOF 0
ENDMDL
