MODEL 1
REMARK minimizedAffinity -4.35838079
REMARK minimizedRMSD -1
REMARK  0 active torsions:
REMARK  status: ('A' for Active; 'I' for Inactive)
ROOT
ATOM      1  N1  IND d   1       1.131  -0.742  -0.671  0.00  0.00    -0.196 N 
ATOM      2  C2  IND d   1       0.045  -0.992  -1.462  0.00  0.00     0.054 A 
ATOM      3  C3  IND d   1      -1.079  -0.516  -0.881  0.00  0.00    -0.031 A 
ATOM      4  C4  IND d   1      -1.355   0.796   1.317  0.00  0.00     0.051 A 
ATOM      5  C5  IND d   1      -0.653   1.235   2.405  0.00  0.00    -0.031 A 
ATOM      6  C6  IND d   1       0.707   1.036   2.524  0.00  0.00     0.015 A 
ATOM      7  C7  IND d   1       1.421   0.397   1.550  0.00  0.00    -0.016 A 
ATOM      8  C8  IND d   1       0.711  -0.056   0.447  0.00  0.00    -0.047 A 
ATOM      9  C9  IND d   1      -0.676   0.106   0.341  0.00  0.00    -0.096 A 
ATOM     10  HN1 IND d   1       1.941  -0.974  -0.843  0.00  0.00     0.298 HD
ENDROOT
TORSDOF 0
ENDMDL
