MODEL 1
REMARK minimizedAffinity -5.36754847
REMARK minimizedRMSD -1
REMARK  0 active torsions:
REMARK  status: ('A' for Active; 'I' for Inactive)
ROOT
ATOM      1  N1  IND d   1       0.931  -0.654  -0.150  0.00  0.00    -0.196 N 
ATOM      2  C2  IND d   1       0.040  -0.446  -1.166  0.00  0.00     0.054 A 
ATOM      3  C3  IND d   1      -1.061   0.187  -0.704  0.00  0.00    -0.031 A 
ATOM      4  C4  IND d   1      -1.570   1.066   1.662  0.00  0.00     0.051 A 
ATOM      5  C5  IND d   1      -1.075   1.080   2.936  0.00  0.00    -0.031 A 
ATOM      6  C6  IND d   1       0.141   0.508   3.251  0.00  0.00     0.015 A 
ATOM      7  C7  IND d   1       0.914  -0.093   2.299  0.00  0.00    -0.016 A 
ATOM      8  C8  IND d   1       0.411  -0.115   1.006  0.00  0.00    -0.047 A 
ATOM      9  C9  IND d   1      -0.841   0.427   0.687  0.00  0.00    -0.096 A 
ATOM     10  HN1 IND d   1       1.688  -1.054  -0.222  0.00  0.00     0.298 HD
ENDROOT
TORSDOF 0
ENDMDL
