MODEL 1
REMARK minimizedAffinity -3.4040401
REMARK minimizedRMSD -1
REMARK  0 active torsions:
REMARK  status: ('A' for Active; 'I' for Inactive)
ROOT
ATOM      1  N1  IND d   1       1.342  -0.245  -0.075  0.00  0.00    -0.196 N 
ATOM      2  C2  IND d   1       0.966  -0.762  -1.283  0.00  0.00     0.054 A 
ATOM      3  C3  IND d   1      -0.382  -0.775  -1.389  0.00  0.00    -0.031 A 
ATOM      4  C4  IND d   1      -2.161   0.098   0.255  0.00  0.00     0.051 A 
ATOM      5  C5  IND d   1      -2.304   0.624   1.508  0.00  0.00    -0.031 A 
ATOM      6  C6  IND d   1      -1.216   0.895   2.313  0.00  0.00     0.015 A 
ATOM      7  C7  IND d   1       0.061   0.660   1.888  0.00  0.00    -0.016 A 
ATOM      8  C8  IND d   1       0.209   0.119   0.619  0.00  0.00    -0.047 A 
ATOM      9  C9  IND d   1      -0.892  -0.197  -0.186  0.00  0.00    -0.096 A 
ATOM     10  HN1 IND d   1       2.151  -0.161   0.205  0.00  0.00     0.298 HD
ENDROOT
TORSDOF 0
ENDMDL
