MODEL 1
REMARK minimizedAffinity -4.6274519
REMARK minimizedRMSD -1
REMARK  0 active torsions:
REMARK  status: ('A' for Active; 'I' for Inactive)
ROOT
ATOM      1  N1  IND d   1      -1.534   1.501   2.294  0.00  0.00    -0.196 N 
ATOM      2  C2  IND d   1      -0.296   1.841   2.763  0.00  0.00     0.054 A 
ATOM      3  C3  IND d   1       0.667   1.226   2.040  0.00  0.00    -0.031 A 
ATOM      4  C4  IND d   1       0.441  -0.301  -0.020  0.00  0.00     0.051 A 
ATOM      5  C5  IND d   1      -0.491  -0.929  -0.798  0.00  0.00    -0.031 A 
ATOM      6  C6  IND d   1      -1.845  -0.774  -0.583  0.00  0.00     0.015 A 
ATOM      7  C7  IND d   1      -2.320   0.027   0.417  0.00  0.00    -0.016 A 
ATOM      8  C8  IND d   1      -1.377   0.661   1.213  0.00  0.00    -0.047 A 
ATOM      9  C9  IND d   1      -0.001   0.474   1.026  0.00  0.00    -0.096 A 
ATOM     10  HN1 IND d   1      -2.284   1.766   2.620  0.00  0.00     0.298 HD
ENDROOT
TORSDOF 0
ENDMDL
