MODEL 1
REMARK minimizedAffinity -3.4946878
REMARK minimizedRMSD -1
REMARK  0 active torsions:
REMARK  status: ('A' for Active; 'I' for Inactive)
ROOT
ATOM      1  N1  IND d   1       1.051  -1.864  -0.110  0.00  0.00    -0.196 N 
ATOM      2  C2  IND d   1       2.012  -1.452   0.771  0.00  0.00     0.054 A 
ATOM      3  C3  IND d   1       1.499  -0.555   1.642  0.00  0.00    -0.031 A 
ATOM      4  C4  IND d   1      -0.917   0.304   1.872  0.00  0.00     0.051 A 
ATOM      5  C5  IND d   1      -2.144   0.244   1.272  0.00  0.00    -0.031 A 
ATOM      6  C6  IND d   1      -2.373  -0.541   0.160  0.00  0.00     0.015 A 
ATOM      7  C7  IND d   1      -1.383  -1.306  -0.389  0.00  0.00    -0.016 A 
ATOM      8  C8  IND d   1      -0.135  -1.241   0.213  0.00  0.00    -0.047 A 
ATOM      9  C9  IND d   1       0.115  -0.415   1.316  0.00  0.00    -0.096 A 
ATOM     10  HN1 IND d   1       1.167  -2.419  -0.756  0.00  0.00     0.298 HD
ENDROOT
TORSDOF 0
ENDMDL
