MODEL 1
REMARK minimizedAffinity -0.781421721
REMARK minimizedRMSD -1
REMARK  0 active torsions:
REMARK  status: ('A' for Active; 'I' for Inactive)
ROOT
ATOM      1  C   UNL d   1      -3.882   0.813  -2.651  0.00  0.00     0.172 C 
ATOM      2  N   UNL d   1      -2.983   0.067  -1.804  0.00  0.00    -0.070 N 
ATOM      3  C1  UNL d   1      -2.454  -1.163  -2.089  0.00  0.00    -0.004 A 
ATOM      4  C2  UNL d   1      -1.648  -1.532  -1.033  0.00  0.00    -0.047 A 
ATOM      5  C3  UNL d   1      -1.696  -0.487  -0.080  0.00  0.00    -0.047 A 
ATOM      6  C4  UNL d   1      -2.529   0.490  -0.582  0.00  0.00    -0.004 A 
ENDROOT
TORSDOF 0
ENDMDL
