MODEL 1
REMARK minimizedAffinity 2.78741789
REMARK minimizedRMSD -1
REMARK  0 active torsions:
REMARK  status: ('A' for Active; 'I' for Inactive)
ROOT
ATOM      1  C   UNL d   1      -5.813   4.361   0.155  0.00  0.00     0.172 C 
ATOM      2  N   UNL d   1      -4.726   4.064   1.058  0.00  0.00    -0.070 N 
ATOM      3  C1  UNL d   1      -4.765   4.184   2.421  0.00  0.00    -0.004 A 
ATOM      4  C2  UNL d   1      -3.534   3.806   2.914  0.00  0.00    -0.047 A 
ATOM      5  C3  UNL d   1      -2.728   3.447   1.808  0.00  0.00    -0.047 A 
ATOM      6  C4  UNL d   1      -3.490   3.616   0.671  0.00  0.00    -0.004 A 
ENDROOT
TORSDOF 0
ENDMDL
