MODEL 1
REMARK minimizedAffinity -0.396104157
REMARK minimizedRMSD -1
REMARK  0 active torsions:
REMARK  status: ('A' for Active; 'I' for Inactive)
ROOT
ATOM      1  C   UNL d   1       2.324  -2.160   4.123  0.00  0.00     0.172 C 
ATOM      2  N   UNL d   1       3.675  -2.261   4.625  0.00  0.00    -0.070 N 
ATOM      3  C1  UNL d   1       4.026  -2.480   5.930  0.00  0.00    -0.004 A 
ATOM      4  C2  UNL d   1       5.403  -2.511   5.997  0.00  0.00    -0.047 A 
ATOM      5  C3  UNL d   1       5.895  -2.302   4.687  0.00  0.00    -0.047 A 
ATOM      6  C4  UNL d   1       4.804  -2.150   3.857  0.00  0.00    -0.004 A 
ENDROOT
TORSDOF 0
ENDMDL
