MODEL 1
REMARK minimizedAffinity 6.19953775
REMARK minimizedRMSD -1
REMARK  0 active torsions:
REMARK  status: ('A' for Active; 'I' for Inactive)
ROOT
ATOM      1  C   UNL d   1      -1.867  -4.698  -0.389  0.00  0.00     0.172 C 
ATOM      2  N   UNL d   1      -1.308  -3.367  -0.435  0.00  0.00    -0.070 N 
ATOM      3  C1  UNL d   1       0.027  -3.061  -0.438  0.00  0.00    -0.004 A 
ATOM      4  C2  UNL d   1       0.145  -1.689  -0.489  0.00  0.00    -0.047 A 
ATOM      5  C3  UNL d   1      -1.164  -1.151  -0.517  0.00  0.00    -0.047 A 
ATOM      6  C4  UNL d   1      -2.044  -2.212  -0.483  0.00  0.00    -0.004 A 
ENDROOT
TORSDOF 0
ENDMDL
