MODEL 1
REMARK minimizedAffinity 5.87972736
REMARK minimizedRMSD -1
REMARK  0 active torsions:
REMARK  status: ('A' for Active; 'I' for Inactive)
ROOT
ATOM      1  C   UNL d   1       4.405   5.997  -2.265  0.00  0.00     0.172 C 
ATOM      2  N   UNL d   1       4.734   5.995  -3.671  0.00  0.00    -0.070 N 
ATOM      3  C1  UNL d   1       6.000   5.988  -4.194  0.00  0.00    -0.004 A 
ATOM      4  C2  UNL d   1       5.889   5.987  -5.568  0.00  0.00    -0.047 A 
ATOM      5  C3  UNL d   1       4.509   5.995  -5.881  0.00  0.00    -0.047 A 
ATOM      6  C4  UNL d   1       3.817   6.000  -4.688  0.00  0.00    -0.004 A 
ENDROOT
TORSDOF 0
ENDMDL
