MODEL 1
REMARK minimizedAffinity -0.172036126
REMARK minimizedRMSD -1
REMARK  0 active torsions:
REMARK  status: ('A' for Active; 'I' for Inactive)
ROOT
ATOM      1  C   UNL d   1       1.529  -3.540   4.589  0.00  0.00     0.172 C 
ATOM      2  N   UNL d   1       1.775  -2.425   3.706  0.00  0.00    -0.070 N 
ATOM      3  C1  UNL d   1       2.305  -2.506   2.446  0.00  0.00    -0.004 A 
ATOM      4  C2  UNL d   1       2.378  -1.228   1.935  0.00  0.00    -0.047 A 
ATOM      5  C3  UNL d   1       1.877  -0.348   2.923  0.00  0.00    -0.047 A 
ATOM      6  C4  UNL d   1       1.510  -1.115   4.009  0.00  0.00    -0.004 A 
ENDROOT
TORSDOF 0
ENDMDL
