MODEL 1
REMARK minimizedAffinity 6.5325532
REMARK minimizedRMSD -1
REMARK  0 active torsions:
REMARK  status: ('A' for Active; 'I' for Inactive)
ROOT
ATOM      1  C   UNL d   1      -4.767  -2.576  -5.947  0.00  0.00     0.172 C 
ATOM      2  N   UNL d   1      -4.951  -3.962  -5.585  0.00  0.00    -0.070 N 
ATOM      3  C1  UNL d   1      -4.119  -4.694  -4.781  0.00  0.00    -0.004 A 
ATOM      4  C2  UNL d   1      -4.641  -5.965  -4.680  0.00  0.00    -0.047 A 
ATOM      5  C3  UNL d   1      -5.827  -5.999  -5.451  0.00  0.00    -0.047 A 
ATOM      6  C4  UNL d   1      -5.995  -4.745  -6.000  0.00  0.00    -0.004 A 
ENDROOT
TORSDOF 0
ENDMDL
