MODEL 1
REMARK minimizedAffinity 7.3180542
REMARK minimizedRMSD -1
REMARK  0 active torsions:
REMARK  status: ('A' for Active; 'I' for Inactive)
ROOT
ATOM      1  C   UNL d   1       3.451   1.839   1.241  0.00  0.00     0.172 C 
ATOM      2  N   UNL d   1       2.881   0.829   2.101  0.00  0.00    -0.070 N 
ATOM      3  C1  UNL d   1       3.040  -0.523   1.958  0.00  0.00    -0.004 A 
ATOM      4  C2  UNL d   1       2.342  -1.140   2.975  0.00  0.00    -0.047 A 
ATOM      5  C3  UNL d   1       1.743  -0.122   3.755  0.00  0.00    -0.047 A 
ATOM      6  C4  UNL d   1       2.092   1.087   3.192  0.00  0.00    -0.004 A 
ENDROOT
TORSDOF 0
ENDMDL
