MODEL 1
REMARK minimizedAffinity 10.3879385
REMARK minimizedRMSD -1
REMARK  3 active torsions:
REMARK  status: ('A' for Active; 'I' for Inactive)
REMARK    1  A    between atoms: C3'_2  and  C2'_3 
REMARK    2  A    between atoms: C2'_3  and  C1'_4 
REMARK    3  A    between atoms: C1'_4  and  C1_5 
ROOT
ATOM      1  C1  N4B d   1      -1.639  -0.142   1.782  0.00  0.00    -0.075 A 
ATOM      2  C2  N4B d   1      -3.041  -0.093   1.951  0.00  0.00     0.002 A 
ATOM      3  C3  N4B d   1      -3.624  -0.715   3.028  0.00  0.00     0.002 A 
ATOM      4  C4  N4B d   1      -2.833  -1.405   3.933  0.00  0.00    -0.004 A 
ATOM      5  C5  N4B d   1      -1.478  -1.427   3.776  0.00  0.00     0.002 A 
ATOM      6  C6  N4B d   1      -0.877  -0.803   2.702  0.00  0.00     0.002 A 
ENDROOT
BRANCH   1   7
ATOM      7  C1' N4B d   1      -0.964   0.450   0.575  0.00  0.00     0.057 C 
BRANCH   7   8
ATOM      8  C2' N4B d   1       0.503   0.030   0.566  0.00  0.00     0.009 C 
BRANCH   8   9
ATOM      9  C3' N4B d   1       0.941  -0.475  -0.798  0.00  0.00     0.004 C 
ATOM     10  C4' N4B d   1       2.428  -0.632  -0.909  0.00  0.00     0.003 C 
ENDBRANCH   8   9
ENDBRANCH   7   8
ENDBRANCH   1   7
TORSDOF 3
ENDMDL
