MODEL 1
REMARK minimizedAffinity 14.6425591
REMARK minimizedRMSD -1
REMARK  3 active torsions:
REMARK  status: ('A' for Active; 'I' for Inactive)
REMARK    1  A    between atoms: C3'_2  and  C2'_3 
REMARK    2  A    between atoms: C2'_3  and  C1'_4 
REMARK    3  A    between atoms: C1'_4  and  C1_5 
ROOT
ATOM      1  C1  N4B d   1       3.033   2.639   0.830  0.00  0.00    -0.075 A 
ATOM      2  C2  N4B d   1       3.646   2.992  -0.392  0.00  0.00     0.002 A 
ATOM      3  C3  N4B d   1       3.422   2.235  -1.516  0.00  0.00     0.002 A 
ATOM      4  C4  N4B d   1       2.607   1.116  -1.438  0.00  0.00    -0.004 A 
ATOM      5  C5  N4B d   1       1.998   0.797  -0.260  0.00  0.00     0.002 A 
ATOM      6  C6  N4B d   1       2.211   1.551   0.877  0.00  0.00     0.002 A 
ENDROOT
BRANCH   1   7
ATOM      7  C1' N4B d   1       3.317   3.386   2.105  0.00  0.00     0.057 C 
BRANCH   7   8
ATOM      8  C2' N4B d   1       3.914   2.422   3.127  0.00  0.00     0.009 C 
BRANCH   8   9
ATOM      9  C3' N4B d   1       4.455   3.151   4.345  0.00  0.00     0.004 C 
ATOM     10  C4' N4B d   1       5.953   3.227   4.359  0.00  0.00     0.003 C 
ENDBRANCH   8   9
ENDBRANCH   7   8
ENDBRANCH   1   7
TORSDOF 3
ENDMDL
