MODEL 1
REMARK minimizedAffinity 4.61863375
REMARK minimizedRMSD -1
REMARK  3 active torsions:
REMARK  status: ('A' for Active; 'I' for Inactive)
REMARK    1  A    between atoms: C3'_2  and  C2'_3 
REMARK    2  A    between atoms: C2'_3  and  C1'_4 
REMARK    3  A    between atoms: C1'_4  and  C1_5 
ROOT
ATOM      1  C1  N4B d   1       0.037   0.092   0.770  0.00  0.00    -0.075 A 
ATOM      2  C2  N4B d   1      -0.649   0.587   1.900  0.00  0.00     0.002 A 
ATOM      3  C3  N4B d   1      -2.014   0.736   1.865  0.00  0.00     0.002 A 
ATOM      4  C4  N4B d   1      -2.709   0.415   0.708  0.00  0.00    -0.004 A 
ATOM      5  C5  N4B d   1      -2.041  -0.087  -0.371  0.00  0.00     0.002 A 
ATOM      6  C6  N4B d   1      -0.670  -0.245  -0.348  0.00  0.00     0.002 A 
ENDROOT
BRANCH   1   7
ATOM      7  C1' N4B d   1       1.537  -0.007   0.732  0.00  0.00     0.057 C 
BRANCH   7   8
ATOM      8  C2' N4B d   1       2.097   1.171  -0.060  0.00  0.00     0.009 C 
BRANCH   8   9
ATOM      9  C3' N4B d   1       3.103   1.973   0.748  0.00  0.00     0.004 C 
ATOM     10  C4' N4B d   1       2.599   3.337   1.114  0.00  0.00     0.003 C 
ENDBRANCH   8   9
ENDBRANCH   7   8
ENDBRANCH   1   7
TORSDOF 3
ENDMDL
