MODEL 1
REMARK minimizedAffinity 2.41512966
REMARK minimizedRMSD -1
REMARK  3 active torsions:
REMARK  status: ('A' for Active; 'I' for Inactive)
REMARK    1  A    between atoms: C3'_2  and  C2'_3 
REMARK    2  A    between atoms: C2'_3  and  C1'_4 
REMARK    3  A    between atoms: C1'_4  and  C1_5 
ROOT
ATOM      1  C1  N4B d   1       2.126   1.187  -0.107  0.00  0.00    -0.075 A 
ATOM      2  C2  N4B d   1       1.286   0.524   0.815  0.00  0.00     0.002 A 
ATOM      3  C3  N4B d   1       0.162  -0.130   0.372  0.00  0.00     0.002 A 
ATOM      4  C4  N4B d   1      -0.150  -0.120  -0.979  0.00  0.00    -0.004 A 
ATOM      5  C5  N4B d   1       0.680   0.501  -1.866  0.00  0.00     0.002 A 
ATOM      6  C6  N4B d   1       1.814   1.159  -1.436  0.00  0.00     0.002 A 
ENDROOT
BRANCH   1   7
ATOM      7  C1' N4B d   1       3.318   1.988   0.339  0.00  0.00     0.057 C 
BRANCH   7   8
ATOM      8  C2' N4B d   1       2.987   2.689   1.653  0.00  0.00     0.009 C 
BRANCH   8   9
ATOM      9  C3' N4B d   1       3.950   2.301   2.762  0.00  0.00     0.004 C 
ATOM     10  C4' N4B d   1       4.133   3.388   3.778  0.00  0.00     0.003 C 
ENDBRANCH   8   9
ENDBRANCH   7   8
ENDBRANCH   1   7
TORSDOF 3
ENDMDL
