MODEL 1
REMARK minimizedAffinity -0.950538635
REMARK minimizedRMSD -1
REMARK  3 active torsions:
REMARK  status: ('A' for Active; 'I' for Inactive)
REMARK    1  A    between atoms: C3'_2  and  C2'_3 
REMARK    2  A    between atoms: C2'_3  and  C1'_4 
REMARK    3  A    between atoms: C1'_4  and  C1_5 
ROOT
ATOM      1  C1  N4B d   1      -0.142  -1.209   3.405  0.00  0.00    -0.075 A 
ATOM      2  C2  N4B d   1       0.651  -0.998   2.256  0.00  0.00     0.002 A 
ATOM      3  C3  N4B d   1       0.090  -0.461   1.123  0.00  0.00     0.002 A 
ATOM      4  C4  N4B d   1      -1.261  -0.145   1.110  0.00  0.00    -0.004 A 
ATOM      5  C5  N4B d   1      -2.014  -0.329   2.233  0.00  0.00     0.002 A 
ATOM      6  C6  N4B d   1      -1.463  -0.864   3.379  0.00  0.00     0.002 A 
ENDROOT
BRANCH   1   7
ATOM      7  C1' N4B d   1       0.407  -1.873   4.638  0.00  0.00     0.057 C 
BRANCH   7   8
ATOM      8  C2' N4B d   1       1.929  -1.918   4.546  0.00  0.00     0.009 C 
BRANCH   8   9
ATOM      9  C3' N4B d   1       2.576  -2.072   5.912  0.00  0.00     0.004 C 
ATOM     10  C4' N4B d   1       3.668  -3.100   5.925  0.00  0.00     0.003 C 
ENDBRANCH   8   9
ENDBRANCH   7   8
ENDBRANCH   1   7
TORSDOF 3
ENDMDL
