MODEL 1
REMARK minimizedAffinity 12.1882553
REMARK minimizedRMSD -1
REMARK  0 active torsions:
REMARK  status: ('A' for Active; 'I' for Inactive)
ROOT
ATOM      1  C   UNL d   1       3.498   2.625  -2.978  0.00  0.00     0.078 C 
ATOM      2  C1  UNL d   1       4.367   3.024  -1.823  0.00  0.00    -0.077 A 
ATOM      3  C2  UNL d   1       5.188   4.156  -1.895  0.00  0.00    -0.001 A 
ATOM      4  C3  UNL d   1       5.999   4.510  -0.816  0.00  0.00     0.003 A 
ATOM      5  C4  UNL d   1       5.999   3.736   0.343  0.00  0.00    -0.005 A 
ATOM      6  C5  UNL d   1       5.188   2.606   0.423  0.00  0.00     0.003 A 
ATOM      7  C6  UNL d   1       4.376   2.251  -0.655  0.00  0.00    -0.001 A 
ENDROOT
TORSDOF 0
ENDMDL
