MODEL 1
REMARK minimizedAffinity 8.04149914
REMARK minimizedRMSD -1
REMARK  0 active torsions:
REMARK  status: ('A' for Active; 'I' for Inactive)
ROOT
ATOM      1  C   UNL d   1       2.839   3.150  -3.222  0.00  0.00     0.078 C 
ATOM      2  C1  UNL d   1       3.941   3.268  -2.212  0.00  0.00    -0.077 A 
ATOM      3  C2  UNL d   1       4.000   2.412  -1.105  0.00  0.00    -0.001 A 
ATOM      4  C3  UNL d   1       5.025   2.540  -0.167  0.00  0.00     0.003 A 
ATOM      5  C4  UNL d   1       5.999   3.524  -0.325  0.00  0.00    -0.005 A 
ATOM      6  C5  UNL d   1       5.947   4.382  -1.422  0.00  0.00     0.003 A 
ATOM      7  C6  UNL d   1       4.923   4.256  -2.361  0.00  0.00    -0.001 A 
ENDROOT
TORSDOF 0
ENDMDL
