MODEL 1
REMARK minimizedAffinity 7.890944
REMARK minimizedRMSD -1
REMARK  0 active torsions:
REMARK  status: ('A' for Active; 'I' for Inactive)
ROOT
ATOM      1  C   UNL d   1      -5.876  -5.998   4.813  0.00  0.00     0.078 C 
ATOM      2  C1  UNL d   1      -5.656  -5.345   3.481  0.00  0.00    -0.077 A 
ATOM      3  C2  UNL d   1      -5.999  -5.999   2.292  0.00  0.00    -0.001 A 
ATOM      4  C3  UNL d   1      -5.780  -5.383   1.059  0.00  0.00     0.003 A 
ATOM      5  C4  UNL d   1      -5.216  -4.110   1.003  0.00  0.00    -0.005 A 
ATOM      6  C5  UNL d   1      -4.869  -3.452   2.181  0.00  0.00     0.003 A 
ATOM      7  C6  UNL d   1      -5.087  -4.067   3.415  0.00  0.00    -0.001 A 
ENDROOT
TORSDOF 0
ENDMDL
