MODEL 1
REMARK minimizedAffinity 11.3934374
REMARK minimizedRMSD -1
REMARK  0 active torsions:
REMARK  status: ('A' for Active; 'I' for Inactive)
ROOT
ATOM      1  C   UNL d   1       4.854   4.878  -2.438  0.00  0.00     0.078 C 
ATOM      2  C1  UNL d   1       3.511   4.236  -2.623  0.00  0.00    -0.077 A 
ATOM      3  C2  UNL d   1       3.399   2.883  -2.966  0.00  0.00    -0.001 A 
ATOM      4  C3  UNL d   1       2.143   2.302  -3.144  0.00  0.00     0.003 A 
ATOM      5  C4  UNL d   1       0.989   3.066  -2.982  0.00  0.00    -0.005 A 
ATOM      6  C5  UNL d   1       1.090   4.414  -2.643  0.00  0.00     0.003 A 
ATOM      7  C6  UNL d   1       2.345   4.997  -2.464  0.00  0.00    -0.001 A 
ENDROOT
TORSDOF 0
ENDMDL
