MODEL 1
REMARK minimizedAffinity 3.47514915
REMARK minimizedRMSD -1
REMARK  0 active torsions:
REMARK  status: ('A' for Active; 'I' for Inactive)
ROOT
ATOM      1  C   UNL d   1      -3.082   1.250   5.958  0.00  0.00     0.078 C 
ATOM      2  C1  UNL d   1      -3.856   0.353   5.039  0.00  0.00    -0.077 A 
ATOM      3  C2  UNL d   1      -4.640  -0.692   5.543  0.00  0.00    -0.001 A 
ATOM      4  C3  UNL d   1      -5.348  -1.525   4.675  0.00  0.00     0.003 A 
ATOM      5  C4  UNL d   1      -5.278  -1.323   3.298  0.00  0.00    -0.005 A 
ATOM      6  C5  UNL d   1      -4.499  -0.286   2.788  0.00  0.00     0.003 A 
ATOM      7  C6  UNL d   1      -3.791   0.548   3.654  0.00  0.00    -0.001 A 
ENDROOT
TORSDOF 0
ENDMDL
