MODEL 1
REMARK minimizedAffinity 4.77195358
REMARK minimizedRMSD -1
REMARK  0 active torsions:
REMARK  status: ('A' for Active; 'I' for Inactive)
ROOT
ATOM      1  C   UNL d   1      -5.661  -1.585   3.450  0.00  0.00     0.078 C 
ATOM      2  C1  UNL d   1      -4.419  -0.789   3.719  0.00  0.00    -0.077 A 
ATOM      3  C2  UNL d   1      -3.358  -0.777   2.805  0.00  0.00    -0.001 A 
ATOM      4  C3  UNL d   1      -2.204  -0.040   3.074  0.00  0.00     0.003 A 
ATOM      5  C4  UNL d   1      -2.099   0.690   4.256  0.00  0.00    -0.005 A 
ATOM      6  C5  UNL d   1      -3.149   0.683   5.172  0.00  0.00     0.003 A 
ATOM      7  C6  UNL d   1      -4.304  -0.054   4.905  0.00  0.00    -0.001 A 
ENDROOT
TORSDOF 0
ENDMDL
