MODEL 1
REMARK minimizedAffinity 5.87103128
REMARK minimizedRMSD -1
REMARK  0 active torsions:
REMARK  status: ('A' for Active; 'I' for Inactive)
ROOT
ATOM      1  C   UNL d   1       4.163  -1.845  -0.753  0.00  0.00     0.078 C 
ATOM      2  C1  UNL d   1       4.428  -3.293  -0.464  0.00  0.00    -0.077 A 
ATOM      3  C2  UNL d   1       3.378  -4.214  -0.375  0.00  0.00    -0.001 A 
ATOM      4  C3  UNL d   1       3.638  -5.557  -0.096  0.00  0.00     0.003 A 
ATOM      5  C4  UNL d   1       4.948  -5.990   0.097  0.00  0.00    -0.005 A 
ATOM      6  C5  UNL d   1       6.000  -5.080   0.013  0.00  0.00     0.003 A 
ATOM      7  C6  UNL d   1       5.741  -3.737  -0.266  0.00  0.00    -0.001 A 
ENDROOT
TORSDOF 0
ENDMDL
