MODEL 1
REMARK minimizedAffinity -2.17427039
REMARK minimizedRMSD -1
REMARK  0 active torsions:
REMARK  status: ('A' for Active; 'I' for Inactive)
ROOT
ATOM      1  C   UNL d   1       3.241  -5.632  -3.819  0.00  0.00     0.078 C 
ATOM      2  C1  UNL d   1       4.080  -5.238  -2.640  0.00  0.00    -0.077 A 
ATOM      3  C2  UNL d   1       3.767  -4.106  -1.878  0.00  0.00    -0.001 A 
ATOM      4  C3  UNL d   1       4.563  -3.745  -0.790  0.00  0.00     0.003 A 
ATOM      5  C4  UNL d   1       5.678  -4.511  -0.455  0.00  0.00    -0.005 A 
ATOM      6  C5  UNL d   1       5.999  -5.638  -1.208  0.00  0.00     0.003 A 
ATOM      7  C6  UNL d   1       5.204  -6.000  -2.297  0.00  0.00    -0.001 A 
ENDROOT
TORSDOF 0
ENDMDL
