MODEL 1
REMARK minimizedAffinity 2.60041738
REMARK minimizedRMSD -1
REMARK  0 active torsions:
REMARK  status: ('A' for Active; 'I' for Inactive)
ROOT
ATOM      1  C   UNL d   1       4.878  -1.968  -1.503  0.00  0.00     0.078 C 
ATOM      2  C1  UNL d   1       4.847  -3.376  -0.989  0.00  0.00    -0.077 A 
ATOM      3  C2  UNL d   1       3.674  -4.139  -1.045  0.00  0.00    -0.001 A 
ATOM      4  C3  UNL d   1       3.657  -5.445  -0.553  0.00  0.00     0.003 A 
ATOM      5  C4  UNL d   1       4.810  -6.000  -0.001  0.00  0.00    -0.005 A 
ATOM      6  C5  UNL d   1       5.981  -5.247   0.061  0.00  0.00     0.003 A 
ATOM      7  C6  UNL d   1       6.000  -3.941  -0.430  0.00  0.00    -0.001 A 
ENDROOT
TORSDOF 0
ENDMDL
