MODEL 1
REMARK minimizedAffinity 1.68821776
REMARK minimizedRMSD -1
REMARK  0 active torsions:
REMARK  status: ('A' for Active; 'I' for Inactive)
ROOT
ATOM      1  C   UNL d   1      -5.971  -0.741  -2.108  0.00  0.00     0.078 C 
ATOM      2  C1  UNL d   1      -5.969  -1.454  -3.427  0.00  0.00    -0.077 A 
ATOM      3  C2  UNL d   1      -5.956  -0.742  -4.633  0.00  0.00    -0.001 A 
ATOM      4  C3  UNL d   1      -5.964  -1.419  -5.853  0.00  0.00     0.003 A 
ATOM      5  C4  UNL d   1      -5.985  -2.812  -5.881  0.00  0.00    -0.005 A 
ATOM      6  C5  UNL d   1      -6.000  -3.529  -4.686  0.00  0.00     0.003 A 
ATOM      7  C6  UNL d   1      -5.992  -2.854  -3.465  0.00  0.00    -0.001 A 
ENDROOT
TORSDOF 0
ENDMDL
