MODEL 1
REMARK minimizedAffinity 5.35223961
REMARK minimizedRMSD -1
REMARK  0 active torsions:
REMARK  status: ('A' for Active; 'I' for Inactive)
ROOT
ATOM      1  C   UNL d   1      -5.746  -4.899   2.198  0.00  0.00     0.078 C 
ATOM      2  C1  UNL d   1      -5.168  -5.288   3.526  0.00  0.00    -0.077 A 
ATOM      3  C2  UNL d   1      -5.958  -5.295   4.682  0.00  0.00    -0.001 A 
ATOM      4  C3  UNL d   1      -5.404  -5.650   5.913  0.00  0.00     0.003 A 
ATOM      5  C4  UNL d   1      -4.058  -6.000   6.000  0.00  0.00    -0.005 A 
ATOM      6  C5  UNL d   1      -3.263  -5.993   4.855  0.00  0.00     0.003 A 
ATOM      7  C6  UNL d   1      -3.815  -5.638   3.623  0.00  0.00    -0.001 A 
ENDROOT
TORSDOF 0
ENDMDL
