MODEL 1
REMARK minimizedAffinity 16.9005852
REMARK minimizedRMSD -1
REMARK  0 active torsions:
REMARK  status: ('A' for Active; 'I' for Inactive)
ROOT
ATOM      1  C   UNL d   1      -2.088   1.221   3.257  0.00  0.00     0.078 C 
ATOM      2  C1  UNL d   1      -1.578  -0.038   2.623  0.00  0.00    -0.077 A 
ATOM      3  C2  UNL d   1      -2.441  -0.898   1.933  0.00  0.00    -0.001 A 
ATOM      4  C3  UNL d   1      -1.955  -2.072   1.356  0.00  0.00     0.003 A 
ATOM      5  C4  UNL d   1      -0.605  -2.398   1.464  0.00  0.00    -0.005 A 
ATOM      6  C5  UNL d   1       0.261  -1.550   2.151  0.00  0.00     0.003 A 
ATOM      7  C6  UNL d   1      -0.223  -0.375   2.729  0.00  0.00    -0.001 A 
ENDROOT
TORSDOF 0
ENDMDL
