MODEL 1
REMARK minimizedAffinity 15.1160822
REMARK minimizedRMSD -1
REMARK  0 active torsions:
REMARK  status: ('A' for Active; 'I' for Inactive)
ROOT
ATOM      1  C   UNL d   1       4.163  -1.752  -1.066  0.00  0.00     0.078 C 
ATOM      2  C1  UNL d   1       4.350  -3.234  -0.932  0.00  0.00    -0.077 A 
ATOM      3  C2  UNL d   1       3.276  -4.115  -1.108  0.00  0.00    -0.001 A 
ATOM      4  C3  UNL d   1       3.462  -5.491  -0.971  0.00  0.00     0.003 A 
ATOM      5  C4  UNL d   1       4.721  -5.999  -0.657  0.00  0.00    -0.005 A 
ATOM      6  C5  UNL d   1       5.796  -5.130  -0.478  0.00  0.00     0.003 A 
ATOM      7  C6  UNL d   1       5.611  -3.753  -0.615  0.00  0.00    -0.001 A 
ENDROOT
TORSDOF 0
ENDMDL
