MODEL 1
REMARK minimizedAffinity 4.1344223
REMARK minimizedRMSD -1
REMARK  0 active torsions:
REMARK  status: ('A' for Active; 'I' for Inactive)
ROOT
ATOM      1  C   UNL d   1       4.896  -2.662  -1.239  0.00  0.00     0.078 C 
ATOM      2  C1  UNL d   1       3.732  -2.889  -0.321  0.00  0.00    -0.077 A 
ATOM      3  C2  UNL d   1       2.931  -4.031  -0.442  0.00  0.00    -0.001 A 
ATOM      4  C3  UNL d   1       1.844  -4.225   0.413  0.00  0.00     0.003 A 
ATOM      5  C4  UNL d   1       1.548  -3.279   1.393  0.00  0.00    -0.005 A 
ATOM      6  C5  UNL d   1       2.338  -2.138   1.518  0.00  0.00     0.003 A 
ATOM      7  C6  UNL d   1       3.425  -1.943   0.665  0.00  0.00    -0.001 A 
ENDROOT
TORSDOF 0
ENDMDL
