MODEL 1
REMARK minimizedAffinity 6.78586197
REMARK minimizedRMSD -1
REMARK  0 active torsions:
REMARK  status: ('A' for Active; 'I' for Inactive)
ROOT
ATOM      1  C   UNL d   1       1.878  -5.931  -4.392  0.00  0.00     0.078 C 
ATOM      2  C1  UNL d   1       0.482  -5.478  -4.083  0.00  0.00    -0.077 A 
ATOM      3  C2  UNL d   1       0.234  -4.546  -3.069  0.00  0.00    -0.001 A 
ATOM      4  C3  UNL d   1      -1.071  -4.140  -2.786  0.00  0.00     0.003 A 
ATOM      5  C4  UNL d   1      -2.139  -4.663  -3.513  0.00  0.00    -0.005 A 
ATOM      6  C5  UNL d   1      -1.903  -5.593  -4.523  0.00  0.00     0.003 A 
ATOM      7  C6  UNL d   1      -0.598  -5.999  -4.807  0.00  0.00    -0.001 A 
ENDROOT
TORSDOF 0
ENDMDL
