MODEL 1
REMARK minimizedAffinity 6.16965294
REMARK minimizedRMSD -1
REMARK  0 active torsions:
REMARK  status: ('A' for Active; 'I' for Inactive)
ROOT
ATOM      1  C   UNL d   1       1.049  -2.274   1.559  0.00  0.00     0.078 C 
ATOM      2  C1  UNL d   1      -0.317  -1.658   1.604  0.00  0.00    -0.077 A 
ATOM      3  C2  UNL d   1      -0.480  -0.275   1.754  0.00  0.00    -0.001 A 
ATOM      4  C3  UNL d   1      -1.758   0.284   1.804  0.00  0.00     0.003 A 
ATOM      5  C4  UNL d   1      -2.883  -0.532   1.706  0.00  0.00    -0.005 A 
ATOM      6  C5  UNL d   1      -2.731  -1.910   1.559  0.00  0.00     0.003 A 
ATOM      7  C6  UNL d   1      -1.454  -2.470   1.509  0.00  0.00    -0.001 A 
ENDROOT
TORSDOF 0
ENDMDL
