MODEL 1
REMARK minimizedAffinity -5.33086872
REMARK minimizedRMSD -1
REMARK  0 active torsions:
REMARK  status: ('A' for Active; 'I' for Inactive)
ROOT
ATOM      1  C   UNL d   1       1.078   1.442  -1.060  0.00  0.00     0.078 C 
ATOM      2  C1  UNL d   1       0.422   0.269  -0.396  0.00  0.00    -0.077 A 
ATOM      3  C2  UNL d   1      -0.973   0.167  -0.326  0.00  0.00    -0.001 A 
ATOM      4  C3  UNL d   1      -1.570  -0.926   0.304  0.00  0.00     0.003 A 
ATOM      5  C4  UNL d   1      -0.781  -1.925   0.870  0.00  0.00    -0.005 A 
ATOM      6  C5  UNL d   1       0.608  -1.831   0.806  0.00  0.00     0.003 A 
ATOM      7  C6  UNL d   1       1.207  -0.739   0.177  0.00  0.00    -0.001 A 
ENDROOT
TORSDOF 0
ENDMDL
