MODEL 1
REMARK minimizedAffinity -1.66061366
REMARK minimizedRMSD -1
REMARK  0 active torsions:
REMARK  status: ('A' for Active; 'I' for Inactive)
ROOT
ATOM      1  C   UNL d   1      -1.666   1.772   1.200  0.00  0.00     0.078 C 
ATOM      2  C1  UNL d   1      -1.016   0.422   1.255  0.00  0.00    -0.077 A 
ATOM      3  C2  UNL d   1       0.054   0.102   0.410  0.00  0.00    -0.001 A 
ATOM      4  C3  UNL d   1       0.644  -1.162   0.465  0.00  0.00     0.003 A 
ATOM      5  C4  UNL d   1       0.169  -2.117   1.362  0.00  0.00    -0.005 A 
ATOM      6  C5  UNL d   1      -0.896  -1.809   2.205  0.00  0.00     0.003 A 
ATOM      7  C6  UNL d   1      -1.487  -0.545   2.152  0.00  0.00    -0.001 A 
ENDROOT
TORSDOF 0
ENDMDL
