MODEL 1
REMARK minimizedAffinity -1.5923053
REMARK minimizedRMSD -1
REMARK  0 active torsions:
REMARK  status: ('A' for Active; 'I' for Inactive)
ROOT
ATOM      1  C4' PXY d   1       1.281  -3.298  -1.122  0.00  0.00     0.077 C 
ATOM      2  C1' PXY d   1       0.508   2.343  -0.121  0.00  0.00     0.077 C 
ATOM      3  C1  PXY d   1       0.723   0.866  -0.385  0.00  0.00    -0.082 A 
ATOM      4  C2  PXY d   1      -0.283   0.126  -0.822  0.00  0.00     0.003 A 
ATOM      5  C3  PXY d   1      -0.114  -1.218  -1.035  0.00  0.00     0.003 A 
ATOM      6  C4  PXY d   1       1.112  -1.800  -0.851  0.00  0.00    -0.082 A 
ATOM      7  C5  PXY d   1       2.146  -1.050  -0.416  0.00  0.00     0.003 A 
ATOM      8  C6  PXY d   1       1.943   0.304  -0.165  0.00  0.00     0.003 A 
ENDROOT
TORSDOF 0
ENDMDL
