MODEL 1
REMARK minimizedAffinity -5.68169308
REMARK minimizedRMSD -1
REMARK  0 active torsions:
REMARK  status: ('A' for Active; 'I' for Inactive)
ROOT
ATOM      1  C4' PXY d   1      -1.646   0.880  -0.042  0.00  0.00     0.077 C 
ATOM      2  C1' PXY d   1       3.739  -1.067   0.744  0.00  0.00     0.077 C 
ATOM      3  C1  PXY d   1       2.325  -0.566   0.529  0.00  0.00    -0.082 A 
ATOM      4  C2  PXY d   1       2.029   0.694   0.803  0.00  0.00     0.003 A 
ATOM      5  C3  PXY d   1       0.747   1.156   0.645  0.00  0.00     0.003 A 
ATOM      6  C4  PXY d   1      -0.229   0.333   0.151  0.00  0.00    -0.082 A 
ATOM      7  C5  PXY d   1       0.067  -0.951  -0.141  0.00  0.00     0.003 A 
ATOM      8  C6  PXY d   1       1.364  -1.411   0.065  0.00  0.00     0.003 A 
ENDROOT
TORSDOF 0
ENDMDL
