MODEL 1
REMARK minimizedAffinity -4.84492302
REMARK minimizedRMSD -1
REMARK  0 active torsions:
REMARK  status: ('A' for Active; 'I' for Inactive)
ROOT
ATOM      1  C4' PXY d   1      -1.845   0.822  -0.531  0.00  0.00     0.077 C 
ATOM      2  C1' PXY d   1       3.200  -1.587   0.937  0.00  0.00     0.077 C 
ATOM      3  C1  PXY d   1       1.876  -0.963   0.541  0.00  0.00    -0.082 A 
ATOM      4  C2  PXY d   1       1.569   0.249   0.976  0.00  0.00     0.003 A 
ATOM      5  C3  PXY d   1       0.362   0.815   0.654  0.00  0.00     0.003 A 
ATOM      6  C4  PXY d   1      -0.516   0.157  -0.165  0.00  0.00    -0.082 A 
ATOM      7  C5  PXY d   1      -0.205  -1.075  -0.621  0.00  0.00     0.003 A 
ATOM      8  C6  PXY d   1       1.007  -1.649  -0.249  0.00  0.00     0.003 A 
ENDROOT
TORSDOF 0
ENDMDL
