MODEL 1
REMARK minimizedAffinity -4.97402096
REMARK minimizedRMSD -1
REMARK  0 active torsions:
REMARK  status: ('A' for Active; 'I' for Inactive)
ROOT
ATOM      1  C4' PXY d   1      -2.311   0.759  -0.000  0.00  0.00     0.077 C 
ATOM      2  C1' PXY d   1       3.003  -1.473   0.432  0.00  0.00     0.077 C 
ATOM      3  C1  PXY d   1       1.612  -0.880   0.329  0.00  0.00    -0.082 A 
ATOM      4  C2  PXY d   1       0.636  -1.592  -0.210  0.00  0.00     0.003 A 
ATOM      5  C3  PXY d   1      -0.621  -1.058  -0.341  0.00  0.00     0.003 A 
ATOM      6  C4  PXY d   1      -0.893   0.197   0.134  0.00  0.00    -0.082 A 
ATOM      7  C5  PXY d   1       0.095   0.926   0.694  0.00  0.00     0.003 A 
ATOM      8  C6  PXY d   1       1.374   0.382   0.780  0.00  0.00     0.003 A 
ENDROOT
TORSDOF 0
ENDMDL
