MODEL 1
REMARK minimizedAffinity 0.319810778
REMARK minimizedRMSD -1
REMARK  0 active torsions:
REMARK  status: ('A' for Active; 'I' for Inactive)
ROOT
ATOM      1  C4' PXY d   1       0.047  -1.233  -1.004  0.00  0.00     0.077 C 
ATOM      2  C1' PXY d   1      -4.244   2.279   0.632  0.00  0.00     0.077 C 
ATOM      3  C1  PXY d   1      -3.114   1.367   0.195  0.00  0.00    -0.082 A 
ATOM      4  C2  PXY d   1      -3.259   0.055   0.287  0.00  0.00     0.003 A 
ATOM      5  C3  PXY d   1      -2.236  -0.783  -0.074  0.00  0.00     0.003 A 
ATOM      6  C4  PXY d   1      -1.071  -0.275  -0.583  0.00  0.00    -0.082 A 
ATOM      7  C5  PXY d   1      -0.919   1.062  -0.690  0.00  0.00     0.003 A 
ATOM      8  C6  PXY d   1      -1.954   1.897  -0.280  0.00  0.00     0.003 A 
ENDROOT
TORSDOF 0
ENDMDL
