MODEL 1
REMARK minimizedAffinity -4.72968674
REMARK minimizedRMSD -1
REMARK  0 active torsions:
REMARK  status: ('A' for Active; 'I' for Inactive)
ROOT
ATOM      1  C4' PXY d   1      -1.632   0.730  -0.340  0.00  0.00     0.077 C 
ATOM      2  C1' PXY d   1       3.773  -1.191   0.376  0.00  0.00     0.077 C 
ATOM      3  C1  PXY d   1       2.355  -0.693   0.176  0.00  0.00    -0.082 A 
ATOM      4  C2  PXY d   1       1.927   0.353   0.864  0.00  0.00     0.003 A 
ATOM      5  C3  PXY d   1       0.637   0.797   0.720  0.00  0.00     0.003 A 
ATOM      6  C4  PXY d   1      -0.205   0.198  -0.178  0.00  0.00    -0.082 A 
ATOM      7  C5  PXY d   1       0.228  -0.863  -0.891  0.00  0.00     0.003 A 
ATOM      8  C6  PXY d   1       1.527  -1.324  -0.700  0.00  0.00     0.003 A 
ENDROOT
TORSDOF 0
ENDMDL
