MODEL 1
REMARK minimizedAffinity -2.17862892
REMARK minimizedRMSD -1
REMARK  0 active torsions:
REMARK  status: ('A' for Active; 'I' for Inactive)
ROOT
ATOM      1  C4' PXY d   1       2.062   1.625   0.006  0.00  0.00     0.077 C 
ATOM      2  C1' PXY d   1      -0.038  -3.737  -0.502  0.00  0.00     0.077 C 
ATOM      3  C1  PXY d   1       0.501  -2.326  -0.374  0.00  0.00    -0.082 A 
ATOM      4  C2  PXY d   1       1.809  -2.124  -0.362  0.00  0.00     0.003 A 
ATOM      5  C3  PXY d   1       2.314  -0.858  -0.215  0.00  0.00     0.003 A 
ATOM      6  C4  PXY d   1       1.472   0.218  -0.131  0.00  0.00    -0.082 A 
ATOM      7  C5  PXY d   1       0.137   0.022  -0.153  0.00  0.00     0.003 A 
ATOM      8  C6  PXY d   1      -0.356  -1.276  -0.262  0.00  0.00     0.003 A 
ENDROOT
TORSDOF 0
ENDMDL
