MODEL 1
REMARK minimizedAffinity -1.68066621
REMARK minimizedRMSD -1
REMARK  0 active torsions:
REMARK  status: ('A' for Active; 'I' for Inactive)
ROOT
ATOM      1  C4' PXY d   1      -3.423   1.190   0.112  0.00  0.00     0.077 C 
ATOM      2  C1' PXY d   1       1.613  -1.454  -0.922  0.00  0.00     0.077 C 
ATOM      3  C1  PXY d   1       0.298  -0.750  -0.648  0.00  0.00    -0.082 A 
ATOM      4  C2  PXY d   1      -0.754  -1.454  -0.267  0.00  0.00     0.003 A 
ATOM      5  C3  PXY d   1      -1.959  -0.837  -0.046  0.00  0.00     0.003 A 
ATOM      6  C4  PXY d   1      -2.074   0.522  -0.166  0.00  0.00    -0.082 A 
ATOM      7  C5  PXY d   1      -1.001   1.249  -0.545  0.00  0.00     0.003 A 
ATOM      8  C6  PXY d   1       0.202   0.599  -0.804  0.00  0.00     0.003 A 
ENDROOT
TORSDOF 0
ENDMDL
