MODEL 1
REMARK minimizedAffinity -2.73389077
REMARK minimizedRMSD -1
REMARK  0 active torsions:
REMARK  status: ('A' for Active; 'I' for Inactive)
ROOT
ATOM      1  C4' PXY d   1       3.044  -1.336   0.614  0.00  0.00     0.077 C 
ATOM      2  C1' PXY d   1      -2.146   0.910  -0.583  0.00  0.00     0.077 C 
ATOM      3  C1  PXY d   1      -0.790   0.309  -0.269  0.00  0.00    -0.082 A 
ATOM      4  C2  PXY d   1       0.145   1.061   0.289  0.00  0.00     0.003 A 
ATOM      5  C3  PXY d   1       1.387   0.542   0.551  0.00  0.00     0.003 A 
ATOM      6  C4  PXY d   1       1.658  -0.774   0.288  0.00  0.00    -0.082 A 
ATOM      7  C5  PXY d   1       0.705  -1.550  -0.272  0.00  0.00     0.003 A 
ATOM      8  C6  PXY d   1      -0.536  -0.994  -0.567  0.00  0.00     0.003 A 
ENDROOT
TORSDOF 0
ENDMDL
