MODEL 1
REMARK minimizedAffinity -5.1757102
REMARK minimizedRMSD -1
REMARK  0 active torsions:
REMARK  status: ('A' for Active; 'I' for Inactive)
ROOT
ATOM      1  C4' PXY d   1      -2.435   0.831  -0.320  0.00  0.00     0.077 C 
ATOM      2  C1' PXY d   1       2.465  -2.234  -0.186  0.00  0.00     0.077 C 
ATOM      3  C1  PXY d   1       1.178  -1.434  -0.233  0.00  0.00    -0.082 A 
ATOM      4  C2  PXY d   1       1.042  -0.367   0.537  0.00  0.00     0.003 A 
ATOM      5  C3  PXY d   1      -0.128   0.349   0.530  0.00  0.00     0.003 A 
ATOM      6  C4  PXY d   1      -1.149  -0.001  -0.312  0.00  0.00    -0.082 A 
ATOM      7  C5  PXY d   1      -1.014  -1.082  -1.109  0.00  0.00     0.003 A 
ATOM      8  C6  PXY d   1       0.165  -1.819  -1.057  0.00  0.00     0.003 A 
ENDROOT
TORSDOF 0
ENDMDL
