MODEL 1
REMARK minimizedAffinity -5.32423067
REMARK minimizedRMSD -1
REMARK  0 active torsions:
REMARK  status: ('A' for Active; 'I' for Inactive)
ROOT
ATOM      1  C4' PXY d   1       2.614  -0.993   0.671  0.00  0.00     0.077 C 
ATOM      2  C1' PXY d   1      -2.276   1.826  -0.576  0.00  0.00     0.077 C 
ATOM      3  C1  PXY d   1      -0.987   1.097  -0.254  0.00  0.00    -0.082 A 
ATOM      4  C2  PXY d   1      -0.988  -0.223  -0.159  0.00  0.00     0.003 A 
ATOM      5  C3  PXY d   1       0.163  -0.896   0.163  0.00  0.00     0.003 A 
ATOM      6  C4  PXY d   1       1.338  -0.216   0.338  0.00  0.00    -0.082 A 
ATOM      7  C5  PXY d   1       1.349   1.130   0.233  0.00  0.00     0.003 A 
ATOM      8  C6  PXY d   1       0.162   1.798  -0.055  0.00  0.00     0.003 A 
ENDROOT
TORSDOF 0
ENDMDL
