MODEL 1
REMARK minimizedAffinity -1.82640541
REMARK minimizedRMSD -1
REMARK  0 active torsions:
REMARK  status: ('A' for Active; 'I' for Inactive)
ROOT
ATOM      1  C4' PXY d   1      -0.934   0.794  -2.153  0.00  0.00     0.077 C 
ATOM      2  C1' PXY d   1       1.986   0.945   2.834  0.00  0.00     0.077 C 
ATOM      3  C1  PXY d   1       1.228   0.895   1.522  0.00  0.00    -0.082 A 
ATOM      4  C2  PXY d   1       0.629   1.985   1.071  0.00  0.00     0.003 A 
ATOM      5  C3  PXY d   1      -0.089   1.950  -0.097  0.00  0.00     0.003 A 
ATOM      6  C4  PXY d   1      -0.149   0.800  -0.838  0.00  0.00    -0.082 A 
ATOM      7  C5  PXY d   1       0.469  -0.313  -0.390  0.00  0.00     0.003 A 
ATOM      8  C6  PXY d   1       1.157  -0.267   0.819  0.00  0.00     0.003 A 
ENDROOT
TORSDOF 0
ENDMDL
