MODEL 1
REMARK minimizedAffinity 6.0903945
REMARK minimizedRMSD -1
REMARK  2 active torsions:
REMARK  status: ('A' for Active; 'I' for Inactive)
REMARK    1  A    between atoms: C2'_3  and  C1'_4 
REMARK    2  A    between atoms: C1'_4  and  C1_5 
ROOT
ATOM      1  C1  I4B d   1       3.463   2.093   0.255  0.00  0.00    -0.075 A 
ATOM      2  C2  I4B d   1       4.819   1.950   0.099  0.00  0.00     0.003 A 
ATOM      3  C3  I4B d   1       5.695   2.995   0.481  0.00  0.00     0.002 A 
ATOM      4  C4  I4B d   1       5.172   4.177   0.964  0.00  0.00    -0.004 A 
ATOM      5  C5  I4B d   1       3.798   4.312   1.143  0.00  0.00     0.002 A 
ATOM      6  C6  I4B d   1       2.939   3.259   0.798  0.00  0.00     0.003 A 
ENDROOT
BRANCH   1   7
ATOM      7  C1' I4B d   1       2.565   0.982  -0.189  0.00  0.00     0.060 C 
BRANCH   7   8
ATOM      8  C2' I4B d   1       1.745   0.538   1.005  0.00  0.00    -0.013 C 
ATOM      9  C4' I4B d   1       0.805  -0.579   0.636  0.00  0.00     0.013 C 
ATOM     10  C3' I4B d   1       2.694   0.113   2.086  0.00  0.00     0.013 C 
ENDBRANCH   7   8
ENDBRANCH   1   7
TORSDOF 2
ENDMDL
