MODEL 1
REMARK minimizedAffinity 10.110692
REMARK minimizedRMSD -1
REMARK  2 active torsions:
REMARK  status: ('A' for Active; 'I' for Inactive)
REMARK    1  A    between atoms: C2'_3  and  C1'_4 
REMARK    2  A    between atoms: C1'_4  and  C1_5 
ROOT
ATOM      1  C1  I4B d   1      -5.950   2.415   3.545  0.00  0.00    -0.075 A 
ATOM      2  C2  I4B d   1      -5.952   1.693   4.712  0.00  0.00     0.003 A 
ATOM      3  C3  I4B d   1      -5.986   2.357   5.962  0.00  0.00     0.002 A 
ATOM      4  C4  I4B d   1      -5.967   3.737   5.999  0.00  0.00    -0.004 A 
ATOM      5  C5  I4B d   1      -5.988   4.467   4.815  0.00  0.00     0.002 A 
ATOM      6  C6  I4B d   1      -5.992   3.803   3.580  0.00  0.00     0.003 A 
ENDROOT
BRANCH   1   7
ATOM      7  C1' I4B d   1      -5.880   1.681   2.244  0.00  0.00     0.060 C 
BRANCH   7   8
ATOM      8  C2' I4B d   1      -4.427   1.351   1.971  0.00  0.00    -0.013 C 
ATOM      9  C4' I4B d   1      -4.294   0.041   1.240  0.00  0.00     0.013 C 
ATOM     10  C3' I4B d   1      -3.837   2.477   1.176  0.00  0.00     0.013 C 
ENDBRANCH   7   8
ENDBRANCH   1   7
TORSDOF 2
ENDMDL
