MODEL 1
REMARK minimizedAffinity 11.4545851
REMARK minimizedRMSD -1
REMARK  2 active torsions:
REMARK  status: ('A' for Active; 'I' for Inactive)
REMARK    1  A    between atoms: C2'_3  and  C1'_4 
REMARK    2  A    between atoms: C1'_4  and  C1_5 
ROOT
ATOM      1  C1  I4B d   1      -1.516   1.116   1.940  0.00  0.00    -0.075 A 
ATOM      2  C2  I4B d   1      -2.167   1.775   2.954  0.00  0.00     0.003 A 
ATOM      3  C3  I4B d   1      -3.566   1.980   2.887  0.00  0.00     0.002 A 
ATOM      4  C4  I4B d   1      -4.262   1.558   1.773  0.00  0.00    -0.004 A 
ATOM      5  C5  I4B d   1      -3.605   0.870   0.757  0.00  0.00     0.002 A 
ATOM      6  C6  I4B d   1      -2.225   0.637   0.847  0.00  0.00     0.003 A 
ENDROOT
BRANCH   1   7
ATOM      7  C1' I4B d   1      -0.032   0.946   2.028  0.00  0.00     0.060 C 
BRANCH   7   8
ATOM      8  C2' I4B d   1       0.373  -0.131   1.042  0.00  0.00    -0.013 C 
ATOM      9  C4' I4B d   1       1.865  -0.150   0.838  0.00  0.00     0.013 C 
ATOM     10  C3' I4B d   1      -0.119  -1.447   1.566  0.00  0.00     0.013 C 
ENDBRANCH   7   8
ENDBRANCH   1   7
TORSDOF 2
ENDMDL
