MODEL 1
REMARK minimizedAffinity 1.80668128
REMARK minimizedRMSD -1
REMARK  2 active torsions:
REMARK  status: ('A' for Active; 'I' for Inactive)
REMARK    1  A    between atoms: C2'_3  and  C1'_4 
REMARK    2  A    between atoms: C1'_4  and  C1_5 
ROOT
ATOM      1  C1  I4B d   1      -0.479   0.138   1.409  0.00  0.00    -0.075 A 
ATOM      2  C2  I4B d   1      -0.178   1.174   0.560  0.00  0.00     0.003 A 
ATOM      3  C3  I4B d   1       1.047   1.181  -0.149  0.00  0.00     0.002 A 
ATOM      4  C4  I4B d   1       1.958   0.166   0.057  0.00  0.00    -0.004 A 
ATOM      5  C5  I4B d   1       1.642  -0.895   0.901  0.00  0.00     0.002 A 
ATOM      6  C6  I4B d   1       0.411  -0.915   1.572  0.00  0.00     0.003 A 
ENDROOT
BRANCH   1   7
ATOM      7  C1' I4B d   1      -1.767   0.179   2.168  0.00  0.00     0.060 C 
BRANCH   7   8
ATOM      8  C2' I4B d   1      -2.671   1.196   1.500  0.00  0.00    -0.013 C 
ATOM      9  C4' I4B d   1      -3.363   0.604   0.300  0.00  0.00     0.013 C 
ATOM     10  C3' I4B d   1      -3.663   1.673   2.517  0.00  0.00     0.013 C 
ENDBRANCH   7   8
ENDBRANCH   1   7
TORSDOF 2
ENDMDL
