MODEL 1
REMARK minimizedAffinity 7.73795795
REMARK minimizedRMSD -1
REMARK  2 active torsions:
REMARK  status: ('A' for Active; 'I' for Inactive)
REMARK    1  A    between atoms: C2'_3  and  C1'_4 
REMARK    2  A    between atoms: C1'_4  and  C1_5 
ROOT
ATOM      1  C1  I4B d   1      -1.868   1.095   1.654  0.00  0.00    -0.075 A 
ATOM      2  C2  I4B d   1      -0.621   1.335   2.175  0.00  0.00     0.003 A 
ATOM      3  C3  I4B d   1       0.421   0.393   1.993  0.00  0.00     0.002 A 
ATOM      4  C4  I4B d   1       0.160  -0.789   1.331  0.00  0.00    -0.004 A 
ATOM      5  C5  I4B d   1      -1.099  -1.020   0.783  0.00  0.00     0.002 A 
ATOM      6  C6  I4B d   1      -2.116  -0.067   0.935  0.00  0.00     0.003 A 
ENDROOT
BRANCH   1   7
ATOM      7  C1' I4B d   1      -2.954   2.096   1.894  0.00  0.00     0.060 C 
BRANCH   7   8
ATOM      8  C2' I4B d   1      -4.192   1.344   2.337  0.00  0.00    -0.013 C 
ATOM      9  C4' I4B d   1      -4.390   1.449   3.826  0.00  0.00     0.013 C 
ATOM     10  C3' I4B d   1      -5.366   1.907   1.593  0.00  0.00     0.013 C 
ENDBRANCH   7   8
ENDBRANCH   1   7
TORSDOF 2
ENDMDL
