MODEL 1
REMARK minimizedAffinity 6.49409342
REMARK minimizedRMSD -1
REMARK  2 active torsions:
REMARK  status: ('A' for Active; 'I' for Inactive)
REMARK    1  A    between atoms: C2'_3  and  C1'_4 
REMARK    2  A    between atoms: C1'_4  and  C1_5 
ROOT
ATOM      1  C1  I4B d   1      -2.492   0.023   0.628  0.00  0.00    -0.075 A 
ATOM      2  C2  I4B d   1      -3.774   0.460   0.850  0.00  0.00     0.003 A 
ATOM      3  C3  I4B d   1      -4.015   1.538   1.736  0.00  0.00     0.002 A 
ATOM      4  C4  I4B d   1      -2.958   2.112   2.412  0.00  0.00    -0.004 A 
ATOM      5  C5  I4B d   1      -1.657   1.683   2.168  0.00  0.00     0.002 A 
ATOM      6  C6  I4B d   1      -1.420   0.639   1.261  0.00  0.00     0.003 A 
ENDROOT
BRANCH   1   7
ATOM      7  C1' I4B d   1      -2.276  -1.140  -0.289  0.00  0.00     0.060 C 
BRANCH   7   8
ATOM      8  C2' I4B d   1      -1.471  -2.182   0.461  0.00  0.00    -0.013 C 
ATOM      9  C4' I4B d   1      -2.329  -2.924   1.452  0.00  0.00     0.013 C 
ATOM     10  C3' I4B d   1      -0.875  -3.119  -0.547  0.00  0.00     0.013 C 
ENDBRANCH   7   8
ENDBRANCH   1   7
TORSDOF 2
ENDMDL
