MODEL 1
REMARK minimizedAffinity 9.20716286
REMARK minimizedRMSD -1
REMARK  2 active torsions:
REMARK  status: ('A' for Active; 'I' for Inactive)
REMARK    1  A    between atoms: C2'_3  and  C1'_4 
REMARK    2  A    between atoms: C1'_4  and  C1_5 
ROOT
ATOM      1  C1  I4B d   1      -0.919   0.322   1.329  0.00  0.00    -0.075 A 
ATOM      2  C2  I4B d   1       0.181   0.569   2.111  0.00  0.00     0.003 A 
ATOM      3  C3  I4B d   1       0.136   1.573   3.108  0.00  0.00     0.002 A 
ATOM      4  C4  I4B d   1      -1.005   2.336   3.254  0.00  0.00    -0.004 A 
ATOM      5  C5  I4B d   1      -2.127   2.068   2.475  0.00  0.00     0.002 A 
ATOM      6  C6  I4B d   1      -2.089   1.047   1.515  0.00  0.00     0.003 A 
ENDROOT
BRANCH   1   7
ATOM      7  C1' I4B d   1      -0.826  -0.724   0.263  0.00  0.00     0.060 C 
BRANCH   7   8
ATOM      8  C2' I4B d   1      -2.065  -1.591   0.351  0.00  0.00    -0.013 C 
ATOM      9  C4' I4B d   1      -2.947  -1.406  -0.855  0.00  0.00     0.013 C 
ATOM     10  C3' I4B d   1      -1.622  -3.018   0.484  0.00  0.00     0.013 C 
ENDBRANCH   7   8
ENDBRANCH   1   7
TORSDOF 2
ENDMDL
