MODEL 1
REMARK minimizedAffinity 4.63738155
REMARK minimizedRMSD -1
REMARK  2 active torsions:
REMARK  status: ('A' for Active; 'I' for Inactive)
REMARK    1  A    between atoms: C2'_3  and  C1'_4 
REMARK    2  A    between atoms: C1'_4  and  C1_5 
ROOT
ATOM      1  C1  I4B d   1      -0.977   0.102   1.275  0.00  0.00    -0.075 A 
ATOM      2  C2  I4B d   1      -2.109   0.860   1.437  0.00  0.00     0.003 A 
ATOM      3  C3  I4B d   1      -2.106   1.966   2.321  0.00  0.00     0.002 A 
ATOM      4  C4  I4B d   1      -0.972   2.246   3.055  0.00  0.00    -0.004 A 
ATOM      5  C5  I4B d   1       0.182   1.490   2.873  0.00  0.00     0.002 A 
ATOM      6  C6  I4B d   1       0.184   0.419   1.968  0.00  0.00     0.003 A 
ENDROOT
BRANCH   1   7
ATOM      7  C1' I4B d   1      -1.025  -1.079   0.358  0.00  0.00     0.060 C 
BRANCH   7   8
ATOM      8  C2' I4B d   1      -2.006  -2.079   0.937  0.00  0.00    -0.013 C 
ATOM      9  C4' I4B d   1      -3.325  -2.031   0.211  0.00  0.00     0.013 C 
ATOM     10  C3' I4B d   1      -1.386  -3.441   0.845  0.00  0.00     0.013 C 
ENDBRANCH   7   8
ENDBRANCH   1   7
TORSDOF 2
ENDMDL
