MODEL 1
REMARK minimizedAffinity 8.2824688
REMARK minimizedRMSD -1
REMARK  2 active torsions:
REMARK  status: ('A' for Active; 'I' for Inactive)
REMARK    1  A    between atoms: C2'_3  and  C1'_4 
REMARK    2  A    between atoms: C1'_4  and  C1_5 
ROOT
ATOM      1  C1  I4B d   1      -0.181   0.715   1.446  0.00  0.00    -0.075 A 
ATOM      2  C2  I4B d   1       0.624   1.563   2.164  0.00  0.00     0.003 A 
ATOM      3  C3  I4B d   1       0.081   2.346   3.211  0.00  0.00     0.002 A 
ATOM      4  C4  I4B d   1      -1.273   2.289   3.471  0.00  0.00    -0.004 A 
ATOM      5  C5  I4B d   1      -2.084   1.411   2.757  0.00  0.00     0.002 A 
ATOM      6  C6  I4B d   1      -1.533   0.610   1.746  0.00  0.00     0.003 A 
ENDROOT
BRANCH   1   7
ATOM      7  C1' I4B d   1       0.419  -0.073   0.326  0.00  0.00     0.060 C 
BRANCH   7   8
ATOM      8  C2' I4B d   1       1.785   0.509   0.025  0.00  0.00    -0.013 C 
ATOM      9  C4' I4B d   1       2.767  -0.569  -0.350  0.00  0.00     0.013 C 
ATOM     10  C3' I4B d   1       1.629   1.508  -1.082  0.00  0.00     0.013 C 
ENDBRANCH   7   8
ENDBRANCH   1   7
TORSDOF 2
ENDMDL
