MODEL 1
REMARK minimizedAffinity 12.0874128
REMARK minimizedRMSD -1
REMARK  2 active torsions:
REMARK  status: ('A' for Active; 'I' for Inactive)
REMARK    1  A    between atoms: C2'_3  and  C1'_4 
REMARK    2  A    between atoms: C1'_4  and  C1_5 
ROOT
ATOM      1  C1  I4B d   1       0.032   0.359   1.465  0.00  0.00    -0.075 A 
ATOM      2  C2  I4B d   1       0.230   0.794   2.751  0.00  0.00     0.003 A 
ATOM      3  C3  I4B d   1      -0.783   1.520   3.422  0.00  0.00     0.002 A 
ATOM      4  C4  I4B d   1      -1.951   1.831   2.757  0.00  0.00    -0.004 A 
ATOM      5  C5  I4B d   1      -2.160   1.369   1.460  0.00  0.00     0.002 A 
ATOM      6  C6  I4B d   1      -1.168   0.618   0.814  0.00  0.00     0.003 A 
ENDROOT
BRANCH   1   7
ATOM      7  C1' I4B d   1       1.136  -0.377   0.774  0.00  0.00     0.060 C 
BRANCH   7   8
ATOM      8  C2' I4B d   1       2.348   0.532   0.734  0.00  0.00    -0.013 C 
ATOM      9  C4' I4B d   1       3.508  -0.137   0.043  0.00  0.00     0.013 C 
ATOM     10  C3' I4B d   1       1.955   1.797   0.030  0.00  0.00     0.013 C 
ENDBRANCH   7   8
ENDBRANCH   1   7
TORSDOF 2
ENDMDL
