MODEL 1
REMARK minimizedAffinity 6.99388218
REMARK minimizedRMSD -1
REMARK  2 active torsions:
REMARK  status: ('A' for Active; 'I' for Inactive)
REMARK    1  A    between atoms: C2'_3  and  C1'_4 
REMARK    2  A    between atoms: C1'_4  and  C1_5 
ROOT
ATOM      1  C1  I4B d   1      -0.741   0.326   1.236  0.00  0.00    -0.075 A 
ATOM      2  C2  I4B d   1       0.545   0.678   1.561  0.00  0.00     0.003 A 
ATOM      3  C3  I4B d   1       0.787   1.651   2.561  0.00  0.00     0.002 A 
ATOM      4  C4  I4B d   1      -0.281   2.279   3.170  0.00  0.00    -0.004 A 
ATOM      5  C5  I4B d   1      -1.584   1.904   2.856  0.00  0.00     0.002 A 
ATOM      6  C6  I4B d   1      -1.816   0.912   1.891  0.00  0.00     0.003 A 
ENDROOT
BRANCH   1   7
ATOM      7  C1' I4B d   1      -0.960  -0.682   0.152  0.00  0.00     0.060 C 
BRANCH   7   8
ATOM      8  C2' I4B d   1      -2.013  -1.661   0.630  0.00  0.00    -0.013 C 
ATOM      9  C4' I4B d   1      -3.125  -1.801  -0.376  0.00  0.00     0.013 C 
ATOM     10  C3' I4B d   1      -1.341  -2.977   0.882  0.00  0.00     0.013 C 
ENDBRANCH   7   8
ENDBRANCH   1   7
TORSDOF 2
ENDMDL
