MODEL 1
REMARK minimizedAffinity 14.3678865
REMARK minimizedRMSD -1
REMARK  2 active torsions:
REMARK  status: ('A' for Active; 'I' for Inactive)
REMARK    1  A    between atoms: C2'_3  and  C1'_4 
REMARK    2  A    between atoms: C1'_4  and  C1_5 
ROOT
ATOM      1  C1  I4B d   1      -0.674   1.090   2.041  0.00  0.00    -0.075 A 
ATOM      2  C2  I4B d   1      -0.706  -0.271   1.864  0.00  0.00     0.003 A 
ATOM      3  C3  I4B d   1       0.498  -1.016   1.851  0.00  0.00     0.002 A 
ATOM      4  C4  I4B d   1       1.706  -0.359   1.968  0.00  0.00    -0.004 A 
ATOM      5  C5  I4B d   1       1.734   1.018   2.171  0.00  0.00     0.002 A 
ATOM      6  C6  I4B d   1       0.537   1.746   2.220  0.00  0.00     0.003 A 
ENDROOT
BRANCH   1   7
ATOM      7  C1' I4B d   1      -1.962   1.850   2.016  0.00  0.00     0.060 C 
BRANCH   7   8
ATOM      8  C2' I4B d   1      -2.995   0.995   1.309  0.00  0.00    -0.013 C 
ATOM      9  C4' I4B d   1      -4.369   1.602   1.414  0.00  0.00     0.013 C 
ATOM     10  C3' I4B d   1      -2.575   0.850  -0.123  0.00  0.00     0.013 C 
ENDBRANCH   7   8
ENDBRANCH   1   7
TORSDOF 2
ENDMDL
