MODEL 1
REMARK minimizedAffinity -5.36524105
REMARK minimizedRMSD -1
REMARK  0 active torsions:
REMARK  status: ('A' for Active; 'I' for Inactive)
ROOT
ATOM      1  C   UNL d   1      -0.861  -0.169   0.838  0.00  0.00     0.077 C 
ATOM      2  C1  UNL d   1      -1.957   0.422   1.674  0.00  0.00    -0.074 A 
ATOM      3  C2  UNL d   1      -3.296   0.086   1.446  0.00  0.00    -0.005 A 
ATOM      4  C3  UNL d   1      -4.304   0.637   2.237  0.00  0.00     0.006 A 
ATOM      5  C4  UNL d   1      -3.984   1.527   3.263  0.00  0.00    -0.005 A 
ATOM      6  C5  UNL d   1      -2.651   1.874   3.507  0.00  0.00    -0.074 A 
ATOM      7  C6  UNL d   1      -2.289   2.822   4.611  0.00  0.00     0.077 C 
ATOM      8  C7  UNL d   1      -1.643   1.311   2.711  0.00  0.00    -0.001 A 
ENDROOT
TORSDOF 0
ENDMDL
