MODEL 1
REMARK minimizedAffinity -3.34174013
REMARK minimizedRMSD -1
REMARK  0 active torsions:
REMARK  status: ('A' for Active; 'I' for Inactive)
ROOT
ATOM      1  C   UNL d   1       1.276  -0.079  -2.876  0.00  0.00     0.077 C 
ATOM      2  C1  UNL d   1       0.801   0.150  -1.472  0.00  0.00    -0.074 A 
ATOM      3  C2  UNL d   1       0.831   1.427  -0.901  0.00  0.00    -0.005 A 
ATOM      4  C3  UNL d   1       0.377   1.626   0.402  0.00  0.00     0.006 A 
ATOM      5  C4  UNL d   1      -0.111   0.552   1.148  0.00  0.00    -0.005 A 
ATOM      6  C5  UNL d   1      -0.149  -0.732   0.594  0.00  0.00    -0.074 A 
ATOM      7  C6  UNL d   1      -0.680  -1.895   1.378  0.00  0.00     0.077 C 
ATOM      8  C7  UNL d   1       0.302  -0.922  -0.719  0.00  0.00    -0.001 A 
ENDROOT
TORSDOF 0
ENDMDL
