MODEL 1
REMARK minimizedAffinity -3.51435995
REMARK minimizedRMSD -1
REMARK  0 active torsions:
REMARK  status: ('A' for Active; 'I' for Inactive)
ROOT
ATOM      1  C   UNL d   1      -3.366   2.403   3.668  0.00  0.00     0.077 C 
ATOM      2  C1  UNL d   1      -2.897   1.266   2.810  0.00  0.00    -0.074 A 
ATOM      3  C2  UNL d   1      -3.756   0.213   2.480  0.00  0.00    -0.005 A 
ATOM      4  C3  UNL d   1      -3.308  -0.833   1.673  0.00  0.00     0.006 A 
ATOM      5  C4  UNL d   1      -1.999  -0.837   1.190  0.00  0.00    -0.005 A 
ATOM      6  C5  UNL d   1      -1.126   0.208   1.509  0.00  0.00    -0.074 A 
ATOM      7  C6  UNL d   1       0.281   0.225   0.989  0.00  0.00     0.077 C 
ATOM      8  C7  UNL d   1      -1.586   1.260   2.314  0.00  0.00    -0.001 A 
ENDROOT
TORSDOF 0
ENDMDL
