MODEL 1
REMARK minimizedAffinity -0.370507985
REMARK minimizedRMSD -1
REMARK  0 active torsions:
REMARK  status: ('A' for Active; 'I' for Inactive)
ROOT
ATOM      1  C   UNL d   1      -0.686   0.215   0.953  0.00  0.00     0.077 C 
ATOM      2  C1  UNL d   1       0.413   0.261  -0.066  0.00  0.00    -0.074 A 
ATOM      3  C2  UNL d   1       0.840   1.477  -0.609  0.00  0.00    -0.005 A 
ATOM      4  C3  UNL d   1       1.870   1.505  -1.549  0.00  0.00     0.006 A 
ATOM      5  C4  UNL d   1       2.483   0.319  -1.955  0.00  0.00    -0.005 A 
ATOM      6  C5  UNL d   1       2.071  -0.906  -1.422  0.00  0.00    -0.074 A 
ATOM      7  C6  UNL d   1       2.726  -2.189  -1.840  0.00  0.00     0.077 C 
ATOM      8  C7  UNL d   1       1.040  -0.925  -0.473  0.00  0.00    -0.001 A 
ENDROOT
TORSDOF 0
ENDMDL
