MODEL 1
REMARK minimizedAffinity 2.82247472
REMARK minimizedRMSD -1
REMARK  0 active torsions:
REMARK  status: ('A' for Active; 'I' for Inactive)
ROOT
ATOM      1  C   UNL d   1       0.145  -2.455   0.034  0.00  0.00     0.077 C 
ATOM      2  C1  UNL d   1      -0.007  -0.979   0.252  0.00  0.00    -0.074 A 
ATOM      3  C2  UNL d   1       0.955  -0.080  -0.221  0.00  0.00    -0.005 A 
ATOM      4  C3  UNL d   1       0.796   1.291  -0.019  0.00  0.00     0.006 A 
ATOM      5  C4  UNL d   1      -0.324   1.776   0.658  0.00  0.00    -0.005 A 
ATOM      6  C5  UNL d   1      -1.296   0.893   1.138  0.00  0.00    -0.074 A 
ATOM      7  C6  UNL d   1      -2.510   1.398   1.859  0.00  0.00     0.077 C 
ATOM      8  C7  UNL d   1      -1.133  -0.483   0.924  0.00  0.00    -0.001 A 
ENDROOT
TORSDOF 0
ENDMDL
