MODEL 1
REMARK minimizedAffinity -3.69124961
REMARK minimizedRMSD -1
REMARK  0 active torsions:
REMARK  status: ('A' for Active; 'I' for Inactive)
ROOT
ATOM      1  C   UNL d   1       0.234  -0.855  -1.498  0.00  0.00     0.077 C 
ATOM      2  C1  UNL d   1      -0.272  -0.449  -0.145  0.00  0.00    -0.074 A 
ATOM      3  C2  UNL d   1       0.540   0.266   0.741  0.00  0.00    -0.005 A 
ATOM      4  C3  UNL d   1       0.053   0.644   1.992  0.00  0.00     0.006 A 
ATOM      5  C4  UNL d   1      -1.249   0.313   2.369  0.00  0.00    -0.005 A 
ATOM      6  C5  UNL d   1      -2.076  -0.401   1.495  0.00  0.00    -0.074 A 
ATOM      7  C6  UNL d   1      -3.481  -0.757   1.880  0.00  0.00     0.077 C 
ATOM      8  C7  UNL d   1      -1.582  -0.772   0.237  0.00  0.00    -0.001 A 
ENDROOT
TORSDOF 0
ENDMDL
