MODEL 1
REMARK minimizedAffinity -4.23632956
REMARK minimizedRMSD -1
REMARK  0 active torsions:
REMARK  status: ('A' for Active; 'I' for Inactive)
ROOT
ATOM      1  C   UNL d   1      -5.243   0.477  -5.610  0.00  0.00     0.077 C 
ATOM      2  C1  UNL d   1      -4.687   1.870  -5.582  0.00  0.00    -0.074 A 
ATOM      3  C2  UNL d   1      -3.309   2.091  -5.495  0.00  0.00    -0.005 A 
ATOM      4  C3  UNL d   1      -2.805   3.392  -5.479  0.00  0.00     0.006 A 
ATOM      5  C4  UNL d   1      -3.673   4.482  -5.551  0.00  0.00    -0.005 A 
ATOM      6  C5  UNL d   1      -5.054   4.280  -5.640  0.00  0.00    -0.074 A 
ATOM      7  C6  UNL d   1      -6.000   5.441  -5.729  0.00  0.00     0.077 C 
ATOM      8  C7  UNL d   1      -5.552   2.970  -5.662  0.00  0.00    -0.001 A 
ENDROOT
TORSDOF 0
ENDMDL
