MODEL 1
REMARK minimizedAffinity -3.19977856
REMARK minimizedRMSD -1
REMARK  0 active torsions:
REMARK  status: ('A' for Active; 'I' for Inactive)
ROOT
ATOM      1  C   UNL d   1       1.845  -0.919  -3.221  0.00  0.00     0.077 C 
ATOM      2  C1  UNL d   1       1.151  -0.690  -1.911  0.00  0.00    -0.074 A 
ATOM      3  C2  UNL d   1       0.508  -1.738  -1.246  0.00  0.00    -0.005 A 
ATOM      4  C3  UNL d   1      -0.126  -1.512  -0.024  0.00  0.00     0.006 A 
ATOM      5  C4  UNL d   1      -0.122  -0.238   0.545  0.00  0.00    -0.005 A 
ATOM      6  C5  UNL d   1       0.517   0.823  -0.106  0.00  0.00    -0.074 A 
ATOM      7  C6  UNL d   1       0.538   2.197   0.496  0.00  0.00     0.077 C 
ATOM      8  C7  UNL d   1       1.157   0.586  -1.330  0.00  0.00    -0.001 A 
ENDROOT
TORSDOF 0
ENDMDL
