MODEL 1
REMARK minimizedAffinity -5.08606911
REMARK minimizedRMSD -1
REMARK  0 active torsions:
REMARK  status: ('A' for Active; 'I' for Inactive)
ROOT
ATOM      1  C   UNL d   1       1.789  -0.181  -3.186  0.00  0.00     0.077 C 
ATOM      2  C1  UNL d   1       1.089  -0.287  -1.864  0.00  0.00    -0.074 A 
ATOM      3  C2  UNL d   1       0.492  -1.486  -1.461  0.00  0.00    -0.005 A 
ATOM      4  C3  UNL d   1      -0.147  -1.573  -0.224  0.00  0.00     0.006 A 
ATOM      5  C4  UNL d   1      -0.195  -0.463   0.621  0.00  0.00    -0.005 A 
ATOM      6  C5  UNL d   1       0.397   0.744   0.236  0.00  0.00    -0.074 A 
ATOM      7  C6  UNL d   1       0.362   1.943   1.136  0.00  0.00     0.077 C 
ATOM      8  C7  UNL d   1       1.043   0.821  -1.006  0.00  0.00    -0.001 A 
ENDROOT
TORSDOF 0
ENDMDL
