MODEL 1
REMARK minimizedAffinity -0.736751437
REMARK minimizedRMSD -1
REMARK  0 active torsions:
REMARK  status: ('A' for Active; 'I' for Inactive)
ROOT
ATOM      1  C   UNL d   1       1.131   2.414   0.484  0.00  0.00     0.077 C 
ATOM      2  C1  UNL d   1       0.479   1.070   0.348  0.00  0.00    -0.074 A 
ATOM      3  C2  UNL d   1      -0.373   0.580   1.343  0.00  0.00    -0.005 A 
ATOM      4  C3  UNL d   1      -0.980  -0.667   1.198  0.00  0.00     0.006 A 
ATOM      5  C4  UNL d   1      -0.741  -1.436   0.058  0.00  0.00    -0.005 A 
ATOM      6  C5  UNL d   1       0.107  -0.963  -0.948  0.00  0.00    -0.074 A 
ATOM      7  C6  UNL d   1       0.366  -1.772  -2.184  0.00  0.00     0.077 C 
ATOM      8  C7  UNL d   1       0.707   0.295  -0.798  0.00  0.00    -0.001 A 
ENDROOT
TORSDOF 0
ENDMDL
