MODEL 1
REMARK minimizedAffinity -1.57185912
REMARK minimizedRMSD -1
REMARK  0 active torsions:
REMARK  status: ('A' for Active; 'I' for Inactive)
ROOT
ATOM      1  C   UNL d   1       0.655  -1.213  -1.724  0.00  0.00     0.077 C 
ATOM      2  C1  UNL d   1       0.251  -0.313  -0.594  0.00  0.00    -0.074 A 
ATOM      3  C2  UNL d   1       1.002   0.823  -0.276  0.00  0.00    -0.005 A 
ATOM      4  C3  UNL d   1       0.609   1.656   0.771  0.00  0.00     0.006 A 
ATOM      5  C4  UNL d   1      -0.537   1.361   1.511  0.00  0.00    -0.005 A 
ATOM      6  C5  UNL d   1      -1.301   0.230   1.208  0.00  0.00    -0.074 A 
ATOM      7  C6  UNL d   1      -2.541  -0.096   1.986  0.00  0.00     0.077 C 
ATOM      8  C7  UNL d   1      -0.904  -0.598   0.149  0.00  0.00    -0.001 A 
ENDROOT
TORSDOF 0
ENDMDL
