MODEL 1
REMARK minimizedAffinity -4.80376673
REMARK minimizedRMSD -1
REMARK  0 active torsions:
REMARK  status: ('A' for Active; 'I' for Inactive)
ROOT
ATOM      1  C   UNL d   1       3.536   0.452  -1.276  0.00  0.00     0.077 C 
ATOM      2  C1  UNL d   1       2.045   0.491  -1.430  0.00  0.00    -0.074 A 
ATOM      3  C2  UNL d   1       1.454   0.562  -2.696  0.00  0.00    -0.005 A 
ATOM      4  C3  UNL d   1       0.066   0.588  -2.823  0.00  0.00     0.006 A 
ATOM      5  C4  UNL d   1      -0.745   0.545  -1.688  0.00  0.00    -0.005 A 
ATOM      6  C5  UNL d   1      -0.173   0.473  -0.415  0.00  0.00    -0.074 A 
ATOM      7  C6  UNL d   1      -1.030   0.416   0.815  0.00  0.00     0.077 C 
ATOM      8  C7  UNL d   1       1.223   0.440  -0.295  0.00  0.00    -0.001 A 
ENDROOT
TORSDOF 0
ENDMDL
