MODEL 1
REMARK minimizedAffinity -2.49175453
REMARK minimizedRMSD -1
REMARK  0 active torsions:
REMARK  status: ('A' for Active; 'I' for Inactive)
ROOT
ATOM      1  C   UNL d   1      -5.961   0.765  -5.983  0.00  0.00     0.077 C 
ATOM      2  C1  UNL d   1      -4.796   1.701  -5.857  0.00  0.00    -0.074 A 
ATOM      3  C2  UNL d   1      -3.503   1.214  -5.638  0.00  0.00    -0.005 A 
ATOM      4  C3  UNL d   1      -2.428   2.096  -5.533  0.00  0.00     0.006 A 
ATOM      5  C4  UNL d   1      -2.634   3.472  -5.646  0.00  0.00    -0.005 A 
ATOM      6  C5  UNL d   1      -3.919   3.977  -5.866  0.00  0.00    -0.074 A 
ATOM      7  C6  UNL d   1      -4.156   5.452  -6.000  0.00  0.00     0.077 C 
ATOM      8  C7  UNL d   1      -4.993   3.084  -5.978  0.00  0.00    -0.001 A 
ENDROOT
TORSDOF 0
ENDMDL
