MODEL 1
REMARK minimizedAffinity -4.19262505
REMARK minimizedRMSD -1
REMARK  0 active torsions:
REMARK  status: ('A' for Active; 'I' for Inactive)
ROOT
ATOM      1  C   UNL d   1      -0.830  -1.113   1.236  0.00  0.00     0.077 C 
ATOM      2  C1  UNL d   1      -0.021  -0.229   0.334  0.00  0.00    -0.074 A 
ATOM      3  C2  UNL d   1       0.337   1.064   0.727  0.00  0.00    -0.005 A 
ATOM      4  C3  UNL d   1       1.097   1.871  -0.119  0.00  0.00     0.006 A 
ATOM      5  C4  UNL d   1       1.507   1.394  -1.365  0.00  0.00    -0.005 A 
ATOM      6  C5  UNL d   1       1.159   0.103  -1.774  0.00  0.00    -0.074 A 
ATOM      7  C6  UNL d   1       1.599  -0.429  -3.106  0.00  0.00     0.077 C 
ATOM      8  C7  UNL d   1       0.401  -0.705  -0.916  0.00  0.00    -0.001 A 
ENDROOT
TORSDOF 0
ENDMDL
