MODEL 1
REMARK minimizedAffinity -5.78507471
REMARK minimizedRMSD -1
REMARK  0 active torsions:
REMARK  status: ('A' for Active; 'I' for Inactive)
ROOT
ATOM      1  C   UNL d   1       0.804  -3.497  -1.445  0.00  0.00     0.077 C 
ATOM      2  C1  UNL d   1       1.153  -2.040  -1.524  0.00  0.00    -0.074 A 
ATOM      3  C2  UNL d   1       2.043  -1.566  -2.493  0.00  0.00    -0.005 A 
ATOM      4  C3  UNL d   1       2.350  -0.207  -2.561  0.00  0.00     0.006 A 
ATOM      5  C4  UNL d   1       1.772   0.689  -1.661  0.00  0.00    -0.005 A 
ATOM      6  C5  UNL d   1       0.880   0.234  -0.686  0.00  0.00    -0.074 A 
ATOM      7  C6  UNL d   1       0.242   1.185   0.282  0.00  0.00     0.077 C 
ATOM      8  C7  UNL d   1       0.570  -1.132  -0.629  0.00  0.00    -0.001 A 
ENDROOT
TORSDOF 0
ENDMDL
