MODEL 1
REMARK minimizedAffinity -4.56944609
REMARK minimizedRMSD -1
REMARK  0 active torsions:
REMARK  status: ('A' for Active; 'I' for Inactive)
ROOT
ATOM      1  C   UNL d   1       1.263   1.963   1.623  0.00  0.00     0.077 C 
ATOM      2  C1  UNL d   1       0.712   1.175   0.472  0.00  0.00    -0.074 A 
ATOM      3  C2  UNL d   1      -0.652   0.877   0.392  0.00  0.00    -0.005 A 
ATOM      4  C3  UNL d   1      -1.151   0.151  -0.690  0.00  0.00     0.006 A 
ATOM      5  C4  UNL d   1      -0.293  -0.284  -1.700  0.00  0.00    -0.005 A 
ATOM      6  C5  UNL d   1       1.074   0.005  -1.637  0.00  0.00    -0.074 A 
ATOM      7  C6  UNL d   1       2.009  -0.447  -2.720  0.00  0.00     0.077 C 
ATOM      8  C7  UNL d   1       1.567   0.741  -0.551  0.00  0.00    -0.001 A 
ENDROOT
TORSDOF 0
ENDMDL
