MODEL 1
REMARK minimizedAffinity -4.31005573
REMARK minimizedRMSD -1
REMARK  0 active torsions:
REMARK  status: ('A' for Active; 'I' for Inactive)
ROOT
ATOM      1  C   UNL d   1      -1.141   3.257   1.116  0.00  0.00    -0.002 A 
ATOM      2  C1  UNL d   1      -1.240   3.198  -0.267  0.00  0.00     0.010 A 
ATOM      3  C2  UNL d   1      -0.845   2.051  -0.959  0.00  0.00     0.041 A 
ATOM      4  C3  UNL d   1      -0.346   0.954  -0.230  0.00  0.00    -0.075 A 
ATOM      5  S   UNL d   1       0.197  -0.555  -0.864  0.00  0.00     0.015 SA
ATOM      6  C4  UNL d   1       0.572  -1.157   0.686  0.00  0.00     0.022 A 
ATOM      7  C5  UNL d   1       0.297  -0.242   1.674  0.00  0.00     0.026 A 
ATOM      8  C6  UNL d   1      -0.237   0.989   1.163  0.00  0.00    -0.082 A 
ATOM      9  C7  UNL d   1      -0.645   2.166   1.835  0.00  0.00     0.045 A 
ENDROOT
TORSDOF 0
ENDMDL
