MODEL 1
REMARK minimizedAffinity -3.54347587
REMARK minimizedRMSD -1
REMARK  0 active torsions:
REMARK  status: ('A' for Active; 'I' for Inactive)
ROOT
ATOM      1  C   UNL d   1      -1.321   2.848   0.709  0.00  0.00    -0.002 A 
ATOM      2  C1  UNL d   1      -1.146   3.196  -0.623  0.00  0.00     0.010 A 
ATOM      3  C2  UNL d   1      -0.617   2.279  -1.533  0.00  0.00     0.041 A 
ATOM      4  C3  UNL d   1      -0.265   0.993  -1.078  0.00  0.00    -0.075 A 
ATOM      5  S   UNL d   1       0.399  -0.294  -2.013  0.00  0.00     0.015 SA
ATOM      6  C4  UNL d   1       0.465  -1.337  -0.667  0.00  0.00     0.022 A 
ATOM      7  C5  UNL d   1      -0.003  -0.734   0.476  0.00  0.00     0.026 A 
ATOM      8  C6  UNL d   1      -0.433   0.619   0.258  0.00  0.00    -0.082 A 
ATOM      9  C7  UNL d   1      -0.971   1.571   1.156  0.00  0.00     0.045 A 
ENDROOT
TORSDOF 0
ENDMDL
