MODEL 1
REMARK minimizedAffinity -4.07682896
REMARK minimizedRMSD -1
REMARK  0 active torsions:
REMARK  status: ('A' for Active; 'I' for Inactive)
ROOT
ATOM      1  C   UNL d   1      -1.110   3.464   0.749  0.00  0.00    -0.002 A 
ATOM      2  C1  UNL d   1      -1.149   3.362  -0.634  0.00  0.00     0.010 A 
ATOM      3  C2  UNL d   1      -0.729   2.194  -1.273  0.00  0.00     0.041 A 
ATOM      4  C3  UNL d   1      -0.267   1.118  -0.489  0.00  0.00    -0.075 A 
ATOM      5  S   UNL d   1       0.296  -0.412  -1.052  0.00  0.00     0.015 SA
ATOM      6  C4  UNL d   1       0.600  -0.966   0.531  0.00  0.00     0.022 A 
ATOM      7  C5  UNL d   1       0.285  -0.021   1.478  0.00  0.00     0.026 A 
ATOM      8  C6  UNL d   1      -0.220   1.196   0.906  0.00  0.00    -0.082 A 
ATOM      9  C7  UNL d   1      -0.652   2.395   1.523  0.00  0.00     0.045 A 
ENDROOT
TORSDOF 0
ENDMDL
