MODEL 1
REMARK minimizedAffinity -1.31261265
REMARK minimizedRMSD -1
REMARK  0 active torsions:
REMARK  status: ('A' for Active; 'I' for Inactive)
ROOT
ATOM      1  C4' PXY d   1      -1.720  -6.000  -5.939  0.00  0.00     0.077 C 
ATOM      2  C1' PXY d   1      -5.999  -3.104  -3.346  0.00  0.00     0.077 C 
ATOM      3  C1  PXY d   1      -4.886  -3.869  -4.035  0.00  0.00    -0.082 A 
ATOM      4  C2  PXY d   1      -3.786  -4.169  -3.363  0.00  0.00     0.003 A 
ATOM      5  C3  PXY d   1      -2.756  -4.831  -3.979  0.00  0.00     0.003 A 
ATOM      6  C4  PXY d   1      -2.874  -5.238  -5.281  0.00  0.00    -0.082 A 
ATOM      7  C5  PXY d   1      -3.997  -4.945  -5.971  0.00  0.00     0.003 A 
ATOM      8  C6  PXY d   1      -5.015  -4.235  -5.339  0.00  0.00     0.003 A 
ENDROOT
TORSDOF 0
ENDMDL
