MODEL 1
REMARK minimizedAffinity -2.64524579
REMARK minimizedRMSD -1
REMARK  0 active torsions:
REMARK  status: ('A' for Active; 'I' for Inactive)
ROOT
ATOM      1  C4' PXY d   1      -1.499  -5.987  -5.473  0.00  0.00     0.077 C 
ATOM      2  C1' PXY d   1      -5.999  -2.496  -4.487  0.00  0.00     0.077 C 
ATOM      3  C1  PXY d   1      -4.811  -3.403  -4.739  0.00  0.00    -0.082 A 
ATOM      4  C2  PXY d   1      -4.832  -4.238  -5.766  0.00  0.00     0.003 A 
ATOM      5  C3  PXY d   1      -3.779  -5.088  -5.990  0.00  0.00     0.003 A 
ATOM      6  C4  PXY d   1      -2.672  -5.046  -5.186  0.00  0.00    -0.082 A 
ATOM      7  C5  PXY d   1      -2.639  -4.190  -4.142  0.00  0.00     0.003 A 
ATOM      8  C6  PXY d   1      -3.735  -3.365  -3.908  0.00  0.00     0.003 A 
ENDROOT
TORSDOF 0
ENDMDL
