MODEL 1
REMARK minimizedAffinity -4.43727922
REMARK minimizedRMSD -1
REMARK  0 active torsions:
REMARK  status: ('A' for Active; 'I' for Inactive)
ROOT
ATOM      1  C4' PXY d   1      -5.991  -1.131  -4.954  0.00  0.00     0.077 C 
ATOM      2  C1' PXY d   1      -1.868  -5.182  -4.941  0.00  0.00     0.077 C 
ATOM      3  C1  PXY d   1      -2.956  -4.126  -4.935  0.00  0.00    -0.082 A 
ATOM      4  C2  PXY d   1      -3.129  -3.360  -6.000  0.00  0.00     0.003 A 
ATOM      5  C3  PXY d   1      -4.087  -2.379  -6.000  0.00  0.00     0.003 A 
ATOM      6  C4  PXY d   1      -4.911  -2.216  -4.919  0.00  0.00    -0.082 A 
ATOM      7  C5  PXY d   1      -4.748  -3.000  -3.833  0.00  0.00     0.003 A 
ATOM      8  C6  PXY d   1      -3.742  -3.963  -3.837  0.00  0.00     0.003 A 
ENDROOT
TORSDOF 0
ENDMDL
