MODEL 1
REMARK minimizedAffinity 4.47329855
REMARK minimizedRMSD -1
REMARK  0 active torsions:
REMARK  status: ('A' for Active; 'I' for Inactive)
ROOT
ATOM      1  C4' PXY d   1      -2.878  -2.328  -1.515  0.00  0.00     0.077 C 
ATOM      2  C1' PXY d   1      -5.756  -4.575  -5.996  0.00  0.00     0.077 C 
ATOM      3  C1  PXY d   1      -4.996  -3.998  -4.818  0.00  0.00    -0.082 A 
ATOM      4  C2  PXY d   1      -5.424  -2.884  -4.246  0.00  0.00     0.003 A 
ATOM      5  C3  PXY d   1      -4.731  -2.331  -3.200  0.00  0.00     0.003 A 
ATOM      6  C4  PXY d   1      -3.618  -2.952  -2.700  0.00  0.00    -0.082 A 
ATOM      7  C5  PXY d   1      -3.182  -4.095  -3.271  0.00  0.00     0.003 A 
ATOM      8  C6  PXY d   1      -3.876  -4.618  -4.358  0.00  0.00     0.003 A 
ENDROOT
TORSDOF 0
ENDMDL
