MODEL 1
REMARK minimizedAffinity 2.04538798
REMARK minimizedRMSD -1
REMARK  0 active torsions:
REMARK  status: ('A' for Active; 'I' for Inactive)
ROOT
ATOM      1  C4' PXY d   1       0.633  -2.281   1.797  0.00  0.00     0.077 C 
ATOM      2  C1' PXY d   1      -4.211  -0.591  -0.868  0.00  0.00     0.077 C 
ATOM      3  C1  PXY d   1      -2.934  -1.025  -0.175  0.00  0.00    -0.082 A 
ATOM      4  C2  PXY d   1      -2.810  -2.273   0.247  0.00  0.00     0.003 A 
ATOM      5  C3  PXY d   1      -1.675  -2.673   0.904  0.00  0.00     0.003 A 
ATOM      6  C4  PXY d   1      -0.634  -1.801   1.084  0.00  0.00    -0.082 A 
ATOM      7  C5  PXY d   1      -0.749  -0.529   0.647  0.00  0.00     0.003 A 
ATOM      8  C6  PXY d   1      -1.926  -0.132   0.019  0.00  0.00     0.003 A 
ENDROOT
TORSDOF 0
ENDMDL
