MODEL 1
REMARK minimizedAffinity -1.42655337
REMARK minimizedRMSD -1
REMARK  0 active torsions:
REMARK  status: ('A' for Active; 'I' for Inactive)
ROOT
ATOM      1  C4' PXY d   1      -6.000  -1.028  -3.862  0.00  0.00     0.077 C 
ATOM      2  C1' PXY d   1      -3.789  -6.000  -5.814  0.00  0.00     0.077 C 
ATOM      3  C1  PXY d   1      -4.373  -4.693  -5.314  0.00  0.00    -0.082 A 
ATOM      4  C2  PXY d   1      -3.902  -4.148  -4.204  0.00  0.00     0.003 A 
ATOM      5  C3  PXY d   1      -4.440  -2.984  -3.720  0.00  0.00     0.003 A 
ATOM      6  C4  PXY d   1      -5.434  -2.342  -4.409  0.00  0.00    -0.082 A 
ATOM      7  C5  PXY d   1      -5.913  -2.886  -5.548  0.00  0.00     0.003 A 
ATOM      8  C6  PXY d   1      -5.381  -4.090  -6.000  0.00  0.00     0.003 A 
ENDROOT
TORSDOF 0
ENDMDL
