MODEL 1
REMARK minimizedAffinity -2.74794269
REMARK minimizedRMSD -1
REMARK  0 active torsions:
REMARK  status: ('A' for Active; 'I' for Inactive)
ROOT
ATOM      1  C4' PXY d   1      -0.742  -6.000  -4.851  0.00  0.00     0.077 C 
ATOM      2  C1' PXY d   1      -5.682  -2.998  -4.908  0.00  0.00     0.077 C 
ATOM      3  C1  PXY d   1      -4.386  -3.786  -4.906  0.00  0.00    -0.082 A 
ATOM      4  C2  PXY d   1      -4.050  -4.489  -3.837  0.00  0.00     0.003 A 
ATOM      5  C3  PXY d   1      -2.867  -5.181  -3.806  0.00  0.00     0.003 A 
ATOM      6  C4  PXY d   1      -2.045  -5.197  -4.901  0.00  0.00    -0.082 A 
ATOM      7  C5  PXY d   1      -2.386  -4.490  -5.999  0.00  0.00     0.003 A 
ATOM      8  C6  PXY d   1      -3.571  -3.761  -5.995  0.00  0.00     0.003 A 
ENDROOT
TORSDOF 0
ENDMDL
