MODEL 1
REMARK minimizedAffinity -2.70137644
REMARK minimizedRMSD -1
REMARK  0 active torsions:
REMARK  status: ('A' for Active; 'I' for Inactive)
ROOT
ATOM      1  C4' PXY d   1      -0.670  -5.976  -5.565  0.00  0.00     0.077 C 
ATOM      2  C1' PXY d   1      -6.000  -3.816  -4.980  0.00  0.00     0.077 C 
ATOM      3  C1  PXY d   1      -4.597  -4.371  -5.131  0.00  0.00    -0.082 A 
ATOM      4  C2  PXY d   1      -4.394  -5.443  -5.879  0.00  0.00     0.003 A 
ATOM      5  C3  PXY d   1      -3.137  -5.977  -6.000  0.00  0.00     0.003 A 
ATOM      6  C4  PXY d   1      -2.068  -5.375  -5.392  0.00  0.00    -0.082 A 
ATOM      7  C5  PXY d   1      -2.265  -4.275  -4.636  0.00  0.00     0.003 A 
ATOM      8  C6  PXY d   1      -3.555  -3.773  -4.492  0.00  0.00     0.003 A 
ENDROOT
TORSDOF 0
ENDMDL
