MODEL 1
REMARK minimizedAffinity -1.86955237
REMARK minimizedRMSD -1
REMARK  0 active torsions:
REMARK  status: ('A' for Active; 'I' for Inactive)
ROOT
ATOM      1  C4' PXY d   1      -0.835  -5.634  -4.833  0.00  0.00     0.077 C 
ATOM      2  C1' PXY d   1      -5.999  -3.039  -4.952  0.00  0.00     0.077 C 
ATOM      3  C1  PXY d   1      -4.644  -3.717  -4.908  0.00  0.00    -0.082 A 
ATOM      4  C2  PXY d   1      -3.896  -3.756  -5.999  0.00  0.00     0.003 A 
ATOM      5  C3  PXY d   1      -2.683  -4.393  -5.985  0.00  0.00     0.003 A 
ATOM      6  C4  PXY d   1      -2.206  -4.951  -4.829  0.00  0.00    -0.082 A 
ATOM      7  C5  PXY d   1      -2.958  -4.906  -3.709  0.00  0.00     0.003 A 
ATOM      8  C6  PXY d   1      -4.206  -4.290  -3.755  0.00  0.00     0.003 A 
ENDROOT
TORSDOF 0
ENDMDL
