MODEL 1
REMARK minimizedAffinity -1.63981795
REMARK minimizedRMSD -1
REMARK  0 active torsions:
REMARK  status: ('A' for Active; 'I' for Inactive)
ROOT
ATOM      1  C4' PXY d   1      -5.997  -2.882  -4.838  0.00  0.00     0.077 C 
ATOM      2  C1' PXY d   1      -1.023  -5.807  -4.494  0.00  0.00     0.077 C 
ATOM      3  C1  PXY d   1      -2.331  -5.045  -4.573  0.00  0.00    -0.082 A 
ATOM      4  C2  PXY d   1      -2.826  -4.714  -5.754  0.00  0.00     0.003 A 
ATOM      5  C3  PXY d   1      -3.991  -3.997  -5.843  0.00  0.00     0.003 A 
ATOM      6  C4  PXY d   1      -4.684  -3.660  -4.711  0.00  0.00    -0.082 A 
ATOM      7  C5  PXY d   1      -4.192  -4.003  -3.502  0.00  0.00     0.003 A 
ATOM      8  C6  PXY d   1      -2.986  -4.695  -3.432  0.00  0.00     0.003 A 
ENDROOT
TORSDOF 0
ENDMDL
