MODEL 1
REMARK minimizedAffinity 0.994645476
REMARK minimizedRMSD -1
REMARK  0 active torsions:
REMARK  status: ('A' for Active; 'I' for Inactive)
ROOT
ATOM      1  C4' PXY d   1      -5.280  -2.929  -3.845  0.00  0.00     0.077 C 
ATOM      2  C1' PXY d   1      -0.834  -6.000  -5.899  0.00  0.00     0.077 C 
ATOM      3  C1  PXY d   1      -2.004  -5.205  -5.354  0.00  0.00    -0.082 A 
ATOM      4  C2  PXY d   1      -2.419  -4.127  -5.999  0.00  0.00     0.003 A 
ATOM      5  C3  PXY d   1      -3.456  -3.378  -5.503  0.00  0.00     0.003 A 
ATOM      6  C4  PXY d   1      -4.108  -3.767  -4.364  0.00  0.00    -0.082 A 
ATOM      7  C5  PXY d   1      -3.697  -4.872  -3.706  0.00  0.00     0.003 A 
ATOM      8  C6  PXY d   1      -2.617  -5.595  -4.204  0.00  0.00     0.003 A 
ENDROOT
TORSDOF 0
ENDMDL
