MODEL 1
REMARK minimizedAffinity 1.78936553
REMARK minimizedRMSD -1
REMARK  0 active torsions:
REMARK  status: ('A' for Active; 'I' for Inactive)
ROOT
ATOM      1  C4' PXY d   1       4.354   0.999  -2.566  0.00  0.00     0.077 C 
ATOM      2  C1' PXY d   1      -0.786   2.711  -4.581  0.00  0.00     0.077 C 
ATOM      3  C1  PXY d   1       0.565   2.259  -4.065  0.00  0.00    -0.082 A 
ATOM      4  C2  PXY d   1       0.696   1.906  -2.796  0.00  0.00     0.003 A 
ATOM      5  C3  PXY d   1       1.918   1.525  -2.305  0.00  0.00     0.003 A 
ATOM      6  C4  PXY d   1       3.006   1.453  -3.133  0.00  0.00    -0.082 A 
ATOM      7  C5  PXY d   1       2.878   1.801  -4.431  0.00  0.00     0.003 A 
ATOM      8  C6  PXY d   1       1.638   2.225  -4.900  0.00  0.00     0.003 A 
ENDROOT
TORSDOF 0
ENDMDL
