MODEL 1
REMARK minimizedAffinity 9.01519775
REMARK minimizedRMSD -1
REMARK  0 active torsions:
REMARK  status: ('A' for Active; 'I' for Inactive)
ROOT
ATOM      1  C4' PXY d   1      -5.999  -4.066  -5.999  0.00  0.00     0.077 C 
ATOM      2  C1' PXY d   1      -1.591  -3.207  -2.359  0.00  0.00     0.077 C 
ATOM      3  C1  PXY d   1      -2.741  -3.424  -3.322  0.00  0.00    -0.082 A 
ATOM      4  C2  PXY d   1      -3.926  -3.784  -2.856  0.00  0.00     0.003 A 
ATOM      5  C3  PXY d   1      -4.969  -4.016  -3.716  0.00  0.00     0.003 A 
ATOM      6  C4  PXY d   1      -4.811  -3.826  -5.062  0.00  0.00    -0.082 A 
ATOM      7  C5  PXY d   1      -3.609  -3.449  -5.545  0.00  0.00     0.003 A 
ATOM      8  C6  PXY d   1      -2.552  -3.258  -4.659  0.00  0.00     0.003 A 
ENDROOT
TORSDOF 0
ENDMDL
