MODEL 1
REMARK minimizedAffinity -2.21998882
REMARK minimizedRMSD -1
REMARK  0 active torsions:
REMARK  status: ('A' for Active; 'I' for Inactive)
ROOT
ATOM      1  C4' PXY d   1      -0.810  -5.992  -4.710  0.00  0.00     0.077 C 
ATOM      2  C1' PXY d   1      -6.000  -3.645  -5.699  0.00  0.00     0.077 C 
ATOM      3  C1  PXY d   1      -4.634  -4.249  -5.437  0.00  0.00    -0.082 A 
ATOM      4  C2  PXY d   1      -4.309  -5.401  -6.000  0.00  0.00     0.003 A 
ATOM      5  C3  PXY d   1      -3.091  -5.977  -5.748  0.00  0.00     0.003 A 
ATOM      6  C4  PXY d   1      -2.175  -5.341  -4.954  0.00  0.00    -0.082 A 
ATOM      7  C5  PXY d   1      -2.494  -4.159  -4.385  0.00  0.00     0.003 A 
ATOM      8  C6  PXY d   1      -3.752  -3.612  -4.620  0.00  0.00     0.003 A 
ENDROOT
TORSDOF 0
ENDMDL
