MODEL 1
REMARK minimizedAffinity -0.563197911
REMARK minimizedRMSD -1
REMARK  0 active torsions:
REMARK  status: ('A' for Active; 'I' for Inactive)
ROOT
ATOM      1  C4' PXY d   1      -4.792  -5.634  -6.000  0.00  0.00     0.077 C 
ATOM      2  C1' PXY d   1       0.145  -6.000  -3.014  0.00  0.00     0.077 C 
ATOM      3  C1  PXY d   1      -1.143  -5.900  -3.808  0.00  0.00    -0.082 A 
ATOM      4  C2  PXY d   1      -2.292  -5.731  -3.173  0.00  0.00     0.003 A 
ATOM      5  C3  PXY d   1      -3.469  -5.671  -3.872  0.00  0.00     0.003 A 
ATOM      6  C4  PXY d   1      -3.466  -5.730  -5.240  0.00  0.00    -0.082 A 
ATOM      7  C5  PXY d   1      -2.297  -5.892  -5.896  0.00  0.00     0.003 A 
ATOM      8  C6  PXY d   1      -1.117  -5.992  -5.165  0.00  0.00     0.003 A 
ENDROOT
TORSDOF 0
ENDMDL
