MODEL 1
REMARK minimizedAffinity -2.0269208
REMARK minimizedRMSD -1
REMARK  0 active torsions:
REMARK  status: ('A' for Active; 'I' for Inactive)
ROOT
ATOM      1  C4' PXY d   1      -1.233  -6.000  -4.539  0.00  0.00     0.077 C 
ATOM      2  C1' PXY d   1      -5.999  -2.764  -5.011  0.00  0.00     0.077 C 
ATOM      3  C1  PXY d   1      -4.750  -3.615  -4.900  0.00  0.00    -0.082 A 
ATOM      4  C2  PXY d   1      -4.408  -4.126  -3.728  0.00  0.00     0.003 A 
ATOM      5  C3  PXY d   1      -3.264  -4.871  -3.603  0.00  0.00     0.003 A 
ATOM      6  C4  PXY d   1      -2.491  -5.142  -4.700  0.00  0.00    -0.082 A 
ATOM      7  C5  PXY d   1      -2.838  -4.634  -5.901  0.00  0.00     0.003 A 
ATOM      8  C6  PXY d   1      -3.981  -3.845  -5.999  0.00  0.00     0.003 A 
ENDROOT
TORSDOF 0
ENDMDL
