MODEL 1
REMARK minimizedAffinity -0.10098394
REMARK minimizedRMSD -1
REMARK  0 active torsions:
REMARK  status: ('A' for Active; 'I' for Inactive)
ROOT
ATOM      1  C4' PXY d   1      -1.523  -6.000  -5.869  0.00  0.00     0.077 C 
ATOM      2  C1' PXY d   1      -5.999  -2.963  -3.830  0.00  0.00     0.077 C 
ATOM      3  C1  PXY d   1      -4.833  -3.767  -4.370  0.00  0.00    -0.082 A 
ATOM      4  C2  PXY d   1      -3.672  -3.742  -3.738  0.00  0.00     0.003 A 
ATOM      5  C3  PXY d   1      -2.598  -4.438  -4.231  0.00  0.00     0.003 A 
ATOM      6  C4  PXY d   1      -2.730  -5.210  -5.354  0.00  0.00    -0.082 A 
ATOM      7  C5  PXY d   1      -3.914  -5.250  -5.999  0.00  0.00     0.003 A 
ATOM      8  C6  PXY d   1      -4.980  -4.503  -5.506  0.00  0.00     0.003 A 
ENDROOT
TORSDOF 0
ENDMDL
