MODEL 1
REMARK minimizedAffinity -2.60984159
REMARK minimizedRMSD -1
REMARK  0 active torsions:
REMARK  status: ('A' for Active; 'I' for Inactive)
ROOT
ATOM      1  C4' PXY d   1      -0.877  -5.954  -5.972  0.00  0.00     0.077 C 
ATOM      2  C1' PXY d   1      -5.999  -3.680  -4.556  0.00  0.00     0.077 C 
ATOM      3  C1  PXY d   1      -4.661  -4.288  -4.928  0.00  0.00    -0.082 A 
ATOM      4  C2  PXY d   1      -3.543  -3.694  -4.544  0.00  0.00     0.003 A 
ATOM      5  C3  PXY d   1      -2.325  -4.213  -4.900  0.00  0.00     0.003 A 
ATOM      6  C4  PXY d   1      -2.250  -5.381  -5.611  0.00  0.00    -0.082 A 
ATOM      7  C5  PXY d   1      -3.386  -5.999  -5.997  0.00  0.00     0.003 A 
ATOM      8  C6  PXY d   1      -4.613  -5.433  -5.662  0.00  0.00     0.003 A 
ENDROOT
TORSDOF 0
ENDMDL
