MODEL 1
REMARK minimizedAffinity -3.67737889
REMARK minimizedRMSD -1
REMARK  0 active torsions:
REMARK  status: ('A' for Active; 'I' for Inactive)
ROOT
ATOM      1  C4' PXY d   1      -5.984  -3.639  -5.426  0.00  0.00     0.077 C 
ATOM      2  C1' PXY d   1      -0.862  -6.000  -4.161  0.00  0.00     0.077 C 
ATOM      3  C1  PXY d   1      -2.208  -5.381  -4.480  0.00  0.00    -0.082 A 
ATOM      4  C2  PXY d   1      -2.732  -5.540  -5.685  0.00  0.00     0.003 A 
ATOM      5  C3  PXY d   1      -3.934  -4.960  -6.000  0.00  0.00     0.003 A 
ATOM      6  C4  PXY d   1      -4.632  -4.254  -5.056  0.00  0.00    -0.082 A 
ATOM      7  C5  PXY d   1      -4.109  -4.096  -3.822  0.00  0.00     0.003 A 
ATOM      8  C6  PXY d   1      -2.868  -4.658  -3.534  0.00  0.00     0.003 A 
ENDROOT
TORSDOF 0
ENDMDL
