MODEL 1
REMARK minimizedAffinity 0.9144153
REMARK minimizedRMSD -1
REMARK  3 active torsions:
REMARK  status: ('A' for Active; 'I' for Inactive)
REMARK    1  A    between atoms: C3'_2  and  C2'_3 
REMARK    2  A    between atoms: C2'_3  and  C1'_4 
REMARK    3  A    between atoms: C1'_4  and  C1_5 
ROOT
ATOM      1  C1  N4B d   1      -1.388  -1.544  -1.221  0.00  0.00    -0.075 A 
ATOM      2  C2  N4B d   1      -2.653  -1.649  -0.601  0.00  0.00     0.002 A 
ATOM      3  C3  N4B d   1      -3.786  -1.767  -1.367  0.00  0.00     0.002 A 
ATOM      4  C4  N4B d   1      -3.681  -1.765  -2.750  0.00  0.00    -0.004 A 
ATOM      5  C5  N4B d   1      -2.454  -1.690  -3.341  0.00  0.00     0.002 A 
ATOM      6  C6  N4B d   1      -1.306  -1.574  -2.583  0.00  0.00     0.002 A 
ENDROOT
BRANCH   1   7
ATOM      7  C1' N4B d   1      -0.129  -1.327  -0.426  0.00  0.00     0.057 C 
BRANCH   7   8
ATOM      8  C2' N4B d   1      -0.019   0.150  -0.057  0.00  0.00     0.009 C 
BRANCH   8   9
ATOM      9  C3' N4B d   1      -0.103   0.368   1.444  0.00  0.00     0.004 C 
ATOM     10  C4' N4B d   1      -0.002   1.814   1.827  0.00  0.00     0.003 C 
ENDBRANCH   8   9
ENDBRANCH   7   8
ENDBRANCH   1   7
TORSDOF 3
ENDMDL
