MODEL 1
REMARK minimizedAffinity -4.10139799
REMARK minimizedRMSD -1
REMARK  3 active torsions:
REMARK  status: ('A' for Active; 'I' for Inactive)
REMARK    1  A    between atoms: C3'_2  and  C2'_3 
REMARK    2  A    between atoms: C2'_3  and  C1'_4 
REMARK    3  A    between atoms: C1'_4  and  C1_5 
ROOT
ATOM      1  C1  N4B d   1      -0.087  -0.551  -0.693  0.00  0.00    -0.075 A 
ATOM      2  C2  N4B d   1       1.109   0.093  -1.080  0.00  0.00     0.002 A 
ATOM      3  C3  N4B d   1       1.521   1.226  -0.423  0.00  0.00     0.002 A 
ATOM      4  C4  N4B d   1       0.748   1.742   0.607  0.00  0.00    -0.004 A 
ATOM      5  C5  N4B d   1      -0.392   1.100   0.991  0.00  0.00     0.002 A 
ATOM      6  C6  N4B d   1      -0.817  -0.043   0.342  0.00  0.00     0.002 A 
ENDROOT
BRANCH   1   7
ATOM      7  C1' N4B d   1      -0.623  -1.744  -1.437  0.00  0.00     0.057 C 
BRANCH   7   8
ATOM      8  C2' N4B d   1      -0.187  -1.660  -2.897  0.00  0.00     0.009 C 
BRANCH   8   9
ATOM      9  C3' N4B d   1      -1.314  -1.188  -3.800  0.00  0.00     0.004 C 
ATOM     10  C4' N4B d   1      -2.661  -1.666  -3.346  0.00  0.00     0.003 C 
ENDBRANCH   8   9
ENDBRANCH   7   8
ENDBRANCH   1   7
TORSDOF 3
ENDMDL
