MODEL 1
REMARK minimizedAffinity -3.90347672
REMARK minimizedRMSD -1
REMARK  3 active torsions:
REMARK  status: ('A' for Active; 'I' for Inactive)
REMARK    1  A    between atoms: C3'_2  and  C2'_3 
REMARK    2  A    between atoms: C2'_3  and  C1'_4 
REMARK    3  A    between atoms: C1'_4  and  C1_5 
ROOT
ATOM      1  C1  N4B d   1      -1.306  -1.286  -1.294  0.00  0.00    -0.075 A 
ATOM      2  C2  N4B d   1      -1.236  -0.322  -2.323  0.00  0.00     0.002 A 
ATOM      3  C3  N4B d   1      -1.941  -0.507  -3.487  0.00  0.00     0.002 A 
ATOM      4  C4  N4B d   1      -2.705  -1.653  -3.651  0.00  0.00    -0.004 A 
ATOM      5  C5  N4B d   1      -2.788  -2.568  -2.642  0.00  0.00     0.002 A 
ATOM      6  C6  N4B d   1      -2.087  -2.392  -1.465  0.00  0.00     0.002 A 
ENDROOT
BRANCH   1   7
ATOM      7  C1' N4B d   1      -0.486  -1.169  -0.039  0.00  0.00     0.057 C 
BRANCH   7   8
ATOM      8  C2' N4B d   1      -0.169   0.302   0.217  0.00  0.00     0.009 C 
BRANCH   8   9
ATOM      9  C3' N4B d   1      -0.656   0.759   1.581  0.00  0.00     0.004 C 
ATOM     10  C4' N4B d   1       0.226   1.807   2.191  0.00  0.00     0.003 C 
ENDBRANCH   8   9
ENDBRANCH   7   8
ENDBRANCH   1   7
TORSDOF 3
ENDMDL
