MODEL 1
REMARK minimizedAffinity -5.22363091
REMARK minimizedRMSD -1
REMARK  3 active torsions:
REMARK  status: ('A' for Active; 'I' for Inactive)
REMARK    1  A    between atoms: C3'_2  and  C2'_3 
REMARK    2  A    between atoms: C2'_3  and  C1'_4 
REMARK    3  A    between atoms: C1'_4  and  C1_5 
ROOT
ATOM      1  C1  N4B d   1       0.924   0.142  -0.098  0.00  0.00    -0.075 A 
ATOM      2  C2  N4B d   1       0.131   1.071   0.610  0.00  0.00     0.002 A 
ATOM      3  C3  N4B d   1       0.718   2.161   1.205  0.00  0.00     0.002 A 
ATOM      4  C4  N4B d   1       2.092   2.332   1.121  0.00  0.00    -0.004 A 
ATOM      5  C5  N4B d   1       2.847   1.443   0.413  0.00  0.00     0.002 A 
ATOM      6  C6  N4B d   1       2.270   0.345  -0.193  0.00  0.00     0.002 A 
ENDROOT
BRANCH   1   7
ATOM      7  C1' N4B d   1       0.339  -1.111  -0.692  0.00  0.00     0.057 C 
BRANCH   7   8
ATOM      8  C2' N4B d   1      -1.100  -0.838  -1.119  0.00  0.00     0.009 C 
BRANCH   8   9
ATOM      9  C3' N4B d   1      -1.341  -1.206  -2.573  0.00  0.00     0.004 C 
ATOM     10  C4' N4B d   1      -2.778  -1.522  -2.862  0.00  0.00     0.003 C 
ENDBRANCH   8   9
ENDBRANCH   7   8
ENDBRANCH   1   7
TORSDOF 3
ENDMDL
