MODEL 1
REMARK minimizedAffinity -4.48235512
REMARK minimizedRMSD -1
REMARK  3 active torsions:
REMARK  status: ('A' for Active; 'I' for Inactive)
REMARK    1  A    between atoms: C3'_2  and  C2'_3 
REMARK    2  A    between atoms: C2'_3  and  C1'_4 
REMARK    3  A    between atoms: C1'_4  and  C1_5 
ROOT
ATOM      1  C1  N4B d   1       0.222   0.988   0.393  0.00  0.00    -0.075 A 
ATOM      2  C2  N4B d   1       0.020   2.085   1.259  0.00  0.00     0.002 A 
ATOM      3  C3  N4B d   1       1.087   2.856   1.651  0.00  0.00     0.002 A 
ATOM      4  C4  N4B d   1       2.362   2.539   1.208  0.00  0.00    -0.004 A 
ATOM      5  C5  N4B d   1       2.545   1.493   0.351  0.00  0.00     0.002 A 
ATOM      6  C6  N4B d   1       1.482   0.712  -0.054  0.00  0.00     0.002 A 
ENDROOT
BRANCH   1   7
ATOM      7  C1' N4B d   1      -0.900   0.065   0.006  0.00  0.00     0.057 C 
BRANCH   7   8
ATOM      8  C2' N4B d   1      -0.335  -1.100  -0.801  0.00  0.00     0.009 C 
BRANCH   8   9
ATOM      9  C3' N4B d   1      -1.390  -1.744  -1.684  0.00  0.00     0.004 C 
ATOM     10  C4' N4B d   1      -1.940  -0.803  -2.714  0.00  0.00     0.003 C 
ENDBRANCH   8   9
ENDBRANCH   7   8
ENDBRANCH   1   7
TORSDOF 3
ENDMDL
