MODEL 1
REMARK minimizedAffinity -0.741065085
REMARK minimizedRMSD -1
REMARK  3 active torsions:
REMARK  status: ('A' for Active; 'I' for Inactive)
REMARK    1  A    between atoms: C3'_2  and  C2'_3 
REMARK    2  A    between atoms: C2'_3  and  C1'_4 
REMARK    3  A    between atoms: C1'_4  and  C1_5 
ROOT
ATOM      1  C1  N4B d   1      -1.104  -0.933  -1.212  0.00  0.00    -0.075 A 
ATOM      2  C2  N4B d   1      -2.331  -1.619  -1.344  0.00  0.00     0.002 A 
ATOM      3  C3  N4B d   1      -2.949  -1.691  -2.569  0.00  0.00     0.002 A 
ATOM      4  C4  N4B d   1      -2.371  -1.071  -3.666  0.00  0.00    -0.004 A 
ATOM      5  C5  N4B d   1      -1.172  -0.432  -3.535  0.00  0.00     0.002 A 
ATOM      6  C6  N4B d   1      -0.538  -0.355  -2.312  0.00  0.00     0.002 A 
ENDROOT
BRANCH   1   7
ATOM      7  C1' N4B d   1      -0.433  -0.754   0.123  0.00  0.00     0.057 C 
BRANCH   7   8
ATOM      8  C2' N4B d   1      -1.218   0.264   0.945  0.00  0.00     0.009 C 
BRANCH   8   9
ATOM      9  C3' N4B d   1      -0.810   0.248   2.408  0.00  0.00     0.004 C 
ATOM     10  C4' N4B d   1       0.063   1.410   2.780  0.00  0.00     0.003 C 
ENDBRANCH   8   9
ENDBRANCH   7   8
ENDBRANCH   1   7
TORSDOF 3
ENDMDL
