MODEL 1
REMARK minimizedAffinity -5.01199675
REMARK minimizedRMSD -1
REMARK  3 active torsions:
REMARK  status: ('A' for Active; 'I' for Inactive)
REMARK    1  A    between atoms: C3'_2  and  C2'_3 
REMARK    2  A    between atoms: C2'_3  and  C1'_4 
REMARK    3  A    between atoms: C1'_4  and  C1_5 
ROOT
ATOM      1  C1  N4B d   1       0.741   0.354  -0.078  0.00  0.00    -0.075 A 
ATOM      2  C2  N4B d   1       0.096   0.452   1.175  0.00  0.00     0.002 A 
ATOM      3  C3  N4B d   1       0.222   1.597   1.923  0.00  0.00     0.002 A 
ATOM      4  C4  N4B d   1       0.998   2.644   1.450  0.00  0.00    -0.004 A 
ATOM      5  C5  N4B d   1       1.597   2.551   0.227  0.00  0.00     0.002 A 
ATOM      6  C6  N4B d   1       1.476   1.408  -0.537  0.00  0.00     0.002 A 
ENDROOT
BRANCH   1   7
ATOM      7  C1' N4B d   1       0.703  -0.910  -0.893  0.00  0.00     0.057 C 
BRANCH   7   8
ATOM      8  C2' N4B d   1      -0.495  -1.750  -0.460  0.00  0.00     0.009 C 
BRANCH   8   9
ATOM      9  C3' N4B d   1      -1.547  -1.843  -1.551  0.00  0.00     0.004 C 
ATOM     10  C4' N4B d   1      -1.030  -1.423  -2.894  0.00  0.00     0.003 C 
ENDBRANCH   8   9
ENDBRANCH   7   8
ENDBRANCH   1   7
TORSDOF 3
ENDMDL
