MODEL 1
REMARK minimizedAffinity -1.87486625
REMARK minimizedRMSD -1
REMARK  0 active torsions:
REMARK  status: ('A' for Active; 'I' for Inactive)
ROOT
ATOM      1  O1  BZF d   1       0.743  -1.319   2.325  0.00  0.00    -0.204 OA
ATOM      2  C2  BZF d   1      -0.400  -0.852   2.945  0.00  0.00     0.174 A 
ATOM      3  C3  BZF d   1      -1.195  -0.212   2.064  0.00  0.00    -0.012 A 
ATOM      4  C3A BZF d   1      -0.550  -0.363   0.796  0.00  0.00    -0.107 A 
ATOM      5  C4  BZF d   1      -0.863   0.042  -0.470  0.00  0.00     0.055 A 
ATOM      6  C5  BZF d   1       0.016  -0.204  -1.478  0.00  0.00    -0.016 A 
ATOM      7  C6  BZF d   1       1.216  -0.846  -1.254  0.00  0.00     0.022 A 
ATOM      8  C7  BZF d   1       1.567  -1.271  -0.016  0.00  0.00     0.029 A 
ATOM      9  C7A BZF d   1       0.667  -1.053   0.998  0.00  0.00     0.058 A 
ENDROOT
TORSDOF 0
ENDMDL
