MODEL 1
REMARK minimizedAffinity -0.841533422
REMARK minimizedRMSD -1
REMARK  0 active torsions:
REMARK  status: ('A' for Active; 'I' for Inactive)
ROOT
ATOM      1  O1  BZF d   1       0.557   0.447  -0.066  0.00  0.00    -0.204 OA
ATOM      2  C2  BZF d   1      -0.456  -0.095   0.701  0.00  0.00     0.174 A 
ATOM      3  C3  BZF d   1      -1.661   0.342   0.280  0.00  0.00    -0.012 A 
ATOM      4  C3A BZF d   1      -1.389   1.138  -0.877  0.00  0.00    -0.107 A 
ATOM      5  C4  BZF d   1      -2.181   1.831  -1.747  0.00  0.00     0.055 A 
ATOM      6  C5  BZF d   1      -1.598   2.566  -2.730  0.00  0.00    -0.016 A 
ATOM      7  C6  BZF d   1      -0.227   2.635  -2.869  0.00  0.00     0.022 A 
ATOM      8  C7  BZF d   1       0.600   1.960  -2.033  0.00  0.00     0.029 A 
ATOM      9  C7A BZF d   1       0.012   1.191  -1.059  0.00  0.00     0.058 A 
ENDROOT
TORSDOF 0
ENDMDL
