MODEL 1
REMARK minimizedAffinity -2.38881326
REMARK minimizedRMSD -1
REMARK  0 active torsions:
REMARK  status: ('A' for Active; 'I' for Inactive)
ROOT
ATOM      1  O1  BZF d   1       0.849   0.878  -0.411  0.00  0.00    -0.204 OA
ATOM      2  C2  BZF d   1       0.125  -0.265  -0.131  0.00  0.00     0.174 A 
ATOM      3  C3  BZF d   1      -1.073  -0.236  -0.750  0.00  0.00    -0.012 A 
ATOM      4  C3A BZF d   1      -1.061   0.960  -1.536  0.00  0.00    -0.107 A 
ATOM      5  C4  BZF d   1      -1.963   1.533  -2.386  0.00  0.00     0.055 A 
ATOM      6  C5  BZF d   1      -1.675   2.741  -2.938  0.00  0.00    -0.016 A 
ATOM      7  C6  BZF d   1      -0.499   3.405  -2.658  0.00  0.00     0.022 A 
ATOM      8  C7  BZF d   1       0.429   2.874  -1.824  0.00  0.00     0.029 A 
ATOM      9  C7A BZF d   1       0.155   1.638  -1.291  0.00  0.00     0.058 A 
ENDROOT
TORSDOF 0
ENDMDL
