MODEL 1
REMARK minimizedAffinity -1.44068003
REMARK minimizedRMSD -1
REMARK  0 active torsions:
REMARK  status: ('A' for Active; 'I' for Inactive)
ROOT
ATOM      1  O1  BZF d   1      -0.317   0.089   0.277  0.00  0.00    -0.204 OA
ATOM      2  C2  BZF d   1      -0.651   0.614   1.510  0.00  0.00     0.174 A 
ATOM      3  C3  BZF d   1      -0.876   1.941   1.420  0.00  0.00    -0.012 A 
ATOM      4  C3A BZF d   1      -0.761   2.248   0.027  0.00  0.00    -0.107 A 
ATOM      5  C4  BZF d   1      -0.893   3.401  -0.694  0.00  0.00     0.055 A 
ATOM      6  C5  BZF d   1      -0.644   3.376  -2.029  0.00  0.00    -0.016 A 
ATOM      7  C6  BZF d   1      -0.257   2.220  -2.675  0.00  0.00     0.022 A 
ATOM      8  C7  BZF d   1      -0.117   1.051  -2.002  0.00  0.00     0.029 A 
ATOM      9  C7A BZF d   1      -0.400   1.066  -0.658  0.00  0.00     0.058 A 
ENDROOT
TORSDOF 0
ENDMDL
