MODEL 1
REMARK minimizedAffinity -0.531616867
REMARK minimizedRMSD -1
REMARK  0 active torsions:
REMARK  status: ('A' for Active; 'I' for Inactive)
ROOT
ATOM      1  O1  BZF d   1       1.391  -1.231  -0.325  0.00  0.00    -0.204 OA
ATOM      2  C2  BZF d   1       0.861  -0.718  -1.493  0.00  0.00     0.174 A 
ATOM      3  C3  BZF d   1      -0.330  -0.130  -1.260  0.00  0.00    -0.012 A 
ATOM      4  C3A BZF d   1      -0.516  -0.204   0.156  0.00  0.00    -0.107 A 
ATOM      5  C4  BZF d   1      -1.504   0.222   0.998  0.00  0.00     0.055 A 
ATOM      6  C5  BZF d   1      -1.417  -0.073   2.321  0.00  0.00    -0.016 A 
ATOM      7  C6  BZF d   1      -0.361  -0.795   2.836  0.00  0.00     0.022 A 
ATOM      8  C7  BZF d   1       0.646  -1.235   2.042  0.00  0.00     0.029 A 
ATOM      9  C7A BZF d   1       0.577  -0.910   0.709  0.00  0.00     0.058 A 
ENDROOT
TORSDOF 0
ENDMDL
