MODEL 1
REMARK minimizedAffinity -4.39979362
REMARK minimizedRMSD -1
REMARK  0 active torsions:
REMARK  status: ('A' for Active; 'I' for Inactive)
ROOT
ATOM      1  O1  BZF d   1      -0.298  -0.482   0.411  0.00  0.00    -0.204 OA
ATOM      2  C2  BZF d   1      -0.868   0.246   1.437  0.00  0.00     0.174 A 
ATOM      3  C3  BZF d   1      -1.286   1.449   0.995  0.00  0.00    -0.012 A 
ATOM      4  C3A BZF d   1      -1.042   1.438  -0.415  0.00  0.00    -0.107 A 
ATOM      5  C4  BZF d   1      -1.260   2.344  -1.413  0.00  0.00     0.055 A 
ATOM      6  C5  BZF d   1      -0.840   2.054  -2.672  0.00  0.00    -0.016 A 
ATOM      7  C6  BZF d   1      -0.194   0.872  -2.967  0.00  0.00     0.022 A 
ATOM      8  C7  BZF d   1       0.041  -0.060  -2.012  0.00  0.00     0.029 A 
ATOM      9  C7A BZF d   1      -0.412   0.216  -0.745  0.00  0.00     0.058 A 
ENDROOT
TORSDOF 0
ENDMDL
