MODEL 1
REMARK minimizedAffinity -1.95166433
REMARK minimizedRMSD -1
REMARK  0 active torsions:
REMARK  status: ('A' for Active; 'I' for Inactive)
ROOT
ATOM      1  O1  BZF d   1       2.105  -1.905  -0.228  0.00  0.00    -0.204 OA
ATOM      2  C2  BZF d   1       2.608  -2.722   0.765  0.00  0.00     0.174 A 
ATOM      3  C3  BZF d   1       1.923  -2.554   1.915  0.00  0.00    -0.012 A 
ATOM      4  C3A BZF d   1       0.872  -1.637   1.597  0.00  0.00    -0.107 A 
ATOM      5  C4  BZF d   1      -0.149  -1.091   2.320  0.00  0.00     0.055 A 
ATOM      6  C5  BZF d   1      -0.959  -0.173   1.731  0.00  0.00    -0.016 A 
ATOM      7  C6  BZF d   1      -0.773   0.227   0.424  0.00  0.00     0.022 A 
ATOM      8  C7  BZF d   1       0.223  -0.290  -0.335  0.00  0.00     0.029 A 
ATOM      9  C7A BZF d   1       1.023  -1.243   0.247  0.00  0.00     0.058 A 
ENDROOT
TORSDOF 0
ENDMDL
