MODEL 1
REMARK minimizedAffinity -1.65071392
REMARK minimizedRMSD -1
REMARK  0 active torsions:
REMARK  status: ('A' for Active; 'I' for Inactive)
ROOT
ATOM      1  O1  BZF d   1      -0.286   0.740  -2.139  0.00  0.00    -0.204 OA
ATOM      2  C2  BZF d   1      -1.218   1.741  -2.331  0.00  0.00     0.174 A 
ATOM      3  C3  BZF d   1      -1.994   1.889  -1.238  0.00  0.00    -0.012 A 
ATOM      4  C3A BZF d   1      -1.458   0.981  -0.270  0.00  0.00    -0.107 A 
ATOM      5  C4  BZF d   1      -1.790   0.680   1.020  0.00  0.00     0.055 A 
ATOM      6  C5  BZF d   1      -1.112  -0.307   1.663  0.00  0.00    -0.016 A 
ATOM      7  C6  BZF d   1      -0.102  -1.015   1.045  0.00  0.00     0.022 A 
ATOM      8  C7  BZF d   1       0.267  -0.749  -0.231  0.00  0.00     0.029 A 
ATOM      9  C7A BZF d   1      -0.394   0.270  -0.873  0.00  0.00     0.058 A 
ENDROOT
TORSDOF 0
ENDMDL
