MODEL 1
REMARK minimizedAffinity -0.783764124
REMARK minimizedRMSD -1
REMARK  0 active torsions:
REMARK  status: ('A' for Active; 'I' for Inactive)
ROOT
ATOM      1  O1  BZF d   1       2.260  -2.199   0.093  0.00  0.00    -0.204 OA
ATOM      2  C2  BZF d   1       2.352  -1.867  -1.245  0.00  0.00     0.174 A 
ATOM      3  C3  BZF d   1       1.337  -1.056  -1.607  0.00  0.00    -0.012 A 
ATOM      4  C3A BZF d   1       0.614  -0.796  -0.400  0.00  0.00    -0.107 A 
ATOM      5  C4  BZF d   1      -0.489  -0.044  -0.110  0.00  0.00     0.055 A 
ATOM      6  C5  BZF d   1      -0.984  -0.060   1.155  0.00  0.00    -0.016 A 
ATOM      7  C6  BZF d   1      -0.407  -0.819   2.152  0.00  0.00     0.022 A 
ATOM      8  C7  BZF d   1       0.692  -1.576   1.913  0.00  0.00     0.029 A 
ATOM      9  C7A BZF d   1       1.215  -1.537   0.644  0.00  0.00     0.058 A 
ENDROOT
TORSDOF 0
ENDMDL
