MODEL 1
REMARK minimizedAffinity -1.83630133
REMARK minimizedRMSD -1
REMARK  0 active torsions:
REMARK  status: ('A' for Active; 'I' for Inactive)
ROOT
ATOM      1  C   UNL d   1       1.773  -3.488   3.320  0.00  0.00     0.020 A 
ATOM      2  C1  UNL d   1       3.067  -2.970   3.274  0.00  0.00     0.020 A 
ATOM      3  C2  UNL d   1       3.344  -1.854   2.480  0.00  0.00     0.034 A 
ATOM      4  C3  UNL d   1       2.327  -1.255   1.729  0.00  0.00     0.017 A 
ATOM      5  C4  UNL d   1       1.029  -1.776   1.776  0.00  0.00     0.017 A 
ATOM      6  C5  UNL d   1       0.756  -2.893   2.572  0.00  0.00     0.034 A 
ATOM      7 Cl   UNL d   1      -0.279  -1.090   0.877  0.00  0.00    -0.070 Cl
ATOM      8 Cl1  UNL d   1       2.741   0.122   0.770  0.00  0.00    -0.070 Cl
ENDROOT
TORSDOF 0
ENDMDL
