MODEL 1
REMARK minimizedAffinity -1.98290181
REMARK minimizedRMSD -1
REMARK  0 active torsions:
REMARK  status: ('A' for Active; 'I' for Inactive)
ROOT
ATOM      1  C   UNL d   1       3.289  -2.270   2.704  0.00  0.00     0.020 A 
ATOM      2  C1  UNL d   1       2.149  -3.069   2.770  0.00  0.00     0.020 A 
ATOM      3  C2  UNL d   1       0.987  -2.687   2.095  0.00  0.00     0.034 A 
ATOM      4  C3  UNL d   1       0.963  -1.502   1.351  0.00  0.00     0.017 A 
ATOM      5  C4  UNL d   1       2.108  -0.700   1.285  0.00  0.00     0.017 A 
ATOM      6  C5  UNL d   1       3.269  -1.087   1.963  0.00  0.00     0.034 A 
ATOM      7 Cl   UNL d   1       2.156   0.776   0.387  0.00  0.00    -0.070 Cl
ATOM      8 Cl1  UNL d   1      -0.507  -1.091   0.542  0.00  0.00    -0.070 Cl
ENDROOT
TORSDOF 0
ENDMDL
