MODEL 1
REMARK minimizedAffinity 2.92887282
REMARK minimizedRMSD -1
REMARK  0 active torsions:
REMARK  status: ('A' for Active; 'I' for Inactive)
ROOT
ATOM      1  C   UNL d   1       3.316  -1.881   2.138  0.00  0.00     0.020 A 
ATOM      2  C1  UNL d   1       2.066  -2.474   2.310  0.00  0.00     0.020 A 
ATOM      3  C2  UNL d   1       0.908  -1.781   1.950  0.00  0.00     0.034 A 
ATOM      4  C3  UNL d   1       0.998  -0.490   1.416  0.00  0.00     0.017 A 
ATOM      5  C4  UNL d   1       2.253   0.105   1.244  0.00  0.00     0.017 A 
ATOM      6  C5  UNL d   1       3.409  -0.594   1.606  0.00  0.00     0.034 A 
ATOM      7 Cl   UNL d   1       2.444   1.694   0.592  0.00  0.00    -0.070 Cl
ATOM      8 Cl1  UNL d   1      -0.474   0.308   0.992  0.00  0.00    -0.070 Cl
ENDROOT
TORSDOF 0
ENDMDL
