MODEL 1
REMARK minimizedAffinity 0.445376903
REMARK minimizedRMSD -1
REMARK  0 active torsions:
REMARK  status: ('A' for Active; 'I' for Inactive)
ROOT
ATOM      1  C   UNL d   1       2.824  -0.400   0.905  0.00  0.00     0.020 A 
ATOM      2  C1  UNL d   1       3.581  -1.135   1.817  0.00  0.00     0.020 A 
ATOM      3  C2  UNL d   1       3.003  -2.204   2.503  0.00  0.00     0.034 A 
ATOM      4  C3  UNL d   1       1.663  -2.542   2.279  0.00  0.00     0.017 A 
ATOM      5  C4  UNL d   1       0.904  -1.805   1.363  0.00  0.00     0.017 A 
ATOM      6  C5  UNL d   1       1.489  -0.735   0.679  0.00  0.00     0.034 A 
ATOM      7 Cl   UNL d   1      -0.754  -2.162   1.033  0.00  0.00    -0.070 Cl
ATOM      8 Cl1  UNL d   1       1.013  -3.877   3.162  0.00  0.00    -0.070 Cl
ENDROOT
TORSDOF 0
ENDMDL
