MODEL 1
REMARK minimizedAffinity 3.53077221
REMARK minimizedRMSD -1
REMARK  0 active torsions:
REMARK  status: ('A' for Active; 'I' for Inactive)
ROOT
ATOM      1  C   UNL d   1       1.983  -1.740   3.251  0.00  0.00     0.020 A 
ATOM      2  C1  UNL d   1       2.568  -1.215   2.099  0.00  0.00     0.020 A 
ATOM      3  C2  UNL d   1       1.934  -1.364   0.864  0.00  0.00     0.034 A 
ATOM      4  C3  UNL d   1       0.711  -2.040   0.778  0.00  0.00     0.017 A 
ATOM      5  C4  UNL d   1       0.125  -2.567   1.935  0.00  0.00     0.017 A 
ATOM      6  C5  UNL d   1       0.765  -2.414   3.169  0.00  0.00     0.034 A 
ATOM      7 Cl   UNL d   1      -1.381  -3.414   1.908  0.00  0.00    -0.070 Cl
ATOM      8 Cl1  UNL d   1      -0.017  -2.187  -0.782  0.00  0.00    -0.070 Cl
ENDROOT
TORSDOF 0
ENDMDL
