MODEL 1
REMARK minimizedAffinity 5.28219604
REMARK minimizedRMSD -1
REMARK  0 active torsions:
REMARK  status: ('A' for Active; 'I' for Inactive)
ROOT
ATOM      1  C   UNL d   1       2.914  -3.240  -3.386  0.00  0.00     0.020 A 
ATOM      2  C1  UNL d   1       2.271  -2.014  -3.219  0.00  0.00     0.020 A 
ATOM      3  C2  UNL d   1       1.632  -1.720  -2.013  0.00  0.00     0.034 A 
ATOM      4  C3  UNL d   1       1.633  -2.653  -0.970  0.00  0.00     0.017 A 
ATOM      5  C4  UNL d   1       2.279  -3.884  -1.139  0.00  0.00     0.017 A 
ATOM      6  C5  UNL d   1       2.918  -4.173  -2.348  0.00  0.00     0.034 A 
ATOM      7 Cl   UNL d   1       2.324  -5.085   0.103  0.00  0.00    -0.070 Cl
ATOM      8 Cl1  UNL d   1       0.823  -2.223   0.495  0.00  0.00    -0.070 Cl
ENDROOT
TORSDOF 0
ENDMDL
