MODEL 1
REMARK minimizedAffinity -1.4633621
REMARK minimizedRMSD -1
REMARK  0 active torsions:
REMARK  status: ('A' for Active; 'I' for Inactive)
ROOT
ATOM      1  C   UNL d   1       2.815  -2.030   0.567  0.00  0.00     0.020 A 
ATOM      2  C1  UNL d   1       3.613  -1.513   1.587  0.00  0.00     0.020 A 
ATOM      3  C2  UNL d   1       3.173  -1.564   2.911  0.00  0.00     0.034 A 
ATOM      4  C3  UNL d   1       1.933  -2.134   3.220  0.00  0.00     0.017 A 
ATOM      5  C4  UNL d   1       1.133  -2.653   2.195  0.00  0.00     0.017 A 
ATOM      6  C5  UNL d   1       1.578  -2.599   0.871  0.00  0.00     0.034 A 
ATOM      7 Cl   UNL d   1      -0.410  -3.372   2.498  0.00  0.00    -0.070 Cl
ATOM      8 Cl1  UNL d   1       1.453  -2.165   4.879  0.00  0.00    -0.070 Cl
ENDROOT
TORSDOF 0
ENDMDL
