MODEL 1
REMARK minimizedAffinity 4.71327877
REMARK minimizedRMSD -1
REMARK  0 active torsions:
REMARK  status: ('A' for Active; 'I' for Inactive)
ROOT
ATOM      1  C   UNL d   1      -1.676  -0.646   0.266  0.00  0.00     0.020 A 
ATOM      2  C1  UNL d   1      -1.745  -0.797  -1.119  0.00  0.00     0.020 A 
ATOM      3  C2  UNL d   1      -0.696  -1.409  -1.808  0.00  0.00     0.034 A 
ATOM      4  C3  UNL d   1       0.427  -1.873  -1.112  0.00  0.00     0.017 A 
ATOM      5  C4  UNL d   1       0.496  -1.721   0.277  0.00  0.00     0.017 A 
ATOM      6  C5  UNL d   1      -0.558  -1.107   0.962  0.00  0.00     0.034 A 
ATOM      7 Cl   UNL d   1       1.848  -2.267   1.204  0.00  0.00    -0.070 Cl
ATOM      8 Cl1  UNL d   1       1.687  -2.620  -2.029  0.00  0.00    -0.070 Cl
ENDROOT
TORSDOF 0
ENDMDL
