MODEL 1
REMARK minimizedAffinity 7.65520382
REMARK minimizedRMSD -1
REMARK  0 active torsions:
REMARK  status: ('A' for Active; 'I' for Inactive)
ROOT
ATOM      1  C   UNL d   1       3.258   0.491   1.357  0.00  0.00     0.020 A 
ATOM      2  C1  UNL d   1       3.889   1.172   0.317  0.00  0.00     0.020 A 
ATOM      3  C2  UNL d   1       3.300   2.314  -0.229  0.00  0.00     0.034 A 
ATOM      4  C3  UNL d   1       2.075   2.778   0.265  0.00  0.00     0.017 A 
ATOM      5  C4  UNL d   1       1.442   2.094   1.308  0.00  0.00     0.017 A 
ATOM      6  C5  UNL d   1       2.037   0.951   1.852  0.00  0.00     0.034 A 
ATOM      7 Cl   UNL d   1      -0.071   2.606   1.970  0.00  0.00    -0.070 Cl
ATOM      8 Cl1  UNL d   1       1.403   4.197  -0.458  0.00  0.00    -0.070 Cl
ENDROOT
TORSDOF 0
ENDMDL
