MODEL 1
REMARK minimizedAffinity -2.5626719
REMARK minimizedRMSD -1
REMARK  0 active torsions:
REMARK  status: ('A' for Active; 'I' for Inactive)
ROOT
ATOM      1  C   UNL d   1       3.805  -1.887   1.596  0.00  0.00     0.020 A 
ATOM      2  C1  UNL d   1       4.301  -1.280   0.444  0.00  0.00     0.020 A 
ATOM      3  C2  UNL d   1       3.999   0.056   0.172  0.00  0.00     0.034 A 
ATOM      4  C3  UNL d   1       3.197   0.789   1.055  0.00  0.00     0.017 A 
ATOM      5  C4  UNL d   1       2.699   0.179   2.211  0.00  0.00     0.017 A 
ATOM      6  C5  UNL d   1       3.005  -1.159   2.478  0.00  0.00     0.034 A 
ATOM      7 Cl   UNL d   1       1.703   1.019   3.347  0.00  0.00    -0.070 Cl
ATOM      8 Cl1  UNL d   1       2.863   2.437   0.656  0.00  0.00    -0.070 Cl
ENDROOT
TORSDOF 0
ENDMDL
