MODEL 1
REMARK minimizedAffinity 4.59897995
REMARK minimizedRMSD -1
REMARK  0 active torsions:
REMARK  status: ('A' for Active; 'I' for Inactive)
ROOT
ATOM      1  C   UNL d   1       0.999  -2.881   1.475  0.00  0.00     0.020 A 
ATOM      2  C1  UNL d   1       0.199  -1.759   1.688  0.00  0.00     0.020 A 
ATOM      3  C2  UNL d   1       0.779  -0.491   1.759  0.00  0.00     0.034 A 
ATOM      4  C3  UNL d   1       2.163  -0.342   1.616  0.00  0.00     0.017 A 
ATOM      5  C4  UNL d   1       2.966  -1.468   1.401  0.00  0.00     0.017 A 
ATOM      6  C5  UNL d   1       2.379  -2.736   1.331  0.00  0.00     0.034 A 
ATOM      7 Cl   UNL d   1       4.681  -1.363   1.215  0.00  0.00    -0.070 Cl
ATOM      8 Cl1  UNL d   1       2.813   1.256   1.713  0.00  0.00    -0.070 Cl
ENDROOT
TORSDOF 0
ENDMDL
