MODEL 1
REMARK minimizedAffinity 1.81581521
REMARK minimizedRMSD -1
REMARK  0 active torsions:
REMARK  status: ('A' for Active; 'I' for Inactive)
ROOT
ATOM      1  C   UNL d   1       0.843  -1.017   0.156  0.00  0.00     0.020 A 
ATOM      2  C1  UNL d   1      -0.345  -1.179   0.868  0.00  0.00     0.020 A 
ATOM      3  C2  UNL d   1      -0.330  -1.799   2.119  0.00  0.00     0.034 A 
ATOM      4  C3  UNL d   1       0.875  -2.260   2.662  0.00  0.00     0.017 A 
ATOM      5  C4  UNL d   1       2.067  -2.097   1.947  0.00  0.00     0.017 A 
ATOM      6  C5  UNL d   1       2.046  -1.475   0.694  0.00  0.00     0.034 A 
ATOM      7 Cl   UNL d   1       3.592  -2.639   2.552  0.00  0.00    -0.070 Cl
ATOM      8 Cl1  UNL d   1       0.819  -3.017   4.214  0.00  0.00    -0.070 Cl
ENDROOT
TORSDOF 0
ENDMDL
