MODEL 1
REMARK minimizedAffinity 1.18774414
REMARK minimizedRMSD -1
REMARK  0 active torsions:
REMARK  status: ('A' for Active; 'I' for Inactive)
ROOT
ATOM      1  C   UNL d   1       2.720  -3.172  -2.113  0.00  0.00     0.020 A 
ATOM      2  C1  UNL d   1       1.757  -2.649  -2.975  0.00  0.00     0.020 A 
ATOM      3  C2  UNL d   1       0.728  -1.851  -2.470  0.00  0.00     0.034 A 
ATOM      4  C3  UNL d   1       0.660  -1.573  -1.100  0.00  0.00     0.017 A 
ATOM      5  C4  UNL d   1       1.627  -2.099  -0.235  0.00  0.00     0.017 A 
ATOM      6  C5  UNL d   1       2.655  -2.897  -0.746  0.00  0.00     0.034 A 
ATOM      7 Cl   UNL d   1       1.609  -1.800   1.467  0.00  0.00    -0.070 Cl
ATOM      8 Cl1  UNL d   1      -0.639  -0.578  -0.545  0.00  0.00    -0.070 Cl
ENDROOT
TORSDOF 0
ENDMDL
