MODEL 1
REMARK minimizedAffinity 2.08107162
REMARK minimizedRMSD -1
REMARK  0 active torsions:
REMARK  status: ('A' for Active; 'I' for Inactive)
ROOT
ATOM      1  C4' PXY d   1      -1.002  -1.791   0.841  0.00  0.00     0.077 C 
ATOM      2  C1' PXY d   1       3.252   2.110   1.161  0.00  0.00     0.077 C 
ATOM      3  C1  PXY d   1       2.144   1.078   1.082  0.00  0.00    -0.082 A 
ATOM      4  C2  PXY d   1       1.156   1.243   0.218  0.00  0.00     0.003 A 
ATOM      5  C3  PXY d   1       0.130   0.336   0.155  0.00  0.00     0.003 A 
ATOM      6  C4  PXY d   1       0.142  -0.779   0.949  0.00  0.00    -0.082 A 
ATOM      7  C5  PXY d   1       1.152  -0.961   1.826  0.00  0.00     0.003 A 
ATOM      8  C6  PXY d   1       2.163  -0.007   1.903  0.00  0.00     0.003 A 
ENDROOT
TORSDOF 0
ENDMDL
