MODEL 1
REMARK minimizedAffinity 12.8497238
REMARK minimizedRMSD -1
REMARK  0 active torsions:
REMARK  status: ('A' for Active; 'I' for Inactive)
ROOT
ATOM      1  C4' PXY d   1      -0.269  -2.241   1.409  0.00  0.00     0.077 C 
ATOM      2  C1' PXY d   1       3.000  -4.854  -2.577  0.00  0.00     0.077 C 
ATOM      3  C1  PXY d   1       2.145  -4.179  -1.524  0.00  0.00    -0.082 A 
ATOM      4  C2  PXY d   1       1.218  -3.310  -1.892  0.00  0.00     0.003 A 
ATOM      5  C3  PXY d   1       0.457  -2.666  -0.951  0.00  0.00     0.003 A 
ATOM      6  C4  PXY d   1       0.611  -2.954   0.379  0.00  0.00    -0.082 A 
ATOM      7  C5  PXY d   1       1.548  -3.847   0.762  0.00  0.00     0.003 A 
ATOM      8  C6  PXY d   1       2.338  -4.459  -0.206  0.00  0.00     0.003 A 
ENDROOT
TORSDOF 0
ENDMDL
