MODEL 1
REMARK minimizedAffinity -2.30170536
REMARK minimizedRMSD -1
REMARK  0 active torsions:
REMARK  status: ('A' for Active; 'I' for Inactive)
ROOT
ATOM      1  C4' PXY d   1       2.950   0.263   1.883  0.00  0.00     0.077 C 
ATOM      2  C1' PXY d   1      -0.170   4.077  -1.139  0.00  0.00     0.077 C 
ATOM      3  C1  PXY d   1       0.656   3.075  -0.356  0.00  0.00    -0.082 A 
ATOM      4  C2  PXY d   1       0.112   2.435   0.666  0.00  0.00     0.003 A 
ATOM      5  C3  PXY d   1       0.854   1.549   1.404  0.00  0.00     0.003 A 
ATOM      6  C4  PXY d   1       2.151   1.276   1.059  0.00  0.00    -0.082 A 
ATOM      7  C5  PXY d   1       2.710   1.917   0.011  0.00  0.00     0.003 A 
ATOM      8  C6  PXY d   1       1.952   2.844  -0.700  0.00  0.00     0.003 A 
ENDROOT
TORSDOF 0
ENDMDL
