MODEL 1
REMARK minimizedAffinity 1.92324269
REMARK minimizedRMSD -1
REMARK  0 active torsions:
REMARK  status: ('A' for Active; 'I' for Inactive)
ROOT
ATOM      1  C4' PXY d   1       1.085   4.338  -0.890  0.00  0.00     0.077 C 
ATOM      2  C1' PXY d   1       2.203  -0.550   1.985  0.00  0.00     0.077 C 
ATOM      3  C1  PXY d   1       1.897   0.729   1.231  0.00  0.00    -0.082 A 
ATOM      4  C2  PXY d   1       2.854   1.322   0.535  0.00  0.00     0.003 A 
ATOM      5  C3  PXY d   1       2.603   2.496  -0.127  0.00  0.00     0.003 A 
ATOM      6  C4  PXY d   1       1.346   3.041  -0.120  0.00  0.00    -0.082 A 
ATOM      7  C5  PXY d   1       0.363   2.435   0.579  0.00  0.00     0.003 A 
ATOM      8  C6  PXY d   1       0.648   1.266   1.278  0.00  0.00     0.003 A 
ENDROOT
TORSDOF 0
ENDMDL
