MODEL 1
REMARK minimizedAffinity 8.19453049
REMARK minimizedRMSD -1
REMARK  0 active torsions:
REMARK  status: ('A' for Active; 'I' for Inactive)
ROOT
ATOM      1  C4' PXY d   1       0.254  -2.849  -1.746  0.00  0.00     0.077 C 
ATOM      2  C1' PXY d   1      -5.052  -1.706  -3.733  0.00  0.00     0.077 C 
ATOM      3  C1  PXY d   1      -3.666  -2.013  -3.202  0.00  0.00    -0.082 A 
ATOM      4  C2  PXY d   1      -2.677  -1.163  -3.424  0.00  0.00     0.003 A 
ATOM      5  C3  PXY d   1      -1.410  -1.441  -2.980  0.00  0.00     0.003 A 
ATOM      6  C4  PXY d   1      -1.164  -2.575  -2.254  0.00  0.00    -0.082 A 
ATOM      7  C5  PXY d   1      -2.170  -3.443  -2.014  0.00  0.00     0.003 A 
ATOM      8  C6  PXY d   1      -3.440  -3.163  -2.510  0.00  0.00     0.003 A 
ENDROOT
TORSDOF 0
ENDMDL
