MODEL 1
REMARK minimizedAffinity 1.12750411
REMARK minimizedRMSD -1
REMARK  0 active torsions:
REMARK  status: ('A' for Active; 'I' for Inactive)
ROOT
ATOM      1  C4' PXY d   1       0.463   3.274  -0.158  0.00  0.00     0.077 C 
ATOM      2  C1' PXY d   1       1.983  -1.726   2.314  0.00  0.00     0.077 C 
ATOM      3  C1  PXY d   1       1.573  -0.420   1.662  0.00  0.00    -0.082 A 
ATOM      4  C2  PXY d   1       2.500   0.465   1.333  0.00  0.00     0.003 A 
ATOM      5  C3  PXY d   1       2.144   1.665   0.771  0.00  0.00     0.003 A 
ATOM      6  C4  PXY d   1       0.832   1.938   0.495  0.00  0.00    -0.082 A 
ATOM      7  C5  PXY d   1      -0.118   1.035   0.818  0.00  0.00     0.003 A 
ATOM      8  C6  PXY d   1       0.259  -0.159   1.425  0.00  0.00     0.003 A 
ENDROOT
TORSDOF 0
ENDMDL
