MODEL 1
REMARK minimizedAffinity 2.61107135
REMARK minimizedRMSD -1
REMARK  0 active torsions:
REMARK  status: ('A' for Active; 'I' for Inactive)
ROOT
ATOM      1  C4' PXY d   1       1.258   2.315  -0.771  0.00  0.00     0.077 C 
ATOM      2  C1' PXY d   1       1.297  -2.235   2.795  0.00  0.00     0.077 C 
ATOM      3  C1  PXY d   1       1.298  -1.046   1.854  0.00  0.00    -0.082 A 
ATOM      4  C2  PXY d   1       0.658   0.060   2.197  0.00  0.00     0.003 A 
ATOM      5  C3  PXY d   1       0.621   1.133   1.345  0.00  0.00     0.003 A 
ATOM      6  C4  PXY d   1       1.292   1.093   0.152  0.00  0.00    -0.082 A 
ATOM      7  C5  PXY d   1       1.957  -0.028  -0.201  0.00  0.00     0.003 A 
ATOM      8  C6  PXY d   1       1.947  -1.121   0.661  0.00  0.00     0.003 A 
ENDROOT
TORSDOF 0
ENDMDL
