MODEL 1
REMARK minimizedAffinity 1.50390315
REMARK minimizedRMSD -1
REMARK  0 active torsions:
REMARK  status: ('A' for Active; 'I' for Inactive)
ROOT
ATOM      1  C4' PXY d   1       1.477  -0.164   0.942  0.00  0.00     0.077 C 
ATOM      2  C1' PXY d   1       3.035  -3.837   5.125  0.00  0.00     0.077 C 
ATOM      3  C1  PXY d   1       2.614  -2.878   4.029  0.00  0.00    -0.082 A 
ATOM      4  C2  PXY d   1       3.499  -2.485   3.128  0.00  0.00     0.003 A 
ATOM      5  C3  PXY d   1       3.144  -1.593   2.149  0.00  0.00     0.003 A 
ATOM      6  C4  PXY d   1       1.855  -1.139   2.060  0.00  0.00    -0.082 A 
ATOM      7  C5  PXY d   1       0.943  -1.544   2.969  0.00  0.00     0.003 A 
ATOM      8  C6  PXY d   1       1.334  -2.418   3.980  0.00  0.00     0.003 A 
ENDROOT
TORSDOF 0
ENDMDL
