MODEL 1
REMARK minimizedAffinity 3.50969291
REMARK minimizedRMSD -1
REMARK  0 active torsions:
REMARK  status: ('A' for Active; 'I' for Inactive)
ROOT
ATOM      1  C4' PXY d   1       1.930   0.452   0.486  0.00  0.00     0.077 C 
ATOM      2  C1' PXY d   1       0.900  -3.580   4.498  0.00  0.00     0.077 C 
ATOM      3  C1  PXY d   1       1.164  -2.530   3.437  0.00  0.00    -0.082 A 
ATOM      4  C2  PXY d   1       2.165  -1.678   3.594  0.00  0.00     0.003 A 
ATOM      5  C3  PXY d   1       2.398  -0.702   2.660  0.00  0.00     0.003 A 
ATOM      6  C4  PXY d   1       1.632  -0.631   1.527  0.00  0.00    -0.082 A 
ATOM      7  C5  PXY d   1       0.616  -1.503   1.354  0.00  0.00     0.003 A 
ATOM      8  C6  PXY d   1       0.370  -2.460   2.334  0.00  0.00     0.003 A 
ENDROOT
TORSDOF 0
ENDMDL
