MODEL 1
REMARK minimizedAffinity -3.71915317
REMARK minimizedRMSD -1
REMARK  0 active torsions:
REMARK  status: ('A' for Active; 'I' for Inactive)
ROOT
ATOM      1  C4' PXY d   1       0.418   0.780   0.056  0.00  0.00     0.077 C 
ATOM      2  C1' PXY d   1       2.014  -1.928   4.907  0.00  0.00     0.077 C 
ATOM      3  C1  PXY d   1       1.601  -1.207   3.639  0.00  0.00    -0.082 A 
ATOM      4  C2  PXY d   1       0.602  -1.682   2.913  0.00  0.00     0.003 A 
ATOM      5  C3  PXY d   1       0.236  -1.060   1.747  0.00  0.00     0.003 A 
ATOM      6  C4  PXY d   1       0.864   0.089   1.348  0.00  0.00    -0.082 A 
ATOM      7  C5  PXY d   1       1.877   0.586   2.089  0.00  0.00     0.003 A 
ATOM      8  C6  PXY d   1       2.260  -0.083   3.248  0.00  0.00     0.003 A 
ENDROOT
TORSDOF 0
ENDMDL
