MODEL 1
REMARK minimizedAffinity -2.15643406
REMARK minimizedRMSD -1
REMARK  0 active torsions:
REMARK  status: ('A' for Active; 'I' for Inactive)
ROOT
ATOM      1  C4' PXY d   1       2.087  -1.407   4.226  0.00  0.00     0.077 C 
ATOM      2  C1' PXY d   1       0.787   1.487  -0.606  0.00  0.00     0.077 C 
ATOM      3  C1  PXY d   1       1.116   0.723   0.661  0.00  0.00    -0.082 A 
ATOM      4  C2  PXY d   1       2.077   1.161   1.458  0.00  0.00     0.003 A 
ATOM      5  C3  PXY d   1       2.409   0.465   2.592  0.00  0.00     0.003 A 
ATOM      6  C4  PXY d   1       1.714  -0.663   2.941  0.00  0.00    -0.082 A 
ATOM      7  C5  PXY d   1       0.726  -1.110   2.138  0.00  0.00     0.003 A 
ATOM      8  C6  PXY d   1       0.432  -0.412   0.970  0.00  0.00     0.003 A 
ENDROOT
TORSDOF 0
ENDMDL
