MODEL 1
REMARK minimizedAffinity -2.1701386
REMARK minimizedRMSD -1
REMARK  0 active torsions:
REMARK  status: ('A' for Active; 'I' for Inactive)
ROOT
ATOM      1  C   UNL d   1       1.379   0.571  -0.572  0.00  0.00     0.020 A 
ATOM      2  C1  UNL d   1       1.836  -0.151   0.529  0.00  0.00     0.020 A 
ATOM      3  C2  UNL d   1       1.022  -1.124   1.112  0.00  0.00     0.034 A 
ATOM      4  C3  UNL d   1      -0.253  -1.378   0.594  0.00  0.00     0.017 A 
ATOM      5  C4  UNL d   1      -0.710  -0.653  -0.512  0.00  0.00     0.017 A 
ATOM      6  C5  UNL d   1       0.109   0.321  -1.092  0.00  0.00     0.034 A 
ATOM      7 Cl   UNL d   1      -2.272  -0.910  -1.207  0.00  0.00    -0.070 Cl
ATOM      8 Cl1  UNL d   1      -1.205  -2.596   1.365  0.00  0.00    -0.070 Cl
ENDROOT
TORSDOF 0
ENDMDL
