MODEL 1
REMARK minimizedAffinity 0.199101537
REMARK minimizedRMSD -1
REMARK  0 active torsions:
REMARK  status: ('A' for Active; 'I' for Inactive)
ROOT
ATOM      1  C   UNL d   1      -1.187   0.966  -1.962  0.00  0.00     0.020 A 
ATOM      2  C1  UNL d   1      -2.301   0.135  -1.856  0.00  0.00     0.020 A 
ATOM      3  C2  UNL d   1      -2.291  -0.937  -0.961  0.00  0.00     0.034 A 
ATOM      4  C3  UNL d   1      -1.164  -1.180  -0.167  0.00  0.00     0.017 A 
ATOM      5  C4  UNL d   1      -0.046  -0.345  -0.274  0.00  0.00     0.017 A 
ATOM      6  C5  UNL d   1      -0.061   0.726  -1.172  0.00  0.00     0.034 A 
ATOM      7 Cl   UNL d   1       1.381  -0.583   0.672  0.00  0.00    -0.070 Cl
ATOM      8 Cl1  UNL d   1      -1.221  -2.523   0.919  0.00  0.00    -0.070 Cl
ENDROOT
TORSDOF 0
ENDMDL
