MODEL 1
REMARK minimizedAffinity -2.15847516
REMARK minimizedRMSD -1
REMARK  0 active torsions:
REMARK  status: ('A' for Active; 'I' for Inactive)
ROOT
ATOM      1  C   UNL d   1       3.091   2.396   1.405  0.00  0.00     0.020 A 
ATOM      2  C1  UNL d   1       1.909   2.993   0.970  0.00  0.00     0.020 A 
ATOM      3  C2  UNL d   1       0.890   2.208   0.426  0.00  0.00     0.034 A 
ATOM      4  C3  UNL d   1       1.050   0.822   0.317  0.00  0.00     0.017 A 
ATOM      5  C4  UNL d   1       2.238   0.224   0.754  0.00  0.00     0.017 A 
ATOM      6  C5  UNL d   1       3.255   1.014   1.298  0.00  0.00     0.034 A 
ATOM      7 Cl   UNL d   1       2.509  -1.480   0.652  0.00  0.00    -0.070 Cl
ATOM      8 Cl1  UNL d   1      -0.252  -0.087  -0.364  0.00  0.00    -0.070 Cl
ENDROOT
TORSDOF 0
ENDMDL
