MODEL 1
REMARK minimizedAffinity -3.26782775
REMARK minimizedRMSD -1
REMARK  0 active torsions:
REMARK  status: ('A' for Active; 'I' for Inactive)
ROOT
ATOM      1  C   UNL d   1       1.529   0.361   0.163  0.00  0.00     0.020 A 
ATOM      2  C1  UNL d   1       0.884   0.936  -0.931  0.00  0.00     0.020 A 
ATOM      3  C2  UNL d   1      -0.355   0.445  -1.349  0.00  0.00     0.034 A 
ATOM      4  C3  UNL d   1      -0.953  -0.624  -0.671  0.00  0.00     0.017 A 
ATOM      5  C4  UNL d   1      -0.305  -1.200   0.427  0.00  0.00     0.017 A 
ATOM      6  C5  UNL d   1       0.935  -0.705   0.841  0.00  0.00     0.034 A 
ATOM      7 Cl   UNL d   1      -0.981  -2.521   1.313  0.00  0.00    -0.070 Cl
ATOM      8 Cl1  UNL d   1      -2.486  -1.179  -1.242  0.00  0.00    -0.070 Cl
ENDROOT
TORSDOF 0
ENDMDL
