MODEL 1
REMARK minimizedAffinity -1.41631079
REMARK minimizedRMSD -1
REMARK  0 active torsions:
REMARK  status: ('A' for Active; 'I' for Inactive)
ROOT
ATOM      1  C   UNL d   1       0.089   0.431  -0.298  0.00  0.00     0.020 A 
ATOM      2  C1  UNL d   1       1.063  -0.541  -0.069  0.00  0.00     0.020 A 
ATOM      3  C2  UNL d   1       2.267  -0.191   0.548  0.00  0.00     0.034 A 
ATOM      4  C3  UNL d   1       2.499   1.133   0.937  0.00  0.00     0.017 A 
ATOM      5  C4  UNL d   1       1.521   2.107   0.707  0.00  0.00     0.017 A 
ATOM      6  C5  UNL d   1       0.318   1.751   0.090  0.00  0.00     0.034 A 
ATOM      7 Cl   UNL d   1       1.735   3.761   1.160  0.00  0.00    -0.070 Cl
ATOM      8 Cl1  UNL d   1       4.009   1.494   1.695  0.00  0.00    -0.070 Cl
ENDROOT
TORSDOF 0
ENDMDL
