MODEL 1
REMARK minimizedAffinity 1.78633201
REMARK minimizedRMSD -1
REMARK  0 active torsions:
REMARK  status: ('A' for Active; 'I' for Inactive)
ROOT
ATOM      1  C   UNL d   1      -1.490  -2.752   1.272  0.00  0.00     0.020 A 
ATOM      2  C1  UNL d   1      -2.530  -2.694   0.345  0.00  0.00     0.020 A 
ATOM      3  C2  UNL d   1      -2.543  -1.694  -0.629  0.00  0.00     0.034 A 
ATOM      4  C3  UNL d   1      -1.513  -0.748  -0.680  0.00  0.00     0.017 A 
ATOM      5  C4  UNL d   1      -0.469  -0.806   0.251  0.00  0.00     0.017 A 
ATOM      6  C5  UNL d   1      -0.462  -1.810   1.224  0.00  0.00     0.034 A 
ATOM      7 Cl   UNL d   1       0.836   0.326   0.251  0.00  0.00    -0.070 Cl
ATOM      8 Cl1  UNL d   1      -1.592   0.461  -1.912  0.00  0.00    -0.070 Cl
ENDROOT
TORSDOF 0
ENDMDL
