MODEL 1
REMARK minimizedAffinity -2.0747447
REMARK minimizedRMSD -1
REMARK  0 active torsions:
REMARK  status: ('A' for Active; 'I' for Inactive)
ROOT
ATOM      1  C   UNL d   1       3.493   3.012   2.295  0.00  0.00     0.020 A 
ATOM      2  C1  UNL d   1       2.424   2.265   2.788  0.00  0.00     0.020 A 
ATOM      3  C2  UNL d   1       1.678   1.459   1.925  0.00  0.00     0.034 A 
ATOM      4  C3  UNL d   1       2.001   1.398   0.564  0.00  0.00     0.017 A 
ATOM      5  C4  UNL d   1       3.074   2.148   0.070  0.00  0.00     0.017 A 
ATOM      6  C5  UNL d   1       3.817   2.953   0.939  0.00  0.00     0.034 A 
ATOM      7 Cl   UNL d   1       3.532   2.124  -1.596  0.00  0.00    -0.070 Cl
ATOM      8 Cl1  UNL d   1       1.036   0.380  -0.445  0.00  0.00    -0.070 Cl
ENDROOT
TORSDOF 0
ENDMDL
