MODEL 1
REMARK minimizedAffinity -1.58298635
REMARK minimizedRMSD -1
REMARK  0 active torsions:
REMARK  status: ('A' for Active; 'I' for Inactive)
ROOT
ATOM      1  C   UNL d   1      -2.127   0.261  -1.659  0.00  0.00     0.020 A 
ATOM      2  C1  UNL d   1      -0.978   0.959  -2.024  0.00  0.00     0.020 A 
ATOM      3  C2  UNL d   1       0.240   0.674  -1.402  0.00  0.00     0.034 A 
ATOM      4  C3  UNL d   1       0.311  -0.312  -0.412  0.00  0.00     0.017 A 
ATOM      5  C4  UNL d   1      -0.844  -1.013  -0.045  0.00  0.00     0.017 A 
ATOM      6  C5  UNL d   1      -2.061  -0.723  -0.671  0.00  0.00     0.034 A 
ATOM      7 Cl   UNL d   1      -0.836  -2.243   1.168  0.00  0.00    -0.070 Cl
ATOM      8 Cl1  UNL d   1       1.849  -0.612   0.315  0.00  0.00    -0.070 Cl
ENDROOT
TORSDOF 0
ENDMDL
