MODEL 1
REMARK minimizedAffinity -1.51054752
REMARK minimizedRMSD -1
REMARK  0 active torsions:
REMARK  status: ('A' for Active; 'I' for Inactive)
ROOT
ATOM      1  C   UNL d   1      -2.573  -1.135  -1.163  0.00  0.00     0.020 A 
ATOM      2  C1  UNL d   1      -2.283   0.174  -1.545  0.00  0.00     0.020 A 
ATOM      3  C2  UNL d   1      -1.169   0.826  -1.012  0.00  0.00     0.034 A 
ATOM      4  C3  UNL d   1      -0.341   0.169  -0.095  0.00  0.00     0.017 A 
ATOM      5  C4  UNL d   1      -0.632  -1.145   0.287  0.00  0.00     0.017 A 
ATOM      6  C5  UNL d   1      -1.749  -1.793  -0.249  0.00  0.00     0.034 A 
ATOM      7 Cl   UNL d   1       0.343  -2.021   1.414  0.00  0.00    -0.070 Cl
ATOM      8 Cl1  UNL d   1       1.020   1.036   0.523  0.00  0.00    -0.070 Cl
ENDROOT
TORSDOF 0
ENDMDL
