MODEL 1
REMARK minimizedAffinity -0.241440222
REMARK minimizedRMSD -1
REMARK  0 active torsions:
REMARK  status: ('A' for Active; 'I' for Inactive)
ROOT
ATOM      1  C   UNL d   1      -1.030  -0.030  -1.142  0.00  0.00     0.020 A 
ATOM      2  C1  UNL d   1      -0.484   1.115  -1.721  0.00  0.00     0.020 A 
ATOM      3  C2  UNL d   1       0.774   1.568  -1.318  0.00  0.00     0.034 A 
ATOM      4  C3  UNL d   1       1.490   0.877  -0.334  0.00  0.00     0.017 A 
ATOM      5  C4  UNL d   1       0.940  -0.271   0.247  0.00  0.00     0.017 A 
ATOM      6  C5  UNL d   1      -0.320  -0.721  -0.160  0.00  0.00     0.034 A 
ATOM      7 Cl   UNL d   1       1.763  -1.177   1.468  0.00  0.00    -0.070 Cl
ATOM      8 Cl1  UNL d   1       3.040   1.495   0.116  0.00  0.00    -0.070 Cl
ENDROOT
TORSDOF 0
ENDMDL
