MODEL 1
REMARK minimizedAffinity -2.86097789
REMARK minimizedRMSD -1
REMARK  0 active torsions:
REMARK  status: ('A' for Active; 'I' for Inactive)
ROOT
ATOM      1  C   UNL d   1      -2.863  -1.945  -0.235  0.00  0.00     0.020 A 
ATOM      2  C1  UNL d   1      -2.169  -2.654   0.745  0.00  0.00     0.020 A 
ATOM      3  C2  UNL d   1      -0.887  -2.249   1.124  0.00  0.00     0.034 A 
ATOM      4  C3  UNL d   1      -0.296  -1.132   0.522  0.00  0.00     0.017 A 
ATOM      5  C4  UNL d   1      -0.993  -0.422  -0.462  0.00  0.00     0.017 A 
ATOM      6  C5  UNL d   1      -2.276  -0.832  -0.837  0.00  0.00     0.034 A 
ATOM      7 Cl   UNL d   1      -0.329   0.966  -1.250  0.00  0.00    -0.070 Cl
ATOM      8 Cl1  UNL d   1       1.292  -0.688   1.039  0.00  0.00    -0.070 Cl
ENDROOT
TORSDOF 0
ENDMDL
