MODEL 1
REMARK minimizedAffinity -2.96474528
REMARK minimizedRMSD -1
REMARK  0 active torsions:
REMARK  status: ('A' for Active; 'I' for Inactive)
ROOT
ATOM      1  C   UNL d   1       1.660   0.766   0.391  0.00  0.00     0.020 A 
ATOM      2  C1  UNL d   1       1.042   1.393  -0.690  0.00  0.00     0.020 A 
ATOM      3  C2  UNL d   1      -0.150   0.880  -1.206  0.00  0.00     0.034 A 
ATOM      4  C3  UNL d   1      -0.728  -0.262  -0.641  0.00  0.00     0.017 A 
ATOM      5  C4  UNL d   1      -0.107  -0.890   0.445  0.00  0.00     0.017 A 
ATOM      6  C5  UNL d   1       1.086  -0.373   0.958  0.00  0.00     0.034 A 
ATOM      7 Cl   UNL d   1      -0.760  -2.303   1.196  0.00  0.00    -0.070 Cl
ATOM      8 Cl1  UNL d   1      -2.203  -0.841  -1.329  0.00  0.00    -0.070 Cl
ENDROOT
TORSDOF 0
ENDMDL
