MODEL 1
REMARK minimizedAffinity 0.477180272
REMARK minimizedRMSD -1
REMARK  0 active torsions:
REMARK  status: ('A' for Active; 'I' for Inactive)
ROOT
ATOM      1  C   UNL d   1      -1.484  -0.040  -2.141  0.00  0.00     0.020 A 
ATOM      2  C1  UNL d   1      -2.820  -0.140  -1.755  0.00  0.00     0.020 A 
ATOM      3  C2  UNL d   1      -3.150  -0.711  -0.524  0.00  0.00     0.034 A 
ATOM      4  C3  UNL d   1      -2.144  -1.185   0.325  0.00  0.00     0.017 A 
ATOM      5  C4  UNL d   1      -0.803  -1.084  -0.063  0.00  0.00     0.017 A 
ATOM      6  C5  UNL d   1      -0.478  -0.511  -1.297  0.00  0.00     0.034 A 
ATOM      7 Cl   UNL d   1       0.495  -1.645   0.930  0.00  0.00    -0.070 Cl
ATOM      8 Cl1  UNL d   1      -2.624  -1.879   1.832  0.00  0.00    -0.070 Cl
ENDROOT
TORSDOF 0
ENDMDL
