MODEL 1
REMARK minimizedAffinity 0.186754972
REMARK minimizedRMSD -1
REMARK  0 active torsions:
REMARK  status: ('A' for Active; 'I' for Inactive)
ROOT
ATOM      1  C   UNL d   1       2.713   2.077   0.378  0.00  0.00     0.020 A 
ATOM      2  C1  UNL d   1       2.496   1.532   1.643  0.00  0.00     0.020 A 
ATOM      3  C2  UNL d   1       1.555   0.514   1.812  0.00  0.00     0.034 A 
ATOM      4  C3  UNL d   1       0.828   0.038   0.715  0.00  0.00     0.017 A 
ATOM      5  C4  UNL d   1       1.047   0.585  -0.554  0.00  0.00     0.017 A 
ATOM      6  C5  UNL d   1       1.990   1.605  -0.718  0.00  0.00     0.034 A 
ATOM      7 Cl   UNL d   1       0.188   0.050  -1.955  0.00  0.00    -0.070 Cl
ATOM      8 Cl1  UNL d   1      -0.319  -1.223   0.998  0.00  0.00    -0.070 Cl
ENDROOT
TORSDOF 0
ENDMDL
