MODEL 1
REMARK minimizedAffinity -2.89021301
REMARK minimizedRMSD -1
REMARK  0 active torsions:
REMARK  status: ('A' for Active; 'I' for Inactive)
ROOT
ATOM      1  C   UNL d   1       3.037   2.845   1.043  0.00  0.00     0.020 A 
ATOM      2  C1  UNL d   1       1.879   3.558   1.351  0.00  0.00     0.020 A 
ATOM      3  C2  UNL d   1       0.628   3.037   1.013  0.00  0.00     0.034 A 
ATOM      4  C3  UNL d   1       0.532   1.799   0.367  0.00  0.00     0.017 A 
ATOM      5  C4  UNL d   1       1.695   1.084   0.058  0.00  0.00     0.017 A 
ATOM      6  C5  UNL d   1       2.945   1.611   0.398  0.00  0.00     0.034 A 
ATOM      7 Cl   UNL d   1       1.656  -0.449  -0.739  0.00  0.00    -0.070 Cl
ATOM      8 Cl1  UNL d   1      -1.048   1.215  -0.020  0.00  0.00    -0.070 Cl
ENDROOT
TORSDOF 0
ENDMDL
