MODEL 1
REMARK minimizedAffinity 0.150526047
REMARK minimizedRMSD -1
REMARK  0 active torsions:
REMARK  status: ('A' for Active; 'I' for Inactive)
ROOT
ATOM      1  C   UNL d   1      -0.412   0.751  -1.551  0.00  0.00     0.020 A 
ATOM      2  C1  UNL d   1       0.646   0.700  -0.644  0.00  0.00     0.020 A 
ATOM      3  C2  UNL d   1       0.583  -0.161   0.454  0.00  0.00     0.034 A 
ATOM      4  C3  UNL d   1      -0.540  -0.973   0.648  0.00  0.00     0.017 A 
ATOM      5  C4  UNL d   1      -1.602  -0.921  -0.263  0.00  0.00     0.017 A 
ATOM      6  C5  UNL d   1      -1.534  -0.057  -1.360  0.00  0.00     0.034 A 
ATOM      7 Cl   UNL d   1      -3.021  -1.892  -0.089  0.00  0.00    -0.070 Cl
ATOM      8 Cl1  UNL d   1      -0.550  -2.013   2.028  0.00  0.00    -0.070 Cl
ENDROOT
TORSDOF 0
ENDMDL
