MODEL 1
REMARK minimizedAffinity 5.0719738
REMARK minimizedRMSD -1
REMARK  0 active torsions:
REMARK  status: ('A' for Active; 'I' for Inactive)
ROOT
ATOM      1  C   UNL d   1      -4.564  -2.289  -1.913  0.00  0.00     0.077 C 
ATOM      2  C1  UNL d   1      -4.860  -2.657  -3.336  0.00  0.00    -0.074 A 
ATOM      3  C2  UNL d   1      -5.741  -1.894  -4.109  0.00  0.00    -0.005 A 
ATOM      4  C3  UNL d   1      -5.999  -2.243  -5.434  0.00  0.00     0.006 A 
ATOM      5  C4  UNL d   1      -5.379  -3.358  -6.000  0.00  0.00    -0.005 A 
ATOM      6  C5  UNL d   1      -4.494  -4.133  -5.244  0.00  0.00    -0.074 A 
ATOM      7  C6  UNL d   1      -3.812  -5.329  -5.839  0.00  0.00     0.077 C 
ATOM      8  C7  UNL d   1      -4.235  -3.771  -3.914  0.00  0.00    -0.001 A 
ENDROOT
TORSDOF 0
ENDMDL
