MODEL 1
REMARK minimizedAffinity 7.270854
REMARK minimizedRMSD -1
REMARK  0 active torsions:
REMARK  status: ('A' for Active; 'I' for Inactive)
ROOT
ATOM      1  C   UNL d   1      -3.743  -5.706  -5.999  0.00  0.00     0.077 C 
ATOM      2  C1  UNL d   1      -4.439  -4.573  -5.305  0.00  0.00    -0.074 A 
ATOM      3  C2  UNL d   1      -5.359  -4.815  -4.280  0.00  0.00    -0.005 A 
ATOM      4  C3  UNL d   1      -5.991  -3.751  -3.637  0.00  0.00     0.006 A 
ATOM      5  C4  UNL d   1      -5.709  -2.436  -4.011  0.00  0.00    -0.005 A 
ATOM      6  C5  UNL d   1      -4.791  -2.175  -5.033  0.00  0.00    -0.074 A 
ATOM      7  C6  UNL d   1      -4.470  -0.768  -5.441  0.00  0.00     0.077 C 
ATOM      8  C7  UNL d   1      -4.155  -3.250  -5.670  0.00  0.00    -0.001 A 
ENDROOT
TORSDOF 0
ENDMDL
