MODEL 1
REMARK minimizedAffinity 9.65077972
REMARK minimizedRMSD -1
REMARK  0 active torsions:
REMARK  status: ('A' for Active; 'I' for Inactive)
ROOT
ATOM      1  C   UNL d   1      -1.197  -0.830  -5.703  0.00  0.00     0.077 C 
ATOM      2  C1  UNL d   1      -1.401  -2.312  -5.813  0.00  0.00    -0.074 A 
ATOM      3  C2  UNL d   1      -0.310  -3.185  -5.867  0.00  0.00    -0.005 A 
ATOM      4  C3  UNL d   1      -0.514  -4.562  -5.960  0.00  0.00     0.006 A 
ATOM      5  C4  UNL d   1      -1.810  -5.078  -6.000  0.00  0.00    -0.005 A 
ATOM      6  C5  UNL d   1      -2.913  -4.220  -5.947  0.00  0.00    -0.074 A 
ATOM      7  C6  UNL d   1      -4.313  -4.760  -5.979  0.00  0.00     0.077 C 
ATOM      8  C7  UNL d   1      -2.700  -2.839  -5.846  0.00  0.00    -0.001 A 
ENDROOT
TORSDOF 0
ENDMDL
