MODEL 1
REMARK minimizedAffinity 2.07287288
REMARK minimizedRMSD -1
REMARK  0 active torsions:
REMARK  status: ('A' for Active; 'I' for Inactive)
ROOT
ATOM      1  C   UNL d   1      -5.988  -2.295   2.871  0.00  0.00     0.077 C 
ATOM      2  C1  UNL d   1      -5.558  -2.926   1.580  0.00  0.00    -0.074 A 
ATOM      3  C2  UNL d   1      -5.868  -2.334   0.352  0.00  0.00    -0.005 A 
ATOM      4  C3  UNL d   1      -5.454  -2.928  -0.840  0.00  0.00     0.006 A 
ATOM      5  C4  UNL d   1      -4.726  -4.118  -0.816  0.00  0.00    -0.005 A 
ATOM      6  C5  UNL d   1      -4.406  -4.725   0.402  0.00  0.00    -0.074 A 
ATOM      7  C6  UNL d   1      -3.616  -5.999   0.446  0.00  0.00     0.077 C 
ATOM      8  C7  UNL d   1      -4.820  -4.118   1.596  0.00  0.00    -0.001 A 
ENDROOT
TORSDOF 0
ENDMDL
