MODEL 1
REMARK minimizedAffinity 0.835116088
REMARK minimizedRMSD -1
REMARK  0 active torsions:
REMARK  status: ('A' for Active; 'I' for Inactive)
ROOT
ATOM      1  C   UNL d   1      -3.753  -5.999  -0.486  0.00  0.00     0.077 C 
ATOM      2  C1  UNL d   1      -4.531  -4.839   0.061  0.00  0.00    -0.074 A 
ATOM      3  C2  UNL d   1      -4.918  -3.780  -0.765  0.00  0.00    -0.005 A 
ATOM      4  C3  UNL d   1      -5.649  -2.712  -0.244  0.00  0.00     0.006 A 
ATOM      5  C4  UNL d   1      -6.000  -2.694   1.107  0.00  0.00    -0.005 A 
ATOM      6  C5  UNL d   1      -5.622  -3.745   1.948  0.00  0.00    -0.074 A 
ATOM      7  C6  UNL d   1      -5.999  -3.746   3.400  0.00  0.00     0.077 C 
ATOM      8  C7  UNL d   1      -4.894  -4.818   1.415  0.00  0.00    -0.001 A 
ENDROOT
TORSDOF 0
ENDMDL
