MODEL 1
REMARK minimizedAffinity 13.8633747
REMARK minimizedRMSD -1
REMARK  0 active torsions:
REMARK  status: ('A' for Active; 'I' for Inactive)
ROOT
ATOM      1  C   UNL d   1       3.723   2.578  -6.000  0.00  0.00     0.077 C 
ATOM      2  C1  UNL d   1       3.307   1.207  -5.555  0.00  0.00    -0.074 A 
ATOM      3  C2  UNL d   1       2.141   1.017  -4.808  0.00  0.00    -0.005 A 
ATOM      4  C3  UNL d   1       1.762  -0.265  -4.409  0.00  0.00     0.006 A 
ATOM      5  C4  UNL d   1       2.545  -1.368  -4.754  0.00  0.00    -0.005 A 
ATOM      6  C5  UNL d   1       3.714  -1.197  -5.502  0.00  0.00    -0.074 A 
ATOM      7  C6  UNL d   1       4.562  -2.372  -5.888  0.00  0.00     0.077 C 
ATOM      8  C7  UNL d   1       4.084   0.094  -5.904  0.00  0.00    -0.001 A 
ENDROOT
TORSDOF 0
ENDMDL
