MODEL 1
REMARK minimizedAffinity 11.1927147
REMARK minimizedRMSD -1
REMARK  0 active torsions:
REMARK  status: ('A' for Active; 'I' for Inactive)
ROOT
ATOM      1  C   UNL d   1       3.892   3.355  -5.997  0.00  0.00     0.077 C 
ATOM      2  C1  UNL d   1       3.050   3.863  -4.865  0.00  0.00    -0.074 A 
ATOM      3  C2  UNL d   1       2.699   5.214  -4.781  0.00  0.00    -0.005 A 
ATOM      4  C3  UNL d   1       1.907   5.671  -3.727  0.00  0.00     0.006 A 
ATOM      5  C4  UNL d   1       1.458   4.782  -2.749  0.00  0.00    -0.005 A 
ATOM      6  C5  UNL d   1       1.799   3.427  -2.818  0.00  0.00    -0.074 A 
ATOM      7  C6  UNL d   1       1.317   2.457  -1.780  0.00  0.00     0.077 C 
ATOM      8  C7  UNL d   1       2.589   2.975  -3.883  0.00  0.00    -0.001 A 
ENDROOT
TORSDOF 0
ENDMDL
