MODEL 1
REMARK minimizedAffinity 14.9971714
REMARK minimizedRMSD -1
REMARK  0 active torsions:
REMARK  status: ('A' for Active; 'I' for Inactive)
ROOT
ATOM      1  C   UNL d   1       3.420   0.926  -6.000  0.00  0.00     0.077 C 
ATOM      2  C1  UNL d   1       3.857   2.312  -5.628  0.00  0.00    -0.074 A 
ATOM      3  C2  UNL d   1       5.173   2.734  -5.845  0.00  0.00    -0.005 A 
ATOM      4  C3  UNL d   1       5.562   4.029  -5.502  0.00  0.00     0.006 A 
ATOM      5  C4  UNL d   1       4.641   4.913  -4.940  0.00  0.00    -0.005 A 
ATOM      6  C5  UNL d   1       3.321   4.510  -4.716  0.00  0.00    -0.074 A 
ATOM      7  C6  UNL d   1       2.316   5.451  -4.122  0.00  0.00     0.077 C 
ATOM      8  C7  UNL d   1       2.936   3.209  -5.070  0.00  0.00    -0.001 A 
ENDROOT
TORSDOF 0
ENDMDL
