MODEL 1
REMARK minimizedAffinity 12.8871412
REMARK minimizedRMSD -1
REMARK  0 active torsions:
REMARK  status: ('A' for Active; 'I' for Inactive)
ROOT
ATOM      1  C   UNL d   1       1.878  -1.357  -4.987  0.00  0.00     0.077 C 
ATOM      2  C1  UNL d   1       2.306  -0.018  -4.463  0.00  0.00    -0.074 A 
ATOM      3  C2  UNL d   1       1.878   0.435  -3.211  0.00  0.00    -0.005 A 
ATOM      4  C3  UNL d   1       2.293   1.678  -2.733  0.00  0.00     0.006 A 
ATOM      5  C4  UNL d   1       3.139   2.479  -3.501  0.00  0.00    -0.005 A 
ATOM      6  C5  UNL d   1       3.578   2.043  -4.755  0.00  0.00    -0.074 A 
ATOM      7  C6  UNL d   1       4.495   2.888  -5.589  0.00  0.00     0.077 C 
ATOM      8  C7  UNL d   1       3.162   0.789  -5.226  0.00  0.00    -0.001 A 
ENDROOT
TORSDOF 0
ENDMDL
