MODEL 1
REMARK minimizedAffinity 2.41993403
REMARK minimizedRMSD -1
REMARK  0 active torsions:
REMARK  status: ('A' for Active; 'I' for Inactive)
ROOT
ATOM      1  C   UNL d   1      -1.767  -4.707  -5.999  0.00  0.00     0.077 C 
ATOM      2  C1  UNL d   1      -3.245  -4.703  -5.740  0.00  0.00    -0.074 A 
ATOM      3  C2  UNL d   1      -4.023  -5.836  -6.000  0.00  0.00    -0.005 A 
ATOM      4  C3  UNL d   1      -5.394  -5.820  -5.745  0.00  0.00     0.006 A 
ATOM      5  C4  UNL d   1      -6.000  -4.674  -5.228  0.00  0.00    -0.005 A 
ATOM      6  C5  UNL d   1      -5.237  -3.533  -4.961  0.00  0.00    -0.074 A 
ATOM      7  C6  UNL d   1      -5.871  -2.296  -4.397  0.00  0.00     0.077 C 
ATOM      8  C7  UNL d   1      -3.859  -3.558  -5.214  0.00  0.00    -0.001 A 
ENDROOT
TORSDOF 0
ENDMDL
