MODEL 1
REMARK minimizedAffinity 5.0430541
REMARK minimizedRMSD -1
REMARK  0 active torsions:
REMARK  status: ('A' for Active; 'I' for Inactive)
ROOT
ATOM      1  C   UNL d   1       0.339  -4.508   1.136  0.00  0.00     0.077 C 
ATOM      2  C1  UNL d   1       1.268  -5.022   2.196  0.00  0.00    -0.074 A 
ATOM      3  C2  UNL d   1       0.808  -5.284   3.490  0.00  0.00    -0.005 A 
ATOM      4  C3  UNL d   1       1.682  -5.770   4.462  0.00  0.00     0.006 A 
ATOM      5  C4  UNL d   1       3.022  -6.000   4.151  0.00  0.00    -0.005 A 
ATOM      6  C5  UNL d   1       3.500  -5.745   2.861  0.00  0.00    -0.074 A 
ATOM      7  C6  UNL d   1       4.936  -5.996   2.507  0.00  0.00     0.077 C 
ATOM      8  C7  UNL d   1       2.614  -5.263   1.888  0.00  0.00    -0.001 A 
ENDROOT
TORSDOF 0
ENDMDL
