MODEL 1
REMARK minimizedAffinity 10.2669029
REMARK minimizedRMSD -1
REMARK  0 active torsions:
REMARK  status: ('A' for Active; 'I' for Inactive)
ROOT
ATOM      1  C   UNL d   1       0.687   2.240   2.976  0.00  0.00     0.077 C 
ATOM      2  C1  UNL d   1      -0.380   1.263   2.583  0.00  0.00    -0.074 A 
ATOM      3  C2  UNL d   1      -0.283  -0.088   2.931  0.00  0.00    -0.005 A 
ATOM      4  C3  UNL d   1      -1.288  -0.983   2.567  0.00  0.00     0.006 A 
ATOM      5  C4  UNL d   1      -2.400  -0.537   1.851  0.00  0.00    -0.005 A 
ATOM      6  C5  UNL d   1      -2.515   0.811   1.494  0.00  0.00    -0.074 A 
ATOM      7  C6  UNL d   1      -3.708   1.308   0.734  0.00  0.00     0.077 C 
ATOM      8  C7  UNL d   1      -1.504   1.705   1.871  0.00  0.00    -0.001 A 
ENDROOT
TORSDOF 0
ENDMDL
