MODEL 1
REMARK minimizedAffinity 11.444581
REMARK minimizedRMSD -1
REMARK  0 active torsions:
REMARK  status: ('A' for Active; 'I' for Inactive)
ROOT
ATOM      1  C   UNL d   1      -2.875  -0.527   1.027  0.00  0.00     0.077 C 
ATOM      2  C1  UNL d   1      -2.415   0.781   1.600  0.00  0.00    -0.074 A 
ATOM      3  C2  UNL d   1      -3.310   1.841   1.779  0.00  0.00    -0.005 A 
ATOM      4  C3  UNL d   1      -2.870   3.048   2.323  0.00  0.00     0.006 A 
ATOM      5  C4  UNL d   1      -1.533   3.207   2.692  0.00  0.00    -0.005 A 
ATOM      6  C5  UNL d   1      -0.625   2.157   2.521  0.00  0.00    -0.074 A 
ATOM      7  C6  UNL d   1       0.813   2.308   2.921  0.00  0.00     0.077 C 
ATOM      8  C7  UNL d   1      -1.076   0.945   1.981  0.00  0.00    -0.001 A 
ENDROOT
TORSDOF 0
ENDMDL
