MODEL 1
REMARK minimizedAffinity 9.89373589
REMARK minimizedRMSD -1
REMARK  0 active torsions:
REMARK  status: ('A' for Active; 'I' for Inactive)
ROOT
ATOM      1  C   UNL d   1      -4.599  -1.866   0.712  0.00  0.00     0.077 C 
ATOM      2  C1  UNL d   1      -3.635  -0.743   0.956  0.00  0.00    -0.074 A 
ATOM      3  C2  UNL d   1      -2.265  -0.988   1.093  0.00  0.00    -0.005 A 
ATOM      4  C3  UNL d   1      -1.380   0.067   1.310  0.00  0.00     0.006 A 
ATOM      5  C4  UNL d   1      -1.854   1.377   1.392  0.00  0.00    -0.005 A 
ATOM      6  C5  UNL d   1      -3.221   1.642   1.256  0.00  0.00    -0.074 A 
ATOM      7  C6  UNL d   1      -3.746   3.045   1.331  0.00  0.00     0.077 C 
ATOM      8  C7  UNL d   1      -4.103   0.577   1.031  0.00  0.00    -0.001 A 
ENDROOT
TORSDOF 0
ENDMDL
