MODEL 1
REMARK minimizedAffinity 1.14571774
REMARK minimizedRMSD -1
REMARK  0 active torsions:
REMARK  status: ('A' for Active; 'I' for Inactive)
ROOT
ATOM      1  C   UNL d   1      -5.999  -2.253   0.298  0.00  0.00     0.077 C 
ATOM      2  C1  UNL d   1      -4.502  -2.161   0.275  0.00  0.00    -0.074 A 
ATOM      3  C2  UNL d   1      -3.724  -3.229  -0.182  0.00  0.00    -0.005 A 
ATOM      4  C3  UNL d   1      -2.333  -3.126  -0.207  0.00  0.00     0.006 A 
ATOM      5  C4  UNL d   1      -1.707  -1.956   0.225  0.00  0.00    -0.005 A 
ATOM      6  C5  UNL d   1      -2.470  -0.877   0.685  0.00  0.00    -0.074 A 
ATOM      7  C6  UNL d   1      -1.814   0.391   1.143  0.00  0.00     0.077 C 
ATOM      8  C7  UNL d   1      -3.867  -0.986   0.700  0.00  0.00    -0.001 A 
ENDROOT
TORSDOF 0
ENDMDL
