MODEL 1
REMARK minimizedAffinity 11.4542074
REMARK minimizedRMSD -1
REMARK  0 active torsions:
REMARK  status: ('A' for Active; 'I' for Inactive)
ROOT
ATOM      1  C   UNL d   1       1.842   2.516  -1.192  0.00  0.00     0.077 C 
ATOM      2  C1  UNL d   1       2.382   3.478  -2.207  0.00  0.00    -0.074 A 
ATOM      3  C2  UNL d   1       1.885   4.783  -2.297  0.00  0.00    -0.005 A 
ATOM      4  C3  UNL d   1       2.404   5.669  -3.240  0.00  0.00     0.006 A 
ATOM      5  C4  UNL d   1       3.423   5.262  -4.102  0.00  0.00    -0.005 A 
ATOM      6  C5  UNL d   1       3.933   3.962  -4.027  0.00  0.00    -0.074 A 
ATOM      7  C6  UNL d   1       5.034   3.510  -4.939  0.00  0.00     0.077 C 
ATOM      8  C7  UNL d   1       3.411   3.078  -3.072  0.00  0.00    -0.001 A 
ENDROOT
TORSDOF 0
ENDMDL
