MODEL 1
REMARK minimizedAffinity 10.5197506
REMARK minimizedRMSD -1
REMARK  0 active torsions:
REMARK  status: ('A' for Active; 'I' for Inactive)
ROOT
ATOM      1  C   UNL d   1      -2.311   1.130   1.874  0.00  0.00     0.077 C 
ATOM      2  C1  UNL d   1      -3.600   0.763   2.549  0.00  0.00    -0.074 A 
ATOM      3  C2  UNL d   1      -4.807   0.766   1.843  0.00  0.00    -0.005 A 
ATOM      4  C3  UNL d   1      -5.996   0.413   2.481  0.00  0.00     0.006 A 
ATOM      5  C4  UNL d   1      -5.990   0.056   3.830  0.00  0.00    -0.005 A 
ATOM      6  C5  UNL d   1      -4.792   0.047   4.552  0.00  0.00    -0.074 A 
ATOM      7  C6  UNL d   1      -4.766  -0.344   6.000  0.00  0.00     0.077 C 
ATOM      8  C7  UNL d   1      -3.601   0.395   3.901  0.00  0.00    -0.001 A 
ENDROOT
TORSDOF 0
ENDMDL
