MODEL 1
REMARK minimizedAffinity 3.58232903
REMARK minimizedRMSD -1
REMARK  0 active torsions:
REMARK  status: ('A' for Active; 'I' for Inactive)
ROOT
ATOM      1  C   UNL d   1      -3.828  -0.343   1.479  0.00  0.00     0.077 C 
ATOM      2  C1  UNL d   1      -2.636   0.461   1.907  0.00  0.00    -0.074 A 
ATOM      3  C2  UNL d   1      -2.682   1.858   1.932  0.00  0.00    -0.005 A 
ATOM      4  C3  UNL d   1      -1.569   2.592   2.341  0.00  0.00     0.006 A 
ATOM      5  C4  UNL d   1      -0.400   1.937   2.729  0.00  0.00    -0.005 A 
ATOM      6  C5  UNL d   1      -0.335   0.540   2.711  0.00  0.00    -0.074 A 
ATOM      7  C6  UNL d   1       0.911  -0.180   3.134  0.00  0.00     0.077 C 
ATOM      8  C7  UNL d   1      -1.460  -0.191   2.305  0.00  0.00    -0.001 A 
ENDROOT
TORSDOF 0
ENDMDL
