MODEL 1
REMARK minimizedAffinity 19.2655563
REMARK minimizedRMSD -1
REMARK  0 active torsions:
REMARK  status: ('A' for Active; 'I' for Inactive)
ROOT
ATOM      1  C   UNL d   1       1.950   1.260   0.552  0.00  0.00     0.124 A 
ATOM      2  C1  UNL d   1       2.632   0.126   0.970  0.00  0.00     0.062 A 
ATOM      3  C2  UNL d   1       3.261   0.105   2.212  0.00  0.00     0.162 A 
ATOM      4  C3  UNL d   1       3.209   1.222   3.045  0.00  0.00    -0.034 A 
ATOM      5  C4  UNL d   1       2.522   2.359   2.618  0.00  0.00     0.162 A 
ATOM      6  C5  UNL d   1       1.895   2.375   1.376  0.00  0.00     0.062 A 
ATOM      7  F   UNL d   1       1.236   3.472   0.974  0.00  0.00    -0.097 F 
ATOM      8  F1  UNL d   1       2.453   3.451   3.395  0.00  0.00    -0.096 F 
ATOM      9  I   UNL d   1       4.148   1.195   4.903  0.00  0.00    -0.060 I 
ATOM     10  F2  UNL d   1       3.913  -1.004   2.590  0.00  0.00    -0.096 F 
ATOM     11  F3  UNL d   1       2.687  -0.953   0.175  0.00  0.00    -0.097 F 
ATOM     12  F4  UNL d   1       1.347   1.278  -0.643  0.00  0.00    -0.092 F 
ENDROOT
TORSDOF 0
ENDMDL
