MODEL 1
REMARK minimizedAffinity 4.33932495
REMARK minimizedRMSD -1
REMARK  0 active torsions:
REMARK  status: ('A' for Active; 'I' for Inactive)
ROOT
ATOM      1  C   UNL d   1       2.629   0.234   0.393  0.00  0.00     0.124 A 
ATOM      2  C1  UNL d   1       1.943  -0.717  -0.350  0.00  0.00     0.062 A 
ATOM      3  C2  UNL d   1       0.749  -0.382  -0.983  0.00  0.00     0.162 A 
ATOM      4  C3  UNL d   1       0.234   0.909  -0.877  0.00  0.00    -0.034 A 
ATOM      5  C4  UNL d   1       0.930   1.860  -0.128  0.00  0.00     0.162 A 
ATOM      6  C5  UNL d   1       2.122   1.521   0.503  0.00  0.00     0.062 A 
ATOM      7  F   UNL d   1       2.784   2.441   1.220  0.00  0.00    -0.097 F 
ATOM      8  F1  UNL d   1       0.463   3.112  -0.005  0.00  0.00    -0.096 F 
ATOM      9  I   UNL d   1      -1.550   1.413  -1.822  0.00  0.00    -0.060 I 
ATOM     10  F2  UNL d   1       0.108  -1.321  -1.694  0.00  0.00    -0.096 F 
ATOM     11  F3  UNL d   1       2.431  -1.961  -0.457  0.00  0.00    -0.097 F 
ATOM     12  F4  UNL d   1       3.777  -0.090   1.002  0.00  0.00    -0.092 F 
ENDROOT
TORSDOF 0
ENDMDL
