MODEL 1
REMARK minimizedAffinity 9.13240623
REMARK minimizedRMSD -1
REMARK  0 active torsions:
REMARK  status: ('A' for Active; 'I' for Inactive)
ROOT
ATOM      1  C   UNL d   1      -1.139   1.408   0.934  0.00  0.00     0.124 A 
ATOM      2  C1  UNL d   1      -0.641   1.446  -0.361  0.00  0.00     0.062 A 
ATOM      3  C2  UNL d   1      -1.479   1.183  -1.441  0.00  0.00     0.162 A 
ATOM      4  C3  UNL d   1      -2.824   0.881  -1.231  0.00  0.00    -0.034 A 
ATOM      5  C4  UNL d   1      -3.318   0.844   0.074  0.00  0.00     0.162 A 
ATOM      6  C5  UNL d   1      -2.477   1.108   1.150  0.00  0.00     0.062 A 
ATOM      7  F   UNL d   1      -2.960   1.071   2.401  0.00  0.00    -0.097 F 
ATOM      8  F1  UNL d   1      -4.606   0.557   0.312  0.00  0.00    -0.096 F 
ATOM      9  I   UNL d   1      -4.080   0.487  -2.843  0.00  0.00    -0.060 I 
ATOM     10  F2  UNL d   1      -0.970   1.226  -2.682  0.00  0.00    -0.096 F 
ATOM     11  F3  UNL d   1       0.651   1.735  -0.573  0.00  0.00    -0.097 F 
ATOM     12  F4  UNL d   1      -0.331   1.661   1.971  0.00  0.00    -0.092 F 
ENDROOT
TORSDOF 0
ENDMDL
