MODEL 1
REMARK minimizedAffinity 5.10876608
REMARK minimizedRMSD -1
REMARK  0 active torsions:
REMARK  status: ('A' for Active; 'I' for Inactive)
ROOT
ATOM      1  C   UNL d   1       2.298  -0.400   0.422  0.00  0.00     0.124 A 
ATOM      2  C1  UNL d   1       1.891  -1.233  -0.610  0.00  0.00     0.062 A 
ATOM      3  C2  UNL d   1       0.881  -0.829  -1.479  0.00  0.00     0.162 A 
ATOM      4  C3  UNL d   1       0.271   0.415  -1.319  0.00  0.00    -0.034 A 
ATOM      5  C4  UNL d   1       0.686   1.247  -0.277  0.00  0.00     0.162 A 
ATOM      6  C5  UNL d   1       1.696   0.839   0.588  0.00  0.00     0.062 A 
ATOM      7  F   UNL d   1       2.088   1.645   1.585  0.00  0.00    -0.097 F 
ATOM      8  F1  UNL d   1       0.121   2.450  -0.094  0.00  0.00    -0.096 F 
ATOM      9  I   UNL d   1      -1.239   1.023  -2.615  0.00  0.00    -0.060 I 
ATOM     10  F2  UNL d   1       0.508  -1.655  -2.468  0.00  0.00    -0.096 F 
ATOM     11  F3  UNL d   1       2.471  -2.431  -0.772  0.00  0.00    -0.097 F 
ATOM     12  F4  UNL d   1       3.270  -0.792   1.257  0.00  0.00    -0.092 F 
ENDROOT
TORSDOF 0
ENDMDL
