MODEL 1
REMARK minimizedAffinity -3.79579091
REMARK minimizedRMSD -1
REMARK  0 active torsions:
REMARK  status: ('A' for Active; 'I' for Inactive)
ROOT
ATOM      1  C1  BNZ d   1       1.074  -0.303   0.255  0.00  0.00     0.000 A 
ATOM      2  C2  BNZ d   1      -0.220  -0.750   0.284  0.00  0.00     0.000 A 
ATOM      3  C3  BNZ d   1      -1.266   0.130   0.279  0.00  0.00     0.000 A 
ATOM      4  C4  BNZ d   1      -1.017   1.455   0.285  0.00  0.00     0.000 A 
ATOM      5  C5  BNZ d   1       0.282   1.923   0.266  0.00  0.00     0.000 A 
ATOM      6  C6  BNZ d   1       1.332   1.033   0.232  0.00  0.00     0.000 A 
ENDROOT
TORSDOF 0
ENDMDL
