MODEL 1
REMARK minimizedAffinity -1.26510024
REMARK minimizedRMSD -1
REMARK  0 active torsions:
REMARK  status: ('A' for Active; 'I' for Inactive)
ROOT
ATOM      1  C1  BNZ d   1       4.186   2.530  -0.362  0.00  0.00     0.000 A 
ATOM      2  C2  BNZ d   1       4.927   2.196  -1.464  0.00  0.00     0.000 A 
ATOM      3  C3  BNZ d   1       5.802   3.089  -2.017  0.00  0.00     0.000 A 
ATOM      4  C4  BNZ d   1       5.906   4.327  -1.492  0.00  0.00     0.000 A 
ATOM      5  C5  BNZ d   1       5.158   4.683  -0.387  0.00  0.00     0.000 A 
ATOM      6  C6  BNZ d   1       4.307   3.768   0.190  0.00  0.00     0.000 A 
ENDROOT
TORSDOF 0
ENDMDL
