MODEL 1
REMARK minimizedAffinity -0.558606923
REMARK minimizedRMSD -1
REMARK  0 active torsions:
REMARK  status: ('A' for Active; 'I' for Inactive)
ROOT
ATOM      1  C1  BNZ d   1      -1.491   0.228   0.532  0.00  0.00     0.000 A 
ATOM      2  C2  BNZ d   1      -0.288   0.842   0.308  0.00  0.00     0.000 A 
ATOM      3  C3  BNZ d   1       0.888   0.178   0.522  0.00  0.00     0.000 A 
ATOM      4  C4  BNZ d   1       0.859  -1.083   0.999  0.00  0.00     0.000 A 
ATOM      5  C5  BNZ d   1      -0.346  -1.713   1.239  0.00  0.00     0.000 A 
ATOM      6  C6  BNZ d   1      -1.528  -1.055   0.984  0.00  0.00     0.000 A 
ENDROOT
TORSDOF 0
ENDMDL
