MODEL 1
REMARK minimizedAffinity 0.279838264
REMARK minimizedRMSD -1
REMARK  0 active torsions:
REMARK  status: ('A' for Active; 'I' for Inactive)
ROOT
ATOM      1  C1  BNZ d   1       0.858  -1.126   0.270  0.00  0.00     0.000 A 
ATOM      2  C2  BNZ d   1       0.667  -1.618   1.534  0.00  0.00     0.000 A 
ATOM      3  C3  BNZ d   1       0.400  -0.778   2.579  0.00  0.00     0.000 A 
ATOM      4  C4  BNZ d   1       0.364   0.553   2.367  0.00  0.00     0.000 A 
ATOM      5  C5  BNZ d   1       0.564   1.065   1.100  0.00  0.00     0.000 A 
ATOM      6  C6  BNZ d   1       0.794   0.214   0.044  0.00  0.00     0.000 A 
ENDROOT
TORSDOF 0
ENDMDL
