MODEL 1
REMARK minimizedAffinity -5.26292753
REMARK minimizedRMSD -1
REMARK  0 active torsions:
REMARK  status: ('A' for Active; 'I' for Inactive)
ROOT
ATOM      1  C1  BNZ d   1      -1.551  -1.862   0.811  0.00  0.00     0.000 A 
ATOM      2  C2  BNZ d   1      -1.160  -0.637   0.342  0.00  0.00     0.000 A 
ATOM      3  C3  BNZ d   1      -1.972   0.087  -0.485  0.00  0.00     0.000 A 
ATOM      4  C4  BNZ d   1      -3.155  -0.431  -0.874  0.00  0.00     0.000 A 
ATOM      5  C5  BNZ d   1      -3.559  -1.670  -0.416  0.00  0.00     0.000 A 
ATOM      6  C6  BNZ d   1      -2.756  -2.379   0.447  0.00  0.00     0.000 A 
ENDROOT
TORSDOF 0
ENDMDL
