MODEL 1
REMARK minimizedAffinity -4.74723959
REMARK minimizedRMSD -1
REMARK  0 active torsions:
REMARK  status: ('A' for Active; 'I' for Inactive)
ROOT
ATOM      1  C1  BNZ d   1      -1.596  -0.484  -0.600  0.00  0.00     0.000 A 
ATOM      2  C2  BNZ d   1      -2.663  -1.255  -0.977  0.00  0.00     0.000 A 
ATOM      3  C3  BNZ d   1      -3.076  -2.304  -0.204  0.00  0.00     0.000 A 
ATOM      4  C4  BNZ d   1      -2.397  -2.606   0.922  0.00  0.00     0.000 A 
ATOM      5  C5  BNZ d   1      -1.314  -1.844   1.310  0.00  0.00     0.000 A 
ATOM      6  C6  BNZ d   1      -0.925  -0.764   0.550  0.00  0.00     0.000 A 
ENDROOT
TORSDOF 0
ENDMDL
