MODEL 1
REMARK minimizedAffinity -2.7662096
REMARK minimizedRMSD -1
REMARK  0 active torsions:
REMARK  status: ('A' for Active; 'I' for Inactive)
ROOT
ATOM      1  C1  BNZ d   1       2.397   0.572   0.653  0.00  0.00     0.000 A 
ATOM      2  C2  BNZ d   1       1.639  -0.474   0.198  0.00  0.00     0.000 A 
ATOM      3  C3  BNZ d   1       0.314  -0.303  -0.090  0.00  0.00     0.000 A 
ATOM      4  C4  BNZ d   1      -0.260   0.900   0.115  0.00  0.00     0.000 A 
ATOM      5  C5  BNZ d   1       0.489   1.961   0.583  0.00  0.00     0.000 A 
ATOM      6  C6  BNZ d   1       1.832   1.796   0.835  0.00  0.00     0.000 A 
ENDROOT
TORSDOF 0
ENDMDL
