MODEL 1
REMARK minimizedAffinity -4.99454594
REMARK minimizedRMSD -1
REMARK  0 active torsions:
REMARK  status: ('A' for Active; 'I' for Inactive)
ROOT
ATOM      1  C1  BNZ d   1      -2.703  -0.190  -0.315  0.00  0.00     0.000 A 
ATOM      2  C2  BNZ d   1      -2.991  -1.404   0.248  0.00  0.00     0.000 A 
ATOM      3  C3  BNZ d   1      -2.070  -2.053   1.022  0.00  0.00     0.000 A 
ATOM      4  C4  BNZ d   1      -0.850  -1.506   1.199  0.00  0.00     0.000 A 
ATOM      5  C5  BNZ d   1      -0.541  -0.287   0.630  0.00  0.00     0.000 A 
ATOM      6  C6  BNZ d   1      -1.484   0.382  -0.117  0.00  0.00     0.000 A 
ENDROOT
TORSDOF 0
ENDMDL
