MODEL 1
REMARK minimizedAffinity -2.87127805
REMARK minimizedRMSD -1
REMARK  0 active torsions:
REMARK  status: ('A' for Active; 'I' for Inactive)
ROOT
ATOM      1  C1  BNZ d   1      -1.152  -1.135   0.047  0.00  0.00     0.000 A 
ATOM      2  C2  BNZ d   1      -0.773  -0.376  -1.028  0.00  0.00     0.000 A 
ATOM      3  C3  BNZ d   1       0.530  -0.000  -1.195  0.00  0.00     0.000 A 
ATOM      4  C4  BNZ d   1       1.445  -0.350  -0.267  0.00  0.00     0.000 A 
ATOM      5  C5  BNZ d   1       1.077  -1.107   0.827  0.00  0.00     0.000 A 
ATOM      6  C6  BNZ d   1      -0.229  -1.517   0.971  0.00  0.00     0.000 A 
ENDROOT
TORSDOF 0
ENDMDL
