MODEL 1
REMARK minimizedAffinity -3.35407996
REMARK minimizedRMSD -1
REMARK  0 active torsions:
REMARK  status: ('A' for Active; 'I' for Inactive)
ROOT
ATOM      1  C1  BNZ d   1       1.942  -0.525   0.480  0.00  0.00     0.000 A 
ATOM      2  C2  BNZ d   1       0.685  -0.824   0.026  0.00  0.00     0.000 A 
ATOM      3  C3  BNZ d   1      -0.268   0.149  -0.087  0.00  0.00     0.000 A 
ATOM      4  C4  BNZ d   1       0.024   1.410   0.292  0.00  0.00     0.000 A 
ATOM      5  C5  BNZ d   1       1.284   1.726   0.760  0.00  0.00     0.000 A 
ATOM      6  C6  BNZ d   1       2.253   0.751   0.836  0.00  0.00     0.000 A 
ENDROOT
TORSDOF 0
ENDMDL
