MODEL 1
REMARK minimizedAffinity -2.18703222
REMARK minimizedRMSD -1
REMARK  0 active torsions:
REMARK  status: ('A' for Active; 'I' for Inactive)
ROOT
ATOM      1  C1  BNZ d   1      -1.907   0.084  -1.584  0.00  0.00     0.000 A 
ATOM      2  C2  BNZ d   1      -0.920   1.030  -1.665  0.00  0.00     0.000 A 
ATOM      3  C3  BNZ d   1       0.153   0.996  -0.819  0.00  0.00     0.000 A 
ATOM      4  C4  BNZ d   1       0.218   0.042   0.132  0.00  0.00     0.000 A 
ATOM      5  C5  BNZ d   1      -0.774  -0.914   0.233  0.00  0.00     0.000 A 
ATOM      6  C6  BNZ d   1      -1.833  -0.900  -0.646  0.00  0.00     0.000 A 
ENDROOT
TORSDOF 0
ENDMDL
