MODEL 1
REMARK minimizedAffinity -2.65604877
REMARK minimizedRMSD -1
REMARK  0 active torsions:
REMARK  status: ('A' for Active; 'I' for Inactive)
ROOT
ATOM      1  C1  BNZ d   1      -0.058   1.254   2.866  0.00  0.00     0.000 A 
ATOM      2  C2  BNZ d   1      -0.746   0.123   2.516  0.00  0.00     0.000 A 
ATOM      3  C3  BNZ d   1      -0.151  -0.855   1.769  0.00  0.00     0.000 A 
ATOM      4  C4  BNZ d   1       1.116  -0.683   1.340  0.00  0.00     0.000 A 
ATOM      5  C5  BNZ d   1       1.820   0.456   1.677  0.00  0.00     0.000 A 
ATOM      6  C6  BNZ d   1       1.231   1.421   2.461  0.00  0.00     0.000 A 
ENDROOT
TORSDOF 0
ENDMDL
