MODEL 1
REMARK minimizedAffinity -2.36409879
REMARK minimizedRMSD -1
REMARK  0 active torsions:
REMARK  status: ('A' for Active; 'I' for Inactive)
ROOT
ATOM      1  C1  BNZ d   1      -0.741   0.053  -1.372  0.00  0.00     0.000 A 
ATOM      2  C2  BNZ d   1      -1.738  -0.743  -1.871  0.00  0.00     0.000 A 
ATOM      3  C3  BNZ d   1      -2.525  -1.485  -1.036  0.00  0.00     0.000 A 
ATOM      4  C4  BNZ d   1      -2.289  -1.462   0.292  0.00  0.00     0.000 A 
ATOM      5  C5  BNZ d   1      -1.282  -0.672   0.809  0.00  0.00     0.000 A 
ATOM      6  C6  BNZ d   1      -0.517   0.104  -0.031  0.00  0.00     0.000 A 
ENDROOT
TORSDOF 0
ENDMDL
