MODEL 1
REMARK minimizedAffinity -1.51413655
REMARK minimizedRMSD -1
REMARK  0 active torsions:
REMARK  status: ('A' for Active; 'I' for Inactive)
ROOT
ATOM      1  C1  BNZ d   1       0.318   1.782   0.456  0.00  0.00     0.000 A 
ATOM      2  C2  BNZ d   1       1.057   2.850   0.893  0.00  0.00     0.000 A 
ATOM      3  C3  BNZ d   1       2.389   2.713   1.169  0.00  0.00     0.000 A 
ATOM      4  C4  BNZ d   1       2.970   1.503   1.048  0.00  0.00     0.000 A 
ATOM      5  C5  BNZ d   1       2.237   0.415   0.618  0.00  0.00     0.000 A 
ATOM      6  C6  BNZ d   1       0.906   0.564   0.303  0.00  0.00     0.000 A 
ENDROOT
TORSDOF 0
ENDMDL
