MODEL 1
REMARK minimizedAffinity -4.27633905
REMARK minimizedRMSD -1
REMARK  0 active torsions:
REMARK  status: ('A' for Active; 'I' for Inactive)
ROOT
ATOM      1  C1  BNZ d   1       0.424   0.672  -0.877  0.00  0.00     0.000 A 
ATOM      2  C2  BNZ d   1      -0.628   0.656  -1.753  0.00  0.00     0.000 A 
ATOM      3  C3  BNZ d   1      -1.757  -0.063  -1.478  0.00  0.00     0.000 A 
ATOM      4  C4  BNZ d   1      -1.818  -0.796  -0.348  0.00  0.00     0.000 A 
ATOM      5  C5  BNZ d   1      -0.762  -0.797   0.542  0.00  0.00     0.000 A 
ATOM      6  C6  BNZ d   1       0.358  -0.041   0.280  0.00  0.00     0.000 A 
ENDROOT
TORSDOF 0
ENDMDL
