MODEL 1
REMARK minimizedAffinity 8.78950977
REMARK minimizedRMSD -1
REMARK  0 active torsions:
REMARK  status: ('A' for Active; 'I' for Inactive)
ROOT
ATOM      1  C   UNL d   1       0.802   1.688   2.676  0.00  0.00     0.077 C 
ATOM      2  C1  UNL d   1       0.558   2.290   1.324  0.00  0.00    -0.074 A 
ATOM      3  C2  UNL d   1       0.334   3.662   1.177  0.00  0.00    -0.005 A 
ATOM      4  C3  UNL d   1       0.119   4.209  -0.088  0.00  0.00     0.006 A 
ATOM      5  C4  UNL d   1       0.125   3.389  -1.217  0.00  0.00    -0.005 A 
ATOM      6  C5  UNL d   1       0.349   2.015  -1.090  0.00  0.00    -0.074 A 
ATOM      7  C6  UNL d   1       0.369   1.121  -2.295  0.00  0.00     0.077 C 
ATOM      8  C7  UNL d   1       0.571   1.474   0.184  0.00  0.00    -0.001 A 
ENDROOT
TORSDOF 0
ENDMDL
