MODEL 1
REMARK minimizedAffinity 7.24551153
REMARK minimizedRMSD -1
REMARK  0 active torsions:
REMARK  status: ('A' for Active; 'I' for Inactive)
ROOT
ATOM      1  C   UNL d   1       0.826  -5.999  -1.119  0.00  0.00     0.077 C 
ATOM      2  C1  UNL d   1       0.190  -5.316  -2.293  0.00  0.00    -0.074 A 
ATOM      3  C2  UNL d   1      -0.402  -4.056  -2.157  0.00  0.00    -0.005 A 
ATOM      4  C3  UNL d   1      -0.980  -3.428  -3.260  0.00  0.00     0.006 A 
ATOM      5  C4  UNL d   1      -0.973  -4.052  -4.508  0.00  0.00    -0.005 A 
ATOM      6  C5  UNL d   1      -0.385  -5.311  -4.663  0.00  0.00    -0.074 A 
ATOM      7  C6  UNL d   1      -0.359  -5.992  -5.999  0.00  0.00     0.077 C 
ATOM      8  C7  UNL d   1       0.201  -5.933  -3.552  0.00  0.00    -0.001 A 
ENDROOT
TORSDOF 0
ENDMDL
