MODEL 1
REMARK minimizedAffinity 7.35673523
REMARK minimizedRMSD -1
REMARK  0 active torsions:
REMARK  status: ('A' for Active; 'I' for Inactive)
ROOT
ATOM      1  C   UNL d   1       0.681   0.650  -2.769  0.00  0.00     0.077 C 
ATOM      2  C1  UNL d   1      -0.425  -0.283  -2.377  0.00  0.00    -0.074 A 
ATOM      3  C2  UNL d   1      -1.691   0.205  -2.038  0.00  0.00    -0.005 A 
ATOM      4  C3  UNL d   1      -2.713  -0.676  -1.684  0.00  0.00     0.006 A 
ATOM      5  C4  UNL d   1      -2.480  -2.051  -1.666  0.00  0.00    -0.005 A 
ATOM      6  C5  UNL d   1      -1.221  -2.558  -2.002  0.00  0.00    -0.074 A 
ATOM      7  C6  UNL d   1      -0.957  -4.034  -1.997  0.00  0.00     0.077 C 
ATOM      8  C7  UNL d   1      -0.201  -1.667  -2.363  0.00  0.00    -0.001 A 
ENDROOT
TORSDOF 0
ENDMDL
