MODEL 1
REMARK minimizedAffinity 4.42683315
REMARK minimizedRMSD -1
REMARK  0 active torsions:
REMARK  status: ('A' for Active; 'I' for Inactive)
ROOT
ATOM      1  C   UNL d   1       1.103  -0.715   2.790  0.00  0.00     0.077 C 
ATOM      2  C1  UNL d   1       0.322   0.428   2.213  0.00  0.00    -0.074 A 
ATOM      3  C2  UNL d   1      -0.215   1.421   3.039  0.00  0.00    -0.005 A 
ATOM      4  C3  UNL d   1      -0.931   2.483   2.487  0.00  0.00     0.006 A 
ATOM      5  C4  UNL d   1      -1.116   2.563   1.106  0.00  0.00    -0.005 A 
ATOM      6  C5  UNL d   1      -0.585   1.581   0.265  0.00  0.00    -0.074 A 
ATOM      7  C6  UNL d   1      -0.767   1.657  -1.222  0.00  0.00     0.077 C 
ATOM      8  C7  UNL d   1       0.139   0.520   0.826  0.00  0.00    -0.001 A 
ENDROOT
TORSDOF 0
ENDMDL
