MODEL 1
REMARK minimizedAffinity 4.84688807
REMARK minimizedRMSD -1
REMARK  0 active torsions:
REMARK  status: ('A' for Active; 'I' for Inactive)
ROOT
ATOM      1  C   UNL d   1      -1.314  -0.020  -1.608  0.00  0.00     0.077 C 
ATOM      2  C1  UNL d   1      -0.339  -0.206  -0.484  0.00  0.00    -0.074 A 
ATOM      3  C2  UNL d   1       0.718  -1.115  -0.593  0.00  0.00    -0.005 A 
ATOM      4  C3  UNL d   1       1.623  -1.271   0.457  0.00  0.00     0.006 A 
ATOM      5  C4  UNL d   1       1.481  -0.519   1.624  0.00  0.00    -0.005 A 
ATOM      6  C5  UNL d   1       0.431   0.396   1.751  0.00  0.00    -0.074 A 
ATOM      7  C6  UNL d   1       0.269   1.218   2.994  0.00  0.00     0.077 C 
ATOM      8  C7  UNL d   1      -0.471   0.551   0.689  0.00  0.00    -0.001 A 
ENDROOT
TORSDOF 0
ENDMDL
