MODEL 1
REMARK minimizedAffinity -0.109875262
REMARK minimizedRMSD -1
REMARK  0 active torsions:
REMARK  status: ('A' for Active; 'I' for Inactive)
ROOT
ATOM      1  C   UNL d   1       0.435   4.243  -0.183  0.00  0.00     0.077 C 
ATOM      2  C1  UNL d   1       0.381   2.939   0.557  0.00  0.00    -0.074 A 
ATOM      3  C2  UNL d   1      -0.011   2.890   1.899  0.00  0.00    -0.005 A 
ATOM      4  C3  UNL d   1      -0.064   1.669   2.571  0.00  0.00     0.006 A 
ATOM      5  C4  UNL d   1       0.273   0.487   1.910  0.00  0.00    -0.005 A 
ATOM      6  C5  UNL d   1       0.666   0.517   0.568  0.00  0.00    -0.074 A 
ATOM      7  C6  UNL d   1       1.022  -0.745  -0.160  0.00  0.00     0.077 C 
ATOM      8  C7  UNL d   1       0.711   1.747  -0.102  0.00  0.00    -0.001 A 
ENDROOT
TORSDOF 0
ENDMDL
