MODEL 1
REMARK minimizedAffinity 3.87436438
REMARK minimizedRMSD -1
REMARK  0 active torsions:
REMARK  status: ('A' for Active; 'I' for Inactive)
ROOT
ATOM      1  C   UNL d   1      -6.000  -4.067   6.000  0.00  0.00     0.077 C 
ATOM      2  C1  UNL d   1      -5.953  -2.879   5.086  0.00  0.00    -0.074 A 
ATOM      3  C2  UNL d   1      -5.848  -1.582   5.599  0.00  0.00    -0.005 A 
ATOM      4  C3  UNL d   1      -5.796  -0.487   4.737  0.00  0.00     0.006 A 
ATOM      5  C4  UNL d   1      -5.848  -0.677   3.355  0.00  0.00    -0.005 A 
ATOM      6  C5  UNL d   1      -5.952  -1.966   2.824  0.00  0.00    -0.074 A 
ATOM      7  C6  UNL d   1      -6.000  -2.189   1.342  0.00  0.00     0.077 C 
ATOM      8  C7  UNL d   1      -5.997  -3.062   3.697  0.00  0.00    -0.001 A 
ENDROOT
TORSDOF 0
ENDMDL
