MODEL 1
REMARK minimizedAffinity 4.83930826
REMARK minimizedRMSD -1
REMARK  0 active torsions:
REMARK  status: ('A' for Active; 'I' for Inactive)
ROOT
ATOM      1  C   UNL d   1       0.264  -0.356  -0.134  0.00  0.00     0.077 C 
ATOM      2  C1  UNL d   1       0.399   0.702   0.920  0.00  0.00    -0.074 A 
ATOM      3  C2  UNL d   1       0.411   0.367   2.278  0.00  0.00    -0.005 A 
ATOM      4  C3  UNL d   1       0.547   1.362   3.247  0.00  0.00     0.006 A 
ATOM      5  C4  UNL d   1       0.671   2.699   2.868  0.00  0.00    -0.005 A 
ATOM      6  C5  UNL d   1       0.662   3.053   1.515  0.00  0.00    -0.074 A 
ATOM      7  C6  UNL d   1       0.805   4.484   1.091  0.00  0.00     0.077 C 
ATOM      8  C7  UNL d   1       0.533   2.047   0.548  0.00  0.00    -0.001 A 
ENDROOT
TORSDOF 0
ENDMDL
