MODEL 1
REMARK minimizedAffinity -0.206868306
REMARK minimizedRMSD -1
REMARK  0 active torsions:
REMARK  status: ('A' for Active; 'I' for Inactive)
ROOT
ATOM      1  C   UNL d   1       1.424  -0.604   3.685  0.00  0.00     0.077 C 
ATOM      2  C1  UNL d   1       1.119   0.057   2.374  0.00  0.00    -0.074 A 
ATOM      3  C2  UNL d   1       1.100  -0.679   1.185  0.00  0.00    -0.005 A 
ATOM      4  C3  UNL d   1       0.806  -0.052  -0.026  0.00  0.00     0.006 A 
ATOM      5  C4  UNL d   1       0.527   1.314  -0.060  0.00  0.00    -0.005 A 
ATOM      6  C5  UNL d   1       0.540   2.067   1.119  0.00  0.00    -0.074 A 
ATOM      7  C6  UNL d   1       0.233   3.535   1.101  0.00  0.00     0.077 C 
ATOM      8  C7  UNL d   1       0.830   1.428   2.332  0.00  0.00    -0.001 A 
ENDROOT
TORSDOF 0
ENDMDL
