MODEL 1
REMARK minimizedAffinity -2.35168719
REMARK minimizedRMSD -1
REMARK  0 active torsions:
REMARK  status: ('A' for Active; 'I' for Inactive)
ROOT
ATOM      1  C   UNL d   1      -0.725   0.937   1.492  0.00  0.00     0.077 C 
ATOM      2  C1  UNL d   1      -0.707  -0.250   2.409  0.00  0.00    -0.074 A 
ATOM      3  C2  UNL d   1      -1.892  -0.897   2.772  0.00  0.00    -0.005 A 
ATOM      4  C3  UNL d   1      -1.859  -2.005   3.618  0.00  0.00     0.006 A 
ATOM      5  C4  UNL d   1      -0.641  -2.478   4.108  0.00  0.00    -0.005 A 
ATOM      6  C5  UNL d   1       0.555  -1.845   3.756  0.00  0.00    -0.074 A 
ATOM      7  C6  UNL d   1       1.873  -2.346   4.267  0.00  0.00     0.077 C 
ATOM      8  C7  UNL d   1       0.514  -0.736   2.900  0.00  0.00    -0.001 A 
ENDROOT
TORSDOF 0
ENDMDL
