MODEL 1
REMARK minimizedAffinity 3.23181772
REMARK minimizedRMSD -1
REMARK  0 active torsions:
REMARK  status: ('A' for Active; 'I' for Inactive)
ROOT
ATOM      1  C   UNL d   1       0.160  -3.434   4.841  0.00  0.00     0.077 C 
ATOM      2  C1  UNL d   1       0.352  -2.329   3.845  0.00  0.00    -0.074 A 
ATOM      3  C2  UNL d   1       1.612  -2.063   3.300  0.00  0.00    -0.005 A 
ATOM      4  C3  UNL d   1       1.774  -1.039   2.368  0.00  0.00     0.006 A 
ATOM      5  C4  UNL d   1       0.679  -0.270   1.971  0.00  0.00    -0.005 A 
ATOM      6  C5  UNL d   1      -0.589  -0.522   2.505  0.00  0.00    -0.074 A 
ATOM      7  C6  UNL d   1      -1.779   0.288   2.082  0.00  0.00     0.077 C 
ATOM      8  C7  UNL d   1      -0.745  -1.558   3.436  0.00  0.00    -0.001 A 
ENDROOT
TORSDOF 0
ENDMDL
