MODEL 1
REMARK minimizedAffinity 0.587106466
REMARK minimizedRMSD -1
REMARK  0 active torsions:
REMARK  status: ('A' for Active; 'I' for Inactive)
ROOT
ATOM      1  C   UNL d   1      -3.177  -2.160   3.034  0.00  0.00     0.077 C 
ATOM      2  C1  UNL d   1      -1.776  -1.625   3.010  0.00  0.00    -0.074 A 
ATOM      3  C2  UNL d   1      -1.454  -0.487   2.264  0.00  0.00    -0.005 A 
ATOM      4  C3  UNL d   1      -0.148   0.005   2.259  0.00  0.00     0.006 A 
ATOM      5  C4  UNL d   1       0.846  -0.635   2.999  0.00  0.00    -0.005 A 
ATOM      6  C5  UNL d   1       0.543  -1.774   3.752  0.00  0.00    -0.074 A 
ATOM      7  C6  UNL d   1       1.598  -2.468   4.561  0.00  0.00     0.077 C 
ATOM      8  C7  UNL d   1      -0.773  -2.258   3.757  0.00  0.00    -0.001 A 
ENDROOT
TORSDOF 0
ENDMDL
