MODEL 1
REMARK minimizedAffinity -0.99608469
REMARK minimizedRMSD -1
REMARK  0 active torsions:
REMARK  status: ('A' for Active; 'I' for Inactive)
ROOT
ATOM      1  C   UNL d   1       1.438  -1.957   5.367  0.00  0.00     0.077 C 
ATOM      2  C1  UNL d   1       0.634  -1.500   4.187  0.00  0.00    -0.074 A 
ATOM      3  C2  UNL d   1       1.260  -0.999   3.041  0.00  0.00    -0.005 A 
ATOM      4  C3  UNL d   1       0.498  -0.587   1.947  0.00  0.00     0.006 A 
ATOM      5  C4  UNL d   1      -0.894  -0.669   1.989  0.00  0.00    -0.005 A 
ATOM      6  C5  UNL d   1      -1.537  -1.167   3.126  0.00  0.00    -0.074 A 
ATOM      7  C6  UNL d   1      -3.032  -1.272   3.184  0.00  0.00     0.077 C 
ATOM      8  C7  UNL d   1      -0.765  -1.587   4.218  0.00  0.00    -0.001 A 
ENDROOT
TORSDOF 0
ENDMDL
