MODEL 1
REMARK minimizedAffinity -1.21885026
REMARK minimizedRMSD -1
REMARK  0 active torsions:
REMARK  status: ('A' for Active; 'I' for Inactive)
ROOT
ATOM      1  C   UNL d   1      -3.188  -2.127   2.374  0.00  0.00     0.077 C 
ATOM      2  C1  UNL d   1      -1.823  -1.507   2.437  0.00  0.00    -0.074 A 
ATOM      3  C2  UNL d   1      -1.533  -0.333   1.736  0.00  0.00    -0.005 A 
ATOM      4  C3  UNL d   1      -0.263   0.237   1.812  0.00  0.00     0.006 A 
ATOM      5  C4  UNL d   1       0.730  -0.362   2.589  0.00  0.00    -0.005 A 
ATOM      6  C5  UNL d   1       0.459  -1.536   3.298  0.00  0.00    -0.074 A 
ATOM      7  C6  UNL d   1       1.511  -2.187   4.145  0.00  0.00     0.077 C 
ATOM      8  C7  UNL d   1      -0.823  -2.098   3.222  0.00  0.00    -0.001 A 
ENDROOT
TORSDOF 0
ENDMDL
