MODEL 1
REMARK minimizedAffinity -1.11591065
REMARK minimizedRMSD -1
REMARK  0 active torsions:
REMARK  status: ('A' for Active; 'I' for Inactive)
ROOT
ATOM      1  C   UNL d   1       1.175  -2.194   5.493  0.00  0.00     0.077 C 
ATOM      2  C1  UNL d   1       1.024  -1.534   4.155  0.00  0.00    -0.074 A 
ATOM      3  C2  UNL d   1       2.117  -1.397   3.293  0.00  0.00    -0.005 A 
ATOM      4  C3  UNL d   1       1.959  -0.790   2.047  0.00  0.00     0.006 A 
ATOM      5  C4  UNL d   1       0.708  -0.315   1.651  0.00  0.00    -0.005 A 
ATOM      6  C5  UNL d   1      -0.397  -0.445   2.498  0.00  0.00    -0.074 A 
ATOM      7  C6  UNL d   1      -1.750   0.051   2.084  0.00  0.00     0.077 C 
ATOM      8  C7  UNL d   1      -0.231  -1.062   3.746  0.00  0.00    -0.001 A 
ENDROOT
TORSDOF 0
ENDMDL
