MODEL 1
REMARK minimizedAffinity 3.30540347
REMARK minimizedRMSD -1
REMARK  0 active torsions:
REMARK  status: ('A' for Active; 'I' for Inactive)
ROOT
ATOM      1  C   UNL d   1       1.477  -2.131   3.929  0.00  0.00     0.077 C 
ATOM      2  C1  UNL d   1       0.170  -1.727   3.316  0.00  0.00    -0.074 A 
ATOM      3  C2  UNL d   1      -0.910  -2.615   3.275  0.00  0.00    -0.005 A 
ATOM      4  C3  UNL d   1      -2.123  -2.222   2.711  0.00  0.00     0.006 A 
ATOM      5  C4  UNL d   1      -2.269  -0.939   2.183  0.00  0.00    -0.005 A 
ATOM      6  C5  UNL d   1      -1.201  -0.036   2.216  0.00  0.00    -0.074 A 
ATOM      7  C6  UNL d   1      -1.344   1.350   1.661  0.00  0.00     0.077 C 
ATOM      8  C7  UNL d   1       0.013  -0.437   2.791  0.00  0.00    -0.001 A 
ENDROOT
TORSDOF 0
ENDMDL
