MODEL 1
REMARK minimizedAffinity 6.51673222
REMARK minimizedRMSD -1
REMARK  0 active torsions:
REMARK  status: ('A' for Active; 'I' for Inactive)
ROOT
ATOM      1  C   UNL d   1      -5.740  -1.112  -2.560  0.00  0.00     0.077 C 
ATOM      2  C1  UNL d   1      -4.811  -2.205  -2.121  0.00  0.00    -0.074 A 
ATOM      3  C2  UNL d   1      -3.657  -1.916  -1.385  0.00  0.00    -0.005 A 
ATOM      4  C3  UNL d   1      -2.808  -2.944  -0.976  0.00  0.00     0.006 A 
ATOM      5  C4  UNL d   1      -3.104  -4.270  -1.297  0.00  0.00    -0.005 A 
ATOM      6  C5  UNL d   1      -4.254  -4.578  -2.030  0.00  0.00    -0.074 A 
ATOM      7  C6  UNL d   1      -4.592  -5.998  -2.375  0.00  0.00     0.077 C 
ATOM      8  C7  UNL d   1      -5.106  -3.540  -2.432  0.00  0.00    -0.001 A 
ENDROOT
TORSDOF 0
ENDMDL
