MODEL 1
REMARK minimizedAffinity 3.42952609
REMARK minimizedRMSD -1
REMARK  0 active torsions:
REMARK  status: ('A' for Active; 'I' for Inactive)
ROOT
ATOM      1  C   UNL d   1       1.572  -2.839   4.877  0.00  0.00     0.077 C 
ATOM      2  C1  UNL d   1       1.410  -1.776   3.832  0.00  0.00    -0.074 A 
ATOM      3  C2  UNL d   1       2.525  -1.162   3.252  0.00  0.00    -0.005 A 
ATOM      4  C3  UNL d   1       2.359  -0.182   2.274  0.00  0.00     0.006 A 
ATOM      5  C4  UNL d   1       1.079   0.195   1.866  0.00  0.00    -0.005 A 
ATOM      6  C5  UNL d   1      -0.048  -0.408   2.435  0.00  0.00    -0.074 A 
ATOM      7  C6  UNL d   1      -1.431  -0.022   2.001  0.00  0.00     0.077 C 
ATOM      8  C7  UNL d   1       0.127  -1.398   3.412  0.00  0.00    -0.001 A 
ENDROOT
TORSDOF 0
ENDMDL
