MODEL 1
REMARK minimizedAffinity -0.376918405
REMARK minimizedRMSD -1
REMARK  0 active torsions:
REMARK  status: ('A' for Active; 'I' for Inactive)
ROOT
ATOM      1  C   UNL d   1       3.798   3.131   1.508  0.00  0.00     0.077 C 
ATOM      2  C1  UNL d   1       3.619   1.990   2.464  0.00  0.00    -0.074 A 
ATOM      3  C2  UNL d   1       4.312   1.955   3.679  0.00  0.00    -0.005 A 
ATOM      4  C3  UNL d   1       4.128   0.892   4.563  0.00  0.00     0.006 A 
ATOM      5  C4  UNL d   1       3.250  -0.145   4.243  0.00  0.00    -0.005 A 
ATOM      6  C5  UNL d   1       2.548  -0.126   3.033  0.00  0.00    -0.074 A 
ATOM      7  C6  UNL d   1       1.594  -1.227   2.678  0.00  0.00     0.077 C 
ATOM      8  C7  UNL d   1       2.733   0.949   2.153  0.00  0.00    -0.001 A 
ENDROOT
TORSDOF 0
ENDMDL
