MODEL 1
REMARK minimizedAffinity -1.03874791
REMARK minimizedRMSD -1
REMARK  0 active torsions:
REMARK  status: ('A' for Active; 'I' for Inactive)
ROOT
ATOM      1  C   UNL d   1      -4.159  -5.994  -3.227  0.00  0.00     0.020 A 
ATOM      2  C1  UNL d   1      -4.086  -5.339  -4.455  0.00  0.00     0.020 A 
ATOM      3  C2  UNL d   1      -4.332  -3.966  -4.529  0.00  0.00     0.034 A 
ATOM      4  C3  UNL d   1      -4.651  -3.245  -3.373  0.00  0.00     0.017 A 
ATOM      5  C4  UNL d   1      -4.724  -3.904  -2.141  0.00  0.00     0.017 A 
ATOM      6  C5  UNL d   1      -4.477  -5.278  -2.072  0.00  0.00     0.034 A 
ATOM      7 Cl   UNL d   1      -5.113  -3.081  -0.671  0.00  0.00    -0.070 Cl
ATOM      8 Cl1  UNL d   1      -4.943  -1.549  -3.539  0.00  0.00    -0.070 Cl
ENDROOT
TORSDOF 0
ENDMDL
