MODEL 1
REMARK minimizedAffinity 4.6006875
REMARK minimizedRMSD -1
REMARK  0 active torsions:
REMARK  status: ('A' for Active; 'I' for Inactive)
ROOT
ATOM      1  C   UNL d   1      -5.586  -6.000  -4.942  0.00  0.00     0.020 A 
ATOM      2  C1  UNL d   1      -5.271  -5.147  -6.000  0.00  0.00     0.020 A 
ATOM      3  C2  UNL d   1      -4.921  -3.820  -5.746  0.00  0.00     0.034 A 
ATOM      4  C3  UNL d   1      -4.884  -3.341  -4.431  0.00  0.00     0.017 A 
ATOM      5  C4  UNL d   1      -5.200  -4.197  -3.370  0.00  0.00     0.017 A 
ATOM      6  C5  UNL d   1      -5.551  -5.526  -3.631  0.00  0.00     0.034 A 
ATOM      7 Cl   UNL d   1      -5.177  -3.679  -1.722  0.00  0.00    -0.070 Cl
ATOM      8 Cl1  UNL d   1      -4.441  -1.688  -4.190  0.00  0.00    -0.070 Cl
ENDROOT
TORSDOF 0
ENDMDL
