MODEL 1
REMARK minimizedAffinity -2.03125906
REMARK minimizedRMSD -1
REMARK  0 active torsions:
REMARK  status: ('A' for Active; 'I' for Inactive)
ROOT
ATOM      1  C   UNL d   1      -5.866  -4.299  -2.156  0.00  0.00     0.020 A 
ATOM      2  C1  UNL d   1      -5.121  -5.476  -2.085  0.00  0.00     0.020 A 
ATOM      3  C2  UNL d   1      -4.507  -5.983  -3.232  0.00  0.00     0.034 A 
ATOM      4  C3  UNL d   1      -4.635  -5.314  -4.454  0.00  0.00     0.017 A 
ATOM      5  C4  UNL d   1      -5.382  -4.132  -4.524  0.00  0.00     0.017 A 
ATOM      6  C5  UNL d   1      -5.996  -3.629  -3.373  0.00  0.00     0.034 A 
ATOM      7 Cl   UNL d   1      -5.586  -3.250  -5.996  0.00  0.00    -0.070 Cl
ATOM      8 Cl1  UNL d   1      -3.848  -5.998  -5.832  0.00  0.00    -0.070 Cl
ENDROOT
TORSDOF 0
ENDMDL
