MODEL 1
REMARK minimizedAffinity 5.43504238
REMARK minimizedRMSD -1
REMARK  0 active torsions:
REMARK  status: ('A' for Active; 'I' for Inactive)
ROOT
ATOM      1  C   UNL d   1       0.565  -3.533   2.259  0.00  0.00     0.020 A 
ATOM      2  C1  UNL d   1       0.640  -2.811   1.068  0.00  0.00     0.020 A 
ATOM      3  C2  UNL d   1       1.075  -1.484   1.081  0.00  0.00     0.034 A 
ATOM      4  C3  UNL d   1       1.437  -0.875   2.287  0.00  0.00     0.017 A 
ATOM      5  C4  UNL d   1       1.362  -1.599   3.482  0.00  0.00     0.017 A 
ATOM      6  C5  UNL d   1       0.926  -2.928   3.463  0.00  0.00     0.034 A 
ATOM      7 Cl   UNL d   1       1.793  -0.915   5.010  0.00  0.00    -0.070 Cl
ATOM      8 Cl1  UNL d   1       1.966   0.769   2.230  0.00  0.00    -0.070 Cl
ENDROOT
TORSDOF 0
ENDMDL
