MODEL 1
REMARK minimizedAffinity 6.63643694
REMARK minimizedRMSD -1
REMARK  0 active torsions:
REMARK  status: ('A' for Active; 'I' for Inactive)
ROOT
ATOM      1  C   UNL d   1       5.998  -3.384   3.371  0.00  0.00     0.020 A 
ATOM      2  C1  UNL d   1       5.363  -3.214   2.142  0.00  0.00     0.020 A 
ATOM      3  C2  UNL d   1       3.978  -3.046   2.089  0.00  0.00     0.034 A 
ATOM      4  C3  UNL d   1       3.223  -3.048   3.268  0.00  0.00     0.017 A 
ATOM      5  C4  UNL d   1       3.862  -3.218   4.502  0.00  0.00     0.017 A 
ATOM      6  C5  UNL d   1       5.249  -3.385   4.549  0.00  0.00     0.034 A 
ATOM      7 Cl   UNL d   1       2.998  -3.230   5.999  0.00  0.00    -0.070 Cl
ATOM      8 Cl1  UNL d   1       1.514  -2.834   3.128  0.00  0.00    -0.070 Cl
ENDROOT
TORSDOF 0
ENDMDL
