MODEL 1
REMARK minimizedAffinity -0.00633550296
REMARK minimizedRMSD -1
REMARK  0 active torsions:
REMARK  status: ('A' for Active; 'I' for Inactive)
ROOT
ATOM      1  C   UNL d   1      -4.861  -3.753  -5.946  0.00  0.00     0.020 A 
ATOM      2  C1  UNL d   1      -5.238  -5.094  -5.999  0.00  0.00     0.020 A 
ATOM      3  C2  UNL d   1      -5.586  -5.769  -4.827  0.00  0.00     0.034 A 
ATOM      4  C3  UNL d   1      -5.557  -5.103  -3.596  0.00  0.00     0.017 A 
ATOM      5  C4  UNL d   1      -5.178  -3.757  -3.544  0.00  0.00     0.017 A 
ATOM      6  C5  UNL d   1      -4.831  -3.086  -4.720  0.00  0.00     0.034 A 
ATOM      7 Cl   UNL d   1      -5.119  -2.868  -2.063  0.00  0.00    -0.070 Cl
ATOM      8 Cl1  UNL d   1      -6.000  -5.999  -2.187  0.00  0.00    -0.070 Cl
ENDROOT
TORSDOF 0
ENDMDL
