MODEL 1
REMARK minimizedAffinity -0.881423831
REMARK minimizedRMSD -1
REMARK  0 active torsions:
REMARK  status: ('A' for Active; 'I' for Inactive)
ROOT
ATOM      1  C   UNL d   1      -5.925  -5.996  -4.639  0.00  0.00     0.020 A 
ATOM      2  C1  UNL d   1      -5.336  -5.642  -5.852  0.00  0.00     0.020 A 
ATOM      3  C2  UNL d   1      -4.710  -4.401  -5.988  0.00  0.00     0.034 A 
ATOM      4  C3  UNL d   1      -4.671  -3.510  -4.910  0.00  0.00     0.017 A 
ATOM      5  C4  UNL d   1      -5.263  -3.867  -3.692  0.00  0.00     0.017 A 
ATOM      6  C5  UNL d   1      -5.889  -5.110  -3.562  0.00  0.00     0.034 A 
ATOM      7 Cl   UNL d   1      -5.255  -2.821  -2.317  0.00  0.00    -0.070 Cl
ATOM      8 Cl1  UNL d   1      -3.879  -1.993  -5.148  0.00  0.00    -0.070 Cl
ENDROOT
TORSDOF 0
ENDMDL
