MODEL 1
REMARK minimizedAffinity 1.67432463
REMARK minimizedRMSD -1
REMARK  0 active torsions:
REMARK  status: ('A' for Active; 'I' for Inactive)
ROOT
ATOM      1  C   UNL d   1      -4.984  -5.583  -5.997  0.00  0.00     0.020 A 
ATOM      2  C1  UNL d   1      -5.884  -4.553  -5.723  0.00  0.00     0.020 A 
ATOM      3  C2  UNL d   1      -5.879  -3.936  -4.471  0.00  0.00     0.034 A 
ATOM      4  C3  UNL d   1      -4.972  -4.347  -3.487  0.00  0.00     0.017 A 
ATOM      5  C4  UNL d   1      -4.070  -5.381  -3.762  0.00  0.00     0.017 A 
ATOM      6  C5  UNL d   1      -4.079  -5.996  -5.018  0.00  0.00     0.034 A 
ATOM      7 Cl   UNL d   1      -2.921  -5.943  -2.599  0.00  0.00    -0.070 Cl
ATOM      8 Cl1  UNL d   1      -5.021  -3.539  -1.960  0.00  0.00    -0.070 Cl
ENDROOT
TORSDOF 0
ENDMDL
