MODEL 1
REMARK minimizedAffinity 8.74119282
REMARK minimizedRMSD -1
REMARK  0 active torsions:
REMARK  status: ('A' for Active; 'I' for Inactive)
ROOT
ATOM      1  C   UNL d   1      -5.860  -4.012  -5.995  0.00  0.00     0.020 A 
ATOM      2  C1  UNL d   1      -5.395  -5.320  -5.862  0.00  0.00     0.020 A 
ATOM      3  C2  UNL d   1      -5.055  -5.814  -4.601  0.00  0.00     0.034 A 
ATOM      4  C3  UNL d   1      -5.179  -5.001  -3.469  0.00  0.00     0.017 A 
ATOM      5  C4  UNL d   1      -5.646  -3.689  -3.604  0.00  0.00     0.017 A 
ATOM      6  C5  UNL d   1      -5.985  -3.199  -4.869  0.00  0.00     0.034 A 
ATOM      7 Cl   UNL d   1      -5.826  -2.625  -2.253  0.00  0.00    -0.070 Cl
ATOM      8 Cl1  UNL d   1      -4.741  -5.678  -1.941  0.00  0.00    -0.070 Cl
ENDROOT
TORSDOF 0
ENDMDL
