MODEL 1
REMARK minimizedAffinity 2.57854629
REMARK minimizedRMSD -1
REMARK  0 active torsions:
REMARK  status: ('A' for Active; 'I' for Inactive)
ROOT
ATOM      1  C   UNL d   1      -4.810  -4.813  -5.689  0.00  0.00     0.020 A 
ATOM      2  C1  UNL d   1      -5.395  -5.961  -5.155  0.00  0.00     0.020 A 
ATOM      3  C2  UNL d   1      -5.754  -5.999  -3.806  0.00  0.00     0.034 A 
ATOM      4  C3  UNL d   1      -5.529  -4.887  -2.986  0.00  0.00     0.017 A 
ATOM      5  C4  UNL d   1      -4.941  -3.735  -3.523  0.00  0.00     0.017 A 
ATOM      6  C5  UNL d   1      -4.584  -3.703  -4.874  0.00  0.00     0.034 A 
ATOM      7 Cl   UNL d   1      -4.632  -2.324  -2.573  0.00  0.00    -0.070 Cl
ATOM      8 Cl1  UNL d   1      -5.998  -5.004  -1.327  0.00  0.00    -0.070 Cl
ENDROOT
TORSDOF 0
ENDMDL
