MODEL 1
REMARK minimizedAffinity -1.44944417
REMARK minimizedRMSD -1
REMARK  0 active torsions:
REMARK  status: ('A' for Active; 'I' for Inactive)
ROOT
ATOM      1  C   UNL d   1      -5.955  -4.280  -5.895  0.00  0.00     0.020 A 
ATOM      2  C1  UNL d   1      -5.258  -5.484  -5.988  0.00  0.00     0.020 A 
ATOM      3  C2  UNL d   1      -4.596  -5.996  -4.870  0.00  0.00     0.034 A 
ATOM      4  C3  UNL d   1      -4.630  -5.304  -3.654  0.00  0.00     0.017 A 
ATOM      5  C4  UNL d   1      -5.331  -4.096  -3.561  0.00  0.00     0.017 A 
ATOM      6  C5  UNL d   1      -5.992  -3.588  -4.684  0.00  0.00     0.034 A 
ATOM      7 Cl   UNL d   1      -5.419  -3.186  -2.094  0.00  0.00    -0.070 Cl
ATOM      8 Cl1  UNL d   1      -3.790  -5.996  -2.312  0.00  0.00    -0.070 Cl
ENDROOT
TORSDOF 0
ENDMDL
