MODEL 1
REMARK minimizedAffinity 8.87234592
REMARK minimizedRMSD -1
REMARK  0 active torsions:
REMARK  status: ('A' for Active; 'I' for Inactive)
ROOT
ATOM      1  C   UNL d   1       4.822  -5.971  -5.916  0.00  0.00     0.020 A 
ATOM      2  C1  UNL d   1       5.989  -5.935  -5.154  0.00  0.00     0.020 A 
ATOM      3  C2  UNL d   1       5.911  -5.913  -3.760  0.00  0.00     0.034 A 
ATOM      4  C3  UNL d   1       4.665  -5.928  -3.123  0.00  0.00     0.017 A 
ATOM      5  C4  UNL d   1       3.494  -5.964  -3.890  0.00  0.00     0.017 A 
ATOM      6  C5  UNL d   1       3.577  -5.985  -5.285  0.00  0.00     0.034 A 
ATOM      7 Cl   UNL d   1       1.920  -5.985  -3.176  0.00  0.00    -0.070 Cl
ATOM      8 Cl1  UNL d   1       4.644  -5.901  -1.396  0.00  0.00    -0.070 Cl
ENDROOT
TORSDOF 0
ENDMDL
