MODEL 1
REMARK minimizedAffinity 0.224146783
REMARK minimizedRMSD -1
REMARK  1 active torsions:
REMARK  status: ('A' for Active; 'I' for Inactive)
REMARK    1  A    between atoms: N_2  and  C1_3 
ROOT
ATOM      1  C1  UNL d   1      -1.942  -1.619  -1.792  0.00  0.00     0.143 A 
ATOM      2  C2  UNL d   1      -2.126  -1.567  -3.178  0.00  0.00    -0.057 A 
ATOM      3  C3  UNL d   1      -2.450  -2.715  -3.911  0.00  0.00     0.033 A 
ATOM      4  C4  UNL d   1      -2.567  -3.945  -3.272  0.00  0.00    -0.042 A 
ATOM      5  C5  UNL d   1      -2.365  -4.025  -1.899  0.00  0.00     0.033 A 
ATOM      6  C6  UNL d   1      -2.048  -2.874  -1.172  0.00  0.00    -0.057 A 
ENDROOT
BRANCH   1   7
ATOM      7  N   UNL d   1      -1.522  -0.532  -1.022  0.00  0.00    -0.732 N 
ATOM      8  C   UNL d   1      -0.483  -0.691  -0.027  0.00  0.00     0.284 C 
ATOM      9  H3  UNL d   1      -1.449   0.325  -1.566  0.00  0.00     0.395 HD
ENDBRANCH   1   7
TORSDOF 1
ENDMDL
