MODEL 1
REMARK minimizedAffinity -0.841077089
REMARK minimizedRMSD -1
REMARK  1 active torsions:
REMARK  status: ('A' for Active; 'I' for Inactive)
REMARK    1  A    between atoms: N_2  and  C1_3 
ROOT
ATOM      1  C1  UNL d   1      -2.110  -1.432  -2.401  0.00  0.00     0.143 A 
ATOM      2  C2  UNL d   1      -1.570  -1.532  -1.114  0.00  0.00    -0.057 A 
ATOM      3  C3  UNL d   1      -0.612  -0.620  -0.656  0.00  0.00     0.033 A 
ATOM      4  C4  UNL d   1      -0.152   0.393  -1.490  0.00  0.00    -0.042 A 
ATOM      5  C5  UNL d   1      -0.656   0.496  -2.782  0.00  0.00     0.033 A 
ATOM      6  C6  UNL d   1      -1.618  -0.413  -3.232  0.00  0.00    -0.057 A 
ENDROOT
BRANCH   1   7
ATOM      7  N   UNL d   1      -2.993  -2.366  -2.948  0.00  0.00    -0.732 N 
ATOM      8  C   UNL d   1      -2.626  -3.763  -3.038  0.00  0.00     0.284 C 
ATOM      9  H3  UNL d   1      -3.955  -2.207  -2.659  0.00  0.00     0.395 HD
ENDBRANCH   1   7
TORSDOF 1
ENDMDL
