MODEL 1
REMARK minimizedAffinity -0.49792099
REMARK minimizedRMSD -1
REMARK  1 active torsions:
REMARK  status: ('A' for Active; 'I' for Inactive)
REMARK    1  A    between atoms: N_2  and  C1_3 
ROOT
ATOM      1  C1  UNL d   1      -5.385   5.423   2.172  0.00  0.00     0.143 A 
ATOM      2  C2  UNL d   1      -4.623   5.996   1.148  0.00  0.00    -0.057 A 
ATOM      3  C3  UNL d   1      -4.513   5.382  -0.106  0.00  0.00     0.033 A 
ATOM      4  C4  UNL d   1      -5.142   4.166  -0.349  0.00  0.00    -0.042 A 
ATOM      5  C5  UNL d   1      -5.884   3.565   0.662  0.00  0.00     0.033 A 
ATOM      6  C6  UNL d   1      -5.996   4.187   1.910  0.00  0.00    -0.057 A 
ENDROOT
BRANCH   1   7
ATOM      7  N   UNL d   1      -5.453   5.935   3.470  0.00  0.00    -0.732 N 
ATOM      8  C   UNL d   1      -4.269   5.999   4.300  0.00  0.00     0.284 C 
ATOM      9  H3  UNL d   1      -6.050   6.757   3.533  0.00  0.00     0.395 HD
ENDBRANCH   1   7
TORSDOF 1
ENDMDL
