MODEL 1
REMARK minimizedAffinity -3.8237102
REMARK minimizedRMSD -1
REMARK  1 active torsions:
REMARK  status: ('A' for Active; 'I' for Inactive)
REMARK    1  A    between atoms: N_2  and  C1_3 
ROOT
ATOM      1  C1  UNL d   1      -5.384   4.813   3.439  0.00  0.00     0.143 A 
ATOM      2  C2  UNL d   1      -5.663   5.540   4.601  0.00  0.00    -0.057 A 
ATOM      3  C3  UNL d   1      -5.340   5.037   5.867  0.00  0.00     0.033 A 
ATOM      4  C4  UNL d   1      -4.756   3.781   5.995  0.00  0.00    -0.042 A 
ATOM      5  C5  UNL d   1      -4.493   3.030   4.855  0.00  0.00     0.033 A 
ATOM      6  C6  UNL d   1      -4.812   3.540   3.593  0.00  0.00    -0.057 A 
ENDROOT
BRANCH   1   7
ATOM      7  N   UNL d   1      -5.771   5.215   2.158  0.00  0.00    -0.732 N 
ATOM      8  C   UNL d   1      -4.867   5.974   1.320  0.00  0.00     0.284 C 
ATOM      9  H3  UNL d   1      -6.289   4.492   1.664  0.00  0.00     0.395 HD
ENDBRANCH   1   7
TORSDOF 1
ENDMDL
