MODEL 1
REMARK minimizedAffinity 1.87277985
REMARK minimizedRMSD -1
REMARK  1 active torsions:
REMARK  status: ('A' for Active; 'I' for Inactive)
REMARK    1  A    between atoms: N_2  and  C1_3 
ROOT
ATOM      1  C1  UNL d   1      -5.311   5.357   1.187  0.00  0.00     0.143 A 
ATOM      2  C2  UNL d   1      -4.823   5.993   0.040  0.00  0.00    -0.057 A 
ATOM      3  C3  UNL d   1      -4.651   5.293  -1.160  0.00  0.00     0.033 A 
ATOM      4  C4  UNL d   1      -4.936   3.933  -1.227  0.00  0.00    -0.042 A 
ATOM      5  C5  UNL d   1      -5.398   3.275  -0.092  0.00  0.00     0.033 A 
ATOM      6  C6  UNL d   1      -5.575   3.981   1.101  0.00  0.00    -0.057 A 
ENDROOT
BRANCH   1   7
ATOM      7  N   UNL d   1      -5.412   5.976   2.435  0.00  0.00    -0.732 N 
ATOM      8  C   UNL d   1      -4.318   5.910   3.380  0.00  0.00     0.284 C 
ATOM      9  H3  UNL d   1      -5.862   6.887   2.382  0.00  0.00     0.395 HD
ENDBRANCH   1   7
TORSDOF 1
ENDMDL
