MODEL 1
REMARK minimizedAffinity 1.12273359
REMARK minimizedRMSD -1
REMARK  1 active torsions:
REMARK  status: ('A' for Active; 'I' for Inactive)
REMARK    1  A    between atoms: N_2  and  C1_3 
ROOT
ATOM      1  C1  UNL d   1       1.469  -0.143  -0.730  0.00  0.00     0.143 A 
ATOM      2  C2  UNL d   1       0.481   0.153  -1.676  0.00  0.00    -0.057 A 
ATOM      3  C3  UNL d   1      -0.877  -0.036  -1.391  0.00  0.00     0.033 A 
ATOM      4  C4  UNL d   1      -1.270  -0.554  -0.162  0.00  0.00    -0.042 A 
ATOM      5  C5  UNL d   1      -0.305  -0.878   0.784  0.00  0.00     0.033 A 
ATOM      6  C6  UNL d   1       1.049  -0.681   0.497  0.00  0.00    -0.057 A 
ENDROOT
BRANCH   1   7
ATOM      7  N   UNL d   1       2.840  -0.070  -0.988  0.00  0.00    -0.732 N 
ATOM      8  C   UNL d   1       3.421  -0.799  -2.095  0.00  0.00     0.284 C 
ATOM      9  H3  UNL d   1       3.207   0.872  -0.872  0.00  0.00     0.395 HD
ENDBRANCH   1   7
TORSDOF 1
ENDMDL
