MODEL 1
REMARK minimizedAffinity 4.69145536
REMARK minimizedRMSD -1
REMARK  1 active torsions:
REMARK  status: ('A' for Active; 'I' for Inactive)
REMARK    1  A    between atoms: N_2  and  C1_3 
ROOT
ATOM      1  C1  UNL d   1      -4.883   5.121   0.617  0.00  0.00     0.143 A 
ATOM      2  C2  UNL d   1      -3.757   4.870   1.408  0.00  0.00    -0.057 A 
ATOM      3  C3  UNL d   1      -3.757   5.149   2.781  0.00  0.00     0.033 A 
ATOM      4  C4  UNL d   1      -4.877   5.713   3.382  0.00  0.00    -0.042 A 
ATOM      5  C5  UNL d   1      -5.999   5.994   2.610  0.00  0.00     0.033 A 
ATOM      6  C6  UNL d   1      -5.995   5.707   1.241  0.00  0.00    -0.057 A 
ENDROOT
BRANCH   1   7
ATOM      7  N   UNL d   1      -4.910   4.958  -0.770  0.00  0.00    -0.732 N 
ATOM      8  C   UNL d   1      -5.566   5.933  -1.614  0.00  0.00     0.284 C 
ATOM      9  H3  UNL d   1      -4.025   4.617  -1.139  0.00  0.00     0.395 HD
ENDBRANCH   1   7
TORSDOF 1
ENDMDL
