MODEL 1
REMARK minimizedAffinity 6.61494303
REMARK minimizedRMSD -1
REMARK  1 active torsions:
REMARK  status: ('A' for Active; 'I' for Inactive)
REMARK    1  A    between atoms: N_2  and  C1_3 
ROOT
ATOM      1  C1  UNL d   1       1.958   2.459   3.226  0.00  0.00     0.143 A 
ATOM      2  C2  UNL d   1       2.981   3.368   3.518  0.00  0.00    -0.057 A 
ATOM      3  C3  UNL d   1       3.635   4.076   2.503  0.00  0.00     0.033 A 
ATOM      4  C4  UNL d   1       3.298   3.864   1.170  0.00  0.00    -0.042 A 
ATOM      5  C5  UNL d   1       2.301   2.947   0.855  0.00  0.00     0.033 A 
ATOM      6  C6  UNL d   1       1.646   2.249   1.873  0.00  0.00    -0.057 A 
ENDROOT
BRANCH   1   7
ATOM      7  N   UNL d   1       1.337   1.653   4.183  0.00  0.00    -0.732 N 
ATOM      8  C   UNL d   1       0.784   0.366   3.816  0.00  0.00     0.284 C 
ATOM      9  H3  UNL d   1       1.830   1.655   5.072  0.00  0.00     0.395 HD
ENDBRANCH   1   7
TORSDOF 1
ENDMDL
