MODEL 1
REMARK minimizedAffinity 8.12818241
REMARK minimizedRMSD -1
REMARK  1 active torsions:
REMARK  status: ('A' for Active; 'I' for Inactive)
REMARK    1  A    between atoms: N_2  and  C1_3 
ROOT
ATOM      1  C1  UNL d   1      -1.972  -2.149  -2.076  0.00  0.00     0.143 A 
ATOM      2  C2  UNL d   1      -1.777  -1.504  -3.302  0.00  0.00    -0.057 A 
ATOM      3  C3  UNL d   1      -2.274  -2.044  -4.494  0.00  0.00     0.033 A 
ATOM      4  C4  UNL d   1      -2.952  -3.259  -4.484  0.00  0.00    -0.042 A 
ATOM      5  C5  UNL d   1      -3.135  -3.930  -3.281  0.00  0.00     0.033 A 
ATOM      6  C6  UNL d   1      -2.642  -3.382  -2.093  0.00  0.00    -0.057 A 
ENDROOT
BRANCH   1   7
ATOM      7  N   UNL d   1      -1.417  -1.712  -0.871  0.00  0.00    -0.732 N 
ATOM      8  C   UNL d   1      -0.655  -0.483  -0.812  0.00  0.00     0.284 C 
ATOM      9  H3  UNL d   1      -2.044  -1.850  -0.082  0.00  0.00     0.395 HD
ENDBRANCH   1   7
TORSDOF 1
ENDMDL
