MODEL 1
REMARK minimizedAffinity -2.97110844
REMARK minimizedRMSD -1
REMARK  1 active torsions:
REMARK  status: ('A' for Active; 'I' for Inactive)
REMARK    1  A    between atoms: N_2  and  C1_3 
ROOT
ATOM      1  C1  UNL d   1      -4.803   5.944   2.716  0.00  0.00     0.143 A 
ATOM      2  C2  UNL d   1      -5.999   5.976   3.441  0.00  0.00    -0.057 A 
ATOM      3  C3  UNL d   1      -6.000   5.996   4.841  0.00  0.00     0.033 A 
ATOM      4  C4  UNL d   1      -4.800   5.956   5.543  0.00  0.00    -0.042 A 
ATOM      5  C5  UNL d   1      -3.600   5.898   4.844  0.00  0.00     0.033 A 
ATOM      6  C6  UNL d   1      -3.606   5.885   3.446  0.00  0.00    -0.057 A 
ENDROOT
BRANCH   1   7
ATOM      7  N   UNL d   1      -4.739   5.823   1.326  0.00  0.00    -0.732 N 
ATOM      8  C   UNL d   1      -5.854   5.278   0.581  0.00  0.00     0.284 C 
ATOM      9  H3  UNL d   1      -4.299   6.627   0.885  0.00  0.00     0.395 HD
ENDBRANCH   1   7
TORSDOF 1
ENDMDL
