MODEL 1
REMARK minimizedAffinity -2.24098611
REMARK minimizedRMSD -1
REMARK  1 active torsions:
REMARK  status: ('A' for Active; 'I' for Inactive)
REMARK    1  A    between atoms: N_2  and  C1_3 
ROOT
ATOM      1  C1  UNL d   1      -4.817   5.311   1.033  0.00  0.00     0.143 A 
ATOM      2  C2  UNL d   1      -3.721   4.974   1.836  0.00  0.00    -0.057 A 
ATOM      3  C3  UNL d   1      -3.768   5.121   3.227  0.00  0.00     0.033 A 
ATOM      4  C4  UNL d   1      -4.906   5.635   3.840  0.00  0.00    -0.042 A 
ATOM      5  C5  UNL d   1      -5.998   6.000   3.060  0.00  0.00     0.033 A 
ATOM      6  C6  UNL d   1      -5.947   5.845   1.671  0.00  0.00    -0.057 A 
ENDROOT
BRANCH   1   7
ATOM      7  N   UNL d   1      -4.796   5.281  -0.364  0.00  0.00    -0.732 N 
ATOM      8  C   UNL d   1      -5.837   5.931  -1.130  0.00  0.00     0.284 C 
ATOM      9  H3  UNL d   1      -3.860   5.409  -0.741  0.00  0.00     0.395 HD
ENDBRANCH   1   7
TORSDOF 1
ENDMDL
