MODEL 1
REMARK minimizedAffinity 3.40569186
REMARK minimizedRMSD -1
REMARK  1 active torsions:
REMARK  status: ('A' for Active; 'I' for Inactive)
REMARK    1  A    between atoms: N_2  and  C1_3 
ROOT
ATOM      1  C1  UNL d   1      -3.371   0.449   5.308  0.00  0.00     0.143 A 
ATOM      2  C2  UNL d   1      -2.846   0.456   4.011  0.00  0.00    -0.057 A 
ATOM      3  C3  UNL d   1      -2.389  -0.721   3.407  0.00  0.00     0.033 A 
ATOM      4  C4  UNL d   1      -2.422  -1.926   4.102  0.00  0.00    -0.042 A 
ATOM      5  C5  UNL d   1      -2.917  -1.952   5.401  0.00  0.00     0.033 A 
ATOM      6  C6  UNL d   1      -3.379  -0.774   5.997  0.00  0.00    -0.057 A 
ENDROOT
BRANCH   1   7
ATOM      7  N   UNL d   1      -3.750   1.602   6.000  0.00  0.00    -0.732 N 
ATOM      8  C   UNL d   1      -2.906   2.777   5.992  0.00  0.00     0.284 C 
ATOM      9  H3  UNL d   1      -4.743   1.803   5.905  0.00  0.00     0.395 HD
ENDBRANCH   1   7
TORSDOF 1
ENDMDL
