MODEL 1
REMARK minimizedAffinity -4.63576221
REMARK minimizedRMSD -1
REMARK  1 active torsions:
REMARK  status: ('A' for Active; 'I' for Inactive)
REMARK    1  A    between atoms: N_2  and  C1_3 
ROOT
ATOM      1  C1  UNL d   1      -3.916  -3.564   0.237  0.00  0.00     0.143 A 
ATOM      2  C2  UNL d   1      -5.240  -3.531   0.687  0.00  0.00    -0.057 A 
ATOM      3  C3  UNL d   1      -5.971  -4.709   0.879  0.00  0.00     0.033 A 
ATOM      4  C4  UNL d   1      -5.398  -5.944   0.596  0.00  0.00    -0.042 A 
ATOM      5  C5  UNL d   1      -4.092  -6.000   0.124  0.00  0.00     0.033 A 
ATOM      6  C6  UNL d   1      -3.364  -4.820  -0.060  0.00  0.00    -0.057 A 
ENDROOT
BRANCH   1   7
ATOM      7  N   UNL d   1      -3.169  -2.423  -0.067  0.00  0.00    -0.732 N 
ATOM      8  C   UNL d   1      -2.333  -2.383  -1.247  0.00  0.00     0.284 C 
ATOM      9  H3  UNL d   1      -3.685  -1.563   0.107  0.00  0.00     0.395 HD
ENDBRANCH   1   7
TORSDOF 1
ENDMDL
