MODEL 1
REMARK minimizedAffinity 5.01937151
REMARK minimizedRMSD -1
REMARK  0 active torsions:
REMARK  status: ('A' for Active; 'I' for Inactive)
ROOT
ATOM      1  C2' OXE d   1       2.575  -3.349   2.644  0.00  0.00     0.078 C 
ATOM      2  C1' OXE d   1       2.367  -2.615  -0.057  0.00  0.00     0.078 C 
ATOM      3  C1  OXE d   1       1.813  -1.664   0.975  0.00  0.00    -0.078 A 
ATOM      4  C2  OXE d   1       1.877  -2.053   2.291  0.00  0.00    -0.078 A 
ATOM      5  C3  OXE d   1       1.430  -1.189   3.288  0.00  0.00     0.003 A 
ATOM      6  C4  OXE d   1       0.777   0.003   2.952  0.00  0.00    -0.002 A 
ATOM      7  C5  OXE d   1       0.666   0.399   1.615  0.00  0.00    -0.002 A 
ATOM      8  C6  OXE d   1       1.215  -0.401   0.619  0.00  0.00     0.003 A 
ENDROOT
TORSDOF 0
ENDMDL
