MODEL 1
REMARK minimizedAffinity 9.32930946
REMARK minimizedRMSD -1
REMARK  0 active torsions:
REMARK  status: ('A' for Active; 'I' for Inactive)
ROOT
ATOM      1  C2' OXE d   1       0.504   0.099   1.865  0.00  0.00     0.078 C 
ATOM      2  C1' OXE d   1      -0.596   2.039   0.160  0.00  0.00     0.078 C 
ATOM      3  C1  OXE d   1      -1.275   0.694   0.225  0.00  0.00    -0.078 A 
ATOM      4  C2  OXE d   1      -0.703  -0.265   1.027  0.00  0.00    -0.078 A 
ATOM      5  C3  OXE d   1      -1.320  -1.505   1.165  0.00  0.00     0.003 A 
ATOM      6  C4  OXE d   1      -2.429  -1.836   0.379  0.00  0.00    -0.002 A 
ATOM      7  C5  OXE d   1      -3.004  -0.888  -0.474  0.00  0.00    -0.002 A 
ATOM      8  C6  OXE d   1      -2.466   0.393  -0.530  0.00  0.00     0.003 A 
ENDROOT
TORSDOF 0
ENDMDL
