MODEL 1
REMARK minimizedAffinity 19.468399
REMARK minimizedRMSD -1
REMARK  0 active torsions:
REMARK  status: ('A' for Active; 'I' for Inactive)
ROOT
ATOM      1  C2' OXE d   1      -3.779  -1.297  -1.588  0.00  0.00     0.078 C 
ATOM      2  C1' OXE d   1      -2.684   1.047  -2.677  0.00  0.00     0.078 C 
ATOM      3  C1  OXE d   1      -2.226   0.630  -1.302  0.00  0.00    -0.078 A 
ATOM      4  C2  OXE d   1      -2.802  -0.493  -0.758  0.00  0.00    -0.078 A 
ATOM      5  C3  OXE d   1      -2.376  -0.953   0.485  0.00  0.00     0.003 A 
ATOM      6  C4  OXE d   1      -1.479  -0.198   1.250  0.00  0.00    -0.002 A 
ATOM      7  C5  OXE d   1      -0.910   0.970   0.731  0.00  0.00    -0.002 A 
ATOM      8  C6  OXE d   1      -1.240   1.374  -0.558  0.00  0.00     0.003 A 
ENDROOT
TORSDOF 0
ENDMDL
