MODEL 1
REMARK minimizedAffinity 5.92811012
REMARK minimizedRMSD -1
REMARK  0 active torsions:
REMARK  status: ('A' for Active; 'I' for Inactive)
ROOT
ATOM      1  C2' OXE d   1      -1.119  -3.611   0.767  0.00  0.00     0.078 C 
ATOM      2  C1' OXE d   1       1.533  -3.104   1.537  0.00  0.00     0.078 C 
ATOM      3  C1  OXE d   1       0.575  -1.939   1.504  0.00  0.00    -0.078 A 
ATOM      4  C2  OXE d   1      -0.709  -2.188   1.081  0.00  0.00    -0.078 A 
ATOM      5  C3  OXE d   1      -1.647  -1.160   1.085  0.00  0.00     0.003 A 
ATOM      6  C4  OXE d   1      -1.257   0.155   1.368  0.00  0.00    -0.002 A 
ATOM      7  C5  OXE d   1       0.055   0.437   1.762  0.00  0.00    -0.002 A 
ATOM      8  C6  OXE d   1       0.971  -0.604   1.877  0.00  0.00     0.003 A 
ENDROOT
TORSDOF 0
ENDMDL
