MODEL 1
REMARK minimizedAffinity 6.11063528
REMARK minimizedRMSD -1
REMARK  0 active torsions:
REMARK  status: ('A' for Active; 'I' for Inactive)
ROOT
ATOM      1  C2' OXE d   1       1.246   0.957   4.066  0.00  0.00     0.078 C 
ATOM      2  C1' OXE d   1       0.753   0.675   1.317  0.00  0.00     0.078 C 
ATOM      3  C1  OXE d   1       1.440  -0.463   2.029  0.00  0.00    -0.078 A 
ATOM      4  C2  OXE d   1       1.719  -0.297   3.365  0.00  0.00    -0.078 A 
ATOM      5  C3  OXE d   1       2.303  -1.338   4.082  0.00  0.00     0.003 A 
ATOM      6  C4  OXE d   1       2.747  -2.491   3.423  0.00  0.00    -0.002 A 
ATOM      7  C5  OXE d   1       2.509  -2.663   2.055  0.00  0.00    -0.002 A 
ATOM      8  C6  OXE d   1       1.820  -1.680   1.354  0.00  0.00     0.003 A 
ENDROOT
TORSDOF 0
ENDMDL
