MODEL 1
REMARK minimizedAffinity 9.31006241
REMARK minimizedRMSD -1
REMARK  0 active torsions:
REMARK  status: ('A' for Active; 'I' for Inactive)
ROOT
ATOM      1  C2' OXE d   1      -3.724  -0.985  -1.437  0.00  0.00     0.078 C 
ATOM      2  C1' OXE d   1      -2.274  -0.953   0.966  0.00  0.00     0.078 C 
ATOM      3  C1  OXE d   1      -2.351  -2.255   0.209  0.00  0.00    -0.078 A 
ATOM      4  C2  OXE d   1      -3.102  -2.273  -0.942  0.00  0.00    -0.078 A 
ATOM      5  C3  OXE d   1      -3.161  -3.434  -1.708  0.00  0.00     0.003 A 
ATOM      6  C4  OXE d   1      -2.591  -4.623  -1.237  0.00  0.00    -0.002 A 
ATOM      7  C5  OXE d   1      -1.856  -4.636  -0.047  0.00  0.00    -0.002 A 
ATOM      8  C6  OXE d   1      -1.691  -3.453   0.664  0.00  0.00     0.003 A 
ENDROOT
TORSDOF 0
ENDMDL
