MODEL 1
REMARK minimizedAffinity 5.72577715
REMARK minimizedRMSD -1
REMARK  0 active torsions:
REMARK  status: ('A' for Active; 'I' for Inactive)
ROOT
ATOM      1  C2' OXE d   1      -5.875   5.103  -2.063  0.00  0.00     0.078 C 
ATOM      2  C1' OXE d   1      -5.865   2.297  -2.021  0.00  0.00     0.078 C 
ATOM      3  C1  OXE d   1      -5.922   3.020  -0.698  0.00  0.00    -0.078 A 
ATOM      4  C2  OXE d   1      -5.880   4.393  -0.726  0.00  0.00    -0.078 A 
ATOM      5  C3  OXE d   1      -5.984   5.110   0.462  0.00  0.00     0.003 A 
ATOM      6  C4  OXE d   1      -5.978   4.445   1.694  0.00  0.00    -0.002 A 
ATOM      7  C5  OXE d   1      -5.982   3.047   1.747  0.00  0.00    -0.002 A 
ATOM      8  C6  OXE d   1      -5.997   2.321   0.561  0.00  0.00     0.003 A 
ENDROOT
TORSDOF 0
ENDMDL
