MODEL 1
REMARK minimizedAffinity 1.52403772
REMARK minimizedRMSD -1
REMARK  0 active torsions:
REMARK  status: ('A' for Active; 'I' for Inactive)
ROOT
ATOM      1  C2' OXE d   1      -6.000  -2.314  -1.312  0.00  0.00     0.078 C 
ATOM      2  C1' OXE d   1      -4.251  -0.127  -1.499  0.00  0.00     0.078 C 
ATOM      3  C1  OXE d   1      -3.646  -1.500  -1.351  0.00  0.00    -0.078 A 
ATOM      4  C2  OXE d   1      -4.510  -2.560  -1.213  0.00  0.00    -0.078 A 
ATOM      5  C3  OXE d   1      -4.005  -3.854  -1.128  0.00  0.00     0.003 A 
ATOM      6  C4  OXE d   1      -2.626  -4.072  -1.026  0.00  0.00    -0.002 A 
ATOM      7  C5  OXE d   1      -1.729  -3.003  -1.124  0.00  0.00    -0.002 A 
ATOM      8  C6  OXE d   1      -2.221  -1.718  -1.329  0.00  0.00     0.003 A 
ENDROOT
TORSDOF 0
ENDMDL
