MODEL 1
REMARK minimizedAffinity 3.84792948
REMARK minimizedRMSD -1
REMARK  0 active torsions:
REMARK  status: ('A' for Active; 'I' for Inactive)
ROOT
ATOM      1  C2' OXE d   1       0.759   0.560   5.442  0.00  0.00     0.078 C 
ATOM      2  C1' OXE d   1       1.617  -2.054   5.997  0.00  0.00     0.078 C 
ATOM      3  C1  OXE d   1       1.565  -1.623   4.553  0.00  0.00    -0.078 A 
ATOM      4  C2  OXE d   1       1.099  -0.357   4.288  0.00  0.00    -0.078 A 
ATOM      5  C3  OXE d   1       1.082   0.110   2.977  0.00  0.00     0.003 A 
ATOM      6  C4  OXE d   1       1.389  -0.748   1.914  0.00  0.00    -0.002 A 
ATOM      7  C5  OXE d   1       1.827  -2.054   2.160  0.00  0.00    -0.002 A 
ATOM      8  C6  OXE d   1       1.961  -2.492   3.473  0.00  0.00     0.003 A 
ENDROOT
TORSDOF 0
ENDMDL
