MODEL 1
REMARK minimizedAffinity 0.298533678
REMARK minimizedRMSD -1
REMARK  0 active torsions:
REMARK  status: ('A' for Active; 'I' for Inactive)
ROOT
ATOM      1  C2' OXE d   1       1.280  -0.208   2.326  0.00  0.00     0.078 C 
ATOM      2  C1' OXE d   1       3.028  -2.252   1.523  0.00  0.00     0.078 C 
ATOM      3  C1  OXE d   1       2.606  -2.215   2.971  0.00  0.00    -0.078 A 
ATOM      4  C2  OXE d   1       1.788  -1.184   3.365  0.00  0.00    -0.078 A 
ATOM      5  C3  OXE d   1       1.326  -1.133   4.677  0.00  0.00     0.003 A 
ATOM      6  C4  OXE d   1       1.809  -2.034   5.634  0.00  0.00    -0.002 A 
ATOM      7  C5  OXE d   1       2.674  -3.068   5.262  0.00  0.00    -0.002 A 
ATOM      8  C6  OXE d   1       3.048  -3.198   3.929  0.00  0.00     0.003 A 
ENDROOT
TORSDOF 0
ENDMDL
