MODEL 1
REMARK minimizedAffinity 8.33247662
REMARK minimizedRMSD -1
REMARK  0 active torsions:
REMARK  status: ('A' for Active; 'I' for Inactive)
ROOT
ATOM      1  C   UNL d   1       0.895  -5.977   0.989  0.00  0.00     0.020 A 
ATOM      2  C1  UNL d   1       0.227  -5.979  -0.235  0.00  0.00     0.020 A 
ATOM      3  C2  UNL d   1       0.954  -5.986  -1.428  0.00  0.00     0.034 A 
ATOM      4  C3  UNL d   1       2.353  -5.990  -1.399  0.00  0.00     0.017 A 
ATOM      5  C4  UNL d   1       3.023  -5.988  -0.170  0.00  0.00     0.017 A 
ATOM      6  C5  UNL d   1       2.290  -5.981   1.021  0.00  0.00     0.034 A 
ATOM      7 Cl   UNL d   1       4.747  -5.993  -0.054  0.00  0.00    -0.070 Cl
ATOM      8 Cl1  UNL d   1       3.187  -5.999  -2.912  0.00  0.00    -0.070 Cl
ENDROOT
TORSDOF 0
ENDMDL
