MODEL 1
REMARK minimizedAffinity 7.80033779
REMARK minimizedRMSD -1
REMARK  0 active torsions:
REMARK  status: ('A' for Active; 'I' for Inactive)
ROOT
ATOM      1  C   UNL d   1       0.772  -5.999  -2.419  0.00  0.00     0.020 A 
ATOM      2  C1  UNL d   1      -0.308  -5.999  -1.538  0.00  0.00     0.020 A 
ATOM      3  C2  UNL d   1      -0.085  -5.999  -0.159  0.00  0.00     0.034 A 
ATOM      4  C3  UNL d   1       1.222  -5.999   0.342  0.00  0.00     0.017 A 
ATOM      5  C4  UNL d   1       2.306  -5.999  -0.544  0.00  0.00     0.017 A 
ATOM      6  C5  UNL d   1       2.076  -5.999  -1.923  0.00  0.00     0.034 A 
ATOM      7 Cl   UNL d   1       3.947  -5.998  -0.001  0.00  0.00    -0.070 Cl
ATOM      8 Cl1  UNL d   1       1.425  -5.998   2.058  0.00  0.00    -0.070 Cl
ENDROOT
TORSDOF 0
ENDMDL
