MODEL 1
REMARK minimizedAffinity 12.4854717
REMARK minimizedRMSD -1
REMARK  0 active torsions:
REMARK  status: ('A' for Active; 'I' for Inactive)
ROOT
ATOM      1  C   UNL d   1      -4.910   3.874   0.631  0.00  0.00     0.020 A 
ATOM      2  C1  UNL d   1      -3.695   4.007  -0.040  0.00  0.00     0.020 A 
ATOM      3  C2  UNL d   1      -2.814   2.926  -0.108  0.00  0.00     0.034 A 
ATOM      4  C3  UNL d   1      -3.146   1.708   0.495  0.00  0.00     0.017 A 
ATOM      5  C4  UNL d   1      -4.366   1.575   1.168  0.00  0.00     0.017 A 
ATOM      6  C5  UNL d   1      -5.245   2.661   1.233  0.00  0.00     0.034 A 
ATOM      7 Cl   UNL d   1      -4.845   0.103   1.937  0.00  0.00    -0.070 Cl
ATOM      8 Cl1  UNL d   1      -2.008   0.413   0.371  0.00  0.00    -0.070 Cl
ENDROOT
TORSDOF 0
ENDMDL
