MODEL 1
REMARK minimizedAffinity 8.82556915
REMARK minimizedRMSD -1
REMARK  0 active torsions:
REMARK  status: ('A' for Active; 'I' for Inactive)
ROOT
ATOM      1  C   UNL d   1      -5.670  -3.601  -5.483  0.00  0.00     0.020 A 
ATOM      2  C1  UNL d   1      -4.543  -2.861  -5.839  0.00  0.00     0.020 A 
ATOM      3  C2  UNL d   1      -3.745  -2.284  -4.849  0.00  0.00     0.034 A 
ATOM      4  C3  UNL d   1      -4.072  -2.446  -3.498  0.00  0.00     0.017 A 
ATOM      5  C4  UNL d   1      -5.204  -3.189  -3.141  0.00  0.00     0.017 A 
ATOM      6  C5  UNL d   1      -5.999  -3.764  -4.137  0.00  0.00     0.034 A 
ATOM      7 Cl   UNL d   1      -5.672  -3.432  -1.496  0.00  0.00    -0.070 Cl
ATOM      8 Cl1  UNL d   1      -3.041  -1.705  -2.327  0.00  0.00    -0.070 Cl
ENDROOT
TORSDOF 0
ENDMDL
