MODEL 1
REMARK minimizedAffinity 4.16034603
REMARK minimizedRMSD -1
REMARK  0 active torsions:
REMARK  status: ('A' for Active; 'I' for Inactive)
ROOT
ATOM      1  C   UNL d   1       1.117  -3.738   3.372  0.00  0.00     0.020 A 
ATOM      2  C1  UNL d   1       2.120  -4.516   3.949  0.00  0.00     0.020 A 
ATOM      3  C2  UNL d   1       3.441  -4.064   3.950  0.00  0.00     0.034 A 
ATOM      4  C3  UNL d   1       3.763  -2.830   3.372  0.00  0.00     0.017 A 
ATOM      5  C4  UNL d   1       2.756  -2.050   2.793  0.00  0.00     0.017 A 
ATOM      6  C5  UNL d   1       1.434  -2.508   2.795  0.00  0.00     0.034 A 
ATOM      7 Cl   UNL d   1       3.076  -0.517   2.061  0.00  0.00    -0.070 Cl
ATOM      8 Cl1  UNL d   1       5.417  -2.333   3.409  0.00  0.00    -0.070 Cl
ENDROOT
TORSDOF 0
ENDMDL
