MODEL 1
REMARK minimizedAffinity 9.40154076
REMARK minimizedRMSD -1
REMARK  1 active torsions:
REMARK  status: ('A' for Active; 'I' for Inactive)
REMARK    1  A    between atoms: C1_2  and  C2_3 
ROOT
ATOM      1  C2  UNL d   1      -3.237   0.195   2.985  0.00  0.00    -0.076 A 
ATOM      2  C3  UNL d   1      -2.054   0.069   3.734  0.00  0.00     0.004 A 
ATOM      3  C4  UNL d   1      -0.805   0.171   3.124  0.00  0.00    -0.003 A 
ATOM      4  C5  UNL d   1      -0.718   0.401   1.755  0.00  0.00     0.000 A 
ATOM      5  C6  UNL d   1      -1.881   0.546   1.000  0.00  0.00     0.000 A 
ATOM      6  C7  UNL d   1      -3.149   0.463   1.602  0.00  0.00    -0.073 A 
ATOM      7  C8  UNL d   1      -4.370   0.621   0.739  0.00  0.00     0.078 C 
ENDROOT
BRANCH   1   8
ATOM      8  C1  UNL d   1      -4.563   0.049   3.696  0.00  0.00     0.053 C 
ATOM      9  C   UNL d   1      -4.614   0.829   5.001  0.00  0.00     0.018 C 
ENDBRANCH   1   8
TORSDOF 1
ENDMDL
