MODEL 1
REMARK minimizedAffinity 5.26998281
REMARK minimizedRMSD -1
REMARK  1 active torsions:
REMARK  status: ('A' for Active; 'I' for Inactive)
REMARK    1  A    between atoms: C1_2  and  C2_3 
ROOT
ATOM      1  C2  UNL d   1      -2.839   0.306   3.268  0.00  0.00    -0.076 A 
ATOM      2  C3  UNL d   1      -1.726   0.543   4.092  0.00  0.00     0.004 A 
ATOM      3  C4  UNL d   1      -0.493   0.897   3.547  0.00  0.00    -0.003 A 
ATOM      4  C5  UNL d   1      -0.353   1.019   2.169  0.00  0.00     0.000 A 
ATOM      5  C6  UNL d   1      -1.452   0.805   1.338  0.00  0.00     0.000 A 
ATOM      6  C7  UNL d   1      -2.706   0.463   1.872  0.00  0.00    -0.073 A 
ATOM      7  C8  UNL d   1      -3.855   0.237   0.928  0.00  0.00     0.078 C 
ENDROOT
BRANCH   1   8
ATOM      8  C1  UNL d   1      -4.145  -0.101   3.914  0.00  0.00     0.053 C 
ATOM      9  C   UNL d   1      -3.984  -0.445   5.386  0.00  0.00     0.018 C 
ENDBRANCH   1   8
TORSDOF 1
ENDMDL
