MODEL 1
REMARK minimizedAffinity 7.82805538
REMARK minimizedRMSD -1
REMARK  1 active torsions:
REMARK  status: ('A' for Active; 'I' for Inactive)
REMARK    1  A    between atoms: C1_2  and  C2_3 
ROOT
ATOM      1  C2  UNL d   1      -3.962   4.680   3.669  0.00  0.00    -0.076 A 
ATOM      2  C3  UNL d   1      -3.347   5.568   4.569  0.00  0.00     0.004 A 
ATOM      3  C4  UNL d   1      -4.009   5.999   5.717  0.00  0.00    -0.003 A 
ATOM      4  C5  UNL d   1      -5.297   5.549   5.984  0.00  0.00     0.000 A 
ATOM      5  C6  UNL d   1      -5.916   4.654   5.111  0.00  0.00     0.000 A 
ATOM      6  C7  UNL d   1      -5.256   4.197   3.958  0.00  0.00    -0.073 A 
ATOM      7  C8  UNL d   1      -5.973   3.238   3.048  0.00  0.00     0.078 C 
ENDROOT
BRANCH   1   8
ATOM      8  C1  UNL d   1      -3.205   4.269   2.426  0.00  0.00     0.053 C 
ATOM      9  C   UNL d   1      -1.836   3.687   2.744  0.00  0.00     0.018 C 
ENDBRANCH   1   8
TORSDOF 1
ENDMDL
