MODEL 1
REMARK minimizedAffinity 9.26362324
REMARK minimizedRMSD -1
REMARK  1 active torsions:
REMARK  status: ('A' for Active; 'I' for Inactive)
REMARK    1  A    between atoms: C1_2  and  C2_3 
ROOT
ATOM      1  C2  UNL d   1      -4.909   3.806   3.771  0.00  0.00    -0.076 A 
ATOM      2  C3  UNL d   1      -5.356   3.130   4.920  0.00  0.00     0.004 A 
ATOM      3  C4  UNL d   1      -5.893   3.829   6.000  0.00  0.00    -0.003 A 
ATOM      4  C5  UNL d   1      -5.992   5.215   5.948  0.00  0.00     0.000 A 
ATOM      5  C6  UNL d   1      -5.570   5.900   4.810  0.00  0.00     0.000 A 
ATOM      6  C7  UNL d   1      -5.042   5.210   3.705  0.00  0.00    -0.073 A 
ATOM      7  C8  UNL d   1      -4.596   6.000   2.506  0.00  0.00     0.078 C 
ENDROOT
BRANCH   1   8
ATOM      8  C1  UNL d   1      -4.311   2.998   2.642  0.00  0.00     0.053 C 
ATOM      9  C   UNL d   1      -2.854   3.348   2.382  0.00  0.00     0.018 C 
ENDBRANCH   1   8
TORSDOF 1
ENDMDL
