MODEL 1
REMARK minimizedAffinity 18.6503239
REMARK minimizedRMSD -1
REMARK  1 active torsions:
REMARK  status: ('A' for Active; 'I' for Inactive)
REMARK    1  A    between atoms: C1_2  and  C2_3 
ROOT
ATOM      1  C2  UNL d   1      -5.375   1.169   4.487  0.00  0.00    -0.076 A 
ATOM      2  C3  UNL d   1      -5.243   0.648   5.786  0.00  0.00     0.004 A 
ATOM      3  C4  UNL d   1      -4.698  -0.617   6.000  0.00  0.00    -0.003 A 
ATOM      4  C5  UNL d   1      -4.274  -1.381   4.918  0.00  0.00     0.000 A 
ATOM      5  C6  UNL d   1      -4.381  -0.872   3.624  0.00  0.00     0.000 A 
ATOM      6  C7  UNL d   1      -4.914   0.408   3.392  0.00  0.00    -0.073 A 
ATOM      7  C8  UNL d   1      -5.011   0.904   1.976  0.00  0.00     0.078 C 
ENDROOT
BRANCH   1   8
ATOM      8  C1  UNL d   1      -6.000   2.535   4.315  0.00  0.00     0.053 C 
ATOM      9  C   UNL d   1      -5.985   3.349   5.600  0.00  0.00     0.018 C 
ENDBRANCH   1   8
TORSDOF 1
ENDMDL
