MODEL 1
REMARK minimizedAffinity 9.42758083
REMARK minimizedRMSD -1
REMARK  1 active torsions:
REMARK  status: ('A' for Active; 'I' for Inactive)
REMARK    1  A    between atoms: C1_2  and  C2_3 
ROOT
ATOM      1  C2  UNL d   1      -5.557   1.120   4.661  0.00  0.00    -0.076 A 
ATOM      2  C3  UNL d   1      -5.636   0.445   5.891  0.00  0.00     0.004 A 
ATOM      3  C4  UNL d   1      -5.266  -0.895   6.000  0.00  0.00    -0.003 A 
ATOM      4  C5  UNL d   1      -4.810  -1.580   4.879  0.00  0.00     0.000 A 
ATOM      5  C6  UNL d   1      -4.708  -0.921   3.655  0.00  0.00     0.000 A 
ATOM      6  C7  UNL d   1      -5.062   0.433   3.532  0.00  0.00    -0.073 A 
ATOM      7  C8  UNL d   1      -4.939   1.092   2.185  0.00  0.00     0.078 C 
ENDROOT
BRANCH   1   8
ATOM      8  C1  UNL d   1      -5.998   2.565   4.598  0.00  0.00     0.053 C 
ATOM      9  C   UNL d   1      -5.994   3.235   5.963  0.00  0.00     0.018 C 
ENDBRANCH   1   8
TORSDOF 1
ENDMDL
