MODEL 1
REMARK minimizedAffinity 10.1672688
REMARK minimizedRMSD -1
REMARK  1 active torsions:
REMARK  status: ('A' for Active; 'I' for Inactive)
REMARK    1  A    between atoms: C1_2  and  C2_3 
ROOT
ATOM      1  C2  UNL d   1       2.473  -5.244   2.087  0.00  0.00    -0.076 A 
ATOM      2  C3  UNL d   1       2.283  -4.508   0.905  0.00  0.00     0.004 A 
ATOM      3  C4  UNL d   1       1.097  -3.813   0.675  0.00  0.00    -0.003 A 
ATOM      4  C5  UNL d   1       0.081  -3.842   1.624  0.00  0.00     0.000 A 
ATOM      5  C6  UNL d   1       0.259  -4.553   2.811  0.00  0.00     0.000 A 
ATOM      6  C7  UNL d   1       1.455  -5.245   3.065  0.00  0.00    -0.073 A 
ATOM      7  C8  UNL d   1       1.591  -6.000   4.359  0.00  0.00     0.078 C 
ENDROOT
BRANCH   1   8
ATOM      8  C1  UNL d   1       3.769  -6.000   2.270  0.00  0.00     0.053 C 
ATOM      9  C   UNL d   1       4.986  -5.089   2.224  0.00  0.00     0.018 C 
ENDBRANCH   1   8
TORSDOF 1
ENDMDL
