MODEL 1
REMARK minimizedAffinity 6.45339155
REMARK minimizedRMSD -1
REMARK  1 active torsions:
REMARK  status: ('A' for Active; 'I' for Inactive)
REMARK    1  A    between atoms: C1_2  and  C2_3 
ROOT
ATOM      1  C2  UNL d   1      -1.514  -0.435   0.977  0.00  0.00    -0.076 A 
ATOM      2  C3  UNL d   1      -2.538   0.527   0.940  0.00  0.00     0.004 A 
ATOM      3  C4  UNL d   1      -3.838   0.178   0.577  0.00  0.00    -0.003 A 
ATOM      4  C5  UNL d   1      -4.135  -1.139   0.245  0.00  0.00     0.000 A 
ATOM      5  C6  UNL d   1      -3.136  -2.110   0.292  0.00  0.00     0.000 A 
ATOM      6  C7  UNL d   1      -1.824  -1.778   0.672  0.00  0.00    -0.073 A 
ATOM      7  C8  UNL d   1      -0.784  -2.865   0.701  0.00  0.00     0.078 C 
ENDROOT
BRANCH   1   8
ATOM      8  C1  UNL d   1      -0.118   0.007   1.352  0.00  0.00     0.053 C 
ATOM      9  C   UNL d   1      -0.084   0.784   2.658  0.00  0.00     0.018 C 
ENDBRANCH   1   8
TORSDOF 1
ENDMDL
