MODEL 1
REMARK minimizedAffinity 14.0608902
REMARK minimizedRMSD -1
REMARK  1 active torsions:
REMARK  status: ('A' for Active; 'I' for Inactive)
REMARK    1  A    between atoms: C1_2  and  C2_3 
ROOT
ATOM      1  C2  UNL d   1      -4.462  -0.127   2.789  0.00  0.00    -0.076 A 
ATOM      2  C3  UNL d   1      -5.270  -1.202   2.380  0.00  0.00     0.004 A 
ATOM      3  C4  UNL d   1      -5.297  -1.613   1.049  0.00  0.00    -0.003 A 
ATOM      4  C5  UNL d   1      -4.516  -0.957   0.105  0.00  0.00     0.000 A 
ATOM      5  C6  UNL d   1      -3.695   0.101   0.495  0.00  0.00     0.000 A 
ATOM      6  C7  UNL d   1      -3.644   0.518   1.837  0.00  0.00    -0.073 A 
ATOM      7  C8  UNL d   1      -2.745   1.668   2.201  0.00  0.00     0.078 C 
ENDROOT
BRANCH   1   8
ATOM      8  C1  UNL d   1      -4.494   0.293   4.241  0.00  0.00     0.053 C 
ATOM      9  C   UNL d   1      -5.734   1.103   4.587  0.00  0.00     0.018 C 
ENDBRANCH   1   8
TORSDOF 1
ENDMDL
