MODEL 1
REMARK minimizedAffinity 3.53660131
REMARK minimizedRMSD -1
REMARK  1 active torsions:
REMARK  status: ('A' for Active; 'I' for Inactive)
REMARK    1  A    between atoms: C1_2  and  C2_3 
ROOT
ATOM      1  C2  UNL d   1       0.531   1.065   3.018  0.00  0.00    -0.076 A 
ATOM      2  C3  UNL d   1      -0.577   0.626   2.272  0.00  0.00     0.004 A 
ATOM      3  C4  UNL d   1      -1.824   1.230   2.418  0.00  0.00    -0.003 A 
ATOM      4  C5  UNL d   1      -1.985   2.283   3.312  0.00  0.00     0.000 A 
ATOM      5  C6  UNL d   1      -0.893   2.742   4.047  0.00  0.00     0.000 A 
ATOM      6  C7  UNL d   1       0.375   2.156   3.900  0.00  0.00    -0.073 A 
ATOM      7  C8  UNL d   1       1.517   2.688   4.723  0.00  0.00     0.078 C 
ENDROOT
BRANCH   1   8
ATOM      8  C1  UNL d   1       1.853   0.354   2.838  0.00  0.00     0.053 C 
ATOM      9  C   UNL d   1       2.512   0.677   1.506  0.00  0.00     0.018 C 
ENDBRANCH   1   8
TORSDOF 1
ENDMDL
