MODEL 1
REMARK minimizedAffinity -5.0730958
REMARK minimizedRMSD -1
REMARK  1 active torsions:
REMARK  status: ('A' for Active; 'I' for Inactive)
REMARK    1  A    between atoms: C3_4  and  O_7 
ROOT
ATOM      1  C   UNL d   1      -0.146   0.482  -0.147  0.00  0.00    -0.033 A 
ATOM      2  C1  UNL d   1      -1.406  -0.042   0.146  0.00  0.00     0.039 A 
ATOM      3  C2  UNL d   1      -1.702  -0.471   1.441  0.00  0.00    -0.080 A 
ATOM      4  C3  UNL d   1      -0.731  -0.369   2.433  0.00  0.00     0.150 A 
ATOM      5  C4  UNL d   1       0.526   0.155   2.149  0.00  0.00    -0.007 A 
ATOM      6  C5  UNL d   1       0.820   0.582   0.855  0.00  0.00     0.039 A 
ENDROOT
BRANCH   4   7
ATOM      7  O   UNL d   1      -0.971  -0.779   3.711  0.00  0.00    -0.526 OA
ATOM      8  H5  UNL d   1      -1.870  -1.146   3.752  0.00  0.00     0.418 HD
ENDBRANCH   4   7
TORSDOF 1
ENDMDL
