MODEL 1
REMARK minimizedAffinity -4.60456705
REMARK minimizedRMSD -1
REMARK  1 active torsions:
REMARK  status: ('A' for Active; 'I' for Inactive)
REMARK    1  A    between atoms: C3_4  and  O_7 
ROOT
ATOM      1  C   UNL d   1      -0.936  -0.468   2.924  0.00  0.00    -0.033 A 
ATOM      2  C1  UNL d   1       0.370  -0.100   2.598  0.00  0.00     0.039 A 
ATOM      3  C2  UNL d   1       0.723   0.121   1.265  0.00  0.00    -0.080 A 
ATOM      4  C3  UNL d   1      -0.239  -0.027   0.270  0.00  0.00     0.150 A 
ATOM      5  C4  UNL d   1      -1.544  -0.390   0.588  0.00  0.00    -0.007 A 
ATOM      6  C5  UNL d   1      -1.894  -0.612   1.919  0.00  0.00     0.039 A 
ENDROOT
BRANCH   4   7
ATOM      7  O   UNL d   1       0.059   0.174  -1.045  0.00  0.00    -0.526 OA
ATOM      8  H5  UNL d   1       1.003   0.391  -1.117  0.00  0.00     0.418 HD
ENDBRANCH   4   7
TORSDOF 1
ENDMDL
