MODEL 1
REMARK minimizedAffinity -4.5703454
REMARK minimizedRMSD -1
REMARK  1 active torsions:
REMARK  status: ('A' for Active; 'I' for Inactive)
REMARK    1  A    between atoms: C3_4  and  O_7 
ROOT
ATOM      1  C   UNL d   1       0.768   0.283  -0.610  0.00  0.00    -0.033 A 
ATOM      2  C1  UNL d   1      -0.490  -0.312  -0.505  0.00  0.00     0.039 A 
ATOM      3  C2  UNL d   1      -0.998  -0.659   0.748  0.00  0.00    -0.080 A 
ATOM      4  C3  UNL d   1      -0.239  -0.406   1.887  0.00  0.00     0.150 A 
ATOM      5  C4  UNL d   1       1.014   0.190   1.790  0.00  0.00    -0.007 A 
ATOM      6  C5  UNL d   1       1.520   0.536   0.538  0.00  0.00     0.039 A 
ENDROOT
BRANCH   4   7
ATOM      7  O   UNL d   1      -0.690  -0.732   3.131  0.00  0.00    -0.526 OA
ATOM      8  H5  UNL d   1      -1.557  -1.162   3.041  0.00  0.00     0.418 HD
ENDBRANCH   4   7
TORSDOF 1
ENDMDL
