MODEL 1
REMARK minimizedAffinity -4.4304657
REMARK minimizedRMSD -1
REMARK  1 active torsions:
REMARK  status: ('A' for Active; 'I' for Inactive)
REMARK    1  A    between atoms: C3_4  and  O_7 
ROOT
ATOM      1  C   UNL d   1      -0.901  -0.459   2.812  0.00  0.00    -0.033 A 
ATOM      2  C1  UNL d   1       0.397  -0.030   2.528  0.00  0.00     0.039 A 
ATOM      3  C2  UNL d   1       0.805   0.140   1.203  0.00  0.00    -0.080 A 
ATOM      4  C3  UNL d   1      -0.095  -0.120   0.173  0.00  0.00     0.150 A 
ATOM      5  C4  UNL d   1      -1.391  -0.543   0.448  0.00  0.00    -0.007 A 
ATOM      6  C5  UNL d   1      -1.796  -0.713   1.772  0.00  0.00     0.039 A 
ENDROOT
BRANCH   4   7
ATOM      7  O   UNL d   1       0.258   0.028  -1.135  0.00  0.00    -0.526 OA
ATOM      8  H5  UNL d   1       1.191   0.297  -1.174  0.00  0.00     0.418 HD
ENDBRANCH   4   7
TORSDOF 1
ENDMDL
