MODEL 1
REMARK minimizedAffinity -5.0069747
REMARK minimizedRMSD -1
REMARK  1 active torsions:
REMARK  status: ('A' for Active; 'I' for Inactive)
REMARK    1  A    between atoms: C3_4  and  O_7 
ROOT
ATOM      1  C   UNL d   1       0.353   0.041  -0.466  0.00  0.00    -0.033 A 
ATOM      2  C1  UNL d   1      -0.912  -0.461  -0.154  0.00  0.00     0.039 A 
ATOM      3  C2  UNL d   1      -1.236  -0.770   1.169  0.00  0.00    -0.080 A 
ATOM      4  C3  UNL d   1      -0.287  -0.573   2.168  0.00  0.00     0.150 A 
ATOM      5  C4  UNL d   1       0.974  -0.070   1.864  0.00  0.00    -0.007 A 
ATOM      6  C5  UNL d   1       1.295   0.238   0.543  0.00  0.00     0.039 A 
ENDROOT
BRANCH   4   7
ATOM      7  O   UNL d   1      -0.554  -0.865   3.472  0.00  0.00    -0.526 OA
ATOM      8  H5  UNL d   1      -1.453  -1.231   3.528  0.00  0.00     0.418 HD
ENDBRANCH   4   7
TORSDOF 1
ENDMDL
