MODEL 1
REMARK minimizedAffinity -4.38119602
REMARK minimizedRMSD -1
REMARK  1 active torsions:
REMARK  status: ('A' for Active; 'I' for Inactive)
REMARK    1  A    between atoms: C3_4  and  O_7 
ROOT
ATOM      1  C   UNL d   1       0.427   0.147  -0.292  0.00  0.00    -0.033 A 
ATOM      2  C1  UNL d   1      -0.772  -0.491   0.033  0.00  0.00     0.039 A 
ATOM      3  C2  UNL d   1      -1.026  -0.872   1.353  0.00  0.00    -0.080 A 
ATOM      4  C3  UNL d   1      -0.075  -0.609   2.335  0.00  0.00     0.150 A 
ATOM      5  C4  UNL d   1       1.119   0.030   2.018  0.00  0.00    -0.007 A 
ATOM      6  C5  UNL d   1       1.372   0.409   0.700  0.00  0.00     0.039 A 
ENDROOT
BRANCH   4   7
ATOM      7  O   UNL d   1      -0.276  -0.966   3.635  0.00  0.00    -0.526 OA
ATOM      8  H5  UNL d   1      -1.131  -1.424   3.700  0.00  0.00     0.418 HD
ENDBRANCH   4   7
TORSDOF 1
ENDMDL
