MODEL 1
REMARK minimizedAffinity -4.54702425
REMARK minimizedRMSD -1
REMARK  1 active torsions:
REMARK  status: ('A' for Active; 'I' for Inactive)
REMARK    1  A    between atoms: C3_4  and  O_7 
ROOT
ATOM      1  C   UNL d   1       0.230   0.548  -0.480  0.00  0.00    -0.033 A 
ATOM      2  C1  UNL d   1       1.197   0.548   0.528  0.00  0.00     0.039 A 
ATOM      3  C2  UNL d   1       0.852   0.178   1.829  0.00  0.00    -0.080 A 
ATOM      4  C3  UNL d   1      -0.461  -0.190   2.109  0.00  0.00     0.150 A 
ATOM      5  C4  UNL d   1      -1.428  -0.197   1.110  0.00  0.00    -0.007 A 
ATOM      6  C5  UNL d   1      -1.083   0.174  -0.189  0.00  0.00     0.039 A 
ENDROOT
BRANCH   4   7
ATOM      7  O   UNL d   1      -0.846  -0.555   3.365  0.00  0.00    -0.526 OA
ATOM      8  H5  UNL d   1      -0.079  -0.476   3.957  0.00  0.00     0.418 HD
ENDBRANCH   4   7
TORSDOF 1
ENDMDL
