MODEL 1
REMARK minimizedAffinity -5.39923
REMARK minimizedRMSD -1
REMARK  1 active torsions:
REMARK  status: ('A' for Active; 'I' for Inactive)
REMARK    1  A    between atoms: C3_4  and  O_7 
ROOT
ATOM      1  C   UNL d   1      -1.506  -0.031   3.772  0.00  0.00    -0.033 A 
ATOM      2  C1  UNL d   1      -2.573  -0.135   2.878  0.00  0.00     0.039 A 
ATOM      3  C2  UNL d   1      -2.330  -0.242   1.507  0.00  0.00    -0.080 A 
ATOM      4  C3  UNL d   1      -1.017  -0.244   1.044  0.00  0.00     0.150 A 
ATOM      5  C4  UNL d   1       0.051  -0.143   1.930  0.00  0.00    -0.007 A 
ATOM      6  C5  UNL d   1      -0.194  -0.036   3.298  0.00  0.00     0.039 A 
ENDROOT
BRANCH   4   7
ATOM      7  O   UNL d   1      -0.730  -0.340  -0.285  0.00  0.00    -0.526 OA
ATOM      8  H5  UNL d   1      -1.566  -0.374  -0.779  0.00  0.00     0.418 HD
ENDBRANCH   4   7
TORSDOF 1
ENDMDL
