MODEL 1
REMARK minimizedAffinity -5.44524717
REMARK minimizedRMSD -1
REMARK  1 active torsions:
REMARK  status: ('A' for Active; 'I' for Inactive)
REMARK    1  A    between atoms: C3_4  and  O_7 
ROOT
ATOM      1  C   UNL d   1      -1.044  -0.294   3.150  0.00  0.00    -0.033 A 
ATOM      2  C1  UNL d   1      -2.325   0.262   3.161  0.00  0.00     0.039 A 
ATOM      3  C2  UNL d   1      -2.961   0.580   1.959  0.00  0.00    -0.080 A 
ATOM      4  C3  UNL d   1      -2.306   0.336   0.755  0.00  0.00     0.150 A 
ATOM      5  C4  UNL d   1      -1.032  -0.222   0.736  0.00  0.00    -0.007 A 
ATOM      6  C5  UNL d   1      -0.399  -0.537   1.938  0.00  0.00     0.039 A 
ENDROOT
BRANCH   4   7
ATOM      7  O   UNL d   1      -2.885   0.633  -0.443  0.00  0.00    -0.526 OA
ATOM      8  H5  UNL d   1      -3.751   1.038  -0.274  0.00  0.00     0.418 HD
ENDBRANCH   4   7
TORSDOF 1
ENDMDL
