MODEL 1
REMARK minimizedAffinity -4.10122538
REMARK minimizedRMSD -1
REMARK  1 active torsions:
REMARK  status: ('A' for Active; 'I' for Inactive)
REMARK    1  A    between atoms: C3_4  and  O_7 
ROOT
ATOM      1  C   UNL d   1      -1.610  -0.209   0.924  0.00  0.00    -0.033 A 
ATOM      2  C1  UNL d   1      -2.024   0.739  -0.013  0.00  0.00     0.039 A 
ATOM      3  C2  UNL d   1      -1.215   1.037  -1.111  0.00  0.00    -0.080 A 
ATOM      4  C3  UNL d   1       0.004   0.380  -1.261  0.00  0.00     0.150 A 
ATOM      5  C4  UNL d   1       0.421  -0.568  -0.333  0.00  0.00    -0.007 A 
ATOM      6  C5  UNL d   1      -0.388  -0.864   0.764  0.00  0.00     0.039 A 
ENDROOT
BRANCH   4   7
ATOM      7  O   UNL d   1       0.829   0.641  -2.314  0.00  0.00    -0.526 OA
ATOM      8  H5  UNL d   1       0.425   1.338  -2.857  0.00  0.00     0.418 HD
ENDBRANCH   4   7
TORSDOF 1
ENDMDL
