MODEL 1
REMARK minimizedAffinity -5.20422554
REMARK minimizedRMSD -1
REMARK  0 active torsions:
REMARK  status: ('A' for Active; 'I' for Inactive)
ROOT
ATOM      1  C   UNL d   1      -0.893   0.396   1.166  0.00  0.00     0.078 C 
ATOM      2  C1  UNL d   1       0.247  -0.123   0.341  0.00  0.00    -0.077 A 
ATOM      3  C2  UNL d   1       0.346  -1.482   0.022  0.00  0.00    -0.001 A 
ATOM      4  C3  UNL d   1       1.418  -1.952  -0.739  0.00  0.00     0.003 A 
ATOM      5  C4  UNL d   1       2.398  -1.070  -1.186  0.00  0.00    -0.005 A 
ATOM      6  C5  UNL d   1       2.309   0.285  -0.872  0.00  0.00     0.003 A 
ATOM      7  C6  UNL d   1       1.238   0.757  -0.112  0.00  0.00    -0.001 A 
ENDROOT
TORSDOF 0
ENDMDL
