MODEL 1
REMARK minimizedAffinity -5.57470608
REMARK minimizedRMSD -1
REMARK  0 active torsions:
REMARK  status: ('A' for Active; 'I' for Inactive)
ROOT
ATOM      1  C   UNL d   1       2.945  -0.351  -0.796  0.00  0.00     0.078 C 
ATOM      2  C1  UNL d   1       1.494  -0.054  -0.560  0.00  0.00    -0.077 A 
ATOM      3  C2  UNL d   1       0.988   1.242  -0.719  0.00  0.00    -0.001 A 
ATOM      4  C3  UNL d   1      -0.363   1.505  -0.487  0.00  0.00     0.003 A 
ATOM      5  C4  UNL d   1      -1.219   0.478  -0.093  0.00  0.00    -0.005 A 
ATOM      6  C5  UNL d   1      -0.724  -0.814   0.070  0.00  0.00     0.003 A 
ATOM      7  C6  UNL d   1       0.627  -1.079  -0.162  0.00  0.00    -0.001 A 
ENDROOT
TORSDOF 0
ENDMDL
