MODEL 1
REMARK minimizedAffinity -4.79942656
REMARK minimizedRMSD -1
REMARK  0 active torsions:
REMARK  status: ('A' for Active; 'I' for Inactive)
ROOT
ATOM      1  C   UNL d   1       0.010  -2.011  -0.541  0.00  0.00     0.078 C 
ATOM      2  C1  UNL d   1       0.841  -0.780  -0.747  0.00  0.00    -0.077 A 
ATOM      3  C2  UNL d   1       2.239  -0.850  -0.777  0.00  0.00    -0.001 A 
ATOM      4  C3  UNL d   1       3.000   0.305  -0.960  0.00  0.00     0.003 A 
ATOM      5  C4  UNL d   1       2.372   1.540  -1.113  0.00  0.00    -0.005 A 
ATOM      6  C5  UNL d   1       0.981   1.620  -1.083  0.00  0.00     0.003 A 
ATOM      7  C6  UNL d   1       0.219   0.465  -0.900  0.00  0.00    -0.001 A 
ENDROOT
TORSDOF 0
ENDMDL
