MODEL 1
REMARK minimizedAffinity -3.40836477
REMARK minimizedRMSD -1
REMARK  0 active torsions:
REMARK  status: ('A' for Active; 'I' for Inactive)
ROOT
ATOM      1  C   UNL d   1       2.320  -1.026  -1.483  0.00  0.00     0.078 C 
ATOM      2  C1  UNL d   1       1.015  -0.380  -1.127  0.00  0.00    -0.077 A 
ATOM      3  C2  UNL d   1       0.077  -1.043  -0.326  0.00  0.00    -0.001 A 
ATOM      4  C3  UNL d   1      -1.138  -0.433  -0.010  0.00  0.00     0.003 A 
ATOM      5  C4  UNL d   1      -1.427   0.843  -0.492  0.00  0.00    -0.005 A 
ATOM      6  C5  UNL d   1      -0.500   1.509  -1.291  0.00  0.00     0.003 A 
ATOM      7  C6  UNL d   1       0.715   0.901  -1.608  0.00  0.00    -0.001 A 
ENDROOT
TORSDOF 0
ENDMDL
