MODEL 1
REMARK minimizedAffinity 0.14419581
REMARK minimizedRMSD -1
REMARK  0 active torsions:
REMARK  status: ('A' for Active; 'I' for Inactive)
ROOT
ATOM      1  C   UNL d   1       2.575  -1.337  -1.609  0.00  0.00     0.078 C 
ATOM      2  C1  UNL d   1       1.280  -0.879  -1.008  0.00  0.00    -0.077 A 
ATOM      3  C2  UNL d   1       0.415  -1.786  -0.383  0.00  0.00    -0.001 A 
ATOM      4  C3  UNL d   1      -0.792  -1.347   0.164  0.00  0.00     0.003 A 
ATOM      5  C4  UNL d   1      -1.146  -0.001   0.090  0.00  0.00    -0.005 A 
ATOM      6  C5  UNL d   1      -0.292   0.908  -0.532  0.00  0.00     0.003 A 
ATOM      7  C6  UNL d   1       0.915   0.471  -1.079  0.00  0.00    -0.001 A 
ENDROOT
TORSDOF 0
ENDMDL
