MODEL 1
REMARK minimizedAffinity -3.59332991
REMARK minimizedRMSD -1
REMARK  0 active torsions:
REMARK  status: ('A' for Active; 'I' for Inactive)
ROOT
ATOM      1  C   UNL d   1       3.474  -0.323  -0.347  0.00  0.00     0.078 C 
ATOM      2  C1  UNL d   1       1.986  -0.504  -0.377  0.00  0.00    -0.077 A 
ATOM      3  C2  UNL d   1       1.414  -1.782  -0.348  0.00  0.00    -0.001 A 
ATOM      4  C3  UNL d   1       0.027  -1.936  -0.386  0.00  0.00     0.003 A 
ATOM      5  C4  UNL d   1      -0.799  -0.817  -0.455  0.00  0.00    -0.005 A 
ATOM      6  C5  UNL d   1      -0.240   0.459  -0.487  0.00  0.00     0.003 A 
ATOM      7  C6  UNL d   1       1.147   0.615  -0.448  0.00  0.00    -0.001 A 
ENDROOT
TORSDOF 0
ENDMDL
