MODEL 1
REMARK minimizedAffinity -4.12761402
REMARK minimizedRMSD -1
REMARK  0 active torsions:
REMARK  status: ('A' for Active; 'I' for Inactive)
ROOT
ATOM      1  C   UNL d   1      -0.540   0.023   0.216  0.00  0.00     0.078 C 
ATOM      2  C1  UNL d   1       0.635   0.111  -0.712  0.00  0.00    -0.077 A 
ATOM      3  C2  UNL d   1       0.801   1.210  -1.564  0.00  0.00    -0.001 A 
ATOM      4  C3  UNL d   1       1.895   1.274  -2.429  0.00  0.00     0.003 A 
ATOM      5  C4  UNL d   1       2.830   0.242  -2.451  0.00  0.00    -0.005 A 
ATOM      6  C5  UNL d   1       2.673  -0.857  -1.609  0.00  0.00     0.003 A 
ATOM      7  C6  UNL d   1       1.580  -0.922  -0.743  0.00  0.00    -0.001 A 
ENDROOT
TORSDOF 0
ENDMDL
