MODEL 1
REMARK minimizedAffinity -4.97171497
REMARK minimizedRMSD -1
REMARK  0 active torsions:
REMARK  status: ('A' for Active; 'I' for Inactive)
ROOT
ATOM      1  C   UNL d   1      -0.845  -0.099   0.631  0.00  0.00     0.078 C 
ATOM      2  C1  UNL d   1       0.556  -0.166   0.103  0.00  0.00    -0.077 A 
ATOM      3  C2  UNL d   1       1.636   0.304   0.861  0.00  0.00    -0.001 A 
ATOM      4  C3  UNL d   1       2.935   0.244   0.353  0.00  0.00     0.003 A 
ATOM      5  C4  UNL d   1       3.166  -0.285  -0.915  0.00  0.00    -0.005 A 
ATOM      6  C5  UNL d   1       2.098  -0.753  -1.678  0.00  0.00     0.003 A 
ATOM      7  C6  UNL d   1       0.799  -0.694  -1.172  0.00  0.00    -0.001 A 
ENDROOT
TORSDOF 0
ENDMDL
