MODEL 1
REMARK minimizedAffinity -5.81735849
REMARK minimizedRMSD -1
REMARK  0 active torsions:
REMARK  status: ('A' for Active; 'I' for Inactive)
ROOT
ATOM      1  C   UNL d   1      -0.479   0.365   0.358  0.00  0.00     0.078 C 
ATOM      2  C1  UNL d   1       0.759   0.174  -0.466  0.00  0.00    -0.077 A 
ATOM      3  C2  UNL d   1       1.123   1.104  -1.448  0.00  0.00    -0.001 A 
ATOM      4  C3  UNL d   1       2.273   0.909  -2.214  0.00  0.00     0.003 A 
ATOM      5  C4  UNL d   1       3.069  -0.216  -2.006  0.00  0.00    -0.005 A 
ATOM      6  C5  UNL d   1       2.714  -1.148  -1.033  0.00  0.00     0.003 A 
ATOM      7  C6  UNL d   1       1.564  -0.954  -0.266  0.00  0.00    -0.001 A 
ENDROOT
TORSDOF 0
ENDMDL
