MODEL 1
REMARK minimizedAffinity -4.18963957
REMARK minimizedRMSD -1
REMARK  0 active torsions:
REMARK  status: ('A' for Active; 'I' for Inactive)
ROOT
ATOM      1  C   UNL d   1      -0.055   0.071   0.533  0.00  0.00     0.078 C 
ATOM      2  C1  UNL d   1       0.755   0.358  -0.696  0.00  0.00    -0.077 A 
ATOM      3  C2  UNL d   1       1.764  -0.518  -1.115  0.00  0.00    -0.001 A 
ATOM      4  C3  UNL d   1       2.517  -0.234  -2.255  0.00  0.00     0.003 A 
ATOM      5  C4  UNL d   1       2.270   0.927  -2.985  0.00  0.00    -0.005 A 
ATOM      6  C5  UNL d   1       1.270   1.806  -2.574  0.00  0.00     0.003 A 
ATOM      7  C6  UNL d   1       0.516   1.523  -1.434  0.00  0.00    -0.001 A 
ENDROOT
TORSDOF 0
ENDMDL
