MODEL 1
REMARK minimizedAffinity -3.98609543
REMARK minimizedRMSD -1
REMARK  0 active torsions:
REMARK  status: ('A' for Active; 'I' for Inactive)
ROOT
ATOM      1  C   UNL d   1       3.177   0.034  -1.364  0.00  0.00     0.078 C 
ATOM      2  C1  UNL d   1       1.762   0.386  -1.013  0.00  0.00    -0.077 A 
ATOM      3  C2  UNL d   1       0.993  -0.448  -0.192  0.00  0.00    -0.001 A 
ATOM      4  C3  UNL d   1      -0.326  -0.113   0.118  0.00  0.00     0.003 A 
ATOM      5  C4  UNL d   1      -0.888   1.056  -0.389  0.00  0.00    -0.005 A 
ATOM      6  C5  UNL d   1      -0.132   1.891  -1.209  0.00  0.00     0.003 A 
ATOM      7  C6  UNL d   1       1.187   1.558  -1.520  0.00  0.00    -0.001 A 
ENDROOT
TORSDOF 0
ENDMDL
