MODEL 1
REMARK minimizedAffinity -4.03762102
REMARK minimizedRMSD -1
REMARK  0 active torsions:
REMARK  status: ('A' for Active; 'I' for Inactive)
ROOT
ATOM      1  C   UNL d   1      -0.970   0.074   0.671  0.00  0.00     0.078 C 
ATOM      2  C1  UNL d   1       0.354  -0.224   0.032  0.00  0.00    -0.077 A 
ATOM      3  C2  UNL d   1       0.946  -1.487   0.153  0.00  0.00    -0.001 A 
ATOM      4  C3  UNL d   1       2.183  -1.747  -0.438  0.00  0.00     0.003 A 
ATOM      5  C4  UNL d   1       2.840  -0.748  -1.153  0.00  0.00    -0.005 A 
ATOM      6  C5  UNL d   1       2.261   0.513  -1.276  0.00  0.00     0.003 A 
ATOM      7  C6  UNL d   1       1.024   0.775  -0.686  0.00  0.00    -0.001 A 
ENDROOT
TORSDOF 0
ENDMDL
