MODEL 1
REMARK minimizedAffinity -5.14204073
REMARK minimizedRMSD -1
REMARK  0 active torsions:
REMARK  status: ('A' for Active; 'I' for Inactive)
ROOT
ATOM      1  C   UNL d   1       2.689  -0.740  -1.529  0.00  0.00     0.078 C 
ATOM      2  C1  UNL d   1       1.400  -0.143  -1.048  0.00  0.00    -0.077 A 
ATOM      3  C2  UNL d   1       0.471  -0.912  -0.337  0.00  0.00    -0.001 A 
ATOM      4  C3  UNL d   1      -0.729  -0.346   0.097  0.00  0.00     0.003 A 
ATOM      5  C4  UNL d   1      -1.011   0.991  -0.176  0.00  0.00    -0.005 A 
ATOM      6  C5  UNL d   1      -0.093   1.763  -0.885  0.00  0.00     0.003 A 
ATOM      7  C6  UNL d   1       1.108   1.199  -1.319  0.00  0.00    -0.001 A 
ENDROOT
TORSDOF 0
ENDMDL
