MODEL 1
REMARK minimizedAffinity -1.81581175
REMARK minimizedRMSD -1
REMARK  0 active torsions:
REMARK  status: ('A' for Active; 'I' for Inactive)
ROOT
ATOM      1  C   UNL d   1       2.500  -1.450  -1.573  0.00  0.00     0.078 C 
ATOM      2  C1  UNL d   1       1.308  -0.597  -1.256  0.00  0.00    -0.077 A 
ATOM      3  C2  UNL d   1       1.177   0.689  -1.795  0.00  0.00    -0.001 A 
ATOM      4  C3  UNL d   1       0.066   1.475  -1.483  0.00  0.00     0.003 A 
ATOM      5  C4  UNL d   1      -0.921   0.985  -0.631  0.00  0.00    -0.005 A 
ATOM      6  C5  UNL d   1      -0.799  -0.293  -0.088  0.00  0.00     0.003 A 
ATOM      7  C6  UNL d   1       0.311  -1.081  -0.399  0.00  0.00    -0.001 A 
ENDROOT
TORSDOF 0
ENDMDL
