MODEL 1
REMARK minimizedAffinity -1.13376164
REMARK minimizedRMSD -1
REMARK  0 active torsions:
REMARK  status: ('A' for Active; 'I' for Inactive)
ROOT
ATOM      1  C   UNL d   1       2.363  -1.912  -1.676  0.00  0.00     0.078 C 
ATOM      2  C1  UNL d   1       1.054  -1.596  -1.017  0.00  0.00    -0.077 A 
ATOM      3  C2  UNL d   1       0.457  -0.338  -1.166  0.00  0.00    -0.001 A 
ATOM      4  C3  UNL d   1      -0.757  -0.055  -0.538  0.00  0.00     0.003 A 
ATOM      5  C4  UNL d   1      -1.384  -1.023   0.244  0.00  0.00    -0.005 A 
ATOM      6  C5  UNL d   1      -0.796  -2.277   0.399  0.00  0.00     0.003 A 
ATOM      7  C6  UNL d   1       0.418  -2.562  -0.228  0.00  0.00    -0.001 A 
ENDROOT
TORSDOF 0
ENDMDL
