MODEL 1
REMARK minimizedAffinity -2.06085873
REMARK minimizedRMSD -1
REMARK  1 active torsions:
REMARK  status: ('A' for Active; 'I' for Inactive)
REMARK    1  A    between atoms: C1_2  and  C2_3 
ROOT
ATOM      1  C2  UNL d   1      -2.814   1.202   2.755  0.00  0.00    -0.081 A 
ATOM      2  C3  UNL d   1      -2.224  -0.063   2.871  0.00  0.00     0.006 A 
ATOM      3  C4  UNL d   1      -0.945  -0.297   2.362  0.00  0.00     0.002 A 
ATOM      4  C5  UNL d   1      -0.231   0.730   1.735  0.00  0.00    -0.080 A 
ATOM      5  C6  UNL d   1       1.155   0.500   1.211  0.00  0.00     0.076 C 
ATOM      6  C7  UNL d   1      -0.827   1.989   1.603  0.00  0.00     0.002 A 
ATOM      7  C8  UNL d   1      -2.107   2.223   2.111  0.00  0.00     0.006 A 
ENDROOT
BRANCH   1   8
ATOM      8  C1  UNL d   1      -4.167   1.475   3.360  0.00  0.00     0.054 C 
ATOM      9  C   UNL d   1      -4.039   2.142   4.722  0.00  0.00     0.018 C 
ENDBRANCH   1   8
TORSDOF 1
ENDMDL
