MODEL 1
REMARK minimizedAffinity 2.30438137
REMARK minimizedRMSD -1
REMARK  1 active torsions:
REMARK  status: ('A' for Active; 'I' for Inactive)
REMARK    1  A    between atoms: C1_2  and  C2_3 
ROOT
ATOM      1  C2  UNL d   1      -1.171   0.051   2.031  0.00  0.00    -0.081 A 
ATOM      2  C3  UNL d   1      -1.678   1.356   2.008  0.00  0.00     0.006 A 
ATOM      3  C4  UNL d   1      -0.857   2.429   1.656  0.00  0.00     0.002 A 
ATOM      4  C5  UNL d   1       0.483   2.215   1.315  0.00  0.00    -0.080 A 
ATOM      5  C6  UNL d   1       1.368   3.355   0.906  0.00  0.00     0.076 C 
ATOM      6  C7  UNL d   1       0.995   0.914   1.356  0.00  0.00     0.002 A 
ATOM      7  C8  UNL d   1       0.174  -0.160   1.708  0.00  0.00     0.006 A 
ENDROOT
BRANCH   1   8
ATOM      8  C1  UNL d   1      -2.071  -1.116   2.347  0.00  0.00     0.054 C 
ATOM      9  C   UNL d   1      -1.492  -1.975   3.463  0.00  0.00     0.018 C 
ENDBRANCH   1   8
TORSDOF 1
ENDMDL
