MODEL 1
REMARK minimizedAffinity 9.1900034
REMARK minimizedRMSD -1
REMARK  1 active torsions:
REMARK  status: ('A' for Active; 'I' for Inactive)
REMARK    1  A    between atoms: C1_2  and  C2_3 
ROOT
ATOM      1  C2  UNL d   1      -0.830  -0.237   2.284  0.00  0.00    -0.081 A 
ATOM      2  C3  UNL d   1      -1.336   1.059   2.439  0.00  0.00     0.006 A 
ATOM      3  C4  UNL d   1      -0.642   2.157   1.925  0.00  0.00     0.002 A 
ATOM      4  C5  UNL d   1       0.565   1.976   1.241  0.00  0.00    -0.080 A 
ATOM      5  C6  UNL d   1       1.305   3.143   0.658  0.00  0.00     0.076 C 
ATOM      6  C7  UNL d   1       1.080   0.683   1.102  0.00  0.00     0.002 A 
ATOM      7  C8  UNL d   1       0.387  -0.415   1.616  0.00  0.00     0.006 A 
ENDROOT
BRANCH   1   8
ATOM      8  C1  UNL d   1      -1.608  -1.429   2.780  0.00  0.00     0.054 C 
ATOM      9  C   UNL d   1      -0.778  -2.702   2.707  0.00  0.00     0.018 C 
ENDBRANCH   1   8
TORSDOF 1
ENDMDL
