MODEL 1
REMARK minimizedAffinity -0.48941049
REMARK minimizedRMSD -1
REMARK  1 active torsions:
REMARK  status: ('A' for Active; 'I' for Inactive)
REMARK    1  A    between atoms: C1_2  and  C2_3 
ROOT
ATOM      1  C2  UNL d   1      -1.619   1.190   1.893  0.00  0.00    -0.081 A 
ATOM      2  C3  UNL d   1      -0.264   0.996   2.189  0.00  0.00     0.006 A 
ATOM      3  C4  UNL d   1       0.690   1.935   1.793  0.00  0.00     0.002 A 
ATOM      4  C5  UNL d   1       0.305   3.088   1.100  0.00  0.00    -0.080 A 
ATOM      5  C6  UNL d   1       1.316   4.120   0.695  0.00  0.00     0.076 C 
ATOM      6  C7  UNL d   1      -1.046   3.275   0.788  0.00  0.00     0.002 A 
ATOM      7  C8  UNL d   1      -2.000   2.335   1.184  0.00  0.00     0.006 A 
ENDROOT
BRANCH   1   8
ATOM      8  C1  UNL d   1      -2.658   0.211   2.375  0.00  0.00     0.054 C 
ATOM      9  C   UNL d   1      -3.782   0.918   3.118  0.00  0.00     0.018 C 
ENDBRANCH   1   8
TORSDOF 1
ENDMDL
