MODEL 1
REMARK minimizedAffinity 0.947266936
REMARK minimizedRMSD -1
REMARK  1 active torsions:
REMARK  status: ('A' for Active; 'I' for Inactive)
REMARK    1  A    between atoms: C1_2  and  C2_3 
ROOT
ATOM      1  C2  UNL d   1      -1.055   0.242   1.306  0.00  0.00    -0.081 A 
ATOM      2  C3  UNL d   1       0.229  -0.313   1.383  0.00  0.00     0.006 A 
ATOM      3  C4  UNL d   1       1.354   0.465   1.102  0.00  0.00     0.002 A 
ATOM      4  C5  UNL d   1       1.216   1.811   0.747  0.00  0.00    -0.080 A 
ATOM      5  C6  UNL d   1       2.418   2.665   0.472  0.00  0.00     0.076 C 
ATOM      6  C7  UNL d   1      -0.067   2.361   0.653  0.00  0.00     0.002 A 
ATOM      7  C8  UNL d   1      -1.193   1.583   0.933  0.00  0.00     0.006 A 
ENDROOT
BRANCH   1   8
ATOM      8  C1  UNL d   1      -2.267  -0.577   1.671  0.00  0.00     0.054 C 
ATOM      9  C   UNL d   1      -3.266   0.243   2.476  0.00  0.00     0.018 C 
ENDBRANCH   1   8
TORSDOF 1
ENDMDL
