MODEL 1
REMARK minimizedAffinity 8.7520752
REMARK minimizedRMSD -1
REMARK  1 active torsions:
REMARK  status: ('A' for Active; 'I' for Inactive)
REMARK    1  A    between atoms: C1_2  and  C2_3 
ROOT
ATOM      1  C2  UNL d   1      -0.453   1.677   0.856  0.00  0.00    -0.081 A 
ATOM      2  C3  UNL d   1      -1.136   2.898   0.911  0.00  0.00     0.006 A 
ATOM      3  C4  UNL d   1      -2.351   2.999   1.593  0.00  0.00     0.002 A 
ATOM      4  C5  UNL d   1      -2.898   1.885   2.239  0.00  0.00    -0.080 A 
ATOM      5  C6  UNL d   1      -4.185   1.987   3.001  0.00  0.00     0.076 C 
ATOM      6  C7  UNL d   1      -2.223   0.661   2.169  0.00  0.00     0.002 A 
ATOM      7  C8  UNL d   1      -1.009   0.559   1.486  0.00  0.00     0.006 A 
ENDROOT
BRANCH   1   8
ATOM      8  C1  UNL d   1       0.889   1.580   0.175  0.00  0.00     0.054 C 
ATOM      9  C   UNL d   1       1.872   0.766   1.005  0.00  0.00     0.018 C 
ENDBRANCH   1   8
TORSDOF 1
ENDMDL
