MODEL 1
REMARK minimizedAffinity 5.36202526
REMARK minimizedRMSD -1
REMARK  1 active torsions:
REMARK  status: ('A' for Active; 'I' for Inactive)
REMARK    1  A    between atoms: C1_2  and  C2_3 
ROOT
ATOM      1  C2  UNL d   1      -2.781  -2.464  -0.673  0.00  0.00    -0.081 A 
ATOM      2  C3  UNL d   1      -1.660  -2.020   0.038  0.00  0.00     0.006 A 
ATOM      3  C4  UNL d   1      -0.616  -2.899   0.335  0.00  0.00     0.002 A 
ATOM      4  C5  UNL d   1      -0.672  -4.234  -0.079  0.00  0.00    -0.080 A 
ATOM      5  C6  UNL d   1       0.455  -5.181   0.207  0.00  0.00     0.076 C 
ATOM      6  C7  UNL d   1      -1.801  -4.682  -0.774  0.00  0.00     0.002 A 
ATOM      7  C8  UNL d   1      -2.845  -3.804  -1.071  0.00  0.00     0.006 A 
ENDROOT
BRANCH   1   8
ATOM      8  C1  UNL d   1      -3.879  -1.503  -1.051  0.00  0.00     0.054 C 
ATOM      9  C   UNL d   1      -3.372  -0.433  -2.007  0.00  0.00     0.018 C 
ENDBRANCH   1   8
TORSDOF 1
ENDMDL
