MODEL 1
REMARK minimizedAffinity 6.22827864
REMARK minimizedRMSD -1
REMARK  1 active torsions:
REMARK  status: ('A' for Active; 'I' for Inactive)
REMARK    1  A    between atoms: C1_2  and  C2_3 
ROOT
ATOM      1  C2  UNL d   1      -5.543   3.357   5.002  0.00  0.00    -0.081 A 
ATOM      2  C3  UNL d   1      -4.897   2.947   3.829  0.00  0.00     0.006 A 
ATOM      3  C4  UNL d   1      -4.528   1.611   3.654  0.00  0.00     0.002 A 
ATOM      4  C5  UNL d   1      -4.805   0.663   4.645  0.00  0.00    -0.080 A 
ATOM      5  C6  UNL d   1      -4.442  -0.780   4.457  0.00  0.00     0.076 C 
ATOM      6  C7  UNL d   1      -5.434   1.076   5.824  0.00  0.00     0.002 A 
ATOM      7  C8  UNL d   1      -5.803   2.412   6.000  0.00  0.00     0.006 A 
ENDROOT
BRANCH   1   8
ATOM      8  C1  UNL d   1      -6.000   4.784   5.166  0.00  0.00     0.054 C 
ATOM      9  C   UNL d   1      -5.999   5.522   3.834  0.00  0.00     0.018 C 
ENDBRANCH   1   8
TORSDOF 1
ENDMDL
