MODEL 1
REMARK minimizedAffinity 6.23525047
REMARK minimizedRMSD -1
REMARK  1 active torsions:
REMARK  status: ('A' for Active; 'I' for Inactive)
REMARK    1  A    between atoms: C1_2  and  C2_3 
ROOT
ATOM      1  C2  UNL d   1      -2.944   1.501   2.663  0.00  0.00    -0.081 A 
ATOM      2  C3  UNL d   1      -2.225   0.318   2.454  0.00  0.00     0.006 A 
ATOM      3  C4  UNL d   1      -0.960   0.353   1.863  0.00  0.00     0.002 A 
ATOM      4  C5  UNL d   1      -0.390   1.571   1.477  0.00  0.00    -0.080 A 
ATOM      5  C6  UNL d   1       0.980   1.625   0.869  0.00  0.00     0.076 C 
ATOM      6  C7  UNL d   1      -1.115   2.752   1.670  0.00  0.00     0.002 A 
ATOM      7  C8  UNL d   1      -2.380   2.717   2.261  0.00  0.00     0.006 A 
ENDROOT
BRANCH   1   8
ATOM      8  C1  UNL d   1      -4.280   1.474   3.360  0.00  0.00     0.054 C 
ATOM      9  C   UNL d   1      -4.394   2.594   4.384  0.00  0.00     0.018 C 
ENDBRANCH   1   8
TORSDOF 1
ENDMDL
