MODEL 1
REMARK minimizedAffinity 4.45938969
REMARK minimizedRMSD -1
REMARK  1 active torsions:
REMARK  status: ('A' for Active; 'I' for Inactive)
REMARK    1  A    between atoms: C1_2  and  C2_3 
ROOT
ATOM      1  C2  UNL d   1      -2.511   1.580   2.573  0.00  0.00    -0.081 A 
ATOM      2  C3  UNL d   1      -1.452   0.668   2.649  0.00  0.00     0.006 A 
ATOM      3  C4  UNL d   1      -0.244   0.930   1.997  0.00  0.00     0.002 A 
ATOM      4  C5  UNL d   1      -0.074   2.110   1.265  0.00  0.00    -0.080 A 
ATOM      5  C6  UNL d   1       1.228   2.416   0.586  0.00  0.00     0.076 C 
ATOM      6  C7  UNL d   1      -1.138   3.013   1.175  0.00  0.00     0.002 A 
ATOM      7  C8  UNL d   1      -2.346   2.752   1.826  0.00  0.00     0.006 A 
ENDROOT
BRANCH   1   8
ATOM      8  C1  UNL d   1      -3.792   1.332   3.329  0.00  0.00     0.054 C 
ATOM      9  C   UNL d   1      -4.230   2.570   4.098  0.00  0.00     0.018 C 
ENDBRANCH   1   8
TORSDOF 1
ENDMDL
