MODEL 1
REMARK minimizedAffinity 9.82538128
REMARK minimizedRMSD -1
REMARK  1 active torsions:
REMARK  status: ('A' for Active; 'I' for Inactive)
REMARK    1  A    between atoms: C1_2  and  C2_3 
ROOT
ATOM      1  C2  UNL d   1      -2.494  -2.373  -0.632  0.00  0.00    -0.081 A 
ATOM      2  C3  UNL d   1      -1.787  -3.465  -1.151  0.00  0.00     0.006 A 
ATOM      3  C4  UNL d   1      -0.896  -4.179  -0.345  0.00  0.00     0.002 A 
ATOM      4  C5  UNL d   1      -0.703  -3.818   0.992  0.00  0.00    -0.080 A 
ATOM      5  C6  UNL d   1       0.228  -4.595   1.876  0.00  0.00     0.076 C 
ATOM      6  C7  UNL d   1      -1.396  -2.716   1.505  0.00  0.00     0.002 A 
ATOM      7  C8  UNL d   1      -2.286  -2.002   0.701  0.00  0.00     0.006 A 
ENDROOT
BRANCH   1   8
ATOM      8  C1  UNL d   1      -3.503  -1.641  -1.479  0.00  0.00     0.054 C 
ATOM      9  C   UNL d   1      -2.880  -1.143  -2.775  0.00  0.00     0.018 C 
ENDBRANCH   1   8
TORSDOF 1
ENDMDL
