MODEL 1
REMARK minimizedAffinity 5.30697966
REMARK minimizedRMSD -1
REMARK  1 active torsions:
REMARK  status: ('A' for Active; 'I' for Inactive)
REMARK    1  A    between atoms: C1_2  and  C2_3 
ROOT
ATOM      1  C2  UNL d   1      -0.439   1.821   1.625  0.00  0.00    -0.081 A 
ATOM      2  C3  UNL d   1       0.422   0.726   1.772  0.00  0.00     0.006 A 
ATOM      3  C4  UNL d   1      -0.061  -0.496   2.245  0.00  0.00     0.002 A 
ATOM      4  C5  UNL d   1      -1.413  -0.646   2.572  0.00  0.00    -0.080 A 
ATOM      5  C6  UNL d   1      -1.950  -1.961   3.053  0.00  0.00     0.076 C 
ATOM      6  C7  UNL d   1      -2.270   0.452   2.442  0.00  0.00     0.002 A 
ATOM      7  C8  UNL d   1      -1.787   1.675   1.969  0.00  0.00     0.006 A 
ENDROOT
BRANCH   1   8
ATOM      8  C1  UNL d   1       0.066   3.121   1.053  0.00  0.00     0.054 C 
ATOM      9  C   UNL d   1       0.063   3.095  -0.469  0.00  0.00     0.018 C 
ENDBRANCH   1   8
TORSDOF 1
ENDMDL
