MODEL 1
REMARK minimizedAffinity 6.55187798
REMARK minimizedRMSD -1
REMARK  1 active torsions:
REMARK  status: ('A' for Active; 'I' for Inactive)
REMARK    1  A    between atoms: C1_2  and  C2_3 
ROOT
ATOM      1  C2  UNL d   1      -3.428  -2.012  -2.090  0.00  0.00    -0.081 A 
ATOM      2  C3  UNL d   1      -3.649  -2.108  -0.710  0.00  0.00     0.006 A 
ATOM      3  C4  UNL d   1      -3.382  -3.299  -0.031  0.00  0.00     0.002 A 
ATOM      4  C5  UNL d   1      -2.882  -4.411  -0.718  0.00  0.00    -0.080 A 
ATOM      5  C6  UNL d   1      -2.563  -5.686   0.004  0.00  0.00     0.076 C 
ATOM      6  C7  UNL d   1      -2.679  -4.320  -2.099  0.00  0.00     0.002 A 
ATOM      7  C8  UNL d   1      -2.946  -3.130  -2.779  0.00  0.00     0.006 A 
ENDROOT
BRANCH   1   8
ATOM      8  C1  UNL d   1      -3.654  -0.709  -2.813  0.00  0.00     0.054 C 
ATOM      9  C   UNL d   1      -3.492   0.480  -1.877  0.00  0.00     0.018 C 
ENDBRANCH   1   8
TORSDOF 1
ENDMDL
