MODEL 1
REMARK minimizedAffinity -1.09954488
REMARK minimizedRMSD -1
REMARK  1 active torsions:
REMARK  status: ('A' for Active; 'I' for Inactive)
REMARK    1  A    between atoms: C1_2  and  C2_3 
ROOT
ATOM      1  C2  UNL d   1      -0.549  -0.905   3.177  0.00  0.00    -0.081 A 
ATOM      2  C3  UNL d   1       0.841  -0.765   3.279  0.00  0.00     0.006 A 
ATOM      3  C4  UNL d   1       1.515   0.189   2.514  0.00  0.00     0.002 A 
ATOM      4  C5  UNL d   1       0.811   1.025   1.640  0.00  0.00    -0.080 A 
ATOM      5  C6  UNL d   1       1.519   2.074   0.836  0.00  0.00     0.076 C 
ATOM      6  C7  UNL d   1      -0.575   0.874   1.525  0.00  0.00     0.002 A 
ATOM      7  C8  UNL d   1      -1.250  -0.081   2.290  0.00  0.00     0.006 A 
ENDROOT
BRANCH   1   8
ATOM      8  C1  UNL d   1      -1.287  -1.888   4.049  0.00  0.00     0.054 C 
ATOM      9  C   UNL d   1      -2.733  -1.464   4.260  0.00  0.00     0.018 C 
ENDBRANCH   1   8
TORSDOF 1
ENDMDL
