MODEL 1
REMARK minimizedAffinity -4.48505545
REMARK minimizedRMSD -1
REMARK  0 active torsions:
REMARK  status: ('A' for Active; 'I' for Inactive)
ROOT
ATOM      1  C   UNL d   1      -0.816   1.664   2.584  0.00  0.00     0.078 C 
ATOM      2  C1  UNL d   1      -0.416   0.838   1.398  0.00  0.00    -0.077 A 
ATOM      3  C2  UNL d   1       0.911   0.429   1.219  0.00  0.00    -0.001 A 
ATOM      4  C3  UNL d   1       1.271  -0.331   0.105  0.00  0.00     0.003 A 
ATOM      5  C4  UNL d   1       0.310  -0.687  -0.839  0.00  0.00    -0.005 A 
ATOM      6  C5  UNL d   1      -1.013  -0.283  -0.671  0.00  0.00     0.003 A 
ATOM      7  C6  UNL d   1      -1.375   0.477   0.443  0.00  0.00    -0.001 A 
ENDROOT
TORSDOF 0
ENDMDL
