MODEL 1
REMARK minimizedAffinity -2.65764451
REMARK minimizedRMSD -1
REMARK  0 active torsions:
REMARK  status: ('A' for Active; 'I' for Inactive)
ROOT
ATOM      1  C   UNL d   1      -0.400   1.483   2.961  0.00  0.00     0.078 C 
ATOM      2  C1  UNL d   1       0.116   0.574   1.886  0.00  0.00    -0.077 A 
ATOM      3  C2  UNL d   1      -0.559   0.444   0.666  0.00  0.00    -0.001 A 
ATOM      4  C3  UNL d   1      -0.072  -0.414  -0.322  0.00  0.00     0.003 A 
ATOM      5  C4  UNL d   1       1.091  -1.148  -0.100  0.00  0.00    -0.005 A 
ATOM      6  C5  UNL d   1       1.769  -1.026   1.111  0.00  0.00     0.003 A 
ATOM      7  C6  UNL d   1       1.283  -0.170   2.101  0.00  0.00    -0.001 A 
ENDROOT
TORSDOF 0
ENDMDL
