MODEL 1
REMARK minimizedAffinity -5.01968575
REMARK minimizedRMSD -1
REMARK  0 active torsions:
REMARK  status: ('A' for Active; 'I' for Inactive)
ROOT
ATOM      1  C   UNL d   1      -1.065   1.595   2.386  0.00  0.00     0.078 C 
ATOM      2  C1  UNL d   1      -0.568   0.746   1.254  0.00  0.00    -0.077 A 
ATOM      3  C2  UNL d   1       0.756   0.292   1.221  0.00  0.00    -0.001 A 
ATOM      4  C3  UNL d   1       1.208  -0.490   0.156  0.00  0.00     0.003 A 
ATOM      5  C4  UNL d   1       0.342  -0.824  -0.883  0.00  0.00    -0.005 A 
ATOM      6  C5  UNL d   1      -0.977  -0.374  -0.860  0.00  0.00     0.003 A 
ATOM      7  C6  UNL d   1      -1.430   0.407   0.203  0.00  0.00    -0.001 A 
ENDROOT
TORSDOF 0
ENDMDL
