MODEL 1
REMARK minimizedAffinity -3.88562083
REMARK minimizedRMSD -1
REMARK  0 active torsions:
REMARK  status: ('A' for Active; 'I' for Inactive)
ROOT
ATOM      1  C   UNL d   1      -0.422   1.610   2.414  0.00  0.00     0.078 C 
ATOM      2  C1  UNL d   1      -0.235   0.715   1.226  0.00  0.00    -0.077 A 
ATOM      3  C2  UNL d   1      -1.308   0.404   0.382  0.00  0.00    -0.001 A 
ATOM      4  C3  UNL d   1      -1.121  -0.439  -0.715  0.00  0.00     0.003 A 
ATOM      5  C4  UNL d   1       0.136  -0.978  -0.978  0.00  0.00    -0.005 A 
ATOM      6  C5  UNL d   1       1.209  -0.676  -0.142  0.00  0.00     0.003 A 
ATOM      7  C6  UNL d   1       1.025   0.166   0.956  0.00  0.00    -0.001 A 
ENDROOT
TORSDOF 0
ENDMDL
