MODEL 1
REMARK minimizedAffinity -3.58673644
REMARK minimizedRMSD -1
REMARK  0 active torsions:
REMARK  status: ('A' for Active; 'I' for Inactive)
ROOT
ATOM      1  C   UNL d   1       0.278   1.657   2.173  0.00  0.00     0.078 C 
ATOM      2  C1  UNL d   1       0.696   0.740   1.062  0.00  0.00    -0.077 A 
ATOM      3  C2  UNL d   1      -0.030   0.678  -0.134  0.00  0.00    -0.001 A 
ATOM      4  C3  UNL d   1       0.365  -0.187  -1.156  0.00  0.00     0.003 A 
ATOM      5  C4  UNL d   1       1.487  -0.997  -0.992  0.00  0.00    -0.005 A 
ATOM      6  C5  UNL d   1       2.214  -0.944   0.195  0.00  0.00     0.003 A 
ATOM      7  C6  UNL d   1       1.820  -0.080   1.218  0.00  0.00    -0.001 A 
ENDROOT
TORSDOF 0
ENDMDL
