MODEL 1
REMARK minimizedAffinity -5.78451347
REMARK minimizedRMSD -1
REMARK  0 active torsions:
REMARK  status: ('A' for Active; 'I' for Inactive)
ROOT
ATOM      1  C   UNL d   1      -1.109   1.450   2.982  0.00  0.00     0.078 C 
ATOM      2  C1  UNL d   1      -0.946   0.827   1.628  0.00  0.00    -0.077 A 
ATOM      3  C2  UNL d   1      -2.016   0.772   0.726  0.00  0.00    -0.001 A 
ATOM      4  C3  UNL d   1      -1.853   0.179  -0.527  0.00  0.00     0.003 A 
ATOM      5  C4  UNL d   1      -0.621  -0.363  -0.889  0.00  0.00    -0.005 A 
ATOM      6  C5  UNL d   1       0.448  -0.315   0.003  0.00  0.00     0.003 A 
ATOM      7  C6  UNL d   1       0.287   0.277   1.256  0.00  0.00    -0.001 A 
ENDROOT
TORSDOF 0
ENDMDL
