MODEL 1
REMARK minimizedAffinity 0.790260613
REMARK minimizedRMSD -1
REMARK  0 active torsions:
REMARK  status: ('A' for Active; 'I' for Inactive)
ROOT
ATOM      1  C1  BNZ d   1      -4.424   2.663  -5.562  0.00  0.00     0.000 A 
ATOM      2  C2  BNZ d   1      -4.417   3.001  -4.234  0.00  0.00     0.000 A 
ATOM      3  C3  BNZ d   1      -5.179   2.310  -3.333  0.00  0.00     0.000 A 
ATOM      4  C4  BNZ d   1      -5.975   1.311  -3.765  0.00  0.00     0.000 A 
ATOM      5  C5  BNZ d   1      -6.000   0.965  -5.101  0.00  0.00     0.000 A 
ATOM      6  C6  BNZ d   1      -5.203   1.637  -6.000  0.00  0.00     0.000 A 
ENDROOT
TORSDOF 0
ENDMDL
