MODEL 1
REMARK minimizedAffinity 0.189560428
REMARK minimizedRMSD -1
REMARK  0 active torsions:
REMARK  status: ('A' for Active; 'I' for Inactive)
ROOT
ATOM      1  C1  BNZ d   1      -0.457   5.984  -2.312  0.00  0.00     0.000 A 
ATOM      2  C2  BNZ d   1       0.513   5.997  -1.345  0.00  0.00     0.000 A 
ATOM      3  C3  BNZ d   1       0.791   4.873  -0.618  0.00  0.00     0.000 A 
ATOM      4  C4  BNZ d   1       0.074   3.751  -0.830  0.00  0.00     0.000 A 
ATOM      5  C5  BNZ d   1      -0.914   3.725  -1.795  0.00  0.00     0.000 A 
ATOM      6  C6  BNZ d   1      -1.165   4.846  -2.552  0.00  0.00     0.000 A 
ENDROOT
TORSDOF 0
ENDMDL
