MODEL 1
REMARK minimizedAffinity 3.84882951
REMARK minimizedRMSD -1
REMARK  0 active torsions:
REMARK  status: ('A' for Active; 'I' for Inactive)
ROOT
ATOM      1  C1  BNZ d   1       2.432   3.771   0.672  0.00  0.00     0.000 A 
ATOM      2  C2  BNZ d   1       2.802   3.416   1.942  0.00  0.00     0.000 A 
ATOM      3  C3  BNZ d   1       1.903   2.845   2.799  0.00  0.00     0.000 A 
ATOM      4  C4  BNZ d   1       0.627   2.667   2.400  0.00  0.00     0.000 A 
ATOM      5  C5  BNZ d   1       0.236   3.028   1.126  0.00  0.00     0.000 A 
ATOM      6  C6  BNZ d   1       1.153   3.566   0.253  0.00  0.00     0.000 A 
ENDROOT
TORSDOF 0
ENDMDL
