MODEL 1
REMARK minimizedAffinity -1.41075957
REMARK minimizedRMSD -1
REMARK  0 active torsions:
REMARK  status: ('A' for Active; 'I' for Inactive)
ROOT
ATOM      1  C1  BNZ d   1      -1.482   4.136   1.032  0.00  0.00     0.000 A 
ATOM      2  C2  BNZ d   1      -0.808   3.018   0.619  0.00  0.00     0.000 A 
ATOM      3  C3  BNZ d   1      -0.412   2.880  -0.682  0.00  0.00     0.000 A 
ATOM      4  C4  BNZ d   1      -0.726   3.840  -1.575  0.00  0.00     0.000 A 
ATOM      5  C5  BNZ d   1      -1.413   4.969  -1.176  0.00  0.00     0.000 A 
ATOM      6  C6  BNZ d   1      -1.775   5.122   0.142  0.00  0.00     0.000 A 
ENDROOT
TORSDOF 0
ENDMDL
