MODEL 1
REMARK minimizedAffinity 7.00266409
REMARK minimizedRMSD -1
REMARK  0 active torsions:
REMARK  status: ('A' for Active; 'I' for Inactive)
ROOT
ATOM      1  C1  BNZ d   1       4.317  -6.000  -1.031  0.00  0.00     0.000 A 
ATOM      2  C2  BNZ d   1       5.028  -4.842  -0.861  0.00  0.00     0.000 A 
ATOM      3  C3  BNZ d   1       4.398  -3.678  -0.519  0.00  0.00     0.000 A 
ATOM      4  C4  BNZ d   1       3.056  -3.664  -0.386  0.00  0.00     0.000 A 
ATOM      5  C5  BNZ d   1       2.325  -4.821  -0.564  0.00  0.00     0.000 A 
ATOM      6  C6  BNZ d   1       2.966  -6.000  -0.870  0.00  0.00     0.000 A 
ENDROOT
TORSDOF 0
ENDMDL
