MODEL 1
REMARK minimizedAffinity 1.03646648
REMARK minimizedRMSD -1
REMARK  0 active torsions:
REMARK  status: ('A' for Active; 'I' for Inactive)
ROOT
ATOM      1  C1  BNZ d   1       0.356   5.061  -2.204  0.00  0.00     0.000 A 
ATOM      2  C2  BNZ d   1       0.927   4.503  -1.091  0.00  0.00     0.000 A 
ATOM      3  C3  BNZ d   1       0.153   3.958  -0.105  0.00  0.00     0.000 A 
ATOM      4  C4  BNZ d   1      -1.190   4.007  -0.214  0.00  0.00     0.000 A 
ATOM      5  C5  BNZ d   1      -1.781   4.574  -1.326  0.00  0.00     0.000 A 
ATOM      6  C6  BNZ d   1      -0.998   5.087  -2.334  0.00  0.00     0.000 A 
ENDROOT
TORSDOF 0
ENDMDL
