MODEL 1
REMARK minimizedAffinity 7.5593977
REMARK minimizedRMSD -1
REMARK  0 active torsions:
REMARK  status: ('A' for Active; 'I' for Inactive)
ROOT
ATOM      1  C1  BNZ d   1      -0.728   4.476   0.009  0.00  0.00     0.000 A 
ATOM      2  C2  BNZ d   1      -1.655   5.235  -0.655  0.00  0.00     0.000 A 
ATOM      3  C3  BNZ d   1      -1.721   5.224  -2.020  0.00  0.00     0.000 A 
ATOM      4  C4  BNZ d   1      -0.836   4.487  -2.721  0.00  0.00     0.000 A 
ATOM      5  C5  BNZ d   1       0.111   3.723  -2.067  0.00  0.00     0.000 A 
ATOM      6  C6  BNZ d   1       0.149   3.707  -0.691  0.00  0.00     0.000 A 
ENDROOT
TORSDOF 0
ENDMDL
