MODEL 1
REMARK minimizedAffinity 5.26401758
REMARK minimizedRMSD -1
REMARK  0 active torsions:
REMARK  status: ('A' for Active; 'I' for Inactive)
ROOT
ATOM      1  C1  BNZ d   1      -1.238   4.814  -2.230  0.00  0.00     0.000 A 
ATOM      2  C2  BNZ d   1      -0.486   3.758  -1.787  0.00  0.00     0.000 A 
ATOM      3  C3  BNZ d   1       0.101   3.787  -0.553  0.00  0.00     0.000 A 
ATOM      4  C4  BNZ d   1      -0.030   4.885   0.219  0.00  0.00     0.000 A 
ATOM      5  C5  BNZ d   1      -0.777   5.961  -0.217  0.00  0.00     0.000 A 
ATOM      6  C6  BNZ d   1      -1.399   5.913  -1.444  0.00  0.00     0.000 A 
ENDROOT
TORSDOF 0
ENDMDL
