MODEL 1
REMARK minimizedAffinity 3.33664823
REMARK minimizedRMSD -1
REMARK  0 active torsions:
REMARK  status: ('A' for Active; 'I' for Inactive)
ROOT
ATOM      1  C1  BNZ d   1      -0.222  -3.064  -1.239  0.00  0.00     0.000 A 
ATOM      2  C2  BNZ d   1       0.184  -1.834  -0.794  0.00  0.00     0.000 A 
ATOM      3  C3  BNZ d   1       1.349  -1.693  -0.094  0.00  0.00     0.000 A 
ATOM      4  C4  BNZ d   1       2.086  -2.785   0.196  0.00  0.00     0.000 A 
ATOM      5  C5  BNZ d   1       1.685  -4.033  -0.238  0.00  0.00     0.000 A 
ATOM      6  C6  BNZ d   1       0.532  -4.167  -0.976  0.00  0.00     0.000 A 
ENDROOT
TORSDOF 0
ENDMDL
