MODEL 1
REMARK minimizedAffinity 4.24172163
REMARK minimizedRMSD -1
REMARK  0 active torsions:
REMARK  status: ('A' for Active; 'I' for Inactive)
ROOT
ATOM      1  C1  BNZ d   1       2.197   3.711   2.375  0.00  0.00     0.000 A 
ATOM      2  C2  BNZ d   1       2.108   4.192   1.096  0.00  0.00     0.000 A 
ATOM      3  C3  BNZ d   1       1.006   3.937   0.327  0.00  0.00     0.000 A 
ATOM      4  C4  BNZ d   1       0.015   3.169   0.824  0.00  0.00     0.000 A 
ATOM      5  C5  BNZ d   1       0.094   2.670   2.108  0.00  0.00     0.000 A 
ATOM      6  C6  BNZ d   1       1.186   2.961   2.893  0.00  0.00     0.000 A 
ENDROOT
TORSDOF 0
ENDMDL
