MODEL 1
REMARK minimizedAffinity -1.10794818
REMARK minimizedRMSD -1
REMARK  0 active torsions:
REMARK  status: ('A' for Active; 'I' for Inactive)
ROOT
ATOM      1  C   UNL d   1      -0.546   4.080  -6.000  0.00  0.00     0.172 C 
ATOM      2  N   UNL d   1      -1.983   4.216  -5.953  0.00  0.00    -0.070 N 
ATOM      3  C1  UNL d   1      -2.884   3.185  -5.989  0.00  0.00    -0.004 A 
ATOM      4  C2  UNL d   1      -4.149   3.727  -5.923  0.00  0.00    -0.047 A 
ATOM      5  C3  UNL d   1      -4.004   5.133  -5.845  0.00  0.00    -0.047 A 
ATOM      6  C4  UNL d   1      -2.653   5.408  -5.866  0.00  0.00    -0.004 A 
ENDROOT
TORSDOF 0
ENDMDL
