MODEL 1
REMARK minimizedAffinity 0.96024394
REMARK minimizedRMSD -1
REMARK  0 active torsions:
REMARK  status: ('A' for Active; 'I' for Inactive)
ROOT
ATOM      1  C   UNL d   1      -0.690   5.954  -5.978  0.00  0.00     0.172 C 
ATOM      2  N   UNL d   1      -1.489   4.751  -5.984  0.00  0.00    -0.070 N 
ATOM      3  C1  UNL d   1      -2.858   4.702  -5.991  0.00  0.00    -0.004 A 
ATOM      4  C2  UNL d   1      -3.232   3.376  -5.995  0.00  0.00    -0.047 A 
ATOM      5  C3  UNL d   1      -2.048   2.601  -5.989  0.00  0.00    -0.047 A 
ATOM      6  C4  UNL d   1      -0.984   3.478  -5.982  0.00  0.00    -0.004 A 
ENDROOT
TORSDOF 0
ENDMDL
