MODEL 1
REMARK minimizedAffinity -0.358576864
REMARK minimizedRMSD -1
REMARK  0 active torsions:
REMARK  status: ('A' for Active; 'I' for Inactive)
ROOT
ATOM      1  C   UNL d   1       2.341   4.273  -5.999  0.00  0.00     0.172 C 
ATOM      2  N   UNL d   1       3.785   4.270  -5.997  0.00  0.00    -0.070 N 
ATOM      3  C1  UNL d   1       4.580   3.155  -5.991  0.00  0.00    -0.004 A 
ATOM      4  C2  UNL d   1       5.893   3.574  -5.992  0.00  0.00    -0.047 A 
ATOM      5  C3  UNL d   1       5.887   4.989  -5.996  0.00  0.00    -0.047 A 
ATOM      6  C4  UNL d   1       4.568   5.393  -5.999  0.00  0.00    -0.004 A 
ENDROOT
TORSDOF 0
ENDMDL
