MODEL 1
REMARK minimizedAffinity 0.215966806
REMARK minimizedRMSD -1
REMARK  0 active torsions:
REMARK  status: ('A' for Active; 'I' for Inactive)
ROOT
ATOM      1  C   UNL d   1      -1.395   5.997  -5.995  0.00  0.00     0.172 C 
ATOM      2  N   UNL d   1      -0.369   4.981  -5.995  0.00  0.00    -0.070 N 
ATOM      3  C1  UNL d   1      -0.584   3.629  -5.996  0.00  0.00    -0.004 A 
ATOM      4  C2  UNL d   1       0.646   3.006  -5.996  0.00  0.00    -0.047 A 
ATOM      5  C3  UNL d   1       1.634   4.019  -5.993  0.00  0.00    -0.047 A 
ATOM      6  C4  UNL d   1       0.978   5.232  -5.992  0.00  0.00    -0.004 A 
ENDROOT
TORSDOF 0
ENDMDL
