MODEL 1
REMARK minimizedAffinity -0.590049624
REMARK minimizedRMSD -1
REMARK  0 active torsions:
REMARK  status: ('A' for Active; 'I' for Inactive)
ROOT
ATOM      1  C   UNL d   1      -1.998   2.402  -5.990  0.00  0.00     0.172 C 
ATOM      2  N   UNL d   1      -2.209   3.786  -5.639  0.00  0.00    -0.070 N 
ATOM      3  C1  UNL d   1      -1.404   4.833  -6.000  0.00  0.00    -0.004 A 
ATOM      4  C2  UNL d   1      -1.946   5.985  -5.471  0.00  0.00    -0.047 A 
ATOM      5  C3  UNL d   1      -3.117   5.617  -4.767  0.00  0.00    -0.047 A 
ATOM      6  C4  UNL d   1      -3.256   4.250  -4.887  0.00  0.00    -0.004 A 
ENDROOT
TORSDOF 0
ENDMDL
