MODEL 1
REMARK minimizedAffinity -1.69965494
REMARK minimizedRMSD -1
REMARK  0 active torsions:
REMARK  status: ('A' for Active; 'I' for Inactive)
ROOT
ATOM      1  C   UNL d   1       0.318   4.875  -6.000  0.00  0.00     0.172 C 
ATOM      2  N   UNL d   1      -1.125   4.829  -6.000  0.00  0.00    -0.070 N 
ATOM      3  C1  UNL d   1      -1.958   5.916  -5.999  0.00  0.00    -0.004 A 
ATOM      4  C2  UNL d   1      -3.256   5.452  -6.000  0.00  0.00    -0.047 A 
ATOM      5  C3  UNL d   1      -3.201   4.038  -6.000  0.00  0.00    -0.047 A 
ATOM      6  C4  UNL d   1      -1.869   3.679  -6.000  0.00  0.00    -0.004 A 
ENDROOT
TORSDOF 0
ENDMDL
