MODEL 1
REMARK minimizedAffinity -2.04068661
REMARK minimizedRMSD -1
REMARK  0 active torsions:
REMARK  status: ('A' for Active; 'I' for Inactive)
ROOT
ATOM      1  C   UNL d   1       0.031   5.361  -5.992  0.00  0.00     0.172 C 
ATOM      2  N   UNL d   1      -0.114   3.924  -5.995  0.00  0.00    -0.070 N 
ATOM      3  C1  UNL d   1       0.912   3.018  -5.996  0.00  0.00    -0.004 A 
ATOM      4  C2  UNL d   1       0.360   1.755  -5.999  0.00  0.00    -0.047 A 
ATOM      5  C3  UNL d   1      -1.047   1.908  -6.000  0.00  0.00    -0.047 A 
ATOM      6  C4  UNL d   1      -1.313   3.260  -5.998  0.00  0.00    -0.004 A 
ENDROOT
TORSDOF 0
ENDMDL
