MODEL 1
REMARK minimizedAffinity -1.37385941
REMARK minimizedRMSD -1
REMARK  0 active torsions:
REMARK  status: ('A' for Active; 'I' for Inactive)
ROOT
ATOM      1  C   UNL d   1       1.615   4.308  -6.000  0.00  0.00     0.172 C 
ATOM      2  N   UNL d   1       0.177   4.432  -6.000  0.00  0.00    -0.070 N 
ATOM      3  C1  UNL d   1      -0.523   5.609  -5.999  0.00  0.00    -0.004 A 
ATOM      4  C2  UNL d   1      -1.866   5.302  -5.999  0.00  0.00    -0.047 A 
ATOM      5  C3  UNL d   1      -1.978   3.891  -6.000  0.00  0.00    -0.047 A 
ATOM      6  C4  UNL d   1      -0.698   3.378  -6.000  0.00  0.00    -0.004 A 
ENDROOT
TORSDOF 0
ENDMDL
