MODEL 1
REMARK minimizedAffinity -1.61211371
REMARK minimizedRMSD -1
REMARK  0 active torsions:
REMARK  status: ('A' for Active; 'I' for Inactive)
ROOT
ATOM      1  C   UNL d   1      -0.380   5.735  -5.998  0.00  0.00     0.172 C 
ATOM      2  N   UNL d   1      -1.104   4.486  -5.993  0.00  0.00    -0.070 N 
ATOM      3  C1  UNL d   1      -0.542   3.237  -5.986  0.00  0.00    -0.004 A 
ATOM      4  C2  UNL d   1      -1.565   2.314  -5.983  0.00  0.00    -0.047 A 
ATOM      5  C3  UNL d   1      -2.784   3.033  -5.990  0.00  0.00    -0.047 A 
ATOM      6  C4  UNL d   1      -2.469   4.375  -5.996  0.00  0.00    -0.004 A 
ENDROOT
TORSDOF 0
ENDMDL
