MODEL 1
REMARK minimizedAffinity -1.97884417
REMARK minimizedRMSD -1
REMARK  0 active torsions:
REMARK  status: ('A' for Active; 'I' for Inactive)
ROOT
ATOM      1  C   UNL d   1      -3.690   3.207  -6.000  0.00  0.00     0.172 C 
ATOM      2  N   UNL d   1      -2.368   3.531  -5.517  0.00  0.00    -0.070 N 
ATOM      3  C1  UNL d   1      -1.564   4.530  -5.999  0.00  0.00    -0.004 A 
ATOM      4  C2  UNL d   1      -0.391   4.513  -5.276  0.00  0.00    -0.047 A 
ATOM      5  C3  UNL d   1      -0.493   3.469  -4.327  0.00  0.00    -0.047 A 
ATOM      6  C4  UNL d   1      -1.727   2.877  -4.498  0.00  0.00    -0.004 A 
ENDROOT
TORSDOF 0
ENDMDL
