MODEL 1
REMARK minimizedAffinity -1.14515531
REMARK minimizedRMSD -1
REMARK  0 active torsions:
REMARK  status: ('A' for Active; 'I' for Inactive)
ROOT
ATOM      1  C   UNL d   1      -0.476   3.798  -5.998  0.00  0.00     0.172 C 
ATOM      2  N   UNL d   1      -1.880   4.137  -5.999  0.00  0.00    -0.070 N 
ATOM      3  C1  UNL d   1      -2.917   3.243  -5.999  0.00  0.00    -0.004 A 
ATOM      4  C2  UNL d   1      -4.093   3.961  -5.999  0.00  0.00    -0.047 A 
ATOM      5  C3  UNL d   1      -3.751   5.334  -6.000  0.00  0.00    -0.047 A 
ATOM      6  C4  UNL d   1      -2.375   5.414  -6.000  0.00  0.00    -0.004 A 
ENDROOT
TORSDOF 0
ENDMDL
