MODEL 1
REMARK minimizedAffinity -1.57489741
REMARK minimizedRMSD -1
REMARK  0 active torsions:
REMARK  status: ('A' for Active; 'I' for Inactive)
ROOT
ATOM      1  C   UNL d   1      -4.128   3.375  -5.998  0.00  0.00     0.172 C 
ATOM      2  N   UNL d   1      -2.785   3.905  -5.998  0.00  0.00    -0.070 N 
ATOM      3  C1  UNL d   1      -2.450   5.233  -5.999  0.00  0.00    -0.004 A 
ATOM      4  C2  UNL d   1      -1.075   5.322  -5.999  0.00  0.00    -0.047 A 
ATOM      5  C3  UNL d   1      -0.565   4.002  -5.999  0.00  0.00    -0.047 A 
ATOM      6  C4  UNL d   1      -1.645   3.144  -5.999  0.00  0.00    -0.004 A 
ENDROOT
TORSDOF 0
ENDMDL
