MODEL 1
REMARK minimizedAffinity -2.28138757
REMARK minimizedRMSD -1
REMARK  0 active torsions:
REMARK  status: ('A' for Active; 'I' for Inactive)
ROOT
ATOM      1  C   UNL d   1       0.053   5.811  -5.985  0.00  0.00     0.172 C 
ATOM      2  N   UNL d   1       1.189   4.920  -5.974  0.00  0.00    -0.070 N 
ATOM      3  C1  UNL d   1       2.503   5.302  -5.996  0.00  0.00    -0.004 A 
ATOM      4  C2  UNL d   1       3.275   4.161  -5.974  0.00  0.00    -0.047 A 
ATOM      5  C3  UNL d   1       2.394   3.054  -5.938  0.00  0.00    -0.047 A 
ATOM      6  C4  UNL d   1       1.108   3.553  -5.939  0.00  0.00    -0.004 A 
ENDROOT
TORSDOF 0
ENDMDL
