MODEL 1
REMARK minimizedAffinity -2.0772748
REMARK minimizedRMSD -1
REMARK  0 active torsions:
REMARK  status: ('A' for Active; 'I' for Inactive)
ROOT
ATOM      1  C   UNL d   1       2.453   4.483  -6.000  0.00  0.00     0.172 C 
ATOM      2  N   UNL d   1       3.860   4.724  -5.778  0.00  0.00    -0.070 N 
ATOM      3  C1  UNL d   1       4.511   5.908  -6.000  0.00  0.00    -0.004 A 
ATOM      4  C2  UNL d   1       5.837   5.729  -5.668  0.00  0.00    -0.047 A 
ATOM      5  C3  UNL d   1       5.987   4.391  -5.233  0.00  0.00    -0.047 A 
ATOM      6  C4  UNL d   1       4.748   3.791  -5.312  0.00  0.00    -0.004 A 
ENDROOT
TORSDOF 0
ENDMDL
