MODEL 1
REMARK minimizedAffinity -0.230523571
REMARK minimizedRMSD -1
REMARK  0 active torsions:
REMARK  status: ('A' for Active; 'I' for Inactive)
ROOT
ATOM      1  C   UNL d   1      -1.389   2.401  -5.997  0.00  0.00     0.172 C 
ATOM      2  N   UNL d   1      -1.449   3.843  -5.981  0.00  0.00    -0.070 N 
ATOM      3  C1  UNL d   1      -2.593   4.595  -5.944  0.00  0.00    -0.004 A 
ATOM      4  C2  UNL d   1      -2.225   5.923  -5.939  0.00  0.00    -0.047 A 
ATOM      5  C3  UNL d   1      -0.811   5.971  -5.974  0.00  0.00    -0.047 A 
ATOM      6  C4  UNL d   1      -0.356   4.670  -6.000  0.00  0.00    -0.004 A 
ENDROOT
TORSDOF 0
ENDMDL
