MODEL 1
REMARK minimizedAffinity 3.90671277
REMARK minimizedRMSD -1
REMARK  0 active torsions:
REMARK  status: ('A' for Active; 'I' for Inactive)
ROOT
ATOM      1  C   UNL d   1      -2.247   4.010  -0.949  0.00  0.00     0.078 C 
ATOM      2  C1  UNL d   1      -3.264   3.713   0.112  0.00  0.00    -0.077 A 
ATOM      3  C2  UNL d   1      -4.589   4.150  -0.016  0.00  0.00    -0.001 A 
ATOM      4  C3  UNL d   1      -5.523   3.875   0.984  0.00  0.00     0.003 A 
ATOM      5  C4  UNL d   1      -5.142   3.163   2.120  0.00  0.00    -0.005 A 
ATOM      6  C5  UNL d   1      -3.826   2.726   2.257  0.00  0.00     0.003 A 
ATOM      7  C6  UNL d   1      -2.891   3.000   1.258  0.00  0.00    -0.001 A 
ENDROOT
TORSDOF 0
ENDMDL
