MODEL 1
REMARK minimizedAffinity 0.957450986
REMARK minimizedRMSD -1
REMARK  0 active torsions:
REMARK  status: ('A' for Active; 'I' for Inactive)
ROOT
ATOM      1  C   UNL d   1       1.139  -0.602   1.662  0.00  0.00     0.078 C 
ATOM      2  C1  UNL d   1       1.933  -1.302   2.724  0.00  0.00    -0.077 A 
ATOM      3  C2  UNL d   1       3.316  -1.114   2.832  0.00  0.00    -0.001 A 
ATOM      4  C3  UNL d   1       4.044  -1.779   3.819  0.00  0.00     0.003 A 
ATOM      5  C4  UNL d   1       3.398  -2.638   4.706  0.00  0.00    -0.005 A 
ATOM      6  C5  UNL d   1       2.022  -2.833   4.605  0.00  0.00     0.003 A 
ATOM      7  C6  UNL d   1       1.292  -2.169   3.618  0.00  0.00    -0.001 A 
ENDROOT
TORSDOF 0
ENDMDL
