MODEL 1
REMARK minimizedAffinity 8.39742947
REMARK minimizedRMSD -1
REMARK  0 active torsions:
REMARK  status: ('A' for Active; 'I' for Inactive)
ROOT
ATOM      1  C   UNL d   1       4.127   0.752   6.000  0.00  0.00     0.078 C 
ATOM      2  C1  UNL d   1       3.801   1.261   4.627  0.00  0.00    -0.077 A 
ATOM      3  C2  UNL d   1       2.518   1.110   4.088  0.00  0.00    -0.001 A 
ATOM      4  C3  UNL d   1       2.231   1.580   2.805  0.00  0.00     0.003 A 
ATOM      5  C4  UNL d   1       3.223   2.202   2.050  0.00  0.00    -0.005 A 
ATOM      6  C5  UNL d   1       4.504   2.355   2.578  0.00  0.00     0.003 A 
ATOM      7  C6  UNL d   1       4.792   1.886   3.861  0.00  0.00    -0.001 A 
ENDROOT
TORSDOF 0
ENDMDL
