MODEL 1
REMARK minimizedAffinity 9.90036201
REMARK minimizedRMSD -1
REMARK  0 active torsions:
REMARK  status: ('A' for Active; 'I' for Inactive)
ROOT
ATOM      1  C   UNL d   1       5.993   2.216  -6.000  0.00  0.00     0.078 C 
ATOM      2  C1  UNL d   1       5.299   1.175  -5.173  0.00  0.00    -0.077 A 
ATOM      3  C2  UNL d   1       5.925  -0.040  -4.869  0.00  0.00    -0.001 A 
ATOM      4  C3  UNL d   1       5.263  -1.004  -4.107  0.00  0.00     0.003 A 
ATOM      5  C4  UNL d   1       3.972  -0.763  -3.643  0.00  0.00    -0.005 A 
ATOM      6  C5  UNL d   1       3.340   0.442  -3.942  0.00  0.00     0.003 A 
ATOM      7  C6  UNL d   1       4.000   1.407  -4.704  0.00  0.00    -0.001 A 
ENDROOT
TORSDOF 0
ENDMDL
