MODEL 1
REMARK minimizedAffinity 6.98977995
REMARK minimizedRMSD -1
REMARK  0 active torsions:
REMARK  status: ('A' for Active; 'I' for Inactive)
ROOT
ATOM      1  C   UNL d   1       4.699   2.109  -4.837  0.00  0.00     0.078 C 
ATOM      2  C1  UNL d   1       4.919   0.629  -4.935  0.00  0.00    -0.077 A 
ATOM      3  C2  UNL d   1       5.762   0.089  -5.914  0.00  0.00    -0.001 A 
ATOM      4  C3  UNL d   1       5.950  -1.292  -6.000  0.00  0.00     0.003 A 
ATOM      5  C4  UNL d   1       5.297  -2.143  -5.111  0.00  0.00    -0.005 A 
ATOM      6  C5  UNL d   1       4.454  -1.615  -4.136  0.00  0.00     0.003 A 
ATOM      7  C6  UNL d   1       4.265  -0.235  -4.048  0.00  0.00    -0.001 A 
ENDROOT
TORSDOF 0
ENDMDL
