MODEL 1
REMARK minimizedAffinity 8.03841877
REMARK minimizedRMSD -1
REMARK  0 active torsions:
REMARK  status: ('A' for Active; 'I' for Inactive)
ROOT
ATOM      1  C   UNL d   1       1.837  -4.554   4.082  0.00  0.00     0.078 C 
ATOM      2  C1  UNL d   1       1.924  -3.064   3.931  0.00  0.00    -0.077 A 
ATOM      3  C2  UNL d   1       2.449  -2.486   2.769  0.00  0.00    -0.001 A 
ATOM      4  C3  UNL d   1       2.533  -1.098   2.647  0.00  0.00     0.003 A 
ATOM      5  C4  UNL d   1       2.094  -0.277   3.684  0.00  0.00    -0.005 A 
ATOM      6  C5  UNL d   1       1.573  -0.843   4.845  0.00  0.00     0.003 A 
ATOM      7  C6  UNL d   1       1.488  -2.231   4.969  0.00  0.00    -0.001 A 
ENDROOT
TORSDOF 0
ENDMDL
