MODEL 1
REMARK minimizedAffinity 1.35710943
REMARK minimizedRMSD -1
REMARK  0 active torsions:
REMARK  status: ('A' for Active; 'I' for Inactive)
ROOT
ATOM      1  C   UNL d   1       2.277  -0.775   2.729  0.00  0.00     0.078 C 
ATOM      2  C1  UNL d   1       3.179  -1.352   3.780  0.00  0.00    -0.077 A 
ATOM      3  C2  UNL d   1       4.549  -1.519   3.541  0.00  0.00    -0.001 A 
ATOM      4  C3  UNL d   1       5.374  -2.066   4.525  0.00  0.00     0.003 A 
ATOM      5  C4  UNL d   1       4.840  -2.451   5.753  0.00  0.00    -0.005 A 
ATOM      6  C5  UNL d   1       3.478  -2.290   5.998  0.00  0.00     0.003 A 
ATOM      7  C6  UNL d   1       2.650  -1.743   5.016  0.00  0.00    -0.001 A 
ENDROOT
TORSDOF 0
ENDMDL
