MODEL 1
REMARK minimizedAffinity 8.33712006
REMARK minimizedRMSD -1
REMARK  0 active torsions:
REMARK  status: ('A' for Active; 'I' for Inactive)
ROOT
ATOM      1  C   UNL d   1       3.086  -2.214   2.853  0.00  0.00     0.078 C 
ATOM      2  C1  UNL d   1       2.006  -1.847   1.879  0.00  0.00    -0.077 A 
ATOM      3  C2  UNL d   1       1.131  -0.784   2.139  0.00  0.00    -0.001 A 
ATOM      4  C3  UNL d   1       0.124  -0.460   1.229  0.00  0.00     0.003 A 
ATOM      5  C4  UNL d   1      -0.019  -1.194   0.053  0.00  0.00    -0.005 A 
ATOM      6  C5  UNL d   1       0.845  -2.254  -0.214  0.00  0.00     0.003 A 
ATOM      7  C6  UNL d   1       1.853  -2.580   0.696  0.00  0.00    -0.001 A 
ENDROOT
TORSDOF 0
ENDMDL
