MODEL 1
REMARK minimizedAffinity -4.27386427
REMARK minimizedRMSD -1
REMARK  0 active torsions:
REMARK  status: ('A' for Active; 'I' for Inactive)
ROOT
ATOM      1  O1  BZF d   1      -0.039  -0.272  -0.580  0.00  0.00    -0.204 OA
ATOM      2  C2  BZF d   1       1.108  -0.693   0.066  0.00  0.00     0.174 A 
ATOM      3  C3  BZF d   1       1.385   0.106   1.117  0.00  0.00    -0.012 A 
ATOM      4  C3A BZF d   1       0.296   1.032   1.183  0.00  0.00    -0.107 A 
ATOM      5  C4  BZF d   1      -0.009   2.064   2.024  0.00  0.00     0.055 A 
ATOM      6  C5  BZF d   1      -1.111   2.818   1.772  0.00  0.00    -0.016 A 
ATOM      7  C6  BZF d   1      -1.926   2.572   0.686  0.00  0.00     0.022 A 
ATOM      8  C7  BZF d   1      -1.667   1.557  -0.173  0.00  0.00     0.029 A 
ATOM      9  C7A BZF d   1      -0.573   0.772   0.098  0.00  0.00     0.058 A 
ENDROOT
TORSDOF 0
ENDMDL
