MODEL 1
REMARK minimizedAffinity -5.74291039
REMARK minimizedRMSD -1
REMARK  0 active torsions:
REMARK  status: ('A' for Active; 'I' for Inactive)
ROOT
ATOM      1  O1  BZF d   1      -0.038  -0.045  -0.833  0.00  0.00    -0.204 OA
ATOM      2  C2  BZF d   1       0.888  -0.817  -0.157  0.00  0.00     0.174 A 
ATOM      3  C3  BZF d   1       1.172  -0.280   1.047  0.00  0.00    -0.012 A 
ATOM      4  C3A BZF d   1       0.306   0.853   1.167  0.00  0.00    -0.107 A 
ATOM      5  C4  BZF d   1       0.107   1.783   2.147  0.00  0.00     0.055 A 
ATOM      6  C5  BZF d   1      -0.761   2.804   1.922  0.00  0.00    -0.016 A 
ATOM      7  C6  BZF d   1      -1.444   2.927   0.730  0.00  0.00     0.022 A 
ATOM      8  C7  BZF d   1      -1.284   2.026  -0.270  0.00  0.00     0.029 A 
ATOM      9  C7A BZF d   1      -0.431   0.975  -0.034  0.00  0.00     0.058 A 
ENDROOT
TORSDOF 0
ENDMDL
