MODEL 1
REMARK minimizedAffinity 9.78609753
REMARK minimizedRMSD -1
REMARK  0 active torsions:
REMARK  status: ('A' for Active; 'I' for Inactive)
ROOT
ATOM      1  O1  BZF d   1       0.488   0.850  -1.031  0.00  0.00    -0.204 OA
ATOM      2  C2  BZF d   1      -0.233   1.323  -2.111  0.00  0.00     0.174 A 
ATOM      3  C3  BZF d   1      -1.217   2.150  -1.704  0.00  0.00    -0.012 A 
ATOM      4  C3A BZF d   1      -1.047   2.270  -0.288  0.00  0.00    -0.107 A 
ATOM      5  C4  BZF d   1      -1.708   2.968   0.682  0.00  0.00     0.055 A 
ATOM      6  C5  BZF d   1      -1.336   2.810   1.979  0.00  0.00    -0.016 A 
ATOM      7  C6  BZF d   1      -0.311   1.961   2.342  0.00  0.00     0.022 A 
ATOM      8  C7  BZF d   1       0.378   1.252   1.415  0.00  0.00     0.029 A 
ATOM      9  C7A BZF d   1       0.025   1.434   0.100  0.00  0.00     0.058 A 
ENDROOT
TORSDOF 0
ENDMDL
