MODEL 1
REMARK minimizedAffinity -2.69456649
REMARK minimizedRMSD -1
REMARK  0 active torsions:
REMARK  status: ('A' for Active; 'I' for Inactive)
ROOT
ATOM      1  O1  BZF d   1      -0.426  -0.158   1.920  0.00  0.00    -0.204 OA
ATOM      2  C2  BZF d   1      -0.582   1.165   2.287  0.00  0.00     0.174 A 
ATOM      3  C3  BZF d   1      -0.255   1.985   1.268  0.00  0.00    -0.012 A 
ATOM      4  C3A BZF d   1       0.042   1.120   0.168  0.00  0.00    -0.107 A 
ATOM      5  C4  BZF d   1       0.415   1.341  -1.127  0.00  0.00     0.055 A 
ATOM      6  C5  BZF d   1       0.699   0.277  -1.923  0.00  0.00    -0.016 A 
ATOM      7  C6  BZF d   1       0.625  -1.019  -1.457  0.00  0.00     0.022 A 
ATOM      8  C7  BZF d   1       0.254  -1.289  -0.182  0.00  0.00     0.029 A 
ATOM      9  C7A BZF d   1      -0.066  -0.217   0.616  0.00  0.00     0.058 A 
ENDROOT
TORSDOF 0
ENDMDL
