MODEL 1
REMARK minimizedAffinity -3.48460054
REMARK minimizedRMSD -1
REMARK  0 active torsions:
REMARK  status: ('A' for Active; 'I' for Inactive)
ROOT
ATOM      1  O1  BZF d   1      -1.718   1.929   0.364  0.00  0.00    -0.204 OA
ATOM      2  C2  BZF d   1      -1.362   2.404   1.612  0.00  0.00     0.174 A 
ATOM      3  C3  BZF d   1      -0.304   1.723   2.098  0.00  0.00    -0.012 A 
ATOM      4  C3A BZF d   1       0.080   0.826   1.052  0.00  0.00    -0.107 A 
ATOM      5  C4  BZF d   1       1.074  -0.102   0.928  0.00  0.00     0.055 A 
ATOM      6  C5  BZF d   1       1.130  -0.864  -0.195  0.00  0.00    -0.016 A 
ATOM      7  C6  BZF d   1       0.207  -0.730  -1.211  0.00  0.00     0.022 A 
ATOM      8  C7  BZF d   1      -0.795   0.180  -1.136  0.00  0.00     0.029 A 
ATOM      9  C7A BZF d   1      -0.835   0.975  -0.016  0.00  0.00     0.058 A 
ENDROOT
TORSDOF 0
ENDMDL
