MODEL 1
REMARK minimizedAffinity -5.31882191
REMARK minimizedRMSD -1
REMARK  0 active torsions:
REMARK  status: ('A' for Active; 'I' for Inactive)
ROOT
ATOM      1  O1  BZF d   1       0.852   0.456  -1.866  0.00  0.00    -0.204 OA
ATOM      2  C2  BZF d   1       0.141   1.330  -2.665  0.00  0.00     0.174 A 
ATOM      3  C3  BZF d   1      -0.814   1.961  -1.952  0.00  0.00    -0.012 A 
ATOM      4  C3A BZF d   1      -0.632   1.517  -0.604  0.00  0.00    -0.107 A 
ATOM      5  C4  BZF d   1      -1.265   1.802   0.572  0.00  0.00     0.055 A 
ATOM      6  C5  BZF d   1      -0.890   1.144   1.700  0.00  0.00    -0.016 A 
ATOM      7  C6  BZF d   1       0.109   0.192   1.688  0.00  0.00     0.022 A 
ATOM      8  C7  BZF d   1       0.769  -0.120   0.546  0.00  0.00     0.029 A 
ATOM      9  C7A BZF d   1       0.415   0.567  -0.589  0.00  0.00     0.058 A 
ENDROOT
TORSDOF 0
ENDMDL
