MODEL 1
REMARK minimizedAffinity -4.5783534
REMARK minimizedRMSD -1
REMARK  0 active torsions:
REMARK  status: ('A' for Active; 'I' for Inactive)
ROOT
ATOM      1  O1  BZF d   1       0.314   0.478   1.596  0.00  0.00    -0.204 OA
ATOM      2  C2  BZF d   1      -0.199   1.630   2.160  0.00  0.00     0.174 A 
ATOM      3  C3  BZF d   1      -0.484   2.543   1.209  0.00  0.00    -0.012 A 
ATOM      4  C3A BZF d   1      -0.213   1.888  -0.034  0.00  0.00    -0.107 A 
ATOM      5  C4  BZF d   1      -0.318   2.272  -1.341  0.00  0.00     0.055 A 
ATOM      6  C5  BZF d   1       0.097   1.420  -2.315  0.00  0.00    -0.016 A 
ATOM      7  C6  BZF d   1       0.625   0.181  -2.019  0.00  0.00     0.022 A 
ATOM      8  C7  BZF d   1       0.744  -0.247  -0.739  0.00  0.00     0.029 A 
ATOM      9  C7A BZF d   1       0.295   0.598   0.247  0.00  0.00     0.058 A 
ENDROOT
TORSDOF 0
ENDMDL
