MODEL 1
REMARK minimizedAffinity -2.5822773
REMARK minimizedRMSD -1
REMARK  0 active torsions:
REMARK  status: ('A' for Active; 'I' for Inactive)
ROOT
ATOM      1  O1  BZF d   1       0.201   1.622   2.038  0.00  0.00    -0.204 OA
ATOM      2  C2  BZF d   1      -0.776   2.536   1.694  0.00  0.00     0.174 A 
ATOM      3  C3  BZF d   1      -1.318   2.230   0.498  0.00  0.00    -0.012 A 
ATOM      4  C3A BZF d   1      -0.702   0.998   0.110  0.00  0.00    -0.107 A 
ATOM      5  C4  BZF d   1      -0.839   0.182  -0.976  0.00  0.00     0.055 A 
ATOM      6  C5  BZF d   1      -0.036  -0.909  -1.087  0.00  0.00    -0.016 A 
ATOM      7  C6  BZF d   1       0.915  -1.211  -0.135  0.00  0.00     0.022 A 
ATOM      8  C7  BZF d   1       1.084  -0.434   0.963  0.00  0.00     0.029 A 
ATOM      9  C7A BZF d   1       0.252   0.652   1.094  0.00  0.00     0.058 A 
ENDROOT
TORSDOF 0
ENDMDL
