MODEL 1
REMARK minimizedAffinity -5.49475193
REMARK minimizedRMSD -1
REMARK  0 active torsions:
REMARK  status: ('A' for Active; 'I' for Inactive)
ROOT
ATOM      1  O1  BZF d   1       0.418   0.100  -0.897  0.00  0.00    -0.204 OA
ATOM      2  C2  BZF d   1       0.901  -0.749   0.079  0.00  0.00     0.174 A 
ATOM      3  C3  BZF d   1       0.692  -0.233   1.308  0.00  0.00    -0.012 A 
ATOM      4  C3A BZF d   1      -0.044   0.974   1.089  0.00  0.00    -0.107 A 
ATOM      5  C4  BZF d   1      -0.560   1.924   1.924  0.00  0.00     0.055 A 
ATOM      6  C5  BZF d   1      -1.162   3.018   1.388  0.00  0.00    -0.016 A 
ATOM      7  C6  BZF d   1      -1.261   3.197   0.024  0.00  0.00     0.022 A 
ATOM      8  C7  BZF d   1      -0.769   2.280  -0.844  0.00  0.00     0.029 A 
ATOM      9  C7A BZF d   1      -0.190   1.157  -0.306  0.00  0.00     0.058 A 
ENDROOT
TORSDOF 0
ENDMDL
