MODEL 1
REMARK minimizedAffinity 14.8564014
REMARK minimizedRMSD -1
REMARK  1 active torsions:
REMARK  status: ('A' for Active; 'I' for Inactive)
REMARK    1  A    between atoms: C1_2  and  C2_3 
ROOT
ATOM      1  C2  UNL d   1      -3.376  -0.232   4.890  0.00  0.00    -0.077 A 
ATOM      2  C3  UNL d   1      -4.744  -0.539   4.898  0.00  0.00     0.002 A 
ATOM      3  C4  UNL d   1      -5.664   0.352   5.453  0.00  0.00     0.002 A 
ATOM      4  C5  UNL d   1      -5.227   1.557   6.000  0.00  0.00    -0.004 A 
ATOM      5  C6  UNL d   1      -3.868   1.870   5.999  0.00  0.00     0.002 A 
ATOM      6  C7  UNL d   1      -2.947   0.980   5.445  0.00  0.00     0.002 A 
ENDROOT
BRANCH   1   7
ATOM      7  C1  UNL d   1      -2.387  -1.170   4.247  0.00  0.00     0.055 C 
ATOM      8  C   UNL d   1      -3.091  -2.234   3.419  0.00  0.00     0.019 C 
ENDBRANCH   1   7
TORSDOF 1
ENDMDL
