MODEL 1
REMARK minimizedAffinity 9.29207897
REMARK minimizedRMSD -1
REMARK  1 active torsions:
REMARK  status: ('A' for Active; 'I' for Inactive)
REMARK    1  A    between atoms: C1_2  and  C2_3 
ROOT
ATOM      1  C2  UNL d   1      -0.631   0.168  -3.450  0.00  0.00    -0.077 A 
ATOM      2  C3  UNL d   1      -2.006   0.360  -3.253  0.00  0.00     0.002 A 
ATOM      3  C4  UNL d   1      -2.621   1.540  -3.673  0.00  0.00     0.002 A 
ATOM      4  C5  UNL d   1      -1.872   2.535  -4.297  0.00  0.00    -0.004 A 
ATOM      5  C6  UNL d   1      -0.504   2.355  -4.495  0.00  0.00     0.002 A 
ATOM      6  C7  UNL d   1       0.114   1.176  -4.075  0.00  0.00     0.002 A 
ENDROOT
BRANCH   1   7
ATOM      7  C1  UNL d   1       0.026  -1.125  -3.042  0.00  0.00     0.055 C 
ATOM      8  C   UNL d   1      -0.393  -1.540  -1.639  0.00  0.00     0.019 C 
ENDBRANCH   1   7
TORSDOF 1
ENDMDL
