MODEL 1
REMARK minimizedAffinity 10.3943634
REMARK minimizedRMSD -1
REMARK  1 active torsions:
REMARK  status: ('A' for Active; 'I' for Inactive)
REMARK    1  A    between atoms: C1_2  and  C2_3 
ROOT
ATOM      1  C2  UNL d   1      -0.840  -3.515  -1.224  0.00  0.00    -0.077 A 
ATOM      2  C3  UNL d   1      -0.139  -3.589  -0.012  0.00  0.00     0.002 A 
ATOM      3  C4  UNL d   1       0.242  -4.828   0.508  0.00  0.00     0.002 A 
ATOM      4  C5  UNL d   1      -0.068  -5.999  -0.179  0.00  0.00    -0.004 A 
ATOM      5  C6  UNL d   1      -0.766  -5.936  -1.384  0.00  0.00     0.002 A 
ATOM      6  C7  UNL d   1      -1.149  -4.699  -1.905  0.00  0.00     0.002 A 
ENDROOT
BRANCH   1   7
ATOM      7  C1  UNL d   1      -1.209  -2.177  -1.811  0.00  0.00     0.055 C 
ATOM      8  C   UNL d   1      -0.399  -1.881  -3.065  0.00  0.00     0.019 C 
ENDBRANCH   1   7
TORSDOF 1
ENDMDL
