MODEL 1
REMARK minimizedAffinity 9.86853027
REMARK minimizedRMSD -1
REMARK  1 active torsions:
REMARK  status: ('A' for Active; 'I' for Inactive)
REMARK    1  A    between atoms: C1_2  and  C2_3 
ROOT
ATOM      1  C2  UNL d   1       0.379  -2.718   2.438  0.00  0.00    -0.077 A 
ATOM      2  C3  UNL d   1       1.617  -2.328   2.967  0.00  0.00     0.002 A 
ATOM      3  C4  UNL d   1       1.706  -1.844   4.273  0.00  0.00     0.002 A 
ATOM      4  C5  UNL d   1       0.562  -1.749   5.062  0.00  0.00    -0.004 A 
ATOM      5  C6  UNL d   1      -0.675  -2.132   4.544  0.00  0.00     0.002 A 
ATOM      6  C7  UNL d   1      -0.766  -2.615   3.238  0.00  0.00     0.002 A 
ENDROOT
BRANCH   1   7
ATOM      7  C1  UNL d   1       0.288  -3.286   1.045  0.00  0.00     0.055 C 
ATOM      8  C   UNL d   1      -0.870  -2.674   0.272  0.00  0.00     0.019 C 
ENDBRANCH   1   7
TORSDOF 1
ENDMDL
