MODEL 1
REMARK minimizedAffinity 15.1689596
REMARK minimizedRMSD -1
REMARK  1 active torsions:
REMARK  status: ('A' for Active; 'I' for Inactive)
REMARK    1  A    between atoms: C1_2  and  C2_3 
ROOT
ATOM      1  C2  UNL d   1      -1.423   2.892  -5.631  0.00  0.00    -0.077 A 
ATOM      2  C3  UNL d   1      -1.709   1.571  -5.261  0.00  0.00     0.002 A 
ATOM      3  C4  UNL d   1      -3.026   1.107  -5.260  0.00  0.00     0.002 A 
ATOM      4  C5  UNL d   1      -4.066   1.956  -5.633  0.00  0.00    -0.004 A 
ATOM      5  C6  UNL d   1      -3.792   3.273  -6.000  0.00  0.00     0.002 A 
ATOM      6  C7  UNL d   1      -2.476   3.739  -6.000  0.00  0.00     0.002 A 
ENDROOT
BRANCH   1   7
ATOM      7  C1  UNL d   1       0.001   3.380  -5.679  0.00  0.00     0.055 C 
ATOM      8  C   UNL d   1       0.746   3.044  -4.395  0.00  0.00     0.019 C 
ENDBRANCH   1   7
TORSDOF 1
ENDMDL
