MODEL 1
REMARK minimizedAffinity 12.1226158
REMARK minimizedRMSD -1
REMARK  1 active torsions:
REMARK  status: ('A' for Active; 'I' for Inactive)
REMARK    1  A    between atoms: C1_2  and  C2_3 
ROOT
ATOM      1  C2  UNL d   1      -1.241  -2.377  -2.161  0.00  0.00    -0.077 A 
ATOM      2  C3  UNL d   1      -0.937  -3.694  -2.532  0.00  0.00     0.002 A 
ATOM      3  C4  UNL d   1      -0.536  -4.624  -1.571  0.00  0.00     0.002 A 
ATOM      4  C5  UNL d   1      -0.441  -4.248  -0.233  0.00  0.00    -0.004 A 
ATOM      5  C6  UNL d   1      -0.739  -2.940   0.146  0.00  0.00     0.002 A 
ATOM      6  C7  UNL d   1      -1.139  -2.009  -0.813  0.00  0.00     0.002 A 
ENDROOT
BRANCH   1   7
ATOM      7  C1  UNL d   1      -1.721  -1.385  -3.189  0.00  0.00     0.055 C 
ATOM      8  C   UNL d   1      -3.122  -0.886  -2.865  0.00  0.00     0.019 C 
ENDBRANCH   1   7
TORSDOF 1
ENDMDL
