MODEL 1
REMARK minimizedAffinity 12.5619364
REMARK minimizedRMSD -1
REMARK  1 active torsions:
REMARK  status: ('A' for Active; 'I' for Inactive)
REMARK    1  A    between atoms: C1_2  and  C2_3 
ROOT
ATOM      1  C2  UNL d   1      -2.636   0.381   5.394  0.00  0.00    -0.077 A 
ATOM      2  C3  UNL d   1      -3.162  -0.221   4.242  0.00  0.00     0.002 A 
ATOM      3  C4  UNL d   1      -2.565  -1.365   3.708  0.00  0.00     0.002 A 
ATOM      4  C5  UNL d   1      -1.443  -1.918   4.321  0.00  0.00    -0.004 A 
ATOM      5  C6  UNL d   1      -0.911  -1.325   5.466  0.00  0.00     0.002 A 
ATOM      6  C7  UNL d   1      -1.506  -0.181   6.000  0.00  0.00     0.002 A 
ENDROOT
BRANCH   1   7
ATOM      7  C1  UNL d   1      -3.308   1.586   5.999  0.00  0.00     0.055 C 
ATOM      8  C   UNL d   1      -4.823   1.450   5.968  0.00  0.00     0.019 C 
ENDBRANCH   1   7
TORSDOF 1
ENDMDL
