MODEL 1
REMARK minimizedAffinity 8.80211639
REMARK minimizedRMSD -1
REMARK  1 active torsions:
REMARK  status: ('A' for Active; 'I' for Inactive)
REMARK    1  A    between atoms: C1_2  and  C2_3 
ROOT
ATOM      1  C2  UNL d   1       3.831   2.169   3.135  0.00  0.00    -0.077 A 
ATOM      2  C3  UNL d   1       3.625   2.974   4.265  0.00  0.00     0.002 A 
ATOM      3  C4  UNL d   1       4.581   3.023   5.281  0.00  0.00     0.002 A 
ATOM      4  C5  UNL d   1       5.751   2.273   5.176  0.00  0.00    -0.004 A 
ATOM      5  C6  UNL d   1       5.964   1.468   4.058  0.00  0.00     0.002 A 
ATOM      6  C7  UNL d   1       5.009   1.417   3.042  0.00  0.00     0.002 A 
ENDROOT
BRANCH   1   7
ATOM      7  C1  UNL d   1       2.824   2.153   2.015  0.00  0.00     0.055 C 
ATOM      8  C   UNL d   1       3.463   2.544   0.691  0.00  0.00     0.019 C 
ENDBRANCH   1   7
TORSDOF 1
ENDMDL
