MODEL 1
REMARK minimizedAffinity 5.55714512
REMARK minimizedRMSD -1
REMARK  1 active torsions:
REMARK  status: ('A' for Active; 'I' for Inactive)
REMARK    1  A    between atoms: C1_2  and  C2_3 
ROOT
ATOM      1  C2  UNL d   1       0.331  -0.236  -2.027  0.00  0.00    -0.077 A 
ATOM      2  C3  UNL d   1      -0.146  -0.292  -0.709  0.00  0.00     0.002 A 
ATOM      3  C4  UNL d   1      -1.374  -0.895  -0.428  0.00  0.00     0.002 A 
ATOM      4  C5  UNL d   1      -2.132  -1.450  -1.457  0.00  0.00    -0.004 A 
ATOM      5  C6  UNL d   1      -1.667  -1.397  -2.770  0.00  0.00     0.002 A 
ATOM      6  C7  UNL d   1      -0.441  -0.794  -3.054  0.00  0.00     0.002 A 
ENDROOT
BRANCH   1   7
ATOM      7  C1  UNL d   1       1.677   0.370  -2.326  0.00  0.00     0.055 C 
ATOM      8  C   UNL d   1       1.918   1.622  -1.495  0.00  0.00     0.019 C 
ENDBRANCH   1   7
TORSDOF 1
ENDMDL
