MODEL 1
REMARK minimizedAffinity -2.97176695
REMARK minimizedRMSD -1
REMARK  0 active torsions:
REMARK  status: ('A' for Active; 'I' for Inactive)
ROOT
ATOM      1  C   UNL d   1      -2.196  -0.022   3.061  0.00  0.00    -0.002 A 
ATOM      2  C1  UNL d   1      -3.017   0.075   1.946  0.00  0.00     0.010 A 
ATOM      3  C2  UNL d   1      -2.467   0.169   0.666  0.00  0.00     0.041 A 
ATOM      4  C3  UNL d   1      -1.066   0.162   0.524  0.00  0.00    -0.075 A 
ATOM      5  S   UNL d   1      -0.170   0.265  -0.945  0.00  0.00     0.015 SA
ATOM      6  C4  UNL d   1       1.324   0.182  -0.128  0.00  0.00     0.022 A 
ATOM      7  C5  UNL d   1       1.161   0.078   1.233  0.00  0.00     0.026 A 
ATOM      8  C6  UNL d   1      -0.219   0.064   1.631  0.00  0.00    -0.082 A 
ATOM      9  C7  UNL d   1      -0.806  -0.029   2.916  0.00  0.00     0.045 A 
ENDROOT
TORSDOF 0
ENDMDL
