MODEL 1
REMARK minimizedAffinity -4.12968874
REMARK minimizedRMSD -1
REMARK  0 active torsions:
REMARK  status: ('A' for Active; 'I' for Inactive)
ROOT
ATOM      1  C   UNL d   1      -0.544  -0.811   3.076  0.00  0.00    -0.002 A 
ATOM      2  C1  UNL d   1      -1.674  -1.264   2.410  0.00  0.00     0.010 A 
ATOM      3  C2  UNL d   1      -1.839  -1.022   1.045  0.00  0.00     0.041 A 
ATOM      4  C3  UNL d   1      -0.838  -0.312   0.353  0.00  0.00    -0.075 A 
ATOM      5  S   UNL d   1      -0.824   0.100  -1.321  0.00  0.00     0.015 SA
ATOM      6  C4  UNL d   1       0.682   0.886  -1.192  0.00  0.00     0.022 A 
ATOM      7  C5  UNL d   1       1.177   0.844   0.090  0.00  0.00     0.026 A 
ATOM      8  C6  UNL d   1       0.310   0.153   1.001  0.00  0.00    -0.082 A 
ATOM      9  C7  UNL d   1       0.447  -0.108   2.386  0.00  0.00     0.045 A 
ENDROOT
TORSDOF 0
ENDMDL
