MODEL 1
REMARK minimizedAffinity -0.254010677
REMARK minimizedRMSD -1
REMARK  0 active torsions:
REMARK  status: ('A' for Active; 'I' for Inactive)
ROOT
ATOM      1  C   UNL d   1       0.713   0.286   2.635  0.00  0.00    -0.002 A 
ATOM      2  C1  UNL d   1      -0.601  -0.127   2.463  0.00  0.00     0.010 A 
ATOM      3  C2  UNL d   1      -1.125  -0.314   1.183  0.00  0.00     0.041 A 
ATOM      4  C3  UNL d   1      -0.298  -0.078   0.067  0.00  0.00    -0.075 A 
ATOM      5  S   UNL d   1      -0.724  -0.242  -1.596  0.00  0.00     0.015 SA
ATOM      6  C4  UNL d   1       0.828   0.231  -2.117  0.00  0.00     0.022 A 
ATOM      7  C5  UNL d   1       1.663   0.512  -1.062  0.00  0.00     0.026 A 
ATOM      8  C6  UNL d   1       1.028   0.338   0.214  0.00  0.00    -0.082 A 
ATOM      9  C7  UNL d   1       1.530   0.519   1.526  0.00  0.00     0.045 A 
ENDROOT
TORSDOF 0
ENDMDL
