MODEL 1
REMARK minimizedAffinity 1.70725858
REMARK minimizedRMSD -1
REMARK  0 active torsions:
REMARK  status: ('A' for Active; 'I' for Inactive)
ROOT
ATOM      1  C   UNL d   1       0.633   0.809   0.953  0.00  0.00    -0.002 A 
ATOM      2  C1  UNL d   1      -0.659   0.303   0.960  0.00  0.00     0.010 A 
ATOM      3  C2  UNL d   1      -1.123  -0.475  -0.102  0.00  0.00     0.041 A 
ATOM      4  C3  UNL d   1      -0.258  -0.740  -1.182  0.00  0.00    -0.075 A 
ATOM      5  S   UNL d   1      -0.608  -1.668  -2.592  0.00  0.00     0.015 SA
ATOM      6  C4  UNL d   1       0.949  -1.416  -3.236  0.00  0.00     0.022 A 
ATOM      7  C5  UNL d   1       1.731  -0.644  -2.410  0.00  0.00     0.026 A 
ATOM      8  C6  UNL d   1       1.048  -0.242  -1.212  0.00  0.00    -0.082 A 
ATOM      9  C7  UNL d   1       1.489   0.544  -0.120  0.00  0.00     0.045 A 
ENDROOT
TORSDOF 0
ENDMDL
