MODEL 1
REMARK minimizedAffinity -0.687013566
REMARK minimizedRMSD -1
REMARK  0 active torsions:
REMARK  status: ('A' for Active; 'I' for Inactive)
ROOT
ATOM      1  C   UNL d   1      -0.437  -0.059   3.628  0.00  0.00    -0.002 A 
ATOM      2  C1  UNL d   1      -0.964  -1.266   3.190  0.00  0.00     0.010 A 
ATOM      3  C2  UNL d   1      -0.849  -1.647   1.851  0.00  0.00     0.041 A 
ATOM      4  C3  UNL d   1      -0.189  -0.787   0.952  0.00  0.00    -0.075 A 
ATOM      5  S   UNL d   1       0.072  -1.046  -0.732  0.00  0.00     0.015 SA
ATOM      6  C4  UNL d   1       0.889   0.438  -0.910  0.00  0.00     0.022 A 
ATOM      7  C5  UNL d   1       0.971   1.128   0.276  0.00  0.00     0.026 A 
ATOM      8  C6  UNL d   1       0.351   0.433   1.369  0.00  0.00    -0.082 A 
ATOM      9  C7  UNL d   1       0.218   0.791   2.733  0.00  0.00     0.045 A 
ENDROOT
TORSDOF 0
ENDMDL
