MODEL 1
REMARK minimizedAffinity -5.38171196
REMARK minimizedRMSD -1
REMARK  0 active torsions:
REMARK  status: ('A' for Active; 'I' for Inactive)
ROOT
ATOM      1  C   UNL d   1       0.398  -0.748   2.638  0.00  0.00    -0.002 A 
ATOM      2  C1  UNL d   1      -0.976  -0.661   2.463  0.00  0.00     0.010 A 
ATOM      3  C2  UNL d   1      -1.512  -0.270   1.234  0.00  0.00     0.041 A 
ATOM      4  C3  UNL d   1      -0.635   0.032   0.173  0.00  0.00    -0.075 A 
ATOM      5  S   UNL d   1      -1.065   0.530  -1.420  0.00  0.00     0.015 SA
ATOM      6  C4  UNL d   1       0.565   0.637  -1.907  0.00  0.00     0.022 A 
ATOM      7  C5  UNL d   1       1.429   0.305  -0.890  0.00  0.00     0.026 A 
ATOM      8  C6  UNL d   1       0.752  -0.050   0.325  0.00  0.00    -0.082 A 
ATOM      9  C7  UNL d   1       1.264  -0.448   1.583  0.00  0.00     0.045 A 
ENDROOT
TORSDOF 0
ENDMDL
