MODEL 1
REMARK minimizedAffinity -2.08054399
REMARK minimizedRMSD -1
REMARK  0 active torsions:
REMARK  status: ('A' for Active; 'I' for Inactive)
ROOT
ATOM      1  C   UNL d   1       0.549  -0.267   2.982  0.00  0.00    -0.002 A 
ATOM      2  C1  UNL d   1      -0.469  -1.193   2.808  0.00  0.00     0.010 A 
ATOM      3  C2  UNL d   1      -1.087  -1.345   1.566  0.00  0.00     0.041 A 
ATOM      4  C3  UNL d   1      -0.659  -0.542   0.490  0.00  0.00    -0.075 A 
ATOM      5  S   UNL d   1      -1.270  -0.554  -1.123  0.00  0.00     0.015 SA
ATOM      6  C4  UNL d   1      -0.193   0.670  -1.619  0.00  0.00     0.022 A 
ATOM      7  C5  UNL d   1       0.620   1.089  -0.592  0.00  0.00     0.026 A 
ATOM      8  C6  UNL d   1       0.365   0.397   0.640  0.00  0.00    -0.082 A 
ATOM      9  C7  UNL d   1       0.971   0.527   1.912  0.00  0.00     0.045 A 
ENDROOT
TORSDOF 0
ENDMDL
