MODEL 1
REMARK minimizedAffinity 3.85479379
REMARK minimizedRMSD -1
REMARK  0 active torsions:
REMARK  status: ('A' for Active; 'I' for Inactive)
ROOT
ATOM      1  C1  DEN d   1      -1.061   1.165   1.434  0.00  0.00     0.130 A 
ATOM      2  C2  DEN d   1      -1.888   1.257   0.233  0.00  0.00    -0.031 A 
ATOM      3  C3  DEN d   1      -2.463  -0.078  -0.028  0.00  0.00     0.027 A 
ATOM      4  C4  DEN d   1      -2.160  -2.264   1.307  0.00  0.00     0.027 A 
ATOM      5  C5  DEN d   1      -1.541  -2.839   2.395  0.00  0.00    -0.003 A 
ATOM      6  C6  DEN d   1      -0.699  -2.133   3.212  0.00  0.00     0.001 A 
ATOM      7  C7  DEN d   1      -0.488  -0.799   2.981  0.00  0.00     0.017 A 
ATOM      8  C8  DEN d   1      -1.103  -0.215   1.881  0.00  0.00    -0.094 A 
ATOM      9  C9  DEN d   1      -1.960  -0.942   1.074  0.00  0.00    -0.072 A 
ENDROOT
TORSDOF 0
ENDMDL
