MODEL 1
REMARK minimizedAffinity -2.73672533
REMARK minimizedRMSD -1
REMARK  0 active torsions:
REMARK  status: ('A' for Active; 'I' for Inactive)
ROOT
ATOM      1  C1  DEN d   1       0.654  -1.030  -0.731  0.00  0.00     0.130 A 
ATOM      2  C2  DEN d   1      -0.374  -0.029  -0.457  0.00  0.00    -0.031 A 
ATOM      3  C3  DEN d   1      -0.825  -0.208   0.938  0.00  0.00     0.027 A 
ATOM      4  C4  DEN d   1      -0.033  -1.926   2.691  0.00  0.00     0.027 A 
ATOM      5  C5  DEN d   1       0.813  -2.988   2.919  0.00  0.00    -0.003 A 
ATOM      6  C6  DEN d   1       1.634  -3.490   1.945  0.00  0.00     0.001 A 
ATOM      7  C7  DEN d   1       1.660  -2.900   0.708  0.00  0.00     0.017 A 
ATOM      8  C8  DEN d   1       0.804  -1.833   0.469  0.00  0.00    -0.094 A 
ATOM      9  C9  DEN d   1      -0.010  -1.333   1.471  0.00  0.00    -0.072 A 
ENDROOT
TORSDOF 0
ENDMDL
