MODEL 1
REMARK minimizedAffinity 4.31991673
REMARK minimizedRMSD -1
REMARK  0 active torsions:
REMARK  status: ('A' for Active; 'I' for Inactive)
ROOT
ATOM      1  C1  DEN d   1       0.396  -0.993  -0.725  0.00  0.00     0.130 A 
ATOM      2  C2  DEN d   1       1.476  -1.947  -0.492  0.00  0.00    -0.031 A 
ATOM      3  C3  DEN d   1       1.343  -2.461   0.886  0.00  0.00     0.027 A 
ATOM      4  C4  DEN d   1      -0.426  -1.879   2.670  0.00  0.00     0.027 A 
ATOM      5  C5  DEN d   1      -1.538  -1.112   2.941  0.00  0.00    -0.003 A 
ATOM      6  C6  DEN d   1      -2.058  -0.234   2.028  0.00  0.00     0.001 A 
ATOM      7  C7  DEN d   1      -1.494  -0.134   0.784  0.00  0.00     0.017 A 
ATOM      8  C8  DEN d   1      -0.368  -0.899   0.506  0.00  0.00    -0.094 A 
ATOM      9  C9  DEN d   1       0.136  -1.790   1.438  0.00  0.00    -0.072 A 
ENDROOT
TORSDOF 0
ENDMDL
