MODEL 1
REMARK minimizedAffinity 6.58360863
REMARK minimizedRMSD -1
REMARK  0 active torsions:
REMARK  status: ('A' for Active; 'I' for Inactive)
ROOT
ATOM      1  C1  DEN d   1       3.120  -1.657  -0.994  0.00  0.00     0.130 A 
ATOM      2  C2  DEN d   1       1.886  -0.950  -0.662  0.00  0.00    -0.031 A 
ATOM      3  C3  DEN d   1       1.149  -1.759   0.329  0.00  0.00     0.027 A 
ATOM      4  C4  DEN d   1       1.796  -4.024   1.379  0.00  0.00     0.027 A 
ATOM      5  C5  DEN d   1       2.746  -5.021   1.400  0.00  0.00    -0.003 A 
ATOM      6  C6  DEN d   1       3.862  -4.984   0.606  0.00  0.00     0.001 A 
ATOM      7  C7  DEN d   1       4.078  -3.905  -0.210  0.00  0.00     0.017 A 
ATOM      8  C8  DEN d   1       3.121  -2.899  -0.242  0.00  0.00    -0.094 A 
ATOM      9  C9  DEN d   1       2.006  -2.950   0.577  0.00  0.00    -0.072 A 
ENDROOT
TORSDOF 0
ENDMDL
