MODEL 1
REMARK minimizedAffinity 0.183337882
REMARK minimizedRMSD -1
REMARK  0 active torsions:
REMARK  status: ('A' for Active; 'I' for Inactive)
ROOT
ATOM      1  C1  DEN d   1       1.937  -3.325   1.523  0.00  0.00     0.130 A 
ATOM      2  C2  DEN d   1       2.602  -3.105   0.242  0.00  0.00    -0.031 A 
ATOM      3  C3  DEN d   1       2.047  -1.875  -0.356  0.00  0.00     0.027 A 
ATOM      4  C4  DEN d   1       0.234  -0.293   0.574  0.00  0.00     0.027 A 
ATOM      5  C5  DEN d   1      -0.633  -0.073   1.622  0.00  0.00    -0.003 A 
ATOM      6  C6  DEN d   1      -0.728  -0.931   2.684  0.00  0.00     0.001 A 
ATOM      7  C7  DEN d   1       0.091  -2.028   2.746  0.00  0.00     0.017 A 
ATOM      8  C8  DEN d   1       0.962  -2.262   1.690  0.00  0.00    -0.094 A 
ATOM      9  C9  DEN d   1       1.052  -1.375   0.631  0.00  0.00    -0.072 A 
ENDROOT
TORSDOF 0
ENDMDL
