MODEL 1
REMARK minimizedAffinity 3.6731174
REMARK minimizedRMSD -1
REMARK  0 active torsions:
REMARK  status: ('A' for Active; 'I' for Inactive)
ROOT
ATOM      1  C1  DEN d   1       1.288  -1.255   0.380  0.00  0.00     0.130 A 
ATOM      2  C2  DEN d   1       1.102  -0.973  -1.040  0.00  0.00    -0.031 A 
ATOM      3  C3  DEN d   1      -0.294  -0.533  -1.239  0.00  0.00     0.027 A 
ATOM      4  C4  DEN d   1      -2.173  -0.258   0.506  0.00  0.00     0.027 A 
ATOM      5  C5  DEN d   1      -2.495  -0.389   1.839  0.00  0.00    -0.003 A 
ATOM      6  C6  DEN d   1      -1.596  -0.847   2.765  0.00  0.00     0.001 A 
ATOM      7  C7  DEN d   1      -0.317  -1.147   2.379  0.00  0.00     0.017 A 
ATOM      8  C8  DEN d   1       0.013  -1.025   1.036  0.00  0.00    -0.094 A 
ATOM      9  C9  DEN d   1      -0.906  -0.548   0.117  0.00  0.00    -0.072 A 
ENDROOT
TORSDOF 0
ENDMDL
