MODEL 1
REMARK minimizedAffinity 4.54835463
REMARK minimizedRMSD -1
REMARK  0 active torsions:
REMARK  status: ('A' for Active; 'I' for Inactive)
ROOT
ATOM      1  C1  DEN d   1       1.117  -1.120  -0.396  0.00  0.00     0.130 A 
ATOM      2  C2  DEN d   1       1.984  -2.245  -0.057  0.00  0.00    -0.031 A 
ATOM      3  C3  DEN d   1       1.622  -2.709   1.297  0.00  0.00     0.027 A 
ATOM      4  C4  DEN d   1      -0.190  -1.801   2.893  0.00  0.00     0.027 A 
ATOM      5  C5  DEN d   1      -1.171  -0.848   3.051  0.00  0.00    -0.003 A 
ATOM      6  C6  DEN d   1      -1.433   0.096   2.094  0.00  0.00     0.001 A 
ATOM      7  C7  DEN d   1      -0.736   0.078   0.914  0.00  0.00     0.017 A 
ATOM      8  C8  DEN d   1       0.260  -0.876   0.751  0.00  0.00    -0.094 A 
ATOM      9  C9  DEN d   1       0.502  -1.829   1.726  0.00  0.00    -0.072 A 
ENDROOT
TORSDOF 0
ENDMDL
