MODEL 1
REMARK minimizedAffinity 3.7405529
REMARK minimizedRMSD -1
REMARK  0 active torsions:
REMARK  status: ('A' for Active; 'I' for Inactive)
ROOT
ATOM      1  C1  DEN d   1      -0.062  -3.293   2.905  0.00  0.00     0.130 A 
ATOM      2  C2  DEN d   1       0.463  -4.647   3.060  0.00  0.00    -0.031 A 
ATOM      3  C3  DEN d   1       1.547  -4.832   2.074  0.00  0.00     0.027 A 
ATOM      4  C4  DEN d   1       2.463  -3.160   0.337  0.00  0.00     0.027 A 
ATOM      5  C5  DEN d   1       2.327  -1.890  -0.179  0.00  0.00    -0.003 A 
ATOM      6  C6  DEN d   1       1.371  -1.018   0.270  0.00  0.00     0.001 A 
ATOM      7  C7  DEN d   1       0.542  -1.389   1.296  0.00  0.00     0.017 A 
ATOM      8  C8  DEN d   1       0.668  -2.670   1.816  0.00  0.00    -0.094 A 
ATOM      9  C9  DEN d   1       1.649  -3.533   1.357  0.00  0.00    -0.072 A 
ENDROOT
TORSDOF 0
ENDMDL
