MODEL 1
REMARK minimizedAffinity -2.8872776
REMARK minimizedRMSD -1
REMARK  1 active torsions:
REMARK  status: ('A' for Active; 'I' for Inactive)
REMARK    1  A    between atoms: C3_4  and  O_7 
ROOT
ATOM      1  C   UNL d   1       1.548  -1.597  -1.134  0.00  0.00    -0.033 A 
ATOM      2  C1  UNL d   1       2.207  -1.043  -2.233  0.00  0.00     0.039 A 
ATOM      3  C2  UNL d   1       1.902   0.254  -2.651  0.00  0.00    -0.080 A 
ATOM      4  C3  UNL d   1       0.938   0.985  -1.962  0.00  0.00     0.150 A 
ATOM      5  C4  UNL d   1       0.281   0.440  -0.863  0.00  0.00    -0.007 A 
ATOM      6  C5  UNL d   1       0.586  -0.855  -0.448  0.00  0.00     0.039 A 
ENDROOT
BRANCH   4   7
ATOM      7  O   UNL d   1       0.603   2.253  -2.335  0.00  0.00    -0.526 OA
ATOM      8  H5  UNL d   1       1.117   2.486  -3.126  0.00  0.00     0.418 HD
ENDBRANCH   4   7
TORSDOF 1
ENDMDL
