MODEL 1
REMARK minimizedAffinity -2.72244096
REMARK minimizedRMSD -1
REMARK  1 active torsions:
REMARK  status: ('A' for Active; 'I' for Inactive)
REMARK    1  A    between atoms: C3_4  and  O_7 
ROOT
ATOM      1  C   UNL d   1      -1.833   0.901   2.061  0.00  0.00    -0.033 A 
ATOM      2  C1  UNL d   1      -1.614   0.951   3.439  0.00  0.00     0.039 A 
ATOM      3  C2  UNL d   1      -2.375   0.157   4.298  0.00  0.00    -0.080 A 
ATOM      4  C3  UNL d   1      -3.351  -0.682   3.768  0.00  0.00     0.150 A 
ATOM      5  C4  UNL d   1      -3.572  -0.740   2.396  0.00  0.00    -0.007 A 
ATOM      6  C5  UNL d   1      -2.812   0.054   1.539  0.00  0.00     0.039 A 
ENDROOT
BRANCH   4   7
ATOM      7  O   UNL d   1      -4.123  -1.472   4.568  0.00  0.00    -0.526 OA
ATOM      8  H5  UNL d   1      -3.878  -1.306   5.493  0.00  0.00     0.418 HD
ENDBRANCH   4   7
TORSDOF 1
ENDMDL
