MODEL 1
REMARK minimizedAffinity -1.78740942
REMARK minimizedRMSD -1
REMARK  1 active torsions:
REMARK  status: ('A' for Active; 'I' for Inactive)
REMARK    1  A    between atoms: C3_4  and  O_7 
ROOT
ATOM      1  C   UNL d   1      -2.252   1.588   3.571  0.00  0.00    -0.033 A 
ATOM      2  C1  UNL d   1      -1.329   2.293   2.796  0.00  0.00     0.039 A 
ATOM      3  C2  UNL d   1      -0.897   1.772   1.575  0.00  0.00    -0.080 A 
ATOM      4  C3  UNL d   1      -1.396   0.547   1.140  0.00  0.00     0.150 A 
ATOM      5  C4  UNL d   1      -2.319  -0.159   1.905  0.00  0.00    -0.007 A 
ATOM      6  C5  UNL d   1      -2.748   0.362   3.124  0.00  0.00     0.039 A 
ENDROOT
BRANCH   4   7
ATOM      7  O   UNL d   1      -1.001  -0.004  -0.043  0.00  0.00    -0.526 OA
ATOM      8  H5  UNL d   1      -0.339   0.581  -0.449  0.00  0.00     0.418 HD
ENDBRANCH   4   7
TORSDOF 1
ENDMDL
