MODEL 1
REMARK minimizedAffinity -4.97735071
REMARK minimizedRMSD -1
REMARK  1 active torsions:
REMARK  status: ('A' for Active; 'I' for Inactive)
REMARK    1  A    between atoms: C3_4  and  O_7 
ROOT
ATOM      1  C   UNL d   1      -0.697  -0.557  -0.159  0.00  0.00    -0.033 A 
ATOM      2  C1  UNL d   1       0.095   0.578  -0.346  0.00  0.00     0.039 A 
ATOM      3  C2  UNL d   1       1.443   0.443  -0.684  0.00  0.00    -0.080 A 
ATOM      4  C3  UNL d   1       1.986  -0.831  -0.833  0.00  0.00     0.150 A 
ATOM      5  C4  UNL d   1       1.202  -1.965  -0.652  0.00  0.00    -0.007 A 
ATOM      6  C5  UNL d   1      -0.144  -1.828  -0.313  0.00  0.00     0.039 A 
ENDROOT
BRANCH   4   7
ATOM      7  O   UNL d   1       3.297  -1.013  -1.157  0.00  0.00    -0.526 OA
ATOM      8  H5  UNL d   1       3.722  -0.141  -1.223  0.00  0.00     0.418 HD
ENDBRANCH   4   7
TORSDOF 1
ENDMDL
