MODEL 1
REMARK minimizedAffinity -5.07988453
REMARK minimizedRMSD -1
REMARK  1 active torsions:
REMARK  status: ('A' for Active; 'I' for Inactive)
REMARK    1  A    between atoms: C3_4  and  O_7 
ROOT
ATOM      1  C   UNL d   1       3.128   0.403  -2.406  0.00  0.00    -0.033 A 
ATOM      2  C1  UNL d   1       2.211   1.449  -2.526  0.00  0.00     0.039 A 
ATOM      3  C2  UNL d   1       1.062   1.466  -1.733  0.00  0.00    -0.080 A 
ATOM      4  C3  UNL d   1       0.842   0.434  -0.825  0.00  0.00     0.150 A 
ATOM      5  C4  UNL d   1       1.753  -0.609  -0.698  0.00  0.00    -0.007 A 
ATOM      6  C5  UNL d   1       2.900  -0.626  -1.491  0.00  0.00     0.039 A 
ENDROOT
BRANCH   4   7
ATOM      7  O   UNL d   1      -0.267   0.406  -0.033  0.00  0.00    -0.526 OA
ATOM      8  H5  UNL d   1      -0.820   1.175  -0.251  0.00  0.00     0.418 HD
ENDBRANCH   4   7
TORSDOF 1
ENDMDL
