MODEL 1
REMARK minimizedAffinity -4.9470892
REMARK minimizedRMSD -1
REMARK  1 active torsions:
REMARK  status: ('A' for Active; 'I' for Inactive)
REMARK    1  A    between atoms: C3_4  and  O_7 
ROOT
ATOM      1  C   UNL d   1       2.880   0.002  -1.081  0.00  0.00    -0.033 A 
ATOM      2  C1  UNL d   1       2.204  -1.173  -0.745  0.00  0.00     0.039 A 
ATOM      3  C2  UNL d   1       0.882  -1.116  -0.301  0.00  0.00    -0.080 A 
ATOM      4  C3  UNL d   1       0.247   0.119  -0.198  0.00  0.00     0.150 A 
ATOM      5  C4  UNL d   1       0.913   1.292  -0.535  0.00  0.00    -0.007 A 
ATOM      6  C5  UNL d   1       2.234   1.234  -0.977  0.00  0.00     0.039 A 
ENDROOT
BRANCH   4   7
ATOM      7  O   UNL d   1      -1.041   0.224   0.236  0.00  0.00    -0.526 OA
ATOM      8  H5  UNL d   1      -1.364  -0.665   0.459  0.00  0.00     0.418 HD
ENDBRANCH   4   7
TORSDOF 1
ENDMDL
