MODEL 1
REMARK minimizedAffinity -2.78788543
REMARK minimizedRMSD -1
REMARK  1 active torsions:
REMARK  status: ('A' for Active; 'I' for Inactive)
REMARK    1  A    between atoms: C3_4  and  O_7 
ROOT
ATOM      1  C   UNL d   1       1.649  -1.144  -1.597  0.00  0.00    -0.033 A 
ATOM      2  C1  UNL d   1       0.897  -2.114  -0.932  0.00  0.00     0.039 A 
ATOM      3  C2  UNL d   1      -0.254  -1.749  -0.231  0.00  0.00    -0.080 A 
ATOM      4  C3  UNL d   1      -0.642  -0.412  -0.205  0.00  0.00     0.150 A 
ATOM      5  C4  UNL d   1       0.100   0.559  -0.869  0.00  0.00    -0.007 A 
ATOM      6  C5  UNL d   1       1.249   0.192  -1.568  0.00  0.00     0.039 A 
ENDROOT
BRANCH   4   7
ATOM      7  O   UNL d   1      -1.756  -0.007   0.469  0.00  0.00    -0.526 OA
ATOM      8  H5  UNL d   1      -2.151  -0.781   0.904  0.00  0.00     0.418 HD
ENDBRANCH   4   7
TORSDOF 1
ENDMDL
