MODEL 1
REMARK minimizedAffinity -4.64795494
REMARK minimizedRMSD -1
REMARK  1 active torsions:
REMARK  status: ('A' for Active; 'I' for Inactive)
REMARK    1  A    between atoms: C3_4  and  O_7 
ROOT
ATOM      1  C   UNL d   1       1.967  -1.348  -0.790  0.00  0.00    -0.033 A 
ATOM      2  C1  UNL d   1       1.963   0.004  -1.139  0.00  0.00     0.039 A 
ATOM      3  C2  UNL d   1       0.848   0.796  -0.857  0.00  0.00    -0.080 A 
ATOM      4  C3  UNL d   1      -0.253   0.226  -0.226  0.00  0.00     0.150 A 
ATOM      5  C4  UNL d   1      -0.255  -1.119   0.128  0.00  0.00    -0.007 A 
ATOM      6  C5  UNL d   1       0.858  -1.909  -0.155  0.00  0.00     0.039 A 
ENDROOT
BRANCH   4   7
ATOM      7  O   UNL d   1      -1.366   0.958   0.065  0.00  0.00    -0.526 OA
ATOM      8  H5  UNL d   1      -1.233   1.863  -0.263  0.00  0.00     0.418 HD
ENDBRANCH   4   7
TORSDOF 1
ENDMDL
