MODEL 1
REMARK minimizedAffinity -4.10787725
REMARK minimizedRMSD -1
REMARK  1 active torsions:
REMARK  status: ('A' for Active; 'I' for Inactive)
REMARK    1  A    between atoms: C3_4  and  O_7 
ROOT
ATOM      1  C   UNL d   1      -1.068   0.804   0.600  0.00  0.00    -0.033 A 
ATOM      2  C1  UNL d   1      -1.052  -0.592   0.578  0.00  0.00     0.039 A 
ATOM      3  C2  UNL d   1      -0.054  -1.270  -0.124  0.00  0.00    -0.080 A 
ATOM      4  C3  UNL d   1       0.923  -0.541  -0.797  0.00  0.00     0.150 A 
ATOM      5  C4  UNL d   1       0.916   0.849  -0.776  0.00  0.00    -0.007 A 
ATOM      6  C5  UNL d   1      -0.083   1.525  -0.076  0.00  0.00     0.039 A 
ENDROOT
BRANCH   4   7
ATOM      7  O   UNL d   1       1.915  -1.159  -1.499  0.00  0.00    -0.526 OA
ATOM      8  H5  UNL d   1       1.776  -2.119  -1.449  0.00  0.00     0.418 HD
ENDBRANCH   4   7
TORSDOF 1
ENDMDL
