MODEL 1
REMARK minimizedAffinity -4.59421015
REMARK minimizedRMSD -1
REMARK  1 active torsions:
REMARK  status: ('A' for Active; 'I' for Inactive)
REMARK    1  A    between atoms: C3_4  and  O_7 
ROOT
ATOM      1  C   UNL d   1      -1.398   0.739  -0.355  0.00  0.00    -0.033 A 
ATOM      2  C1  UNL d   1      -0.842  -0.488   0.012  0.00  0.00     0.039 A 
ATOM      3  C2  UNL d   1       0.498  -0.760  -0.268  0.00  0.00    -0.080 A 
ATOM      4  C3  UNL d   1       1.271   0.202  -0.913  0.00  0.00     0.150 A 
ATOM      5  C4  UNL d   1       0.724   1.428  -1.278  0.00  0.00    -0.007 A 
ATOM      6  C5  UNL d   1      -0.615   1.697  -0.998  0.00  0.00     0.039 A 
ENDROOT
BRANCH   4   7
ATOM      7  O   UNL d   1       2.582  -0.020  -1.212  0.00  0.00    -0.526 OA
ATOM      8  H5  UNL d   1       2.815  -0.920  -0.927  0.00  0.00     0.418 HD
ENDBRANCH   4   7
TORSDOF 1
ENDMDL
