MODEL 1
REMARK minimizedAffinity -4.45652056
REMARK minimizedRMSD -1
REMARK  1 active torsions:
REMARK  status: ('A' for Active; 'I' for Inactive)
REMARK    1  A    between atoms: C3_4  and  O_7 
ROOT
ATOM      1  C   UNL d   1      -0.634  -0.202   0.067  0.00  0.00    -0.033 A 
ATOM      2  C1  UNL d   1       0.069   0.943  -0.311  0.00  0.00     0.039 A 
ATOM      3  C2  UNL d   1       1.414   0.851  -0.673  0.00  0.00    -0.080 A 
ATOM      4  C3  UNL d   1       2.044  -0.391  -0.652  0.00  0.00     0.150 A 
ATOM      5  C4  UNL d   1       1.348  -1.537  -0.280  0.00  0.00    -0.007 A 
ATOM      6  C5  UNL d   1       0.005  -1.442   0.081  0.00  0.00     0.039 A 
ENDROOT
BRANCH   4   7
ATOM      7  O   UNL d   1       3.357  -0.530  -0.992  0.00  0.00    -0.526 OA
ATOM      8  H5  UNL d   1       3.716   0.349  -1.199  0.00  0.00     0.418 HD
ENDBRANCH   4   7
TORSDOF 1
ENDMDL
