MODEL 1
REMARK minimizedAffinity -5.24225426
REMARK minimizedRMSD -1
REMARK  1 active torsions:
REMARK  status: ('A' for Active; 'I' for Inactive)
REMARK    1  A    between atoms: C3_4  and  O_7 
ROOT
ATOM      1  C   UNL d   1       2.858   0.603  -2.547  0.00  0.00    -0.033 A 
ATOM      2  C1  UNL d   1       1.763   1.467  -2.600  0.00  0.00     0.039 A 
ATOM      3  C2  UNL d   1       0.685   1.285  -1.731  0.00  0.00    -0.080 A 
ATOM      4  C3  UNL d   1       0.715   0.237  -0.816  0.00  0.00     0.150 A 
ATOM      5  C4  UNL d   1       1.804  -0.626  -0.755  0.00  0.00    -0.007 A 
ATOM      6  C5  UNL d   1       2.879  -0.443  -1.624  0.00  0.00     0.039 A 
ENDROOT
BRANCH   4   7
ATOM      7  O   UNL d   1      -0.316   0.017   0.049  0.00  0.00    -0.526 OA
ATOM      8  H5  UNL d   1      -1.011   0.673  -0.127  0.00  0.00     0.418 HD
ENDBRANCH   4   7
TORSDOF 1
ENDMDL
