MODEL 1
REMARK minimizedAffinity -2.87995052
REMARK minimizedRMSD -1
REMARK  1 active torsions:
REMARK  status: ('A' for Active; 'I' for Inactive)
REMARK    1  A    between atoms: C3_4  and  O_7 
ROOT
ATOM      1  C   UNL d   1      -1.513   1.090  -0.662  0.00  0.00    -0.033 A 
ATOM      2  C1  UNL d   1      -0.638   1.998  -1.262  0.00  0.00     0.039 A 
ATOM      3  C2  UNL d   1       0.731   1.728  -1.304  0.00  0.00    -0.080 A 
ATOM      4  C3  UNL d   1       1.212   0.547  -0.744  0.00  0.00     0.150 A 
ATOM      5  C4  UNL d   1       0.346  -0.364  -0.149  0.00  0.00    -0.007 A 
ATOM      6  C5  UNL d   1      -1.021  -0.092  -0.107  0.00  0.00     0.039 A 
ENDROOT
BRANCH   4   7
ATOM      7  O   UNL d   1       2.540   0.242  -0.757  0.00  0.00    -0.526 OA
ATOM      8  H5  UNL d   1       3.021   0.976  -1.175  0.00  0.00     0.418 HD
ENDBRANCH   4   7
TORSDOF 1
ENDMDL
