MODEL 1
REMARK minimizedAffinity -4.08534527
REMARK minimizedRMSD -1
REMARK  1 active torsions:
REMARK  status: ('A' for Active; 'I' for Inactive)
REMARK    1  A    between atoms: C3_4  and  O_7 
ROOT
ATOM      1  C   UNL d   1       0.645   1.681  -0.963  0.00  0.00    -0.033 A 
ATOM      2  C1  UNL d   1       1.512   1.891  -2.037  0.00  0.00     0.039 A 
ATOM      3  C2  UNL d   1       2.524   0.968  -2.310  0.00  0.00    -0.080 A 
ATOM      4  C3  UNL d   1       2.657  -0.159  -1.504  0.00  0.00     0.150 A 
ATOM      5  C4  UNL d   1       1.794  -0.376  -0.435  0.00  0.00    -0.007 A 
ATOM      6  C5  UNL d   1       0.785   0.547  -0.163  0.00  0.00     0.039 A 
ENDROOT
BRANCH   4   7
ATOM      7  O   UNL d   1       3.632  -1.084  -1.729  0.00  0.00    -0.526 OA
ATOM      8  H5  UNL d   1       4.170  -0.788  -2.482  0.00  0.00     0.418 HD
ENDBRANCH   4   7
TORSDOF 1
ENDMDL
