MODEL 1
REMARK minimizedAffinity -4.81280994
REMARK minimizedRMSD -1
REMARK  1 active torsions:
REMARK  status: ('A' for Active; 'I' for Inactive)
REMARK    1  A    between atoms: C3_4  and  O_7 
ROOT
ATOM      1  C   UNL d   1      -0.549   0.042  -0.747  0.00  0.00    -0.033 A 
ATOM      2  C1  UNL d   1      -0.117  -1.222  -0.341  0.00  0.00     0.039 A 
ATOM      3  C2  UNL d   1       1.245  -1.530  -0.344  0.00  0.00    -0.080 A 
ATOM      4  C3  UNL d   1       2.163  -0.567  -0.753  0.00  0.00     0.150 A 
ATOM      5  C4  UNL d   1       1.740   0.696  -1.154  0.00  0.00    -0.007 A 
ATOM      6  C5  UNL d   1       0.379   1.002  -1.152  0.00  0.00     0.039 A 
ENDROOT
BRANCH   4   7
ATOM      7  O   UNL d   1       3.502  -0.823  -0.777  0.00  0.00    -0.526 OA
ATOM      8  H5  UNL d   1       3.644  -1.744  -0.501  0.00  0.00     0.418 HD
ENDBRANCH   4   7
TORSDOF 1
ENDMDL
