MODEL 1
REMARK minimizedAffinity -5.31322193
REMARK minimizedRMSD -1
REMARK  1 active torsions:
REMARK  status: ('A' for Active; 'I' for Inactive)
REMARK    1  A    between atoms: C3_4  and  O_7 
ROOT
ATOM      1  C   UNL d   1       2.577   0.116  -1.885  0.00  0.00    -0.033 A 
ATOM      2  C1  UNL d   1       2.143  -0.907  -1.039  0.00  0.00     0.039 A 
ATOM      3  C2  UNL d   1       0.949  -0.768  -0.329  0.00  0.00    -0.080 A 
ATOM      4  C3  UNL d   1       0.199   0.397  -0.474  0.00  0.00     0.150 A 
ATOM      5  C4  UNL d   1       0.624   1.417  -1.318  0.00  0.00    -0.007 A 
ATOM      6  C5  UNL d   1       1.817   1.277  -2.025  0.00  0.00     0.039 A 
ENDROOT
BRANCH   4   7
ATOM      7  O   UNL d   1      -0.970   0.580   0.203  0.00  0.00    -0.526 OA
ATOM      8  H5  UNL d   1      -1.123  -0.195   0.769  0.00  0.00     0.418 HD
ENDBRANCH   4   7
TORSDOF 1
ENDMDL
