MODEL 1
REMARK minimizedAffinity -4.68670893
REMARK minimizedRMSD -1
REMARK  1 active torsions:
REMARK  status: ('A' for Active; 'I' for Inactive)
REMARK    1  A    between atoms: C3_4  and  O_7 
ROOT
ATOM      1  C   UNL d   1      -0.678  -0.453  -0.174  0.00  0.00    -0.033 A 
ATOM      2  C1  UNL d   1       0.053   0.725  -0.338  0.00  0.00     0.039 A 
ATOM      3  C2  UNL d   1       1.421   0.667  -0.616  0.00  0.00    -0.080 A 
ATOM      4  C3  UNL d   1       2.043  -0.573  -0.727  0.00  0.00     0.150 A 
ATOM      5  C4  UNL d   1       1.320  -1.751  -0.568  0.00  0.00    -0.007 A 
ATOM      6  C5  UNL d   1      -0.045  -1.691  -0.290  0.00  0.00     0.039 A 
ENDROOT
BRANCH   4   7
ATOM      7  O   UNL d   1       3.376  -0.680  -0.992  0.00  0.00    -0.526 OA
ATOM      8  H5  UNL d   1       3.752   0.215  -1.048  0.00  0.00     0.418 HD
ENDBRANCH   4   7
TORSDOF 1
ENDMDL
