MODEL 1
REMARK minimizedAffinity 10.402648
REMARK minimizedRMSD -1
REMARK  0 active torsions:
REMARK  status: ('A' for Active; 'I' for Inactive)
ROOT
ATOM      1  C   UNL d   1       4.076   5.223   5.998  0.00  0.00     0.023 A 
ATOM      2  C1  UNL d   1       3.311   4.092   5.714  0.00  0.00     0.003 A 
ATOM      3  C2  UNL d   1       3.860   3.042   4.975  0.00  0.00     0.048 A 
ATOM      4  C3  UNL d   1       5.177   3.130   4.523  0.00  0.00     0.023 A 
ATOM      5  C4  UNL d   1       5.947   4.259   4.805  0.00  0.00     0.048 A 
ATOM      6  C5  UNL d   1       5.393   5.306   5.544  0.00  0.00     0.003 A 
ATOM      7  I   UNL d   1       5.997   1.569   3.423  0.00  0.00    -0.146 I 
ENDROOT
TORSDOF 0
ENDMDL
