MODEL 1
REMARK minimizedAffinity 2.26104116
REMARK minimizedRMSD -1
REMARK  0 active torsions:
REMARK  status: ('A' for Active; 'I' for Inactive)
ROOT
ATOM      1  C   UNL d   1       5.226   5.987   5.014  0.00  0.00     0.023 A 
ATOM      2  C1  UNL d   1       3.924   5.674   4.623  0.00  0.00     0.003 A 
ATOM      3  C2  UNL d   1       3.393   4.414   4.904  0.00  0.00     0.048 A 
ATOM      4  C3  UNL d   1       4.170   3.471   5.578  0.00  0.00     0.023 A 
ATOM      5  C4  UNL d   1       5.473   3.780   5.971  0.00  0.00     0.048 A 
ATOM      6  C5  UNL d   1       5.999   5.042   5.687  0.00  0.00     0.003 A 
ATOM      7  I   UNL d   1       3.382   1.594   5.997  0.00  0.00    -0.146 I 
ENDROOT
TORSDOF 0
ENDMDL
