MODEL 1
REMARK minimizedAffinity 23.7733936
REMARK minimizedRMSD -1
REMARK  0 active torsions:
REMARK  status: ('A' for Active; 'I' for Inactive)
ROOT
ATOM      1  C   UNL d   1      -1.529  -1.616  -1.700  0.00  0.00     0.023 A 
ATOM      2  C1  UNL d   1      -0.897  -1.474  -2.936  0.00  0.00     0.003 A 
ATOM      3  C2  UNL d   1       0.423  -1.024  -2.999  0.00  0.00     0.048 A 
ATOM      4  C3  UNL d   1       1.107  -0.719  -1.823  0.00  0.00     0.023 A 
ATOM      5  C4  UNL d   1       0.479  -0.860  -0.584  0.00  0.00     0.048 A 
ATOM      6  C5  UNL d   1      -0.841  -1.309  -0.526  0.00  0.00     0.003 A 
ATOM      7  I   UNL d   1       3.072  -0.049  -1.915  0.00  0.00    -0.146 I 
ENDROOT
TORSDOF 0
ENDMDL
