MODEL 1
REMARK minimizedAffinity 13.4772234
REMARK minimizedRMSD -1
REMARK  0 active torsions:
REMARK  status: ('A' for Active; 'I' for Inactive)
ROOT
ATOM      1  C   UNL d   1       5.998   3.869   5.583  0.00  0.00     0.023 A 
ATOM      2  C1  UNL d   1       4.869   3.103   5.874  0.00  0.00     0.003 A 
ATOM      3  C2  UNL d   1       3.617   3.713   5.973  0.00  0.00     0.048 A 
ATOM      4  C3  UNL d   1       3.500   5.089   5.779  0.00  0.00     0.023 A 
ATOM      5  C4  UNL d   1       4.628   5.860   5.487  0.00  0.00     0.048 A 
ATOM      6  C5  UNL d   1       5.878   5.245   5.391  0.00  0.00     0.003 A 
ATOM      7  I   UNL d   1       1.638   6.000   5.926  0.00  0.00    -0.146 I 
ENDROOT
TORSDOF 0
ENDMDL
