MODEL 1
REMARK minimizedAffinity 8.5534153
REMARK minimizedRMSD -1
REMARK  0 active torsions:
REMARK  status: ('A' for Active; 'I' for Inactive)
ROOT
ATOM      1  C   UNL d   1       5.962   4.030   5.906  0.00  0.00     0.023 A 
ATOM      2  C1  UNL d   1       4.845   3.193   5.892  0.00  0.00     0.003 A 
ATOM      3  C2  UNL d   1       3.561   3.741   5.888  0.00  0.00     0.048 A 
ATOM      4  C3  UNL d   1       3.400   5.126   5.898  0.00  0.00     0.023 A 
ATOM      5  C4  UNL d   1       4.514   5.967   5.912  0.00  0.00     0.048 A 
ATOM      6  C5  UNL d   1       5.796   5.415   5.916  0.00  0.00     0.003 A 
ATOM      7  I   UNL d   1       1.489   5.944   5.892  0.00  0.00    -0.146 I 
ENDROOT
TORSDOF 0
ENDMDL
