MODEL 1
REMARK minimizedAffinity 16.9280167
REMARK minimizedRMSD -1
REMARK  0 active torsions:
REMARK  status: ('A' for Active; 'I' for Inactive)
ROOT
ATOM      1  C   UNL d   1       3.161   2.992   0.131  0.00  0.00     0.023 A 
ATOM      2  C1  UNL d   1       2.620   2.326  -0.969  0.00  0.00     0.003 A 
ATOM      3  C2  UNL d   1       3.430   2.005  -2.061  0.00  0.00     0.048 A 
ATOM      4  C3  UNL d   1       4.780   2.353  -2.045  0.00  0.00     0.023 A 
ATOM      5  C4  UNL d   1       5.326   3.019  -0.947  0.00  0.00     0.048 A 
ATOM      6  C5  UNL d   1       4.512   3.338   0.142  0.00  0.00     0.003 A 
ATOM      7  I   UNL d   1       5.988   1.877  -3.668  0.00  0.00    -0.146 I 
ENDROOT
TORSDOF 0
ENDMDL
