MODEL 1
REMARK minimizedAffinity 3.28088403
REMARK minimizedRMSD -1
REMARK  0 active torsions:
REMARK  status: ('A' for Active; 'I' for Inactive)
ROOT
ATOM      1  C   UNL d   1       4.842   5.983   5.888  0.00  0.00     0.023 A 
ATOM      2  C1  UNL d   1       5.748   4.923   5.913  0.00  0.00     0.003 A 
ATOM      3  C2  UNL d   1       5.283   3.606   5.941  0.00  0.00     0.048 A 
ATOM      4  C3  UNL d   1       3.912   3.357   5.944  0.00  0.00     0.023 A 
ATOM      5  C4  UNL d   1       3.001   4.415   5.919  0.00  0.00     0.048 A 
ATOM      6  C5  UNL d   1       3.470   5.729   5.891  0.00  0.00     0.003 A 
ATOM      7  I   UNL d   1       3.218   1.398   5.986  0.00  0.00    -0.146 I 
ENDROOT
TORSDOF 0
ENDMDL
