MODEL 1
REMARK minimizedAffinity 10.6774769
REMARK minimizedRMSD -1
REMARK  0 active torsions:
REMARK  status: ('A' for Active; 'I' for Inactive)
ROOT
ATOM      1  C   UNL d   1       4.025   5.973   6.000  0.00  0.00     0.023 A 
ATOM      2  C1  UNL d   1       3.201   5.069   5.328  0.00  0.00     0.003 A 
ATOM      3  C2  UNL d   1       3.763   4.059   4.545  0.00  0.00     0.048 A 
ATOM      4  C3  UNL d   1       5.149   3.957   4.439  0.00  0.00     0.023 A 
ATOM      5  C4  UNL d   1       5.978   4.858   5.110  0.00  0.00     0.048 A 
ATOM      6  C5  UNL d   1       5.412   5.867   5.891  0.00  0.00     0.003 A 
ATOM      7  I   UNL d   1       5.988   2.453   3.275  0.00  0.00    -0.146 I 
ENDROOT
TORSDOF 0
ENDMDL
