MODEL 1
REMARK minimizedAffinity 7.33612204
REMARK minimizedRMSD -1
REMARK  0 active torsions:
REMARK  status: ('A' for Active; 'I' for Inactive)
ROOT
ATOM      1  C   UNL d   1       4.701   5.865   5.994  0.00  0.00     0.023 A 
ATOM      2  C1  UNL d   1       5.823   5.037   5.977  0.00  0.00     0.003 A 
ATOM      3  C2  UNL d   1       5.668   3.649   5.947  0.00  0.00     0.048 A 
ATOM      4  C3  UNL d   1       4.388   3.097   5.932  0.00  0.00     0.023 A 
ATOM      5  C4  UNL d   1       3.262   3.922   5.947  0.00  0.00     0.048 A 
ATOM      6  C5  UNL d   1       3.422   5.309   5.979  0.00  0.00     0.003 A 
ATOM      7  I   UNL d   1       4.154   1.032   5.886  0.00  0.00    -0.146 I 
ENDROOT
TORSDOF 0
ENDMDL
