MODEL 1
REMARK minimizedAffinity 3.45697165
REMARK minimizedRMSD -1
REMARK  0 active torsions:
REMARK  status: ('A' for Active; 'I' for Inactive)
ROOT
ATOM      1  C   UNL d   1       4.863   5.984   5.821  0.00  0.00     0.023 A 
ATOM      2  C1  UNL d   1       3.506   5.686   5.947  0.00  0.00     0.003 A 
ATOM      3  C2  UNL d   1       3.084   4.355   5.997  0.00  0.00     0.048 A 
ATOM      4  C3  UNL d   1       4.024   3.328   5.920  0.00  0.00     0.023 A 
ATOM      5  C4  UNL d   1       5.383   3.622   5.795  0.00  0.00     0.048 A 
ATOM      6  C5  UNL d   1       5.800   4.953   5.745  0.00  0.00     0.003 A 
ATOM      7  I   UNL d   1       3.398   1.348   5.994  0.00  0.00    -0.146 I 
ENDROOT
TORSDOF 0
ENDMDL
