MODEL 1
REMARK minimizedAffinity 3.1459012
REMARK minimizedRMSD -1
REMARK  0 active torsions:
REMARK  status: ('A' for Active; 'I' for Inactive)
ROOT
ATOM      1  C   UNL d   1       5.992   3.696   5.863  0.00  0.00     0.023 A 
ATOM      2  C1  UNL d   1       5.948   5.087   5.964  0.00  0.00     0.003 A 
ATOM      3  C2  UNL d   1       4.719   5.748   5.998  0.00  0.00     0.048 A 
ATOM      4  C3  UNL d   1       3.536   5.012   5.932  0.00  0.00     0.023 A 
ATOM      5  C4  UNL d   1       3.574   3.620   5.832  0.00  0.00     0.048 A 
ATOM      6  C5  UNL d   1       4.806   2.964   5.797  0.00  0.00     0.003 A 
ATOM      7  I   UNL d   1       1.705   5.994   5.983  0.00  0.00    -0.146 I 
ENDROOT
TORSDOF 0
ENDMDL
