MODEL 1
REMARK minimizedAffinity 2.67962503
REMARK minimizedRMSD -1
REMARK  0 active torsions:
REMARK  status: ('A' for Active; 'I' for Inactive)
ROOT
ATOM      1  C   UNL d   1       5.907   3.952   5.756  0.00  0.00     0.023 A 
ATOM      2  C1  UNL d   1       4.768   3.150   5.826  0.00  0.00     0.003 A 
ATOM      3  C2  UNL d   1       3.503   3.735   5.897  0.00  0.00     0.048 A 
ATOM      4  C3  UNL d   1       3.383   5.125   5.895  0.00  0.00     0.023 A 
ATOM      5  C4  UNL d   1       4.520   5.932   5.824  0.00  0.00     0.048 A 
ATOM      6  C5  UNL d   1       5.783   5.342   5.755  0.00  0.00     0.003 A 
ATOM      7  I   UNL d   1       1.501   5.999   6.000  0.00  0.00    -0.146 I 
ENDROOT
TORSDOF 0
ENDMDL
