MODEL 1
REMARK minimizedAffinity 8.15649986
REMARK minimizedRMSD -1
REMARK  0 active torsions:
REMARK  status: ('A' for Active; 'I' for Inactive)
ROOT
ATOM      1  C   UNL d   1      -0.843  -1.786   0.180  0.00  0.00     0.023 A 
ATOM      2  C1  UNL d   1      -1.054  -2.911   0.978  0.00  0.00     0.003 A 
ATOM      3  C2  UNL d   1      -2.314  -3.151   1.528  0.00  0.00     0.048 A 
ATOM      4  C3  UNL d   1      -3.359  -2.263   1.277  0.00  0.00     0.023 A 
ATOM      5  C4  UNL d   1      -3.153  -1.136   0.479  0.00  0.00     0.048 A 
ATOM      6  C5  UNL d   1      -1.891  -0.900  -0.069  0.00  0.00     0.003 A 
ATOM      7  I   UNL d   1      -5.236  -2.619   2.095  0.00  0.00    -0.146 I 
ENDROOT
TORSDOF 0
ENDMDL
