MODEL 1
REMARK minimizedAffinity 16.7933846
REMARK minimizedRMSD -1
REMARK  0 active torsions:
REMARK  status: ('A' for Active; 'I' for Inactive)
ROOT
ATOM      1  C   UNL d   1      -2.295  -0.811  -0.800  0.00  0.00     0.023 A 
ATOM      2  C1  UNL d   1      -2.157  -1.948  -0.004  0.00  0.00     0.003 A 
ATOM      3  C2  UNL d   1      -3.218  -2.374   0.797  0.00  0.00     0.048 A 
ATOM      4  C3  UNL d   1      -4.415  -1.659   0.798  0.00  0.00     0.023 A 
ATOM      5  C4  UNL d   1      -4.558  -0.521   0.002  0.00  0.00     0.048 A 
ATOM      6  C5  UNL d   1      -3.494  -0.098  -0.797  0.00  0.00     0.003 A 
ATOM      7  I   UNL d   1      -5.995  -2.291   1.990  0.00  0.00    -0.146 I 
ENDROOT
TORSDOF 0
ENDMDL
