MODEL 1
REMARK minimizedAffinity 2.56243086
REMARK minimizedRMSD -1
REMARK  0 active torsions:
REMARK  status: ('A' for Active; 'I' for Inactive)
ROOT
ATOM      1  C   UNL d   1       5.056   5.999   5.884  0.00  0.00     0.023 A 
ATOM      2  C1  UNL d   1       3.695   5.697   5.919  0.00  0.00     0.003 A 
ATOM      3  C2  UNL d   1       3.275   4.366   5.952  0.00  0.00     0.048 A 
ATOM      4  C3  UNL d   1       4.221   3.342   5.951  0.00  0.00     0.023 A 
ATOM      5  C4  UNL d   1       5.584   3.640   5.917  0.00  0.00     0.048 A 
ATOM      6  C5  UNL d   1       6.000   4.972   5.883  0.00  0.00     0.003 A 
ATOM      7  I   UNL d   1       3.598   1.360   6.000  0.00  0.00    -0.146 I 
ENDROOT
TORSDOF 0
ENDMDL
