MODEL 1
REMARK minimizedAffinity 13.4371338
REMARK minimizedRMSD -1
REMARK  0 active torsions:
REMARK  status: ('A' for Active; 'I' for Inactive)
ROOT
ATOM      1  C   UNL d   1       5.093   5.893   5.886  0.00  0.00     0.023 A 
ATOM      2  C1  UNL d   1       5.715   4.645   5.848  0.00  0.00     0.003 A 
ATOM      3  C2  UNL d   1       4.948   3.479   5.881  0.00  0.00     0.048 A 
ATOM      4  C3  UNL d   1       3.558   3.568   5.951  0.00  0.00     0.023 A 
ATOM      5  C4  UNL d   1       2.930   4.814   5.989  0.00  0.00     0.048 A 
ATOM      6  C5  UNL d   1       3.702   5.977   5.957  0.00  0.00     0.003 A 
ATOM      7  I   UNL d   1       2.414   1.834   6.000  0.00  0.00    -0.146 I 
ENDROOT
TORSDOF 0
ENDMDL
