MODEL 1
REMARK minimizedAffinity 7.51778555
REMARK minimizedRMSD -1
REMARK  0 active torsions:
REMARK  status: ('A' for Active; 'I' for Inactive)
ROOT
ATOM      1  C   UNL d   1       5.793   3.759   5.481  0.00  0.00     0.023 A 
ATOM      2  C1  UNL d   1       5.743   5.146   5.621  0.00  0.00     0.003 A 
ATOM      3  C2  UNL d   1       4.513   5.791   5.768  0.00  0.00     0.048 A 
ATOM      4  C3  UNL d   1       3.337   5.042   5.775  0.00  0.00     0.023 A 
ATOM      5  C4  UNL d   1       3.382   3.654   5.636  0.00  0.00     0.048 A 
ATOM      6  C5  UNL d   1       4.614   3.014   5.488  0.00  0.00     0.003 A 
ATOM      7  I   UNL d   1       1.505   5.999   5.994  0.00  0.00    -0.146 I 
ENDROOT
TORSDOF 0
ENDMDL
