MODEL 1
REMARK minimizedAffinity -1.4699465
REMARK minimizedRMSD -1
REMARK  0 active torsions:
REMARK  status: ('A' for Active; 'I' for Inactive)
ROOT
ATOM      1  C   UNL d   1      -0.358  -0.400   2.956  0.00  0.00     0.020 A 
ATOM      2  C1  UNL d   1      -0.833  -1.537   2.304  0.00  0.00     0.020 A 
ATOM      3  C2  UNL d   1      -0.487  -1.773   0.972  0.00  0.00     0.034 A 
ATOM      4  C3  UNL d   1       0.335  -0.870   0.287  0.00  0.00     0.017 A 
ATOM      5  C4  UNL d   1       0.811   0.271   0.943  0.00  0.00     0.017 A 
ATOM      6  C5  UNL d   1       0.461   0.502   2.277  0.00  0.00     0.034 A 
ATOM      7 Cl   UNL d   1       1.829   1.431   0.165  0.00  0.00    -0.070 Cl
ATOM      8 Cl1  UNL d   1       0.723  -1.225  -1.359  0.00  0.00    -0.070 Cl
ENDROOT
TORSDOF 0
ENDMDL
