MODEL 1
REMARK minimizedAffinity -4.32194185
REMARK minimizedRMSD -1
REMARK  0 active torsions:
REMARK  status: ('A' for Active; 'I' for Inactive)
ROOT
ATOM      1  C   UNL d   1      -0.375  -0.353   2.929  0.00  0.00     0.020 A 
ATOM      2  C1  UNL d   1      -1.227  -1.042   2.066  0.00  0.00     0.020 A 
ATOM      3  C2  UNL d   1      -1.077  -0.909   0.684  0.00  0.00     0.034 A 
ATOM      4  C3  UNL d   1      -0.073  -0.086   0.161  0.00  0.00     0.017 A 
ATOM      5  C4  UNL d   1       0.782   0.605   1.028  0.00  0.00     0.017 A 
ATOM      6  C5  UNL d   1       0.627   0.468   2.411  0.00  0.00     0.034 A 
ATOM      7 Cl   UNL d   1       2.044   1.638   0.457  0.00  0.00    -0.070 Cl
ATOM      8 Cl1  UNL d   1       0.055   0.031  -1.558  0.00  0.00    -0.070 Cl
ENDROOT
TORSDOF 0
ENDMDL
