MODEL 1
REMARK minimizedAffinity -2.41358137
REMARK minimizedRMSD -1
REMARK  0 active torsions:
REMARK  status: ('A' for Active; 'I' for Inactive)
ROOT
ATOM      1  C   UNL d   1       1.154   0.137  -0.524  0.00  0.00     0.020 A 
ATOM      2  C1  UNL d   1       0.146   0.344  -1.464  0.00  0.00     0.020 A 
ATOM      3  C2  UNL d   1      -1.191   0.151  -1.108  0.00  0.00     0.034 A 
ATOM      4  C3  UNL d   1      -1.522  -0.251   0.191  0.00  0.00     0.017 A 
ATOM      5  C4  UNL d   1      -0.509  -0.459   1.134  0.00  0.00     0.017 A 
ATOM      6  C5  UNL d   1       0.827  -0.264   0.772  0.00  0.00     0.034 A 
ATOM      7 Cl   UNL d   1      -0.840  -0.956   2.756  0.00  0.00    -0.070 Cl
ATOM      8 Cl1  UNL d   1      -3.196  -0.471   0.561  0.00  0.00    -0.070 Cl
ENDROOT
TORSDOF 0
ENDMDL
