MODEL 1
REMARK minimizedAffinity -0.726815999
REMARK minimizedRMSD -1
REMARK  0 active torsions:
REMARK  status: ('A' for Active; 'I' for Inactive)
ROOT
ATOM      1  C   UNL d   1       0.378  -0.133  -1.343  0.00  0.00     0.020 A 
ATOM      2  C1  UNL d   1       1.277  -0.378  -0.306  0.00  0.00     0.020 A 
ATOM      3  C2  UNL d   1       0.808  -0.557   0.997  0.00  0.00     0.034 A 
ATOM      4  C3  UNL d   1      -0.564  -0.490   1.267  0.00  0.00     0.017 A 
ATOM      5  C4  UNL d   1      -1.465  -0.244   0.225  0.00  0.00     0.017 A 
ATOM      6  C5  UNL d   1      -0.990  -0.066  -1.077  0.00  0.00     0.034 A 
ATOM      7 Cl   UNL d   1      -3.172  -0.148   0.480  0.00  0.00    -0.070 Cl
ATOM      8 Cl1  UNL d   1      -1.073  -0.721   2.902  0.00  0.00    -0.070 Cl
ENDROOT
TORSDOF 0
ENDMDL
