MODEL 1
REMARK minimizedAffinity -3.80681205
REMARK minimizedRMSD -1
REMARK  0 active torsions:
REMARK  status: ('A' for Active; 'I' for Inactive)
ROOT
ATOM      1  C   UNL d   1       0.154   0.485  -0.954  0.00  0.00     0.020 A 
ATOM      2  C1  UNL d   1       1.150   0.408   0.018  0.00  0.00     0.020 A 
ATOM      3  C2  UNL d   1       0.835  -0.025   1.308  0.00  0.00     0.034 A 
ATOM      4  C3  UNL d   1      -0.480  -0.382   1.629  0.00  0.00     0.017 A 
ATOM      5  C4  UNL d   1      -1.479  -0.305   0.652  0.00  0.00     0.017 A 
ATOM      6  C5  UNL d   1      -1.158   0.129  -0.638  0.00  0.00     0.034 A 
ATOM      7 Cl   UNL d   1      -3.124  -0.728   0.973  0.00  0.00    -0.070 Cl
ATOM      8 Cl1  UNL d   1      -0.798  -0.909   3.243  0.00  0.00    -0.070 Cl
ENDROOT
TORSDOF 0
ENDMDL
