MODEL 1
REMARK minimizedAffinity -5.86599874
REMARK minimizedRMSD -1
REMARK  0 active torsions:
REMARK  status: ('A' for Active; 'I' for Inactive)
ROOT
ATOM      1  C   UNL d   1      -2.143  -0.103   2.810  0.00  0.00     0.020 A 
ATOM      2  C1  UNL d   1      -3.004   0.002   1.718  0.00  0.00     0.020 A 
ATOM      3  C2  UNL d   1      -2.485   0.213   0.439  0.00  0.00     0.034 A 
ATOM      4  C3  UNL d   1      -1.103   0.322   0.249  0.00  0.00     0.017 A 
ATOM      5  C4  UNL d   1      -0.240   0.217   1.346  0.00  0.00     0.017 A 
ATOM      6  C5  UNL d   1      -0.765   0.005   2.624  0.00  0.00     0.034 A 
ATOM      7 Cl   UNL d   1       1.477   0.340   1.190  0.00  0.00    -0.070 Cl
ATOM      8 Cl1  UNL d   1      -0.531   0.583  -1.361  0.00  0.00    -0.070 Cl
ENDROOT
TORSDOF 0
ENDMDL
