MODEL 1
REMARK minimizedAffinity -4.8048315
REMARK minimizedRMSD -1
REMARK  0 active torsions:
REMARK  status: ('A' for Active; 'I' for Inactive)
ROOT
ATOM      1  C   UNL d   1      -0.134   0.943  -0.845  0.00  0.00     0.020 A 
ATOM      2  C1  UNL d   1      -1.401   0.536  -0.429  0.00  0.00     0.020 A 
ATOM      3  C2  UNL d   1      -1.582   0.022   0.857  0.00  0.00     0.034 A 
ATOM      4  C3  UNL d   1      -0.494  -0.086   1.731  0.00  0.00     0.017 A 
ATOM      5  C4  UNL d   1       0.777   0.323   1.313  0.00  0.00     0.017 A 
ATOM      6  C5  UNL d   1       0.953   0.836   0.024  0.00  0.00     0.034 A 
ATOM      7 Cl   UNL d   1       2.167   0.219   2.335  0.00  0.00    -0.070 Cl
ATOM      8 Cl1  UNL d   1      -0.791  -0.730   3.307  0.00  0.00    -0.070 Cl
ENDROOT
TORSDOF 0
ENDMDL
