MODEL 1
REMARK minimizedAffinity -4.74661636
REMARK minimizedRMSD -1
REMARK  0 active torsions:
REMARK  status: ('A' for Active; 'I' for Inactive)
ROOT
ATOM      1  C   UNL d   1      -0.607  -0.625   2.694  0.00  0.00     0.020 A 
ATOM      2  C1  UNL d   1      -1.413  -1.009   1.623  0.00  0.00     0.020 A 
ATOM      3  C2  UNL d   1      -0.981  -0.791   0.312  0.00  0.00     0.034 A 
ATOM      4  C3  UNL d   1       0.258  -0.189   0.070  0.00  0.00     0.017 A 
ATOM      5  C4  UNL d   1       1.066   0.196   1.147  0.00  0.00     0.017 A 
ATOM      6  C5  UNL d   1       0.629  -0.024   2.457  0.00  0.00     0.034 A 
ATOM      7 Cl   UNL d   1       2.608   0.945   0.927  0.00  0.00    -0.070 Cl
ATOM      8 Cl1  UNL d   1       0.728   0.049  -1.575  0.00  0.00    -0.070 Cl
ENDROOT
TORSDOF 0
ENDMDL
