MODEL 1
REMARK minimizedAffinity -4.95721149
REMARK minimizedRMSD -1
REMARK  0 active torsions:
REMARK  status: ('A' for Active; 'I' for Inactive)
ROOT
ATOM      1  C   UNL d   1      -2.012  -0.127   2.860  0.00  0.00     0.020 A 
ATOM      2  C1  UNL d   1      -2.917  -0.045   1.803  0.00  0.00     0.020 A 
ATOM      3  C2  UNL d   1      -2.456   0.183   0.505  0.00  0.00     0.034 A 
ATOM      4  C3  UNL d   1      -1.086   0.329   0.260  0.00  0.00     0.017 A 
ATOM      5  C4  UNL d   1      -0.178   0.246   1.322  0.00  0.00     0.017 A 
ATOM      6  C5  UNL d   1      -0.645   0.018   2.620  0.00  0.00     0.034 A 
ATOM      7 Cl   UNL d   1       1.528   0.415   1.098  0.00  0.00    -0.070 Cl
ATOM      8 Cl1  UNL d   1      -0.586   0.608  -1.370  0.00  0.00    -0.070 Cl
ENDROOT
TORSDOF 0
ENDMDL
