MODEL 1
REMARK minimizedAffinity -3.28248119
REMARK minimizedRMSD -1
REMARK  0 active torsions:
REMARK  status: ('A' for Active; 'I' for Inactive)
ROOT
ATOM      1  C   UNL d   1       1.592   0.216  -0.593  0.00  0.00     0.020 A 
ATOM      2  C1  UNL d   1       0.573   0.375  -1.531  0.00  0.00     0.020 A 
ATOM      3  C2  UNL d   1      -0.762   0.260  -1.137  0.00  0.00     0.034 A 
ATOM      4  C3  UNL d   1      -1.082  -0.016   0.197  0.00  0.00     0.017 A 
ATOM      5  C4  UNL d   1      -0.058  -0.176   1.138  0.00  0.00     0.017 A 
ATOM      6  C5  UNL d   1       1.277  -0.059   0.739  0.00  0.00     0.034 A 
ATOM      7 Cl   UNL d   1      -0.373  -0.517   2.802  0.00  0.00    -0.070 Cl
ATOM      8 Cl1  UNL d   1      -2.754  -0.145   0.613  0.00  0.00    -0.070 Cl
ENDROOT
TORSDOF 0
ENDMDL
