MODEL 1
REMARK minimizedAffinity -2.8589921
REMARK minimizedRMSD -1
REMARK  0 active torsions:
REMARK  status: ('A' for Active; 'I' for Inactive)
ROOT
ATOM      1  C   UNL d   1       0.823   0.351  -0.665  0.00  0.00     0.020 A 
ATOM      2  C1  UNL d   1       1.584   0.275   0.501  0.00  0.00     0.020 A 
ATOM      3  C2  UNL d   1       0.964   0.001   1.722  0.00  0.00     0.034 A 
ATOM      4  C3  UNL d   1      -0.420  -0.198   1.780  0.00  0.00     0.017 A 
ATOM      5  C4  UNL d   1      -1.183  -0.121   0.609  0.00  0.00     0.017 A 
ATOM      6  C5  UNL d   1      -0.557   0.153  -0.611  0.00  0.00     0.034 A 
ATOM      7 Cl   UNL d   1      -2.895  -0.355   0.601  0.00  0.00    -0.070 Cl
ATOM      8 Cl1  UNL d   1      -1.120  -0.533   3.324  0.00  0.00    -0.070 Cl
ENDROOT
TORSDOF 0
ENDMDL
