MODEL 1
REMARK minimizedAffinity -4.19489384
REMARK minimizedRMSD -1
REMARK  0 active torsions:
REMARK  status: ('A' for Active; 'I' for Inactive)
ROOT
ATOM      1  C   UNL d   1       0.348  -0.585   2.409  0.00  0.00     0.020 A 
ATOM      2  C1  UNL d   1       1.365  -0.370   1.479  0.00  0.00     0.020 A 
ATOM      3  C2  UNL d   1       1.046  -0.044   0.159  0.00  0.00     0.034 A 
ATOM      4  C3  UNL d   1      -0.293   0.068  -0.234  0.00  0.00     0.017 A 
ATOM      5  C4  UNL d   1      -1.312  -0.148   0.700  0.00  0.00     0.017 A 
ATOM      6  C5  UNL d   1      -0.987  -0.474   2.020  0.00  0.00     0.034 A 
ATOM      7 Cl   UNL d   1      -2.987  -0.027   0.289  0.00  0.00    -0.070 Cl
ATOM      8 Cl1  UNL d   1      -0.614   0.475  -1.883  0.00  0.00    -0.070 Cl
ENDROOT
TORSDOF 0
ENDMDL
