MODEL 1
REMARK minimizedAffinity -0.195329934
REMARK minimizedRMSD -1
REMARK  0 active torsions:
REMARK  status: ('A' for Active; 'I' for Inactive)
ROOT
ATOM      1  C   UNL d   1       2.331  -2.131  -4.016  0.00  0.00     0.020 A 
ATOM      2  C1  UNL d   1       2.416  -0.764  -4.278  0.00  0.00     0.020 A 
ATOM      3  C2  UNL d   1       1.530   0.121  -3.659  0.00  0.00     0.034 A 
ATOM      4  C3  UNL d   1       0.556  -0.359  -2.776  0.00  0.00     0.017 A 
ATOM      5  C4  UNL d   1       0.472  -1.732  -2.515  0.00  0.00     0.017 A 
ATOM      6  C5  UNL d   1       1.362  -2.614  -3.137  0.00  0.00     0.034 A 
ATOM      7 Cl   UNL d   1      -0.703  -2.400  -1.437  0.00  0.00    -0.070 Cl
ATOM      8 Cl1  UNL d   1      -0.505   0.792  -2.047  0.00  0.00    -0.070 Cl
ENDROOT
TORSDOF 0
ENDMDL
