MODEL 1
REMARK minimizedAffinity -4.56306601
REMARK minimizedRMSD -1
REMARK  0 active torsions:
REMARK  status: ('A' for Active; 'I' for Inactive)
ROOT
ATOM      1  C   UNL d   1      -1.034  -0.481   2.699  0.00  0.00     0.020 A 
ATOM      2  C1  UNL d   1      -1.978  -0.791   1.720  0.00  0.00     0.020 A 
ATOM      3  C2  UNL d   1      -1.697  -0.541   0.376  0.00  0.00     0.034 A 
ATOM      4  C3  UNL d   1      -0.470   0.022   0.005  0.00  0.00     0.017 A 
ATOM      5  C4  UNL d   1       0.476   0.334   0.988  0.00  0.00     0.017 A 
ATOM      6  C5  UNL d   1       0.190   0.080   2.333  0.00  0.00     0.034 A 
ATOM      7 Cl   UNL d   1       2.012   1.030   0.609  0.00  0.00    -0.070 Cl
ATOM      8 Cl1  UNL d   1      -0.191   0.305  -1.676  0.00  0.00    -0.070 Cl
ENDROOT
TORSDOF 0
ENDMDL
