MODEL 1
REMARK minimizedAffinity -4.45265007
REMARK minimizedRMSD -1
REMARK  0 active torsions:
REMARK  status: ('A' for Active; 'I' for Inactive)
ROOT
ATOM      1  C   UNL d   1       0.753   0.059   1.691  0.00  0.00     0.020 A 
ATOM      2  C1  UNL d   1      -0.201  -0.274   2.652  0.00  0.00     0.020 A 
ATOM      3  C2  UNL d   1      -1.556  -0.293   2.313  0.00  0.00     0.034 A 
ATOM      4  C3  UNL d   1      -1.960   0.021   1.010  0.00  0.00     0.017 A 
ATOM      5  C4  UNL d   1      -1.001   0.354   0.046  0.00  0.00     0.017 A 
ATOM      6  C5  UNL d   1       0.354   0.372   0.391  0.00  0.00     0.034 A 
ATOM      7 Cl   UNL d   1      -1.424   0.753  -1.582  0.00  0.00    -0.070 Cl
ATOM      8 Cl1  UNL d   1      -3.652  -0.024   0.661  0.00  0.00    -0.070 Cl
ENDROOT
TORSDOF 0
ENDMDL
