MODEL 1
REMARK minimizedAffinity 3.99703646
REMARK minimizedRMSD -1
REMARK  0 active torsions:
REMARK  status: ('A' for Active; 'I' for Inactive)
ROOT
ATOM      1  C   UNL d   1       1.777  -0.634  -1.651  0.00  0.00     0.077 C 
ATOM      2  C1  UNL d   1       3.042   0.163  -1.538  0.00  0.00    -0.074 A 
ATOM      3  C2  UNL d   1       3.811   0.455  -2.669  0.00  0.00    -0.005 A 
ATOM      4  C3  UNL d   1       4.981   1.206  -2.550  0.00  0.00     0.006 A 
ATOM      5  C4  UNL d   1       5.392   1.671  -1.300  0.00  0.00    -0.005 A 
ATOM      6  C5  UNL d   1       4.636   1.389  -0.158  0.00  0.00    -0.074 A 
ATOM      7  C6  UNL d   1       5.059   1.890   1.191  0.00  0.00     0.077 C 
ATOM      8  C7  UNL d   1       3.458   0.641  -0.288  0.00  0.00    -0.001 A 
ENDROOT
TORSDOF 0
ENDMDL
