MODEL 1
REMARK minimizedAffinity 6.79489088
REMARK minimizedRMSD -1
REMARK  0 active torsions:
REMARK  status: ('A' for Active; 'I' for Inactive)
ROOT
ATOM      1  C   UNL d   1      -5.893   3.379  -4.413  0.00  0.00     0.077 C 
ATOM      2  C1  UNL d   1      -5.272   2.064  -4.044  0.00  0.00    -0.074 A 
ATOM      3  C2  UNL d   1      -5.999   0.874  -4.142  0.00  0.00    -0.005 A 
ATOM      4  C3  UNL d   1      -5.405  -0.343  -3.805  0.00  0.00     0.006 A 
ATOM      5  C4  UNL d   1      -4.081  -0.380  -3.368  0.00  0.00    -0.005 A 
ATOM      6  C5  UNL d   1      -3.338   0.800  -3.265  0.00  0.00    -0.074 A 
ATOM      7  C6  UNL d   1      -1.910   0.776  -2.807  0.00  0.00     0.077 C 
ATOM      8  C7  UNL d   1      -3.939   2.017  -3.612  0.00  0.00    -0.001 A 
ENDROOT
TORSDOF 0
ENDMDL
