MODEL 1
REMARK minimizedAffinity 8.75809765
REMARK minimizedRMSD -1
REMARK  0 active torsions:
REMARK  status: ('A' for Active; 'I' for Inactive)
ROOT
ATOM      1  C   UNL d   1       4.524   5.004   5.996  0.00  0.00     0.077 C 
ATOM      2  C1  UNL d   1       3.977   4.481   4.701  0.00  0.00    -0.074 A 
ATOM      3  C2  UNL d   1       4.610   4.766   3.487  0.00  0.00    -0.005 A 
ATOM      4  C3  UNL d   1       4.095   4.265   2.291  0.00  0.00     0.006 A 
ATOM      5  C4  UNL d   1       2.944   3.476   2.298  0.00  0.00    -0.005 A 
ATOM      6  C5  UNL d   1       2.298   3.181   3.502  0.00  0.00    -0.074 A 
ATOM      7  C6  UNL d   1       1.065   2.326   3.528  0.00  0.00     0.077 C 
ATOM      8  C7  UNL d   1       2.826   3.682   4.700  0.00  0.00    -0.001 A 
ENDROOT
TORSDOF 0
ENDMDL
