MODEL 1
REMARK minimizedAffinity 10.1934347
REMARK minimizedRMSD -1
REMARK  0 active torsions:
REMARK  status: ('A' for Active; 'I' for Inactive)
ROOT
ATOM      1  C   UNL d   1       2.238   0.227  -0.430  0.00  0.00     0.077 C 
ATOM      2  C1  UNL d   1       3.277   0.298  -1.509  0.00  0.00    -0.074 A 
ATOM      3  C2  UNL d   1       3.403  -0.726  -2.454  0.00  0.00    -0.005 A 
ATOM      4  C3  UNL d   1       4.368  -0.641  -3.457  0.00  0.00     0.006 A 
ATOM      5  C4  UNL d   1       5.216   0.465  -3.526  0.00  0.00    -0.005 A 
ATOM      6  C5  UNL d   1       5.104   1.499  -2.590  0.00  0.00    -0.074 A 
ATOM      7  C6  UNL d   1       6.000   2.700  -2.656  0.00  0.00     0.077 C 
ATOM      8  C7  UNL d   1       4.127   1.410  -1.589  0.00  0.00    -0.001 A 
ENDROOT
TORSDOF 0
ENDMDL
