MODEL 1
REMARK minimizedAffinity 2.69630766
REMARK minimizedRMSD -1
REMARK  0 active torsions:
REMARK  status: ('A' for Active; 'I' for Inactive)
ROOT
ATOM      1  C   UNL d   1       4.882   4.888   6.000  0.00  0.00     0.077 C 
ATOM      2  C1  UNL d   1       3.888   4.061   5.240  0.00  0.00    -0.074 A 
ATOM      3  C2  UNL d   1       3.958   3.953   3.847  0.00  0.00    -0.005 A 
ATOM      4  C3  UNL d   1       3.033   3.172   3.155  0.00  0.00     0.006 A 
ATOM      5  C4  UNL d   1       2.030   2.492   3.847  0.00  0.00    -0.005 A 
ATOM      6  C5  UNL d   1       1.945   2.587   5.240  0.00  0.00    -0.074 A 
ATOM      7  C6  UNL d   1       0.880   1.855   6.000  0.00  0.00     0.077 C 
ATOM      8  C7  UNL d   1       2.883   3.368   5.929  0.00  0.00    -0.001 A 
ENDROOT
TORSDOF 0
ENDMDL
