MODEL 1
REMARK minimizedAffinity 3.61523604
REMARK minimizedRMSD -1
REMARK  0 active torsions:
REMARK  status: ('A' for Active; 'I' for Inactive)
ROOT
ATOM      1  C   UNL d   1       5.996   1.619  -0.619  0.00  0.00     0.077 C 
ATOM      2  C1  UNL d   1       4.852   0.771  -1.090  0.00  0.00    -0.074 A 
ATOM      3  C2  UNL d   1       3.714   0.595  -0.296  0.00  0.00    -0.005 A 
ATOM      4  C3  UNL d   1       2.654  -0.189  -0.751  0.00  0.00     0.006 A 
ATOM      5  C4  UNL d   1       2.721  -0.803  -2.002  0.00  0.00    -0.005 A 
ATOM      6  C5  UNL d   1       3.850  -0.638  -2.810  0.00  0.00    -0.074 A 
ATOM      7  C6  UNL d   1       3.934  -1.283  -4.162  0.00  0.00     0.077 C 
ATOM      8  C7  UNL d   1       4.909   0.157  -2.349  0.00  0.00    -0.001 A 
ENDROOT
TORSDOF 0
ENDMDL
