MODEL 1
REMARK minimizedAffinity 7.8177433
REMARK minimizedRMSD -1
REMARK  0 active torsions:
REMARK  status: ('A' for Active; 'I' for Inactive)
ROOT
ATOM      1  C   UNL d   1       6.000   2.083  -2.784  0.00  0.00     0.077 C 
ATOM      2  C1  UNL d   1       4.921   1.148  -2.323  0.00  0.00    -0.074 A 
ATOM      3  C2  UNL d   1       4.259   0.312  -3.228  0.00  0.00    -0.005 A 
ATOM      4  C3  UNL d   1       3.265  -0.559  -2.783  0.00  0.00     0.006 A 
ATOM      5  C4  UNL d   1       2.922  -0.602  -1.431  0.00  0.00    -0.005 A 
ATOM      6  C5  UNL d   1       3.573   0.226  -0.511  0.00  0.00    -0.074 A 
ATOM      7  C6  UNL d   1       3.223   0.186   0.947  0.00  0.00     0.077 C 
ATOM      8  C7  UNL d   1       4.576   1.094  -0.965  0.00  0.00    -0.001 A 
ENDROOT
TORSDOF 0
ENDMDL
