MODEL 1
REMARK minimizedAffinity -0.189613387
REMARK minimizedRMSD -1
REMARK  0 active torsions:
REMARK  status: ('A' for Active; 'I' for Inactive)
ROOT
ATOM      1  C   UNL d   1      -5.294   1.121   0.757  0.00  0.00     0.077 C 
ATOM      2  C1  UNL d   1      -3.990   1.847   0.907  0.00  0.00    -0.074 A 
ATOM      3  C2  UNL d   1      -3.733   2.639   2.030  0.00  0.00    -0.005 A 
ATOM      4  C3  UNL d   1      -2.512   3.300   2.160  0.00  0.00     0.006 A 
ATOM      5  C4  UNL d   1      -1.537   3.176   1.169  0.00  0.00    -0.005 A 
ATOM      6  C5  UNL d   1      -1.776   2.388   0.039  0.00  0.00    -0.074 A 
ATOM      7  C6  UNL d   1      -0.735   2.236  -1.030  0.00  0.00     0.077 C 
ATOM      8  C7  UNL d   1      -3.003   1.721  -0.080  0.00  0.00    -0.001 A 
ENDROOT
TORSDOF 0
ENDMDL
