MODEL 1
REMARK minimizedAffinity 6.99151516
REMARK minimizedRMSD -1
REMARK  0 active torsions:
REMARK  status: ('A' for Active; 'I' for Inactive)
ROOT
ATOM      1  C   UNL d   1       3.912  -1.679   0.804  0.00  0.00     0.077 C 
ATOM      2  C1  UNL d   1       2.544  -1.709   0.190  0.00  0.00    -0.074 A 
ATOM      3  C2  UNL d   1       2.317  -2.356  -1.029  0.00  0.00    -0.005 A 
ATOM      4  C3  UNL d   1       1.037  -2.385  -1.583  0.00  0.00     0.006 A 
ATOM      5  C4  UNL d   1      -0.027  -1.767  -0.924  0.00  0.00    -0.005 A 
ATOM      6  C5  UNL d   1       0.181  -1.116   0.296  0.00  0.00    -0.074 A 
ATOM      7  C6  UNL d   1      -0.954  -0.456   1.021  0.00  0.00     0.077 C 
ATOM      8  C7  UNL d   1       1.468  -1.098   0.849  0.00  0.00    -0.001 A 
ENDROOT
TORSDOF 0
ENDMDL
