MODEL 1
REMARK minimizedAffinity 2.46853971
REMARK minimizedRMSD -1
REMARK  0 active torsions:
REMARK  status: ('A' for Active; 'I' for Inactive)
ROOT
ATOM      1  C   UNL d   1       2.901   1.843  -0.180  0.00  0.00     0.077 C 
ATOM      2  C1  UNL d   1       1.847   0.784  -0.316  0.00  0.00    -0.074 A 
ATOM      3  C2  UNL d   1       0.489   1.119  -0.330  0.00  0.00    -0.005 A 
ATOM      4  C3  UNL d   1      -0.479   0.124  -0.467  0.00  0.00     0.006 A 
ATOM      5  C4  UNL d   1      -0.100  -1.213  -0.590  0.00  0.00    -0.005 A 
ATOM      6  C5  UNL d   1       1.253  -1.567  -0.579  0.00  0.00    -0.074 A 
ATOM      7  C6  UNL d   1       1.677  -2.998  -0.720  0.00  0.00     0.077 C 
ATOM      8  C7  UNL d   1       2.220  -0.561  -0.448  0.00  0.00    -0.001 A 
ENDROOT
TORSDOF 0
ENDMDL
