MODEL 1
REMARK minimizedAffinity 2.42399192
REMARK minimizedRMSD -1
REMARK  0 active torsions:
REMARK  status: ('A' for Active; 'I' for Inactive)
ROOT
ATOM      1  C1  DEN d   1      -1.573   3.787  -1.425  0.00  0.00     0.130 A 
ATOM      2  C2  DEN d   1      -0.395   4.606  -1.151  0.00  0.00    -0.031 A 
ATOM      3  C3  DEN d   1       0.698   3.707  -0.730  0.00  0.00     0.027 A 
ATOM      4  C4  DEN d   1       0.683   1.140  -0.481  0.00  0.00     0.027 A 
ATOM      5  C5  DEN d   1      -0.091   0.006  -0.590  0.00  0.00    -0.003 A 
ATOM      6  C6  DEN d   1      -1.412   0.055  -0.949  0.00  0.00     0.001 A 
ATOM      7  C7  DEN d   1      -1.987   1.260  -1.256  0.00  0.00     0.017 A 
ATOM      8  C8  DEN d   1      -1.215   2.409  -1.141  0.00  0.00    -0.094 A 
ATOM      9  C9  DEN d   1       0.122   2.336  -0.789  0.00  0.00    -0.072 A 
ENDROOT
TORSDOF 0
ENDMDL
