MODEL 1
REMARK minimizedAffinity 8.51566124
REMARK minimizedRMSD -1
REMARK  0 active torsions:
REMARK  status: ('A' for Active; 'I' for Inactive)
ROOT
ATOM      1  C1  DEN d   1       1.107   5.056   0.148  0.00  0.00     0.130 A 
ATOM      2  C2  DEN d   1      -0.110   5.496  -0.529  0.00  0.00    -0.031 A 
ATOM      3  C3  DEN d   1      -1.239   4.709   0.004  0.00  0.00     0.027 A 
ATOM      4  C4  DEN d   1      -1.224   2.864   1.806  0.00  0.00     0.027 A 
ATOM      5  C5  DEN d   1      -0.425   2.137   2.661  0.00  0.00    -0.003 A 
ATOM      6  C6  DEN d   1       0.933   2.306   2.713  0.00  0.00     0.001 A 
ATOM      7  C7  DEN d   1       1.529   3.257   1.928  0.00  0.00     0.017 A 
ATOM      8  C8  DEN d   1       0.732   3.989   1.058  0.00  0.00    -0.094 A 
ATOM      9  C9  DEN d   1      -0.641   3.811   1.029  0.00  0.00    -0.072 A 
ENDROOT
TORSDOF 0
ENDMDL
