MODEL 1
REMARK minimizedAffinity 10.3992186
REMARK minimizedRMSD -1
REMARK  0 active torsions:
REMARK  status: ('A' for Active; 'I' for Inactive)
ROOT
ATOM      1  C1  DEN d   1       0.011   4.611  -1.318  0.00  0.00     0.130 A 
ATOM      2  C2  DEN d   1      -0.021   6.000  -0.868  0.00  0.00    -0.031 A 
ATOM      3  C3  DEN d   1      -0.148   6.000   0.603  0.00  0.00     0.027 A 
ATOM      4  C4  DEN d   1      -0.291   3.995   2.219  0.00  0.00     0.027 A 
ATOM      5  C5  DEN d   1      -0.316   2.620   2.303  0.00  0.00    -0.003 A 
ATOM      6  C6  DEN d   1      -0.268   1.820   1.193  0.00  0.00     0.001 A 
ATOM      7  C7  DEN d   1      -0.147   2.387  -0.048  0.00  0.00     0.017 A 
ATOM      8  C8  DEN d   1      -0.129   3.773  -0.141  0.00  0.00    -0.094 A 
ATOM      9  C9  DEN d   1      -0.166   4.564   0.994  0.00  0.00    -0.072 A 
ENDROOT
TORSDOF 0
ENDMDL
