MODEL 1
REMARK minimizedAffinity 12.0170498
REMARK minimizedRMSD -1
REMARK  0 active torsions:
REMARK  status: ('A' for Active; 'I' for Inactive)
ROOT
ATOM      1  C1  DEN d   1       5.540  -1.828  -1.777  0.00  0.00     0.130 A 
ATOM      2  C2  DEN d   1       5.347  -1.977  -0.337  0.00  0.00    -0.031 A 
ATOM      3  C3  DEN d   1       4.651  -3.258  -0.100  0.00  0.00     0.027 A 
ATOM      4  C4  DEN d   1       3.861  -5.017  -1.812  0.00  0.00     0.027 A 
ATOM      5  C5  DEN d   1       3.791  -5.326  -3.153  0.00  0.00    -0.003 A 
ATOM      6  C6  DEN d   1       4.265  -4.483  -4.123  0.00  0.00     0.001 A 
ATOM      7  C7  DEN d   1       4.871  -3.308  -3.763  0.00  0.00     0.017 A 
ATOM      8  C8  DEN d   1       4.939  -2.986  -2.414  0.00  0.00    -0.094 A 
ATOM      9  C9  DEN d   1       4.465  -3.857  -1.448  0.00  0.00    -0.072 A 
ENDROOT
TORSDOF 0
ENDMDL
