MODEL 1
REMARK minimizedAffinity 12.8281479
REMARK minimizedRMSD -1
REMARK  0 active torsions:
REMARK  status: ('A' for Active; 'I' for Inactive)
ROOT
ATOM      1  C1  DEN d   1       1.203   3.890   0.559  0.00  0.00     0.130 A 
ATOM      2  C2  DEN d   1       0.055   4.318  -0.236  0.00  0.00    -0.031 A 
ATOM      3  C3  DEN d   1      -1.169   3.839   0.436  0.00  0.00     0.027 A 
ATOM      4  C4  DEN d   1      -1.398   2.487   2.621  0.00  0.00     0.027 A 
ATOM      5  C5  DEN d   1      -0.703   1.881   3.644  0.00  0.00    -0.003 A 
ATOM      6  C6  DEN d   1       0.666   1.873   3.692  0.00  0.00     0.001 A 
ATOM      7  C7  DEN d   1       1.383   2.522   2.722  0.00  0.00     0.017 A 
ATOM      8  C8  DEN d   1       0.689   3.129   1.684  0.00  0.00    -0.094 A 
ATOM      9  C9  DEN d   1      -0.695   3.137   1.659  0.00  0.00    -0.072 A 
ENDROOT
TORSDOF 0
ENDMDL
