MODEL 1
REMARK minimizedAffinity 10.1530552
REMARK minimizedRMSD -1
REMARK  0 active torsions:
REMARK  status: ('A' for Active; 'I' for Inactive)
ROOT
ATOM      1  C1  DEN d   1       1.794  -0.380   3.913  0.00  0.00     0.130 A 
ATOM      2  C2  DEN d   1       1.042  -1.123   4.921  0.00  0.00    -0.031 A 
ATOM      3  C3  DEN d   1      -0.251  -0.439   5.122  0.00  0.00     0.027 A 
ATOM      4  C4  DEN d   1      -1.161   1.684   3.974  0.00  0.00     0.027 A 
ATOM      5  C5  DEN d   1      -0.879   2.672   3.057  0.00  0.00    -0.003 A 
ATOM      6  C6  DEN d   1       0.317   2.731   2.391  0.00  0.00     0.001 A 
ATOM      7  C7  DEN d   1       1.259   1.759   2.600  0.00  0.00     0.017 A 
ATOM      8  C8  DEN d   1       0.985   0.763   3.528  0.00  0.00    -0.094 A 
ATOM      9  C9  DEN d   1      -0.235   0.714   4.182  0.00  0.00    -0.072 A 
ENDROOT
TORSDOF 0
ENDMDL
