MODEL 1
REMARK minimizedAffinity 5.94127321
REMARK minimizedRMSD -1
REMARK  0 active torsions:
REMARK  status: ('A' for Active; 'I' for Inactive)
ROOT
ATOM      1  C1  DEN d   1       3.038  -4.508  -2.160  0.00  0.00     0.130 A 
ATOM      2  C2  DEN d   1       3.825  -4.859  -3.338  0.00  0.00    -0.031 A 
ATOM      3  C3  DEN d   1       5.126  -4.168  -3.240  0.00  0.00     0.027 A 
ATOM      4  C4  DEN d   1       5.996  -2.601  -1.386  0.00  0.00     0.027 A 
ATOM      5  C5  DEN d   1       5.682  -1.996  -0.189  0.00  0.00    -0.003 A 
ATOM      6  C6  DEN d   1       4.462  -2.157   0.413  0.00  0.00     0.001 A 
ATOM      7  C7  DEN d   1       3.527  -2.979  -0.158  0.00  0.00     0.017 A 
ATOM      8  C8  DEN d   1       3.833  -3.587  -1.369  0.00  0.00    -0.094 A 
ATOM      9  C9  DEN d   1       5.077  -3.421  -1.955  0.00  0.00    -0.072 A 
ENDROOT
TORSDOF 0
ENDMDL
