MODEL 1
REMARK minimizedAffinity 7.35433722
REMARK minimizedRMSD -1
REMARK  0 active torsions:
REMARK  status: ('A' for Active; 'I' for Inactive)
ROOT
ATOM      1  C1  DEN d   1      -1.348   6.000  -2.538  0.00  0.00     0.130 A 
ATOM      2  C2  DEN d   1      -2.517   5.124  -2.537  0.00  0.00    -0.031 A 
ATOM      3  C3  DEN d   1      -2.324   4.106  -1.485  0.00  0.00     0.027 A 
ATOM      4  C4  DEN d   1      -0.341   3.805   0.137  0.00  0.00     0.027 A 
ATOM      5  C5  DEN d   1       0.890   4.298   0.508  0.00  0.00    -0.003 A 
ATOM      6  C6  DEN d   1       1.472   5.363  -0.127  0.00  0.00     0.001 A 
ATOM      7  C7  DEN d   1       0.802   5.999  -1.139  0.00  0.00     0.017 A 
ATOM      8  C8  DEN d   1      -0.437   5.503  -1.524  0.00  0.00    -0.094 A 
ATOM      9  C9  DEN d   1      -1.014   4.433  -0.861  0.00  0.00    -0.072 A 
ENDROOT
TORSDOF 0
ENDMDL
