MODEL 1
REMARK minimizedAffinity 10.505868
REMARK minimizedRMSD -1
REMARK  0 active torsions:
REMARK  status: ('A' for Active; 'I' for Inactive)
ROOT
ATOM      1  C1  DEN d   1      -0.641   5.983  -3.755  0.00  0.00     0.130 A 
ATOM      2  C2  DEN d   1       0.641   5.997  -4.453  0.00  0.00    -0.031 A 
ATOM      3  C3  DEN d   1       1.679   5.536  -3.509  0.00  0.00     0.027 A 
ATOM      4  C4  DEN d   1       1.426   4.801  -1.050  0.00  0.00     0.027 A 
ATOM      5  C5  DEN d   1       0.533   4.631  -0.015  0.00  0.00    -0.003 A 
ATOM      6  C6  DEN d   1      -0.798   4.930  -0.143  0.00  0.00     0.001 A 
ATOM      7  C7  DEN d   1      -1.282   5.372  -1.346  0.00  0.00     0.017 A 
ATOM      8  C8  DEN d   1      -0.386   5.552  -2.392  0.00  0.00    -0.094 A 
ATOM      9  C9  DEN d   1       0.954   5.233  -2.246  0.00  0.00    -0.072 A 
ENDROOT
TORSDOF 0
ENDMDL
