MODEL 1
REMARK minimizedAffinity 10.6610613
REMARK minimizedRMSD -1
REMARK  0 active torsions:
REMARK  status: ('A' for Active; 'I' for Inactive)
ROOT
ATOM      1  C1  DEN d   1      -0.518   3.351   2.640  0.00  0.00     0.130 A 
ATOM      2  C2  DEN d   1       0.444   2.271   2.435  0.00  0.00    -0.031 A 
ATOM      3  C3  DEN d   1       1.104   2.488   1.132  0.00  0.00     0.027 A 
ATOM      4  C4  DEN d   1       0.735   4.384  -0.578  0.00  0.00     0.027 A 
ATOM      5  C5  DEN d   1       0.013   5.525  -0.850  0.00  0.00    -0.003 A 
ATOM      6  C6  DEN d   1      -0.952   5.999  -0.002  0.00  0.00     0.001 A 
ATOM      7  C7  DEN d   1      -1.190   5.353   1.183  0.00  0.00     0.017 A 
ATOM      8  C8  DEN d   1      -0.472   4.198   1.461  0.00  0.00    -0.094 A 
ATOM      9  C9  DEN d   1       0.508   3.742   0.596  0.00  0.00    -0.072 A 
ENDROOT
TORSDOF 0
ENDMDL
