MODEL 1
REMARK minimizedAffinity 8.77088451
REMARK minimizedRMSD -1
REMARK  2 active torsions:
REMARK  status: ('A' for Active; 'I' for Inactive)
REMARK    1  A    between atoms: C2'_3  and  C1'_4 
REMARK    2  A    between atoms: C1'_4  and  C1_5 
ROOT
ATOM      1  C1  I4B d   1       5.945   2.024   3.172  0.00  0.00    -0.075 A 
ATOM      2  C2  I4B d   1       5.825   2.583   1.924  0.00  0.00     0.003 A 
ATOM      3  C3  I4B d   1       5.739   3.989   1.778  0.00  0.00     0.002 A 
ATOM      4  C4  I4B d   1       5.728   4.789   2.902  0.00  0.00    -0.004 A 
ATOM      5  C5  I4B d   1       5.873   4.223   4.164  0.00  0.00     0.002 A 
ATOM      6  C6  I4B d   1       5.995   2.832   4.300  0.00  0.00     0.003 A 
ENDROOT
BRANCH   1   7
ATOM      7  C1' I4B d   1       6.000   0.534   3.292  0.00  0.00     0.060 C 
BRANCH   7   8
ATOM      8  C2' I4B d   1       5.622   0.166   4.713  0.00  0.00    -0.013 C 
ATOM      9  C4' I4B d   1       4.156   0.398   4.965  0.00  0.00     0.013 C 
ATOM     10  C3' I4B d   1       5.988  -1.272   4.931  0.00  0.00     0.013 C 
ENDBRANCH   7   8
ENDBRANCH   1   7
TORSDOF 2
ENDMDL
