MODEL 1
REMARK minimizedAffinity -1.39739859
REMARK minimizedRMSD -1
REMARK  2 active torsions:
REMARK  status: ('A' for Active; 'I' for Inactive)
REMARK    1  A    between atoms: C2'_3  and  C1'_4 
REMARK    2  A    between atoms: C1'_4  and  C1_5 
ROOT
ATOM      1  C1  I4B d   1       5.920   2.147   4.475  0.00  0.00    -0.075 A 
ATOM      2  C2  I4B d   1       5.881   1.459   5.662  0.00  0.00     0.003 A 
ATOM      3  C3  I4B d   1       5.911   0.043   5.665  0.00  0.00     0.002 A 
ATOM      4  C4  I4B d   1       5.930  -0.640   4.466  0.00  0.00    -0.004 A 
ATOM      5  C5  I4B d   1       5.993   0.061   3.265  0.00  0.00     0.002 A 
ATOM      6  C6  I4B d   1       6.000   1.463   3.269  0.00  0.00     0.003 A 
ENDROOT
BRANCH   1   7
ATOM      7  C1' I4B d   1       5.853   3.641   4.506  0.00  0.00     0.060 C 
BRANCH   7   8
ATOM      8  C2' I4B d   1       5.443   4.119   3.128  0.00  0.00    -0.013 C 
ATOM      9  C4' I4B d   1       3.945   4.111   2.971  0.00  0.00     0.013 C 
ATOM     10  C3' I4B d   1       6.000   5.497   2.931  0.00  0.00     0.013 C 
ENDBRANCH   7   8
ENDBRANCH   1   7
TORSDOF 2
ENDMDL
