MODEL 1
REMARK minimizedAffinity 2.21256518
REMARK minimizedRMSD -1
REMARK  2 active torsions:
REMARK  status: ('A' for Active; 'I' for Inactive)
REMARK    1  A    between atoms: C2'_3  and  C1'_4 
REMARK    2  A    between atoms: C1'_4  and  C1_5 
ROOT
ATOM      1  C1  I4B d   1       5.899   3.363   3.755  0.00  0.00    -0.075 A 
ATOM      2  C2  I4B d   1       5.928   3.615   2.406  0.00  0.00     0.003 A 
ATOM      3  C3  I4B d   1       5.998   4.947   1.930  0.00  0.00     0.002 A 
ATOM      4  C4  I4B d   1       5.987   5.992   2.832  0.00  0.00    -0.004 A 
ATOM      5  C5  I4B d   1       5.981   5.734   4.199  0.00  0.00     0.002 A 
ATOM      6  C6  I4B d   1       5.949   4.412   4.665  0.00  0.00     0.003 A 
ENDROOT
BRANCH   1   7
ATOM      7  C1' I4B d   1       5.791   1.946   4.222  0.00  0.00     0.060 C 
BRANCH   7   8
ATOM      8  C2' I4B d   1       5.089   1.151   3.141  0.00  0.00    -0.013 C 
ATOM      9  C4' I4B d   1       5.998   0.908   1.965  0.00  0.00     0.013 C 
ATOM     10  C3' I4B d   1       4.627  -0.142   3.744  0.00  0.00     0.013 C 
ENDBRANCH   7   8
ENDBRANCH   1   7
TORSDOF 2
ENDMDL
