MODEL 1
REMARK minimizedAffinity 9.11280537
REMARK minimizedRMSD -1
REMARK  2 active torsions:
REMARK  status: ('A' for Active; 'I' for Inactive)
REMARK    1  A    between atoms: C2'_3  and  C1'_4 
REMARK    2  A    between atoms: C1'_4  and  C1_5 
ROOT
ATOM      1  C1  I4B d   1       5.928   5.098   2.559  0.00  0.00    -0.075 A 
ATOM      2  C2  I4B d   1       6.000   3.739   2.382  0.00  0.00     0.003 A 
ATOM      3  C3  I4B d   1       5.999   2.874   3.503  0.00  0.00     0.002 A 
ATOM      4  C4  I4B d   1       5.976   3.408   4.775  0.00  0.00    -0.004 A 
ATOM      5  C5  I4B d   1       5.880   4.786   4.951  0.00  0.00     0.002 A 
ATOM      6  C6  I4B d   1       5.843   5.636   3.837  0.00  0.00     0.003 A 
ENDROOT
BRANCH   1   7
ATOM      7  C1' I4B d   1       5.964   5.985   1.354  0.00  0.00     0.060 C 
BRANCH   7   8
ATOM      8  C2' I4B d   1       5.475   5.180   0.168  0.00  0.00    -0.013 C 
ATOM      9  C4' I4B d   1       4.023   4.809   0.321  0.00  0.00     0.013 C 
ATOM     10  C3' I4B d   1       5.697   5.997  -1.070  0.00  0.00     0.013 C 
ENDBRANCH   7   8
ENDBRANCH   1   7
TORSDOF 2
ENDMDL
