MODEL 1
REMARK minimizedAffinity -0.635714471
REMARK minimizedRMSD -1
REMARK  2 active torsions:
REMARK  status: ('A' for Active; 'I' for Inactive)
REMARK    1  A    between atoms: C2'_3  and  C1'_4 
REMARK    2  A    between atoms: C1'_4  and  C1_5 
ROOT
ATOM      1  C1  I4B d   1       5.927   1.327   3.759  0.00  0.00    -0.075 A 
ATOM      2  C2  I4B d   1       5.809   0.055   3.255  0.00  0.00     0.003 A 
ATOM      3  C3  I4B d   1       5.770  -1.057   4.130  0.00  0.00     0.002 A 
ATOM      4  C4  I4B d   1       5.902  -0.859   5.489  0.00  0.00    -0.004 A 
ATOM      5  C5  I4B d   1       5.998   0.432   6.000  0.00  0.00     0.002 A 
ATOM      6  C6  I4B d   1       5.999   1.533   5.131  0.00  0.00     0.003 A 
ENDROOT
BRANCH   1   7
ATOM      7  C1' I4B d   1       5.999   2.477   2.806  0.00  0.00     0.060 C 
BRANCH   7   8
ATOM      8  C2' I4B d   1       5.483   3.709   3.521  0.00  0.00    -0.013 C 
ATOM      9  C4' I4B d   1       5.946   4.969   2.838  0.00  0.00     0.013 C 
ATOM     10  C3' I4B d   1       3.986   3.631   3.556  0.00  0.00     0.013 C 
ENDBRANCH   7   8
ENDBRANCH   1   7
TORSDOF 2
ENDMDL
