MODEL 1
REMARK minimizedAffinity -3.40431523
REMARK minimizedRMSD -1
REMARK  2 active torsions:
REMARK  status: ('A' for Active; 'I' for Inactive)
REMARK    1  A    between atoms: C2'_3  and  C1'_4 
REMARK    2  A    between atoms: C1'_4  and  C1_5 
ROOT
ATOM      1  C1  I4B d   1       5.933   2.239   3.689  0.00  0.00    -0.075 A 
ATOM      2  C2  I4B d   1       5.827   1.023   3.062  0.00  0.00     0.003 A 
ATOM      3  C3  I4B d   1       5.792  -0.171   3.823  0.00  0.00     0.002 A 
ATOM      4  C4  I4B d   1       5.916  -0.105   5.196  0.00  0.00    -0.004 A 
ATOM      5  C5  I4B d   1       6.000   1.130   5.831  0.00  0.00     0.002 A 
ATOM      6  C6  I4B d   1       5.996   2.311   5.074  0.00  0.00     0.003 A 
ENDROOT
BRANCH   1   7
ATOM      7  C1' I4B d   1       6.000   3.478   2.852  0.00  0.00     0.060 C 
BRANCH   7   8
ATOM      8  C2' I4B d   1       5.821   4.670   3.769  0.00  0.00    -0.013 C 
ATOM      9  C4' I4B d   1       5.986   5.965   3.018  0.00  0.00     0.013 C 
ATOM     10  C3' I4B d   1       4.460   4.575   4.392  0.00  0.00     0.013 C 
ENDBRANCH   7   8
ENDBRANCH   1   7
TORSDOF 2
ENDMDL
