MODEL 1
REMARK minimizedAffinity 0.897672832
REMARK minimizedRMSD -1
REMARK  2 active torsions:
REMARK  status: ('A' for Active; 'I' for Inactive)
REMARK    1  A    between atoms: C2'_3  and  C1'_4 
REMARK    2  A    between atoms: C1'_4  and  C1_5 
ROOT
ATOM      1  C1  I4B d   1       5.931   2.535   3.528  0.00  0.00    -0.075 A 
ATOM      2  C2  I4B d   1       5.918   2.829   4.869  0.00  0.00     0.003 A 
ATOM      3  C3  I4B d   1       5.924   4.176   5.304  0.00  0.00     0.002 A 
ATOM      4  C4  I4B d   1       5.994   5.191   4.371  0.00  0.00    -0.004 A 
ATOM      5  C5  I4B d   1       5.984   4.892   3.012  0.00  0.00     0.002 A 
ATOM      6  C6  I4B d   1       5.940   3.556   2.587  0.00  0.00     0.003 A 
ENDROOT
BRANCH   1   7
ATOM      7  C1' I4B d   1       5.958   1.101   3.105  0.00  0.00     0.060 C 
BRANCH   7   8
ATOM      8  C2' I4B d   1       5.982   0.245   4.355  0.00  0.00    -0.013 C 
ATOM      9  C4' I4B d   1       4.811   0.554   5.250  0.00  0.00     0.013 C 
ATOM     10  C3' I4B d   1       5.975  -1.193   3.931  0.00  0.00     0.013 C 
ENDBRANCH   7   8
ENDBRANCH   1   7
TORSDOF 2
ENDMDL
