MODEL 1
REMARK minimizedAffinity 2.42396164
REMARK minimizedRMSD -1
REMARK  2 active torsions:
REMARK  status: ('A' for Active; 'I' for Inactive)
REMARK    1  A    between atoms: C2'_3  and  C1'_4 
REMARK    2  A    between atoms: C1'_4  and  C1_5 
ROOT
ATOM      1  C1  I4B d   1       5.822   1.899   3.943  0.00  0.00    -0.075 A 
ATOM      2  C2  I4B d   1       5.789   0.747   3.197  0.00  0.00     0.003 A 
ATOM      3  C3  I4B d   1       5.731  -0.515   3.838  0.00  0.00     0.002 A 
ATOM      4  C4  I4B d   1       5.759  -0.579   5.216  0.00  0.00    -0.004 A 
ATOM      5  C5  I4B d   1       5.770   0.591   5.970  0.00  0.00     0.002 A 
ATOM      6  C6  I4B d   1       5.788   1.838   5.330  0.00  0.00     0.003 A 
ENDROOT
BRANCH   1   7
ATOM      7  C1' I4B d   1       5.915   3.213   3.234  0.00  0.00     0.060 C 
BRANCH   7   8
ATOM      8  C2' I4B d   1       5.667   4.310   4.250  0.00  0.00    -0.013 C 
ATOM      9  C4' I4B d   1       5.978   5.666   3.674  0.00  0.00     0.013 C 
ATOM     10  C3' I4B d   1       4.235   4.222   4.685  0.00  0.00     0.013 C 
ENDBRANCH   7   8
ENDBRANCH   1   7
TORSDOF 2
ENDMDL
