MODEL 1
REMARK minimizedAffinity -2.3251369
REMARK minimizedRMSD -1
REMARK  2 active torsions:
REMARK  status: ('A' for Active; 'I' for Inactive)
REMARK    1  A    between atoms: C2'_3  and  C1'_4 
REMARK    2  A    between atoms: C1'_4  and  C1_5 
ROOT
ATOM      1  C1  I4B d   1       5.214   3.462   3.617  0.00  0.00    -0.075 A 
ATOM      2  C2  I4B d   1       5.206   3.747   2.275  0.00  0.00     0.003 A 
ATOM      3  C3  I4B d   1       5.602   5.026   1.815  0.00  0.00     0.002 A 
ATOM      4  C4  I4B d   1       5.948   6.000   2.730  0.00  0.00    -0.004 A 
ATOM      5  C5  I4B d   1       5.977   5.702   4.089  0.00  0.00     0.002 A 
ATOM      6  C6  I4B d   1       5.620   4.422   4.535  0.00  0.00     0.003 A 
ENDROOT
BRANCH   1   7
ATOM      7  C1' I4B d   1       4.758   2.111   4.070  0.00  0.00     0.060 C 
BRANCH   7   8
ATOM      8  C2' I4B d   1       5.979   1.222   4.189  0.00  0.00    -0.013 C 
ATOM      9  C4' I4B d   1       5.971   0.456   5.485  0.00  0.00     0.013 C 
ATOM     10  C3' I4B d   1       5.991   0.293   3.011  0.00  0.00     0.013 C 
ENDBRANCH   7   8
ENDBRANCH   1   7
TORSDOF 2
ENDMDL
