MODEL 1
REMARK minimizedAffinity -1.17125428
REMARK minimizedRMSD -1
REMARK  2 active torsions:
REMARK  status: ('A' for Active; 'I' for Inactive)
REMARK    1  A    between atoms: C2'_3  and  C1'_4 
REMARK    2  A    between atoms: C1'_4  and  C1_5 
ROOT
ATOM      1  C1  I4B d   1       5.884  -0.119   4.028  0.00  0.00    -0.075 A 
ATOM      2  C2  I4B d   1       5.929  -1.244   3.242  0.00  0.00     0.003 A 
ATOM      3  C3  I4B d   1       5.854  -2.529   3.832  0.00  0.00     0.002 A 
ATOM      4  C4  I4B d   1       5.785  -2.643   5.206  0.00  0.00    -0.004 A 
ATOM      5  C5  I4B d   1       5.717  -1.501   5.999  0.00  0.00     0.002 A 
ATOM      6  C6  I4B d   1       5.754  -0.231   5.406  0.00  0.00     0.003 A 
ENDROOT
BRANCH   1   7
ATOM      7  C1' I4B d   1       6.000   1.221   3.374  0.00  0.00     0.060 C 
BRANCH   7   8
ATOM      8  C2' I4B d   1       5.998   2.274   4.464  0.00  0.00    -0.013 C 
ATOM      9  C4' I4B d   1       5.838   3.656   3.887  0.00  0.00     0.013 C 
ATOM     10  C3' I4B d   1       4.886   1.952   5.417  0.00  0.00     0.013 C 
ENDBRANCH   7   8
ENDBRANCH   1   7
TORSDOF 2
ENDMDL
