MODEL 1
REMARK minimizedAffinity -0.145222127
REMARK minimizedRMSD -1
REMARK  2 active torsions:
REMARK  status: ('A' for Active; 'I' for Inactive)
REMARK    1  A    between atoms: C2'_3  and  C1'_4 
REMARK    2  A    between atoms: C1'_4  and  C1_5 
ROOT
ATOM      1  C1  I4B d   1      -1.605   1.623   3.365  0.00  0.00    -0.075 A 
ATOM      2  C2  I4B d   1      -2.430   2.489   2.692  0.00  0.00     0.003 A 
ATOM      3  C3  I4B d   1      -2.328   3.885   2.910  0.00  0.00     0.002 A 
ATOM      4  C4  I4B d   1      -1.428   4.363   3.840  0.00  0.00    -0.004 A 
ATOM      5  C5  I4B d   1      -0.576   3.485   4.504  0.00  0.00     0.002 A 
ATOM      6  C6  I4B d   1      -0.656   2.107   4.257  0.00  0.00     0.003 A 
ENDROOT
BRANCH   1   7
ATOM      7  C1' I4B d   1      -1.762   0.153   3.136  0.00  0.00     0.060 C 
BRANCH   7   8
ATOM      8  C2' I4B d   1      -3.228  -0.191   3.304  0.00  0.00    -0.013 C 
ATOM      9  C4' I4B d   1      -3.562  -1.496   2.629  0.00  0.00     0.013 C 
ATOM     10  C3' I4B d   1      -3.524  -0.250   4.773  0.00  0.00     0.013 C 
ENDBRANCH   7   8
ENDBRANCH   1   7
TORSDOF 2
ENDMDL
