MODEL 1
REMARK minimizedAffinity -1.9955529
REMARK minimizedRMSD -1
REMARK  2 active torsions:
REMARK  status: ('A' for Active; 'I' for Inactive)
REMARK    1  A    between atoms: C2'_3  and  C1'_4 
REMARK    2  A    between atoms: C1'_4  and  C1_5 
ROOT
ATOM      1  C1  I4B d   1       5.240   2.248   4.350  0.00  0.00    -0.075 A 
ATOM      2  C2  I4B d   1       5.342   1.868   5.665  0.00  0.00     0.003 A 
ATOM      3  C3  I4B d   1       5.747   0.552   5.996  0.00  0.00     0.002 A 
ATOM      4  C4  I4B d   1       5.989  -0.359   4.989  0.00  0.00    -0.004 A 
ATOM      5  C5  I4B d   1       5.907   0.035   3.656  0.00  0.00     0.002 A 
ATOM      6  C6  I4B d   1       5.542   1.350   3.334  0.00  0.00     0.003 A 
ENDROOT
BRANCH   1   7
ATOM      7  C1' I4B d   1       4.778   3.636   4.035  0.00  0.00     0.060 C 
BRANCH   7   8
ATOM      8  C2' I4B d   1       5.986   4.444   3.607  0.00  0.00    -0.013 C 
ATOM      9  C4' I4B d   1       5.954   4.730   2.128  0.00  0.00     0.013 C 
ATOM     10  C3' I4B d   1       5.999   5.714   4.404  0.00  0.00     0.013 C 
ENDBRANCH   7   8
ENDBRANCH   1   7
TORSDOF 2
ENDMDL
