MODEL 1
REMARK minimizedAffinity 0.725735307
REMARK minimizedRMSD -1
REMARK  2 active torsions:
REMARK  status: ('A' for Active; 'I' for Inactive)
REMARK    1  A    between atoms: C2'_3  and  C1'_4 
REMARK    2  A    between atoms: C1'_4  and  C1_5 
ROOT
ATOM      1  C1  I4B d   1       5.371   1.247   3.854  0.00  0.00    -0.075 A 
ATOM      2  C2  I4B d   1       5.347  -0.020   3.324  0.00  0.00     0.003 A 
ATOM      3  C3  I4B d   1       5.639  -1.139   4.140  0.00  0.00     0.002 A 
ATOM      4  C4  I4B d   1       5.996  -0.945   5.459  0.00  0.00    -0.004 A 
ATOM      5  C5  I4B d   1       5.998   0.338   6.000  0.00  0.00     0.002 A 
ATOM      6  C6  I4B d   1       5.672   1.440   5.196  0.00  0.00     0.003 A 
ENDROOT
BRANCH   1   7
ATOM      7  C1' I4B d   1       5.091   2.409   2.955  0.00  0.00     0.060 C 
BRANCH   7   8
ATOM      8  C2' I4B d   1       5.998   3.549   3.370  0.00  0.00    -0.013 C 
ATOM      9  C4' I4B d   1       6.000   4.647   2.339  0.00  0.00     0.013 C 
ATOM     10  C3' I4B d   1       5.527   4.056   4.700  0.00  0.00     0.013 C 
ENDBRANCH   7   8
ENDBRANCH   1   7
TORSDOF 2
ENDMDL
