MODEL 1
REMARK minimizedAffinity -4.31555128
REMARK minimizedRMSD -1
REMARK  0 active torsions:
REMARK  status: ('A' for Active; 'I' for Inactive)
ROOT
ATOM      1  C   UNL d   1      -1.028   2.590   1.813  0.00  0.00    -0.002 A 
ATOM      2  C1  UNL d   1      -1.871   2.487   0.715  0.00  0.00     0.010 A 
ATOM      3  C2  UNL d   1      -1.719   1.445  -0.202  0.00  0.00     0.041 A 
ATOM      4  C3  UNL d   1      -0.696   0.499   0.005  0.00  0.00    -0.075 A 
ATOM      5  S   UNL d   1      -0.323  -0.862  -0.986  0.00  0.00     0.015 SA
ATOM      6  C4  UNL d   1       0.964  -1.339   0.024  0.00  0.00     0.022 A 
ATOM      7  C5  UNL d   1       1.119  -0.492   1.096  0.00  0.00     0.026 A 
ATOM      8  C6  UNL d   1       0.165   0.581   1.103  0.00  0.00    -0.082 A 
ATOM      9  C7  UNL d   1      -0.015   1.649   2.015  0.00  0.00     0.045 A 
ENDROOT
TORSDOF 0
ENDMDL
