MODEL 1
REMARK minimizedAffinity 0.983402848
REMARK minimizedRMSD -1
REMARK  0 active torsions:
REMARK  status: ('A' for Active; 'I' for Inactive)
ROOT
ATOM      1  C   UNL d   1       1.008  -1.524   0.561  0.00  0.00    -0.002 A 
ATOM      2  C1  UNL d   1       0.662  -1.233  -0.751  0.00  0.00     0.010 A 
ATOM      3  C2  UNL d   1       0.032  -0.028  -1.069  0.00  0.00     0.041 A 
ATOM      4  C3  UNL d   1      -0.245   0.889  -0.036  0.00  0.00    -0.075 A 
ATOM      5  S   UNL d   1      -1.008   2.428  -0.189  0.00  0.00     0.015 SA
ATOM      6  C4  UNL d   1      -0.891   2.735   1.483  0.00  0.00     0.022 A 
ATOM      7  C5  UNL d   1      -0.288   1.700   2.157  0.00  0.00     0.026 A 
ATOM      8  C6  UNL d   1       0.095   0.619   1.293  0.00  0.00    -0.082 A 
ATOM      9  C7  UNL d   1       0.732  -0.612   1.582  0.00  0.00     0.045 A 
ENDROOT
TORSDOF 0
ENDMDL
