MODEL 1
REMARK minimizedAffinity -1.61417389
REMARK minimizedRMSD -1
REMARK  0 active torsions:
REMARK  status: ('A' for Active; 'I' for Inactive)
ROOT
ATOM      1  C   UNL d   1       0.180  -4.158  -2.369  0.00  0.00    -0.002 A 
ATOM      2  C1  UNL d   1       0.191  -4.447  -1.012  0.00  0.00     0.010 A 
ATOM      3  C2  UNL d   1       0.173  -3.420  -0.066  0.00  0.00     0.041 A 
ATOM      4  C3  UNL d   1       0.141  -2.084  -0.512  0.00  0.00    -0.075 A 
ATOM      5  S   UNL d   1       0.113  -0.663   0.464  0.00  0.00     0.015 SA
ATOM      6  C4  UNL d   1       0.084   0.362  -0.898  0.00  0.00     0.022 A 
ATOM      7  C5  UNL d   1       0.095  -0.346  -2.076  0.00  0.00     0.026 A 
ATOM      8  C6  UNL d   1       0.128  -1.767  -1.873  0.00  0.00    -0.082 A 
ATOM      9  C7  UNL d   1       0.148  -2.831  -2.807  0.00  0.00     0.045 A 
ENDROOT
TORSDOF 0
ENDMDL
