MODEL 1
REMARK minimizedAffinity -3.29062223
REMARK minimizedRMSD -1
REMARK  0 active torsions:
REMARK  status: ('A' for Active; 'I' for Inactive)
ROOT
ATOM      1  C   UNL d   1      -1.064   2.019   1.670  0.00  0.00    -0.002 A 
ATOM      2  C1  UNL d   1       0.047   1.496   2.317  0.00  0.00     0.010 A 
ATOM      3  C2  UNL d   1       0.688   0.359   1.821  0.00  0.00     0.041 A 
ATOM      4  C3  UNL d   1       0.191  -0.248   0.651  0.00  0.00    -0.075 A 
ATOM      5  S   UNL d   1       0.814  -1.648  -0.140  0.00  0.00     0.015 SA
ATOM      6  C4  UNL d   1      -0.379  -1.584  -1.355  0.00  0.00     0.022 A 
ATOM      7  C5  UNL d   1      -1.240  -0.527  -1.178  0.00  0.00     0.026 A 
ATOM      8  C6  UNL d   1      -0.926   0.260  -0.019  0.00  0.00    -0.082 A 
ATOM      9  C7  UNL d   1      -1.554   1.414   0.510  0.00  0.00     0.045 A 
ENDROOT
TORSDOF 0
ENDMDL
