MODEL 1
REMARK minimizedAffinity 0.682394385
REMARK minimizedRMSD -1
REMARK  0 active torsions:
REMARK  status: ('A' for Active; 'I' for Inactive)
ROOT
ATOM      1  C   UNL d   1       0.051   1.670   1.595  0.00  0.00    -0.002 A 
ATOM      2  C1  UNL d   1      -0.104   0.407   2.149  0.00  0.00     0.010 A 
ATOM      3  C2  UNL d   1      -0.101  -0.730   1.338  0.00  0.00     0.041 A 
ATOM      4  C3  UNL d   1       0.062  -0.574  -0.053  0.00  0.00    -0.075 A 
ATOM      5  S   UNL d   1       0.099  -1.822  -1.241  0.00  0.00     0.015 SA
ATOM      6  C4  UNL d   1       0.321  -0.709  -2.512  0.00  0.00     0.022 A 
ATOM      7  C5  UNL d   1       0.368   0.588  -2.059  0.00  0.00     0.026 A 
ATOM      8  C6  UNL d   1       0.221   0.687  -0.634  0.00  0.00    -0.082 A 
ATOM      9  C7  UNL d   1       0.213   1.820   0.215  0.00  0.00     0.045 A 
ENDROOT
TORSDOF 0
ENDMDL
