MODEL 1
REMARK minimizedAffinity -3.19271517
REMARK minimizedRMSD -1
REMARK  0 active torsions:
REMARK  status: ('A' for Active; 'I' for Inactive)
ROOT
ATOM      1  C1  DEN d   1       1.849   1.199   0.342  0.00  0.00     0.130 A 
ATOM      2  C2  DEN d   1       1.307   2.525   0.059  0.00  0.00    -0.031 A 
ATOM      3  C3  DEN d   1      -0.008   2.352  -0.591  0.00  0.00     0.027 A 
ATOM      4  C4  DEN d   1      -1.253   0.171  -1.178  0.00  0.00     0.027 A 
ATOM      5  C5  DEN d   1      -1.186  -1.204  -1.142  0.00  0.00    -0.003 A 
ATOM      6  C6  DEN d   1      -0.097  -1.870  -0.644  0.00  0.00     0.001 A 
ATOM      7  C7  DEN d   1       0.951  -1.160  -0.120  0.00  0.00     0.017 A 
ATOM      8  C8  DEN d   1       0.894   0.227  -0.160  0.00  0.00    -0.094 A 
ATOM      9  C9  DEN d   1      -0.221   0.881  -0.656  0.00  0.00    -0.072 A 
ENDROOT
TORSDOF 0
ENDMDL
