MODEL 1
REMARK minimizedAffinity -2.12698746
REMARK minimizedRMSD -1
REMARK  0 active torsions:
REMARK  status: ('A' for Active; 'I' for Inactive)
ROOT
ATOM      1  C1  DEN d   1      -0.602   1.364   0.373  0.00  0.00     0.130 A 
ATOM      2  C2  DEN d   1      -2.002   1.134   0.024  0.00  0.00    -0.031 A 
ATOM      3  C3  DEN d   1      -2.131  -0.258  -0.452  0.00  0.00     0.027 A 
ATOM      4  C4  DEN d   1      -0.310  -2.071  -0.678  0.00  0.00     0.027 A 
ATOM      5  C5  DEN d   1       1.030  -2.343  -0.515  0.00  0.00    -0.003 A 
ATOM      6  C6  DEN d   1       1.919  -1.395  -0.080  0.00  0.00     0.001 A 
ATOM      7  C7  DEN d   1       1.470  -0.144   0.249  0.00  0.00     0.017 A 
ATOM      8  C8  DEN d   1       0.121   0.139   0.081  0.00  0.00    -0.094 A 
ATOM      9  C9  DEN d   1      -0.764  -0.835  -0.348  0.00  0.00    -0.072 A 
ENDROOT
TORSDOF 0
ENDMDL
