MODEL 1
REMARK minimizedAffinity -2.43532085
REMARK minimizedRMSD -1
REMARK  0 active torsions:
REMARK  status: ('A' for Active; 'I' for Inactive)
ROOT
ATOM      1  C1  DEN d   1       1.536   1.822   0.026  0.00  0.00     0.130 A 
ATOM      2  C2  DEN d   1       2.988   1.792  -0.127  0.00  0.00    -0.031 A 
ATOM      3  C3  DEN d   1       3.396   0.390  -0.346  0.00  0.00     0.027 A 
ATOM      4  C4  DEN d   1       1.927  -1.727  -0.464  0.00  0.00     0.027 A 
ATOM      5  C5  DEN d   1       0.639  -2.205  -0.380  0.00  0.00    -0.003 A 
ATOM      6  C6  DEN d   1      -0.429  -1.386  -0.123  0.00  0.00     0.001 A 
ATOM      7  C7  DEN d   1      -0.232  -0.038   0.015  0.00  0.00     0.017 A 
ATOM      8  C8  DEN d   1       1.066   0.451  -0.062  0.00  0.00    -0.094 A 
ATOM      9  C9  DEN d   1       2.130  -0.391  -0.335  0.00  0.00    -0.072 A 
ENDROOT
TORSDOF 0
ENDMDL
