MODEL 1
REMARK minimizedAffinity -5.49166155
REMARK minimizedRMSD -1
REMARK  0 active torsions:
REMARK  status: ('A' for Active; 'I' for Inactive)
ROOT
ATOM      1  C1  DEN d   1      -0.542   1.362  -0.204  0.00  0.00     0.130 A 
ATOM      2  C2  DEN d   1      -1.428   0.220  -0.413  0.00  0.00    -0.031 A 
ATOM      3  C3  DEN d   1      -0.599  -1.002  -0.439  0.00  0.00     0.027 A 
ATOM      4  C4  DEN d   1       1.956  -1.235  -0.172  0.00  0.00     0.027 A 
ATOM      5  C5  DEN d   1       3.133  -0.545   0.015  0.00  0.00    -0.003 A 
ATOM      6  C6  DEN d   1       3.171   0.821   0.107  0.00  0.00     0.001 A 
ATOM      7  C7  DEN d   1       2.004   1.538   0.058  0.00  0.00     0.017 A 
ATOM      8  C8  DEN d   1       0.814   0.849  -0.138  0.00  0.00    -0.094 A 
ATOM      9  C9  DEN d   1       0.795  -0.533  -0.216  0.00  0.00    -0.072 A 
ENDROOT
TORSDOF 0
ENDMDL
