MODEL 1
REMARK minimizedAffinity -1.5649004
REMARK minimizedRMSD -1
REMARK  0 active torsions:
REMARK  status: ('A' for Active; 'I' for Inactive)
ROOT
ATOM      1  C1  DEN d   1       2.246   1.970   0.213  0.00  0.00     0.130 A 
ATOM      2  C2  DEN d   1       3.680   1.908  -0.056  0.00  0.00    -0.031 A 
ATOM      3  C3  DEN d   1       4.016   0.516  -0.418  0.00  0.00     0.027 A 
ATOM      4  C4  DEN d   1       2.462  -1.536  -0.590  0.00  0.00     0.027 A 
ATOM      5  C5  DEN d   1       1.166  -1.978  -0.444  0.00  0.00    -0.003 A 
ATOM      6  C6  DEN d   1       0.154  -1.150  -0.038  0.00  0.00     0.001 A 
ATOM      7  C7  DEN d   1       0.412   0.176   0.191  0.00  0.00     0.017 A 
ATOM      8  C8  DEN d   1       1.718   0.628   0.053  0.00  0.00    -0.094 A 
ATOM      9  C9  DEN d   1       2.725  -0.223  -0.370  0.00  0.00    -0.072 A 
ENDROOT
TORSDOF 0
ENDMDL
