MODEL 1
REMARK minimizedAffinity 0.982353032
REMARK minimizedRMSD -1
REMARK  0 active torsions:
REMARK  status: ('A' for Active; 'I' for Inactive)
ROOT
ATOM      1  C1  DEN d   1      -1.143  -0.885   0.131  0.00  0.00     0.130 A 
ATOM      2  C2  DEN d   1      -0.092  -0.151  -0.568  0.00  0.00    -0.031 A 
ATOM      3  C3  DEN d   1      -0.398   1.290  -0.469  0.00  0.00     0.027 A 
ATOM      4  C4  DEN d   1      -2.385   2.450   0.697  0.00  0.00     0.027 A 
ATOM      5  C5  DEN d   1      -3.542   2.243   1.415  0.00  0.00    -0.003 A 
ATOM      6  C6  DEN d   1      -3.995   0.988   1.723  0.00  0.00     0.001 A 
ATOM      7  C7  DEN d   1      -3.263  -0.109   1.351  0.00  0.00     0.017 A 
ATOM      8  C8  DEN d   1      -2.099   0.092   0.621  0.00  0.00    -0.094 A 
ATOM      9  C9  DEN d   1      -1.651   1.370   0.329  0.00  0.00    -0.072 A 
ENDROOT
TORSDOF 0
ENDMDL
