MODEL 1
REMARK minimizedAffinity -4.10062742
REMARK minimizedRMSD -1
REMARK  0 active torsions:
REMARK  status: ('A' for Active; 'I' for Inactive)
ROOT
ATOM      1  C1  DEN d   1       2.049   2.106   0.216  0.00  0.00     0.130 A 
ATOM      2  C2  DEN d   1       3.484   1.862   0.099  0.00  0.00    -0.031 A 
ATOM      3  C3  DEN d   1       3.685   0.414  -0.115  0.00  0.00     0.027 A 
ATOM      4  C4  DEN d   1       1.922  -1.462  -0.278  0.00  0.00     0.027 A 
ATOM      5  C5  DEN d   1       0.575  -1.743  -0.227  0.00  0.00    -0.003 A 
ATOM      6  C6  DEN d   1      -0.365  -0.775   0.006  0.00  0.00     0.001 A 
ATOM      7  C7  DEN d   1       0.026   0.530   0.154  0.00  0.00     0.017 A 
ATOM      8  C8  DEN d   1       1.383   0.820   0.111  0.00  0.00    -0.094 A 
ATOM      9  C9  DEN d   1       2.317  -0.171  -0.138  0.00  0.00    -0.072 A 
ENDROOT
TORSDOF 0
ENDMDL
