MODEL 1
REMARK minimizedAffinity -0.343046665
REMARK minimizedRMSD -1
REMARK  1 active torsions:
REMARK  status: ('A' for Active; 'I' for Inactive)
REMARK    1  A    between atoms: C1_2  and  C2_3 
ROOT
ATOM      1  C2  UNL d   1      -0.248   0.420   0.347  0.00  0.00    -0.077 A 
ATOM      2  C3  UNL d   1      -0.832   0.405   1.622  0.00  0.00     0.002 A 
ATOM      3  C4  UNL d   1      -0.033   0.457   2.765  0.00  0.00     0.002 A 
ATOM      4  C5  UNL d   1       1.354   0.530   2.646  0.00  0.00    -0.004 A 
ATOM      5  C6  UNL d   1       1.944   0.543   1.383  0.00  0.00     0.002 A 
ATOM      6  C7  UNL d   1       1.147   0.490   0.239  0.00  0.00     0.002 A 
ENDROOT
BRANCH   1   7
ATOM      7  C1  UNL d   1      -1.110   0.413  -0.888  0.00  0.00     0.055 C 
ATOM      8  C   UNL d   1      -2.573   0.653  -0.543  0.00  0.00     0.019 C 
ENDBRANCH   1   7
TORSDOF 1
ENDMDL
