MODEL 1
REMARK minimizedAffinity -3.91023421
REMARK minimizedRMSD -1
REMARK  1 active torsions:
REMARK  status: ('A' for Active; 'I' for Inactive)
REMARK    1  A    between atoms: C1_2  and  C2_3 
ROOT
ATOM      1  C2  UNL d   1       0.366  -0.853  -1.756  0.00  0.00    -0.077 A 
ATOM      2  C3  UNL d   1       1.457  -0.616  -0.908  0.00  0.00     0.002 A 
ATOM      3  C4  UNL d   1       1.281   0.064   0.298  0.00  0.00     0.002 A 
ATOM      4  C5  UNL d   1       0.014   0.509   0.670  0.00  0.00    -0.004 A 
ATOM      5  C6  UNL d   1      -1.078   0.281  -0.167  0.00  0.00     0.002 A 
ATOM      6  C7  UNL d   1      -0.903  -0.398  -1.374  0.00  0.00     0.002 A 
ENDROOT
BRANCH   1   7
ATOM      7  C1  UNL d   1       0.545  -1.629  -3.034  0.00  0.00     0.055 C 
ATOM      8  C   UNL d   1       1.963  -2.169  -3.159  0.00  0.00     0.019 C 
ENDBRANCH   1   7
TORSDOF 1
ENDMDL
