MODEL 1
REMARK minimizedAffinity -1.74991333
REMARK minimizedRMSD -1
REMARK  1 active torsions:
REMARK  status: ('A' for Active; 'I' for Inactive)
REMARK    1  A    between atoms: C1_2  and  C2_3 
ROOT
ATOM      1  C2  UNL d   1       0.393   0.271  -1.337  0.00  0.00    -0.077 A 
ATOM      2  C3  UNL d   1       1.362   0.252  -0.324  0.00  0.00     0.002 A 
ATOM      3  C4  UNL d   1       0.986   0.370   1.015  0.00  0.00     0.002 A 
ATOM      4  C5  UNL d   1      -0.359   0.503   1.354  0.00  0.00    -0.004 A 
ATOM      5  C6  UNL d   1      -1.330   0.525   0.353  0.00  0.00     0.002 A 
ATOM      6  C7  UNL d   1      -0.956   0.409  -0.986  0.00  0.00     0.002 A 
ENDROOT
BRANCH   1   7
ATOM      7  C1  UNL d   1       0.793   0.096  -2.779  0.00  0.00     0.055 C 
ATOM      8  C   UNL d   1       0.467  -1.305  -3.277  0.00  0.00     0.019 C 
ENDBRANCH   1   7
TORSDOF 1
ENDMDL
