MODEL 1
REMARK minimizedAffinity -3.04915285
REMARK minimizedRMSD -1
REMARK  1 active torsions:
REMARK  status: ('A' for Active; 'I' for Inactive)
REMARK    1  A    between atoms: C1_2  and  C2_3 
ROOT
ATOM      1  C2  UNL d   1       0.170   0.284  -0.256  0.00  0.00    -0.077 A 
ATOM      2  C3  UNL d   1       1.093   0.345   0.798  0.00  0.00     0.002 A 
ATOM      3  C4  UNL d   1       0.660   0.265   2.122  0.00  0.00     0.002 A 
ATOM      4  C5  UNL d   1      -0.697   0.120   2.406  0.00  0.00    -0.004 A 
ATOM      5  C6  UNL d   1      -1.623   0.061   1.365  0.00  0.00     0.002 A 
ATOM      6  C7  UNL d   1      -1.191   0.141   0.041  0.00  0.00     0.002 A 
ENDROOT
BRANCH   1   7
ATOM      7  C1  UNL d   1       0.641   0.320  -1.686  0.00  0.00     0.055 C 
ATOM      8  C   UNL d   1       0.152  -0.895  -2.461  0.00  0.00     0.019 C 
ENDBRANCH   1   7
TORSDOF 1
ENDMDL
