MODEL 1
REMARK minimizedAffinity -2.89606309
REMARK minimizedRMSD -1
REMARK  1 active torsions:
REMARK  status: ('A' for Active; 'I' for Inactive)
REMARK    1  A    between atoms: C1_2  and  C2_3 
ROOT
ATOM      1  C2  UNL d   1       4.530  -3.993   3.766  0.00  0.00    -0.077 A 
ATOM      2  C3  UNL d   1       3.618  -5.001   3.423  0.00  0.00     0.002 A 
ATOM      3  C4  UNL d   1       3.283  -5.993   4.347  0.00  0.00     0.002 A 
ATOM      4  C5  UNL d   1       3.850  -5.984   5.619  0.00  0.00    -0.004 A 
ATOM      5  C6  UNL d   1       4.760  -4.987   5.968  0.00  0.00     0.002 A 
ATOM      6  C7  UNL d   1       5.098  -3.995   5.046  0.00  0.00     0.002 A 
ENDROOT
BRANCH   1   7
ATOM      7  C1  UNL d   1       4.856  -2.894   2.788  0.00  0.00     0.055 C 
ATOM      8  C   UNL d   1       4.877  -1.534   3.471  0.00  0.00     0.019 C 
ENDBRANCH   1   7
TORSDOF 1
ENDMDL
