MODEL 1
REMARK minimizedAffinity -3.95406508
REMARK minimizedRMSD -1
REMARK  1 active torsions:
REMARK  status: ('A' for Active; 'I' for Inactive)
REMARK    1  A    between atoms: C1_2  and  C2_3 
ROOT
ATOM      1  C2  UNL d   1       0.462  -0.129  -1.838  0.00  0.00    -0.077 A 
ATOM      2  C3  UNL d   1       1.499   0.438  -2.592  0.00  0.00     0.002 A 
ATOM      3  C4  UNL d   1       1.998  -0.223  -3.716  0.00  0.00     0.002 A 
ATOM      4  C5  UNL d   1       1.464  -1.451  -4.099  0.00  0.00    -0.004 A 
ATOM      5  C6  UNL d   1       0.433  -2.024  -3.354  0.00  0.00     0.002 A 
ATOM      6  C7  UNL d   1      -0.066  -1.366  -2.230  0.00  0.00     0.002 A 
ENDROOT
BRANCH   1   7
ATOM      7  C1  UNL d   1      -0.111   0.605  -0.654  0.00  0.00     0.055 C 
ATOM      8  C   UNL d   1       0.922   0.762   0.453  0.00  0.00     0.019 C 
ENDBRANCH   1   7
TORSDOF 1
ENDMDL
