MODEL 1
REMARK minimizedAffinity -4.13142014
REMARK minimizedRMSD -1
REMARK  1 active torsions:
REMARK  status: ('A' for Active; 'I' for Inactive)
REMARK    1  A    between atoms: C1_2  and  C2_3 
ROOT
ATOM      1  C2  UNL d   1       0.033   0.047   0.193  0.00  0.00    -0.077 A 
ATOM      2  C3  UNL d   1      -1.317   0.417   0.119  0.00  0.00     0.002 A 
ATOM      3  C4  UNL d   1      -2.086   0.521   1.279  0.00  0.00     0.002 A 
ATOM      4  C5  UNL d   1      -1.513   0.260   2.522  0.00  0.00    -0.004 A 
ATOM      5  C6  UNL d   1      -0.172  -0.111   2.607  0.00  0.00     0.002 A 
ATOM      6  C7  UNL d   1       0.598  -0.216   1.448  0.00  0.00     0.002 A 
ENDROOT
BRANCH   1   7
ATOM      7  C1  UNL d   1       0.877  -0.018  -1.053  0.00  0.00     0.055 C 
ATOM      8  C   UNL d   1       0.031  -0.333  -2.278  0.00  0.00     0.019 C 
ENDBRANCH   1   7
TORSDOF 1
ENDMDL
