MODEL 1
REMARK minimizedAffinity -5.96110868
REMARK minimizedRMSD -1
REMARK  1 active torsions:
REMARK  status: ('A' for Active; 'I' for Inactive)
REMARK    1  A    between atoms: C1_2  and  C2_3 
ROOT
ATOM      1  C2  UNL d   1       0.053  -0.036   0.227  0.00  0.00    -0.077 A 
ATOM      2  C3  UNL d   1      -1.232  -0.324   0.707  0.00  0.00     0.002 A 
ATOM      3  C4  UNL d   1      -1.455  -0.482   2.076  0.00  0.00     0.002 A 
ATOM      4  C5  UNL d   1      -0.399  -0.350   2.976  0.00  0.00    -0.004 A 
ATOM      5  C6  UNL d   1       0.883  -0.065   2.508  0.00  0.00     0.002 A 
ATOM      6  C7  UNL d   1       1.108   0.092   1.140  0.00  0.00     0.002 A 
ENDROOT
BRANCH   1   7
ATOM      7  C1  UNL d   1       0.287   0.184  -1.245  0.00  0.00     0.055 C 
ATOM      8  C   UNL d   1      -0.768   1.105  -1.841  0.00  0.00     0.019 C 
ENDBRANCH   1   7
TORSDOF 1
ENDMDL
