MODEL 1
REMARK minimizedAffinity -2.12131476
REMARK minimizedRMSD -1
REMARK  1 active torsions:
REMARK  status: ('A' for Active; 'I' for Inactive)
REMARK    1  A    between atoms: C1_2  and  C2_3 
ROOT
ATOM      1  C2  UNL d   1      -0.065   0.302   1.337  0.00  0.00    -0.077 A 
ATOM      2  C3  UNL d   1      -1.217   0.321   0.538  0.00  0.00     0.002 A 
ATOM      3  C4  UNL d   1      -1.123   0.117  -0.840  0.00  0.00     0.002 A 
ATOM      4  C5  UNL d   1       0.118  -0.112  -1.430  0.00  0.00    -0.004 A 
ATOM      5  C6  UNL d   1       1.269  -0.131  -0.643  0.00  0.00     0.002 A 
ATOM      6  C7  UNL d   1       1.178   0.074   0.734  0.00  0.00     0.002 A 
ENDROOT
BRANCH   1   7
ATOM      7  C1  UNL d   1      -0.170   0.473   2.830  0.00  0.00     0.055 C 
ATOM      8  C   UNL d   1      -1.622   0.517   3.282  0.00  0.00     0.019 C 
ENDBRANCH   1   7
TORSDOF 1
ENDMDL
