MODEL 1
REMARK minimizedAffinity -2.18385696
REMARK minimizedRMSD -1
REMARK  1 active torsions:
REMARK  status: ('A' for Active; 'I' for Inactive)
REMARK    1  A    between atoms: C1_2  and  C2_3 
ROOT
ATOM      1  C2  UNL d   1       0.651  -0.062  -0.749  0.00  0.00    -0.077 A 
ATOM      2  C3  UNL d   1       1.636   0.268   0.193  0.00  0.00     0.002 A 
ATOM      3  C4  UNL d   1       1.315   0.352   1.549  0.00  0.00     0.002 A 
ATOM      4  C5  UNL d   1       0.012   0.104   1.976  0.00  0.00    -0.004 A 
ATOM      5  C6  UNL d   1      -0.974  -0.223   1.047  0.00  0.00     0.002 A 
ATOM      6  C7  UNL d   1      -0.656  -0.306  -0.310  0.00  0.00     0.002 A 
ENDROOT
BRANCH   1   7
ATOM      7  C1  UNL d   1       1.005  -0.202  -2.207  0.00  0.00     0.055 C 
ATOM      8  C   UNL d   1       0.595  -1.563  -2.748  0.00  0.00     0.019 C 
ENDBRANCH   1   7
TORSDOF 1
ENDMDL
