MODEL 1
REMARK minimizedAffinity -2.56200171
REMARK minimizedRMSD -1
REMARK  1 active torsions:
REMARK  status: ('A' for Active; 'I' for Inactive)
REMARK    1  A    between atoms: C1_2  and  C2_3 
ROOT
ATOM      1  C2  UNL d   1       0.103   0.286   0.198  0.00  0.00    -0.077 A 
ATOM      2  C3  UNL d   1      -1.115   0.059   0.855  0.00  0.00     0.002 A 
ATOM      3  C4  UNL d   1      -1.205   0.190   2.242  0.00  0.00     0.002 A 
ATOM      4  C5  UNL d   1      -0.082   0.554   2.983  0.00  0.00    -0.004 A 
ATOM      5  C6  UNL d   1       1.134   0.780   2.339  0.00  0.00     0.002 A 
ATOM      6  C7  UNL d   1       1.226   0.648   0.953  0.00  0.00     0.002 A 
ENDROOT
BRANCH   1   7
ATOM      7  C1  UNL d   1       0.190   0.193  -1.303  0.00  0.00     0.055 C 
ATOM      8  C   UNL d   1      -0.862   1.064  -1.974  0.00  0.00     0.019 C 
ENDBRANCH   1   7
TORSDOF 1
ENDMDL
