MODEL 1
REMARK minimizedAffinity -4.82304716
REMARK minimizedRMSD -1
REMARK  1 active torsions:
REMARK  status: ('A' for Active; 'I' for Inactive)
REMARK    1  A    between atoms: C1_2  and  C2_3 
ROOT
ATOM      1  C2  UNL d   1      -0.004  -0.247   0.343  0.00  0.00    -0.077 A 
ATOM      2  C3  UNL d   1      -1.370  -0.112   0.628  0.00  0.00     0.002 A 
ATOM      3  C4  UNL d   1      -1.798   0.132   1.934  0.00  0.00     0.002 A 
ATOM      4  C5  UNL d   1      -0.868   0.246   2.964  0.00  0.00    -0.004 A 
ATOM      5  C6  UNL d   1       0.493   0.111   2.692  0.00  0.00     0.002 A 
ATOM      6  C7  UNL d   1       0.923  -0.134   1.387  0.00  0.00     0.002 A 
ENDROOT
BRANCH   1   7
ATOM      7  C1  UNL d   1       0.463  -0.461  -1.073  0.00  0.00     0.055 C 
ATOM      8  C   UNL d   1      -0.087   0.610  -2.005  0.00  0.00     0.019 C 
ENDBRANCH   1   7
TORSDOF 1
ENDMDL
