MODEL 1
REMARK minimizedAffinity 4.0996747
REMARK minimizedRMSD -1
REMARK  2 active torsions:
REMARK  status: ('A' for Active; 'I' for Inactive)
REMARK    1  A    between atoms: C1_2  and  C2_3 
REMARK    2  A    between atoms: C2_3  and  C3_4 
ROOT
ATOM      1  C3  UNL d   1       3.681   3.907   1.355  0.00  0.00    -0.075 A 
ATOM      2  C4  UNL d   1       4.777   3.337   2.019  0.00  0.00     0.002 A 
ATOM      3  C5  UNL d   1       5.918   4.095   2.284  0.00  0.00     0.002 A 
ATOM      4  C6  UNL d   1       5.981   5.427   1.881  0.00  0.00    -0.004 A 
ATOM      5  C7  UNL d   1       4.905   5.999   1.206  0.00  0.00     0.002 A 
ATOM      6  C8  UNL d   1       3.761   5.244   0.944  0.00  0.00     0.002 A 
ENDROOT
BRANCH   1   7
ATOM      7  C2  UNL d   1       2.432   3.099   1.091  0.00  0.00     0.056 C 
BRANCH   7   8
ATOM      8  C1  UNL d   1       2.667   1.586   1.044  0.00  0.00     0.007 C 
ATOM      9  C   UNL d   1       1.621   0.842   0.223  0.00  0.00     0.009 C 
ENDBRANCH   7   8
ENDBRANCH   1   7
TORSDOF 2
ENDMDL
