MODEL 1
REMARK minimizedAffinity 5.84325504
REMARK minimizedRMSD -1
REMARK  2 active torsions:
REMARK  status: ('A' for Active; 'I' for Inactive)
REMARK    1  A    between atoms: C1_2  and  C2_3 
REMARK    2  A    between atoms: C2_3  and  C3_4 
ROOT
ATOM      1  C3  UNL d   1       0.233  -5.240  -0.523  0.00  0.00    -0.075 A 
ATOM      2  C4  UNL d   1      -1.125  -5.586  -0.582  0.00  0.00     0.002 A 
ATOM      3  C5  UNL d   1      -1.707  -5.969  -1.791  0.00  0.00     0.002 A 
ATOM      4  C6  UNL d   1      -0.943  -6.000  -2.956  0.00  0.00    -0.004 A 
ATOM      5  C7  UNL d   1       0.403  -5.642  -2.912  0.00  0.00     0.002 A 
ATOM      6  C8  UNL d   1       0.988  -5.263  -1.703  0.00  0.00     0.002 A 
ENDROOT
BRANCH   1   7
ATOM      7  C2  UNL d   1       0.876  -4.854   0.788  0.00  0.00     0.056 C 
BRANCH   7   8
ATOM      8  C1  UNL d   1       0.907  -3.344   1.046  0.00  0.00     0.007 C 
ATOM      9  C   UNL d   1       1.906  -2.605   0.166  0.00  0.00     0.009 C 
ENDBRANCH   7   8
ENDBRANCH   1   7
TORSDOF 2
ENDMDL
