MODEL 1
REMARK minimizedAffinity 7.88610601
REMARK minimizedRMSD -1
REMARK  2 active torsions:
REMARK  status: ('A' for Active; 'I' for Inactive)
REMARK    1  A    between atoms: C1_2  and  C2_3 
REMARK    2  A    between atoms: C2_3  and  C3_4 
ROOT
ATOM      1  C3  UNL d   1       4.882   4.256   3.461  0.00  0.00    -0.075 A 
ATOM      2  C4  UNL d   1       4.499   5.535   3.891  0.00  0.00     0.002 A 
ATOM      3  C5  UNL d   1       4.875   6.000   5.152  0.00  0.00     0.002 A 
ATOM      4  C6  UNL d   1       5.628   5.191   6.000  0.00  0.00    -0.004 A 
ATOM      5  C7  UNL d   1       6.000   3.913   5.589  0.00  0.00     0.002 A 
ATOM      6  C8  UNL d   1       5.628   3.446   4.326  0.00  0.00     0.002 A 
ENDROOT
BRANCH   1   7
ATOM      7  C2  UNL d   1       4.503   3.758   2.086  0.00  0.00     0.056 C 
BRANCH   7   8
ATOM      8  C1  UNL d   1       2.993   3.732   1.827  0.00  0.00     0.007 C 
ATOM      9  C   UNL d   1       2.463   2.340   1.507  0.00  0.00     0.009 C 
ENDBRANCH   7   8
ENDBRANCH   1   7
TORSDOF 2
ENDMDL
