MODEL 1
REMARK minimizedAffinity 11.1245852
REMARK minimizedRMSD -1
REMARK  2 active torsions:
REMARK  status: ('A' for Active; 'I' for Inactive)
REMARK    1  A    between atoms: C1_2  and  C2_3 
REMARK    2  A    between atoms: C2_3  and  C3_4 
ROOT
ATOM      1  C3  UNL d   1      -0.588   2.397  -5.310  0.00  0.00    -0.075 A 
ATOM      2  C4  UNL d   1       0.174   1.440  -5.996  0.00  0.00     0.002 A 
ATOM      3  C5  UNL d   1       1.208   0.762  -5.349  0.00  0.00     0.002 A 
ATOM      4  C6  UNL d   1       1.499   1.039  -4.016  0.00  0.00    -0.004 A 
ATOM      5  C7  UNL d   1       0.760   1.999  -3.329  0.00  0.00     0.002 A 
ATOM      6  C8  UNL d   1      -0.278   2.676  -3.972  0.00  0.00     0.002 A 
ENDROOT
BRANCH   1   7
ATOM      7  C2  UNL d   1      -1.727   3.113  -5.995  0.00  0.00     0.056 C 
BRANCH   7   8
ATOM      8  C1  UNL d   1      -3.078   2.401  -5.870  0.00  0.00     0.007 C 
ATOM      9  C   UNL d   1      -4.268   3.342  -5.997  0.00  0.00     0.009 C 
ENDBRANCH   7   8
ENDBRANCH   1   7
TORSDOF 2
ENDMDL
