MODEL 1
REMARK minimizedAffinity 12.2027988
REMARK minimizedRMSD -1
REMARK  2 active torsions:
REMARK  status: ('A' for Active; 'I' for Inactive)
REMARK    1  A    between atoms: C1_2  and  C2_3 
REMARK    2  A    between atoms: C2_3  and  C3_4 
ROOT
ATOM      1  C3  UNL d   1       1.773   1.314  -3.992  0.00  0.00    -0.075 A 
ATOM      2  C4  UNL d   1       0.379   1.158  -3.997  0.00  0.00     0.002 A 
ATOM      3  C5  UNL d   1      -0.404   1.814  -4.947  0.00  0.00     0.002 A 
ATOM      4  C6  UNL d   1       0.194   2.640  -5.897  0.00  0.00    -0.004 A 
ATOM      5  C7  UNL d   1       1.576   2.815  -5.891  0.00  0.00     0.002 A 
ATOM      6  C8  UNL d   1       2.362   2.157  -4.944  0.00  0.00     0.002 A 
ENDROOT
BRANCH   1   7
ATOM      7  C2  UNL d   1       2.628   0.584  -2.985  0.00  0.00     0.056 C 
BRANCH   7   8
ATOM      8  C1  UNL d   1       2.829   1.343  -1.669  0.00  0.00     0.007 C 
ATOM      9  C   UNL d   1       2.046   0.747  -0.507  0.00  0.00     0.009 C 
ENDBRANCH   7   8
ENDBRANCH   1   7
TORSDOF 2
ENDMDL
