MODEL 1
REMARK minimizedAffinity 13.115056
REMARK minimizedRMSD -1
REMARK  2 active torsions:
REMARK  status: ('A' for Active; 'I' for Inactive)
REMARK    1  A    between atoms: C1_2  and  C2_3 
REMARK    2  A    between atoms: C2_3  and  C3_4 
ROOT
ATOM      1  C3  UNL d   1       4.207   3.560   1.685  0.00  0.00    -0.075 A 
ATOM      2  C4  UNL d   1       3.846   4.691   0.938  0.00  0.00     0.002 A 
ATOM      3  C5  UNL d   1       4.518   5.901   1.114  0.00  0.00     0.002 A 
ATOM      4  C6  UNL d   1       5.550   5.999   2.044  0.00  0.00    -0.004 A 
ATOM      5  C7  UNL d   1       5.907   4.887   2.804  0.00  0.00     0.002 A 
ATOM      6  C8  UNL d   1       5.239   3.674   2.627  0.00  0.00     0.002 A 
ENDROOT
BRANCH   1   7
ATOM      7  C2  UNL d   1       3.504   2.240   1.479  0.00  0.00     0.056 C 
BRANCH   7   8
ATOM      8  C1  UNL d   1       1.976   2.331   1.545  0.00  0.00     0.007 C 
ATOM      9  C   UNL d   1       1.277   1.076   1.038  0.00  0.00     0.009 C 
ENDBRANCH   7   8
ENDBRANCH   1   7
TORSDOF 2
ENDMDL
