MODEL 1
REMARK minimizedAffinity 11.3253565
REMARK minimizedRMSD -1
REMARK  2 active torsions:
REMARK  status: ('A' for Active; 'I' for Inactive)
REMARK    1  A    between atoms: C1_2  and  C2_3 
REMARK    2  A    between atoms: C2_3  and  C3_4 
ROOT
ATOM      1  C3  UNL d   1       3.354  -0.134  -2.418  0.00  0.00    -0.075 A 
ATOM      2  C4  UNL d   1       3.539  -1.500  -2.163  0.00  0.00     0.002 A 
ATOM      3  C5  UNL d   1       4.784  -1.983  -1.759  0.00  0.00     0.002 A 
ATOM      4  C6  UNL d   1       5.860  -1.110  -1.615  0.00  0.00    -0.004 A 
ATOM      5  C7  UNL d   1       5.692   0.247  -1.882  0.00  0.00     0.002 A 
ATOM      6  C8  UNL d   1       4.446   0.734  -2.282  0.00  0.00     0.002 A 
ENDROOT
BRANCH   1   7
ATOM      7  C2  UNL d   1       2.002   0.399  -2.828  0.00  0.00     0.056 C 
BRANCH   7   8
ATOM      8  C1  UNL d   1       1.709   0.272  -4.326  0.00  0.00     0.007 C 
ATOM      9  C   UNL d   1       0.402   0.936  -4.741  0.00  0.00     0.009 C 
ENDBRANCH   7   8
ENDBRANCH   1   7
TORSDOF 2
ENDMDL
