MODEL 1
REMARK minimizedAffinity -0.498113215
REMARK minimizedRMSD -1
REMARK  2 active torsions:
REMARK  status: ('A' for Active; 'I' for Inactive)
REMARK    1  A    between atoms: C1_2  and  C2_3 
REMARK    2  A    between atoms: C2_3  and  C3_4 
ROOT
ATOM      1  C3  UNL d   1       3.503   4.476   3.008  0.00  0.00    -0.075 A 
ATOM      2  C4  UNL d   1       3.002   5.613   3.657  0.00  0.00     0.002 A 
ATOM      3  C5  UNL d   1       3.506   6.000   4.899  0.00  0.00     0.002 A 
ATOM      4  C6  UNL d   1       4.508   5.250   5.512  0.00  0.00    -0.004 A 
ATOM      5  C7  UNL d   1       5.002   4.109   4.883  0.00  0.00     0.002 A 
ATOM      6  C8  UNL d   1       4.502   3.722   3.638  0.00  0.00     0.002 A 
ENDROOT
BRANCH   1   7
ATOM      7  C2  UNL d   1       2.982   4.069   1.650  0.00  0.00     0.056 C 
BRANCH   7   8
ATOM      8  C1  UNL d   1       3.901   4.459   0.487  0.00  0.00     0.007 C 
ATOM      9  C   UNL d   1       3.373   5.632  -0.328  0.00  0.00     0.009 C 
ENDBRANCH   7   8
ENDBRANCH   1   7
TORSDOF 2
ENDMDL
