MODEL 1
REMARK minimizedAffinity 2.973629
REMARK minimizedRMSD -1
REMARK  2 active torsions:
REMARK  status: ('A' for Active; 'I' for Inactive)
REMARK    1  A    between atoms: C1_2  and  C2_3 
REMARK    2  A    between atoms: C2_3  and  C3_4 
ROOT
ATOM      1  C3  UNL d   1      -2.908   2.887  -5.983  0.00  0.00    -0.075 A 
ATOM      2  C4  UNL d   1      -4.194   2.328  -5.968  0.00  0.00     0.002 A 
ATOM      3  C5  UNL d   1      -5.322   3.149  -5.981  0.00  0.00     0.002 A 
ATOM      4  C6  UNL d   1      -5.180   4.534  -5.999  0.00  0.00    -0.004 A 
ATOM      5  C7  UNL d   1      -3.907   5.100  -5.998  0.00  0.00     0.002 A 
ATOM      6  C8  UNL d   1      -2.776   4.282  -5.989  0.00  0.00     0.002 A 
ENDROOT
BRANCH   1   7
ATOM      7  C2  UNL d   1      -1.682   2.004  -5.999  0.00  0.00     0.056 C 
BRANCH   7   8
ATOM      8  C1  UNL d   1      -0.367   2.759  -5.776  0.00  0.00     0.007 C 
ATOM      9  C   UNL d   1       0.842   1.839  -5.669  0.00  0.00     0.009 C 
ENDBRANCH   7   8
ENDBRANCH   1   7
TORSDOF 2
ENDMDL
