MODEL 1
REMARK minimizedAffinity 2.43286848
REMARK minimizedRMSD -1
REMARK  2 active torsions:
REMARK  status: ('A' for Active; 'I' for Inactive)
REMARK    1  A    between atoms: C1_2  and  C2_3 
REMARK    2  A    between atoms: C2_3  and  C3_4 
ROOT
ATOM      1  C3  UNL d   1      -1.557   0.162   1.175  0.00  0.00    -0.075 A 
ATOM      2  C4  UNL d   1      -0.652   1.218   0.991  0.00  0.00     0.002 A 
ATOM      3  C5  UNL d   1       0.713   0.965   0.852  0.00  0.00     0.002 A 
ATOM      4  C6  UNL d   1       1.191  -0.342   0.906  0.00  0.00    -0.004 A 
ATOM      5  C7  UNL d   1       0.303  -1.397   1.105  0.00  0.00     0.002 A 
ATOM      6  C8  UNL d   1      -1.064  -1.148   1.240  0.00  0.00     0.002 A 
ENDROOT
BRANCH   1   7
ATOM      7  C2  UNL d   1      -3.039   0.427   1.296  0.00  0.00     0.056 C 
BRANCH   7   8
ATOM      8  C1  UNL d   1      -3.861  -0.073   0.103  0.00  0.00     0.007 C 
ATOM      9  C   UNL d   1      -5.283   0.473   0.083  0.00  0.00     0.009 C 
ENDBRANCH   7   8
ENDBRANCH   1   7
TORSDOF 2
ENDMDL
