MODEL 1
REMARK minimizedAffinity -2.08015847
REMARK minimizedRMSD -1
REMARK  2 active torsions:
REMARK  status: ('A' for Active; 'I' for Inactive)
REMARK    1  A    between atoms: C1_2  and  C2_3 
REMARK    2  A    between atoms: C2_3  and  C3_4 
ROOT
ATOM      1  C3  UNL d   1      -0.152   3.010  -5.590  0.00  0.00    -0.075 A 
ATOM      2  C4  UNL d   1      -0.513   4.348  -5.803  0.00  0.00     0.002 A 
ATOM      3  C5  UNL d   1      -1.849   4.699  -5.997  0.00  0.00     0.002 A 
ATOM      4  C6  UNL d   1      -2.838   3.718  -5.991  0.00  0.00    -0.004 A 
ATOM      5  C7  UNL d   1      -2.489   2.383  -5.797  0.00  0.00     0.002 A 
ATOM      6  C8  UNL d   1      -1.153   2.030  -5.598  0.00  0.00     0.002 A 
ENDROOT
BRANCH   1   7
ATOM      7  C2  UNL d   1       1.289   2.627  -5.351  0.00  0.00     0.056 C 
BRANCH   7   8
ATOM      8  C1  UNL d   1       1.470   1.461  -4.374  0.00  0.00     0.007 C 
ATOM      9  C   UNL d   1       2.255   1.840  -3.125  0.00  0.00     0.009 C 
ENDBRANCH   7   8
ENDBRANCH   1   7
TORSDOF 2
ENDMDL
