MODEL 1
REMARK minimizedAffinity 0.907382369
REMARK minimizedRMSD -1
REMARK  2 active torsions:
REMARK  status: ('A' for Active; 'I' for Inactive)
REMARK    1  A    between atoms: C1_2  and  C2_3 
REMARK    2  A    between atoms: C2_3  and  C3_4 
ROOT
ATOM      1  C3  UNL d   1      -2.656   3.976  -5.979  0.00  0.00    -0.075 A 
ATOM      2  C4  UNL d   1      -3.021   5.330  -5.998  0.00  0.00     0.002 A 
ATOM      3  C5  UNL d   1      -4.366   5.701  -5.999  0.00  0.00     0.002 A 
ATOM      4  C6  UNL d   1      -5.361   4.726  -5.992  0.00  0.00    -0.004 A 
ATOM      5  C7  UNL d   1      -5.010   3.378  -5.990  0.00  0.00     0.002 A 
ATOM      6  C8  UNL d   1      -3.665   3.003  -5.984  0.00  0.00     0.002 A 
ENDROOT
BRANCH   1   7
ATOM      7  C2  UNL d   1      -1.203   3.568  -5.948  0.00  0.00     0.056 C 
BRANCH   7   8
ATOM      8  C1  UNL d   1      -0.285   4.582  -5.257  0.00  0.00     0.007 C 
ATOM      9  C   UNL d   1       1.025   4.810  -6.000  0.00  0.00     0.009 C 
ENDBRANCH   7   8
ENDBRANCH   1   7
TORSDOF 2
ENDMDL
