MODEL 1
REMARK minimizedAffinity 0.384803236
REMARK minimizedRMSD -1
REMARK  2 active torsions:
REMARK  status: ('A' for Active; 'I' for Inactive)
REMARK    1  A    between atoms: C1_2  and  C2_3 
REMARK    2  A    between atoms: C2_3  and  C3_4 
ROOT
ATOM      1  C3  UNL d   1       0.249   2.408  -5.748  0.00  0.00    -0.075 A 
ATOM      2  C4  UNL d   1       0.370   3.799  -5.880  0.00  0.00     0.002 A 
ATOM      3  C5  UNL d   1      -0.766   4.600  -6.000  0.00  0.00     0.002 A 
ATOM      4  C6  UNL d   1      -2.034   4.021  -5.999  0.00  0.00    -0.004 A 
ATOM      5  C7  UNL d   1      -2.164   2.639  -5.885  0.00  0.00     0.002 A 
ATOM      6  C8  UNL d   1      -1.030   1.835  -5.761  0.00  0.00     0.002 A 
ENDROOT
BRANCH   1   7
ATOM      7  C2  UNL d   1       1.473   1.538  -5.588  0.00  0.00     0.056 C 
BRANCH   7   8
ATOM      8  C1  UNL d   1       1.487   0.711  -4.298  0.00  0.00     0.007 C 
ATOM      9  C   UNL d   1       1.534   1.564  -3.038  0.00  0.00     0.009 C 
ENDBRANCH   7   8
ENDBRANCH   1   7
TORSDOF 2
ENDMDL
