MODEL 1
REMARK minimizedAffinity -0.237069473
REMARK minimizedRMSD -1
REMARK  2 active torsions:
REMARK  status: ('A' for Active; 'I' for Inactive)
REMARK    1  A    between atoms: C1_2  and  C2_3 
REMARK    2  A    between atoms: C2_3  and  C3_4 
ROOT
ATOM      1  C3  UNL d   1       1.309   2.246  -0.229  0.00  0.00    -0.075 A 
ATOM      2  C4  UNL d   1       1.067   3.410  -0.974  0.00  0.00     0.002 A 
ATOM      3  C5  UNL d   1      -0.233   3.887  -1.140  0.00  0.00     0.002 A 
ATOM      4  C6  UNL d   1      -1.307   3.204  -0.574  0.00  0.00    -0.004 A 
ATOM      5  C7  UNL d   1      -1.080   2.038   0.154  0.00  0.00     0.002 A 
ATOM      6  C8  UNL d   1       0.221   1.560   0.326  0.00  0.00     0.002 A 
ENDROOT
BRANCH   1   7
ATOM      7  C2  UNL d   1       2.717   1.741  -0.021  0.00  0.00     0.056 C 
BRANCH   7   8
ATOM      8  C1  UNL d   1       3.171   0.713  -1.063  0.00  0.00     0.007 C 
ATOM      9  C   UNL d   1       2.659   1.013  -2.465  0.00  0.00     0.009 C 
ENDBRANCH   7   8
ENDBRANCH   1   7
TORSDOF 2
ENDMDL
