MODEL 1
REMARK minimizedAffinity -0.106318139
REMARK minimizedRMSD -1
REMARK  2 active torsions:
REMARK  status: ('A' for Active; 'I' for Inactive)
REMARK    1  A    between atoms: C1_2  and  C2_3 
REMARK    2  A    between atoms: C2_3  and  C3_4 
ROOT
ATOM      1  C3  UNL d   1      -2.732   3.726  -5.966  0.00  0.00    -0.075 A 
ATOM      2  C4  UNL d   1      -4.050   3.248  -5.973  0.00  0.00     0.002 A 
ATOM      3  C5  UNL d   1      -5.126   4.136  -5.994  0.00  0.00     0.002 A 
ATOM      4  C6  UNL d   1      -4.897   5.511  -5.999  0.00  0.00    -0.004 A 
ATOM      5  C7  UNL d   1      -3.592   5.997  -5.976  0.00  0.00     0.002 A 
ATOM      6  C8  UNL d   1      -2.514   5.110  -5.959  0.00  0.00     0.002 A 
ENDROOT
BRANCH   1   7
ATOM      7  C2  UNL d   1      -1.563   2.769  -5.973  0.00  0.00     0.056 C 
BRANCH   7   8
ATOM      8  C1  UNL d   1      -0.304   3.317  -5.293  0.00  0.00     0.007 C 
ATOM      9  C   UNL d   1       0.164   4.644  -5.876  0.00  0.00     0.009 C 
ENDBRANCH   7   8
ENDBRANCH   1   7
TORSDOF 2
ENDMDL
