MODEL 1
REMARK minimizedAffinity 15.3010941
REMARK minimizedRMSD -1
REMARK  1 active torsions:
REMARK  status: ('A' for Active; 'I' for Inactive)
REMARK    1  A    between atoms: C1_2  and  C2_3 
ROOT
ATOM      1  C2  UNL d   1       4.256   2.719   0.306  0.00  0.00    -0.076 A 
ATOM      2  C3  UNL d   1       3.985   3.084  -1.024  0.00  0.00     0.004 A 
ATOM      3  C4  UNL d   1       4.702   4.104  -1.648  0.00  0.00    -0.003 A 
ATOM      4  C5  UNL d   1       5.701   4.776  -0.951  0.00  0.00     0.000 A 
ATOM      5  C6  UNL d   1       5.994   4.415   0.363  0.00  0.00     0.000 A 
ATOM      6  C7  UNL d   1       5.293   3.377   1.001  0.00  0.00    -0.073 A 
ATOM      7  C8  UNL d   1       5.647   3.034   2.422  0.00  0.00     0.078 C 
ENDROOT
BRANCH   1   8
ATOM      8  C1  UNL d   1       3.428   1.623   0.939  0.00  0.00     0.053 C 
ATOM      9  C   UNL d   1       2.342   1.103   0.010  0.00  0.00     0.018 C 
ENDBRANCH   1   8
TORSDOF 1
ENDMDL
