MODEL 1
REMARK minimizedAffinity 13.8399792
REMARK minimizedRMSD -1
REMARK  1 active torsions:
REMARK  status: ('A' for Active; 'I' for Inactive)
REMARK    1  A    between atoms: C1_2  and  C2_3 
ROOT
ATOM      1  C2  UNL d   1       2.328   3.116  -2.594  0.00  0.00    -0.076 A 
ATOM      2  C3  UNL d   1       2.970   1.926  -2.210  0.00  0.00     0.004 A 
ATOM      3  C4  UNL d   1       2.503   1.175  -1.132  0.00  0.00    -0.003 A 
ATOM      4  C5  UNL d   1       1.386   1.601  -0.422  0.00  0.00     0.000 A 
ATOM      5  C6  UNL d   1       0.727   2.770  -0.801  0.00  0.00     0.000 A 
ATOM      6  C7  UNL d   1       1.174   3.531  -1.895  0.00  0.00    -0.073 A 
ATOM      7  C8  UNL d   1       0.428   4.786  -2.255  0.00  0.00     0.078 C 
ENDROOT
BRANCH   1   8
ATOM      8  C1  UNL d   1       2.896   3.903  -3.754  0.00  0.00     0.053 C 
ATOM      9  C   UNL d   1       4.220   3.341  -4.247  0.00  0.00     0.018 C 
ENDBRANCH   1   8
TORSDOF 1
ENDMDL
