MODEL 1
REMARK minimizedAffinity 13.8926754
REMARK minimizedRMSD -1
REMARK  1 active torsions:
REMARK  status: ('A' for Active; 'I' for Inactive)
REMARK    1  A    between atoms: C1_2  and  C2_3 
ROOT
ATOM      1  C2  UNL d   1       4.572   4.492  -2.543  0.00  0.00    -0.076 A 
ATOM      2  C3  UNL d   1       5.710   4.954  -3.227  0.00  0.00     0.004 A 
ATOM      3  C4  UNL d   1       5.993   4.525  -4.523  0.00  0.00    -0.003 A 
ATOM      4  C5  UNL d   1       5.141   3.626  -5.156  0.00  0.00     0.000 A 
ATOM      5  C6  UNL d   1       3.998   3.171  -4.500  0.00  0.00     0.000 A 
ATOM      6  C7  UNL d   1       3.690   3.606  -3.199  0.00  0.00    -0.073 A 
ATOM      7  C8  UNL d   1       2.448   3.078  -2.536  0.00  0.00     0.078 C 
ENDROOT
BRANCH   1   8
ATOM      8  C1  UNL d   1       4.332   4.971  -1.130  0.00  0.00     0.053 C 
ATOM      9  C   UNL d   1       5.372   5.982  -0.672  0.00  0.00     0.018 C 
ENDBRANCH   1   8
TORSDOF 1
ENDMDL
