MODEL 1
REMARK minimizedAffinity 14.8066349
REMARK minimizedRMSD -1
REMARK  1 active torsions:
REMARK  status: ('A' for Active; 'I' for Inactive)
REMARK    1  A    between atoms: C1_2  and  C2_3 
ROOT
ATOM      1  C2  UNL d   1       4.694   3.771  -3.732  0.00  0.00    -0.076 A 
ATOM      2  C3  UNL d   1       3.767   3.042  -4.497  0.00  0.00     0.004 A 
ATOM      3  C4  UNL d   1       2.559   2.617  -3.947  0.00  0.00    -0.003 A 
ATOM      4  C5  UNL d   1       2.258   2.915  -2.622  0.00  0.00     0.000 A 
ATOM      5  C6  UNL d   1       3.157   3.653  -1.854  0.00  0.00     0.000 A 
ATOM      6  C7  UNL d   1       4.373   4.103  -2.398  0.00  0.00    -0.073 A 
ATOM      7  C8  UNL d   1       5.309   4.889  -1.522  0.00  0.00     0.078 C 
ENDROOT
BRANCH   1   8
ATOM      8  C1  UNL d   1       6.000   4.181  -4.374  0.00  0.00     0.053 C 
ATOM      9  C   UNL d   1       5.999   5.635  -4.819  0.00  0.00     0.018 C 
ENDBRANCH   1   8
TORSDOF 1
ENDMDL
