MODEL 1
REMARK minimizedAffinity 13.2711363
REMARK minimizedRMSD -1
REMARK  1 active torsions:
REMARK  status: ('A' for Active; 'I' for Inactive)
REMARK    1  A    between atoms: C1_2  and  C2_3 
ROOT
ATOM      1  C2  UNL d   1       0.916   3.352  -2.694  0.00  0.00    -0.076 A 
ATOM      2  C3  UNL d   1       0.313   2.911  -1.504  0.00  0.00     0.004 A 
ATOM      3  C4  UNL d   1       0.953   1.992  -0.673  0.00  0.00    -0.003 A 
ATOM      4  C5  UNL d   1       2.207   1.500  -1.020  0.00  0.00     0.000 A 
ATOM      5  C6  UNL d   1       2.828   1.941  -2.188  0.00  0.00     0.000 A 
ATOM      6  C7  UNL d   1       2.203   2.879  -3.028  0.00  0.00    -0.073 A 
ATOM      7  C8  UNL d   1       2.916   3.315  -4.279  0.00  0.00     0.078 C 
ENDROOT
BRANCH   1   8
ATOM      8  C1  UNL d   1       0.163   4.329  -3.568  0.00  0.00     0.053 C 
ATOM      9  C   UNL d   1      -1.034   3.691  -4.257  0.00  0.00     0.018 C 
ENDBRANCH   1   8
TORSDOF 1
ENDMDL
