MODEL 1
REMARK minimizedAffinity 14.7408533
REMARK minimizedRMSD -1
REMARK  1 active torsions:
REMARK  status: ('A' for Active; 'I' for Inactive)
REMARK    1  A    between atoms: C1_2  and  C2_3 
ROOT
ATOM      1  C2  UNL d   1       3.601   3.800  -3.589  0.00  0.00    -0.076 A 
ATOM      2  C3  UNL d   1       4.304   4.539  -2.621  0.00  0.00     0.004 A 
ATOM      3  C4  UNL d   1       5.494   5.191  -2.941  0.00  0.00    -0.003 A 
ATOM      4  C5  UNL d   1       6.000   5.115  -4.234  0.00  0.00     0.000 A 
ATOM      5  C6  UNL d   1       5.307   4.401  -5.211  0.00  0.00     0.000 A 
ATOM      6  C7  UNL d   1       4.097   3.751  -4.909  0.00  0.00    -0.073 A 
ATOM      7  C8  UNL d   1       3.395   2.990  -6.000  0.00  0.00     0.078 C 
ENDROOT
BRANCH   1   8
ATOM      8  C1  UNL d   1       2.330   3.092  -3.177  0.00  0.00     0.053 C 
ATOM      9  C   UNL d   1       2.509   2.262  -1.915  0.00  0.00     0.018 C 
ENDBRANCH   1   8
TORSDOF 1
ENDMDL
