MODEL 1
REMARK minimizedAffinity 9.19920635
REMARK minimizedRMSD -1
REMARK  1 active torsions:
REMARK  status: ('A' for Active; 'I' for Inactive)
REMARK    1  A    between atoms: C1_2  and  C2_3 
ROOT
ATOM      1  C2  UNL d   1       3.465   3.664  -3.441  0.00  0.00    -0.076 A 
ATOM      2  C3  UNL d   1       4.144   4.148  -2.309  0.00  0.00     0.004 A 
ATOM      3  C4  UNL d   1       5.401   4.738  -2.425  0.00  0.00    -0.003 A 
ATOM      4  C5  UNL d   1       5.999   4.855  -3.675  0.00  0.00     0.000 A 
ATOM      5  C6  UNL d   1       5.333   4.396  -4.810  0.00  0.00     0.000 A 
ATOM      6  C7  UNL d   1       4.057   3.813  -4.713  0.00  0.00    -0.073 A 
ATOM      7  C8  UNL d   1       3.387   3.330  -5.970  0.00  0.00     0.078 C 
ENDROOT
BRANCH   1   8
ATOM      8  C1  UNL d   1       2.115   3.009  -3.251  0.00  0.00     0.053 C 
ATOM      9  C   UNL d   1       2.118   1.986  -2.125  0.00  0.00     0.018 C 
ENDBRANCH   1   8
TORSDOF 1
ENDMDL
