MODEL 1
REMARK minimizedAffinity 16.05373
REMARK minimizedRMSD -1
REMARK  1 active torsions:
REMARK  status: ('A' for Active; 'I' for Inactive)
REMARK    1  A    between atoms: C1_2  and  C2_3 
ROOT
ATOM      1  C2  UNL d   1      -4.038   0.152   1.847  0.00  0.00    -0.076 A 
ATOM      2  C3  UNL d   1      -4.169   1.367   2.542  0.00  0.00     0.004 A 
ATOM      3  C4  UNL d   1      -3.191   1.788   3.442  0.00  0.00    -0.003 A 
ATOM      4  C5  UNL d   1      -2.066   1.001   3.662  0.00  0.00     0.000 A 
ATOM      5  C6  UNL d   1      -1.911  -0.199   2.968  0.00  0.00     0.000 A 
ATOM      6  C7  UNL d   1      -2.880  -0.630   2.045  0.00  0.00    -0.073 A 
ATOM      7  C8  UNL d   1      -2.664  -1.935   1.329  0.00  0.00     0.078 C 
ENDROOT
BRANCH   1   8
ATOM      8  C1  UNL d   1      -5.143  -0.266   0.904  0.00  0.00     0.053 C 
ATOM      9  C   UNL d   1      -5.481   0.814  -0.112  0.00  0.00     0.018 C 
ENDBRANCH   1   8
TORSDOF 1
ENDMDL
