MODEL 1
REMARK minimizedAffinity -2.17642927
REMARK minimizedRMSD -1
REMARK  1 active torsions:
REMARK  status: ('A' for Active; 'I' for Inactive)
REMARK    1  A    between atoms: C1_2  and  C2_3 
ROOT
ATOM      1  C2  UNL d   1      -4.001   0.583   3.106  0.00  0.00    -0.076 A 
ATOM      2  C3  UNL d   1      -2.812   0.826   3.816  0.00  0.00     0.004 A 
ATOM      3  C4  UNL d   1      -1.611   0.239   3.425  0.00  0.00    -0.003 A 
ATOM      4  C5  UNL d   1      -1.578  -0.601   2.317  0.00  0.00     0.000 A 
ATOM      5  C6  UNL d   1      -2.744  -0.839   1.591  0.00  0.00     0.000 A 
ATOM      6  C7  UNL d   1      -3.961  -0.242   1.962  0.00  0.00    -0.073 A 
ATOM      7  C8  UNL d   1      -5.189  -0.538   1.146  0.00  0.00     0.078 C 
ENDROOT
BRANCH   1   8
ATOM      8  C1  UNL d   1      -5.280   1.227   3.593  0.00  0.00     0.053 C 
ATOM      9  C   UNL d   1      -5.645   0.801   5.007  0.00  0.00     0.018 C 
ENDBRANCH   1   8
TORSDOF 1
ENDMDL
