MODEL 1
REMARK minimizedAffinity 11.1202621
REMARK minimizedRMSD -1
REMARK  1 active torsions:
REMARK  status: ('A' for Active; 'I' for Inactive)
REMARK    1  A    between atoms: C1_2  and  C2_3 
ROOT
ATOM      1  C2  UNL d   1      -3.607   0.776   2.749  0.00  0.00    -0.076 A 
ATOM      2  C3  UNL d   1      -3.575   1.249   4.073  0.00  0.00     0.004 A 
ATOM      3  C4  UNL d   1      -4.735   1.698   4.702  0.00  0.00    -0.003 A 
ATOM      4  C5  UNL d   1      -5.946   1.680   4.018  0.00  0.00     0.000 A 
ATOM      5  C6  UNL d   1      -5.999   1.198   2.711  0.00  0.00     0.000 A 
ATOM      6  C7  UNL d   1      -4.842   0.727   2.067  0.00  0.00    -0.073 A 
ATOM      7  C8  UNL d   1      -4.956   0.223   0.655  0.00  0.00     0.078 C 
ENDROOT
BRANCH   1   8
ATOM      8  C1  UNL d   1      -2.312   0.328   2.109  0.00  0.00     0.053 C 
ATOM      9  C   UNL d   1      -1.565  -0.690   2.957  0.00  0.00     0.018 C 
ENDBRANCH   1   8
TORSDOF 1
ENDMDL
