MODEL 1
REMARK minimizedAffinity 10.4023323
REMARK minimizedRMSD -1
REMARK  1 active torsions:
REMARK  status: ('A' for Active; 'I' for Inactive)
REMARK    1  A    between atoms: C1_2  and  C2_3 
ROOT
ATOM      1  C2  UNL d   1      -0.968  -1.266   2.630  0.00  0.00    -0.076 A 
ATOM      2  C3  UNL d   1      -1.348  -0.207   3.472  0.00  0.00     0.004 A 
ATOM      3  C4  UNL d   1      -2.689   0.130   3.642  0.00  0.00    -0.003 A 
ATOM      4  C5  UNL d   1      -3.674  -0.588   2.972  0.00  0.00     0.000 A 
ATOM      5  C6  UNL d   1      -3.317  -1.653   2.146  0.00  0.00     0.000 A 
ATOM      6  C7  UNL d   1      -1.970  -2.016   1.977  0.00  0.00    -0.073 A 
ATOM      7  C8  UNL d   1      -1.641  -3.170   1.070  0.00  0.00     0.078 C 
ENDROOT
BRANCH   1   8
ATOM      8  C1  UNL d   1       0.504  -1.568   2.464  0.00  0.00     0.053 C 
ATOM      9  C   UNL d   1       1.141  -2.085   3.745  0.00  0.00     0.018 C 
ENDBRANCH   1   8
TORSDOF 1
ENDMDL
