MODEL 1
REMARK minimizedAffinity 10.2375784
REMARK minimizedRMSD -1
REMARK  1 active torsions:
REMARK  status: ('A' for Active; 'I' for Inactive)
REMARK    1  A    between atoms: C1_2  and  C2_3 
ROOT
ATOM      1  C2  UNL d   1       5.116   3.691  -0.447  0.00  0.00    -0.076 A 
ATOM      2  C3  UNL d   1       6.000   4.194   0.524  0.00  0.00     0.004 A 
ATOM      3  C4  UNL d   1       5.893   3.809   1.859  0.00  0.00    -0.003 A 
ATOM      4  C5  UNL d   1       4.900   2.916   2.246  0.00  0.00     0.000 A 
ATOM      5  C6  UNL d   1       4.026   2.394   1.294  0.00  0.00     0.000 A 
ATOM      6  C7  UNL d   1       4.130   2.758  -0.060  0.00  0.00    -0.073 A 
ATOM      7  C8  UNL d   1       3.156   2.169  -1.043  0.00  0.00     0.078 C 
ENDROOT
BRANCH   1   8
ATOM      8  C1  UNL d   1       5.263   4.165  -1.875  0.00  0.00     0.053 C 
ATOM      9  C   UNL d   1       5.988   5.498  -1.975  0.00  0.00     0.018 C 
ENDBRANCH   1   8
TORSDOF 1
ENDMDL
