MODEL 1
REMARK minimizedAffinity 4.81063271
REMARK minimizedRMSD -1
REMARK  1 active torsions:
REMARK  status: ('A' for Active; 'I' for Inactive)
REMARK    1  A    between atoms: C1_2  and  C2_3 
ROOT
ATOM      1  C2  UNL d   1      -2.082  -0.807   1.931  0.00  0.00    -0.076 A 
ATOM      2  C3  UNL d   1      -1.351  -2.004   1.833  0.00  0.00     0.004 A 
ATOM      3  C4  UNL d   1      -0.318  -2.289   2.724  0.00  0.00    -0.003 A 
ATOM      4  C5  UNL d   1       0.000  -1.382   3.729  0.00  0.00     0.000 A 
ATOM      5  C6  UNL d   1      -0.726  -0.198   3.852  0.00  0.00     0.000 A 
ATOM      6  C7  UNL d   1      -1.781   0.097   2.971  0.00  0.00    -0.073 A 
ATOM      7  C8  UNL d   1      -2.526   1.392   3.146  0.00  0.00     0.078 C 
ENDROOT
BRANCH   1   8
ATOM      8  C1  UNL d   1      -3.173  -0.540   0.919  0.00  0.00     0.053 C 
ATOM      9  C   UNL d   1      -4.548  -0.434   1.560  0.00  0.00     0.018 C 
ENDBRANCH   1   8
TORSDOF 1
ENDMDL
