MODEL 1
REMARK minimizedAffinity 14.3436403
REMARK minimizedRMSD -1
REMARK  1 active torsions:
REMARK  status: ('A' for Active; 'I' for Inactive)
REMARK    1  A    between atoms: C1_2  and  C2_3 
ROOT
ATOM      1  C2  UNL d   1       2.623   3.120  -3.282  0.00  0.00    -0.076 A 
ATOM      2  C3  UNL d   1       1.703   4.109  -3.673  0.00  0.00     0.004 A 
ATOM      3  C4  UNL d   1       0.431   4.169  -3.108  0.00  0.00    -0.003 A 
ATOM      4  C5  UNL d   1       0.057   3.241  -2.142  0.00  0.00     0.000 A 
ATOM      5  C6  UNL d   1       0.962   2.264  -1.730  0.00  0.00     0.000 A 
ATOM      6  C7  UNL d   1       2.255   2.199  -2.278  0.00  0.00    -0.073 A 
ATOM      7  C8  UNL d   1       3.188   1.121  -1.801  0.00  0.00     0.078 C 
ENDROOT
BRANCH   1   8
ATOM      8  C1  UNL d   1       3.979   3.087  -3.950  0.00  0.00     0.053 C 
ATOM      9  C   UNL d   1       3.888   2.806  -5.442  0.00  0.00     0.018 C 
ENDBRANCH   1   8
TORSDOF 1
ENDMDL
