MODEL 1
REMARK minimizedAffinity 15.0596876
REMARK minimizedRMSD -1
REMARK  1 active torsions:
REMARK  status: ('A' for Active; 'I' for Inactive)
REMARK    1  A    between atoms: C1_2  and  C2_3 
ROOT
ATOM      1  C2  UNL d   1       4.809   4.199  -2.411  0.00  0.00    -0.076 A 
ATOM      2  C3  UNL d   1       3.783   3.450  -1.809  0.00  0.00     0.004 A 
ATOM      3  C4  UNL d   1       2.863   2.743  -2.581  0.00  0.00    -0.003 A 
ATOM      4  C5  UNL d   1       2.954   2.772  -3.968  0.00  0.00     0.000 A 
ATOM      5  C6  UNL d   1       3.976   3.496  -4.582  0.00  0.00     0.000 A 
ATOM      6  C7  UNL d   1       4.922   4.201  -3.818  0.00  0.00    -0.073 A 
ATOM      7  C8  UNL d   1       5.999   4.970  -4.532  0.00  0.00     0.078 C 
ENDROOT
BRANCH   1   8
ATOM      8  C1  UNL d   1       5.761   4.968  -1.523  0.00  0.00     0.053 C 
ATOM      9  C   UNL d   1       5.995   4.281  -0.187  0.00  0.00     0.018 C 
ENDBRANCH   1   8
TORSDOF 1
ENDMDL
