MODEL 1
REMARK minimizedAffinity 21.8608456
REMARK minimizedRMSD -1
REMARK  1 active torsions:
REMARK  status: ('A' for Active; 'I' for Inactive)
REMARK    1  A    between atoms: C1_2  and  C2_3 
ROOT
ATOM      1  C2  UNL d   1      -2.561  -2.580   1.299  0.00  0.00    -0.076 A 
ATOM      2  C3  UNL d   1      -1.416  -2.848   2.069  0.00  0.00     0.004 A 
ATOM      3  C4  UNL d   1      -0.450  -1.866   2.285  0.00  0.00    -0.003 A 
ATOM      4  C5  UNL d   1      -0.615  -0.600   1.735  0.00  0.00     0.000 A 
ATOM      5  C6  UNL d   1      -1.754  -0.311   0.984  0.00  0.00     0.000 A 
ATOM      6  C7  UNL d   1      -2.744  -1.285   0.770  0.00  0.00    -0.073 A 
ATOM      7  C8  UNL d   1      -3.949  -0.921  -0.053  0.00  0.00     0.078 C 
ENDROOT
BRANCH   1   8
ATOM      8  C1  UNL d   1      -3.561  -3.693   1.076  0.00  0.00     0.053 C 
ATOM      9  C   UNL d   1      -3.676  -4.621   2.275  0.00  0.00     0.018 C 
ENDBRANCH   1   8
TORSDOF 1
ENDMDL
