MODEL 1
REMARK minimizedAffinity 14.0132236
REMARK minimizedRMSD -1
REMARK  1 active torsions:
REMARK  status: ('A' for Active; 'I' for Inactive)
REMARK    1  A    between atoms: C1_2  and  C2_3 
ROOT
ATOM      1  C2  UNL d   1      -0.439  -2.314   2.498  0.00  0.00    -0.076 A 
ATOM      2  C3  UNL d   1      -0.676  -1.412   3.550  0.00  0.00     0.004 A 
ATOM      3  C4  UNL d   1      -1.814  -0.607   3.563  0.00  0.00    -0.003 A 
ATOM      4  C5  UNL d   1      -2.735  -0.692   2.525  0.00  0.00     0.000 A 
ATOM      5  C6  UNL d   1      -2.525  -1.594   1.482  0.00  0.00     0.000 A 
ATOM      6  C7  UNL d   1      -1.391  -2.424   1.461  0.00  0.00    -0.073 A 
ATOM      7  C8  UNL d   1      -1.212  -3.374   0.309  0.00  0.00     0.078 C 
ENDROOT
BRANCH   1   8
ATOM      8  C1  UNL d   1       0.826  -3.141   2.523  0.00  0.00     0.053 C 
ATOM      9  C   UNL d   1       1.532  -3.084   3.869  0.00  0.00     0.018 C 
ENDBRANCH   1   8
TORSDOF 1
ENDMDL
