MODEL 1
REMARK minimizedAffinity 4.12680101
REMARK minimizedRMSD -1
REMARK  1 active torsions:
REMARK  status: ('A' for Active; 'I' for Inactive)
REMARK    1  A    between atoms: C1_2  and  C2_3 
ROOT
ATOM      1  C2  UNL d   1      -0.319  -4.876  -4.369  0.00  0.00    -0.076 A 
ATOM      2  C3  UNL d   1      -0.595  -5.969  -5.209  0.00  0.00     0.004 A 
ATOM      3  C4  UNL d   1      -1.748  -5.999  -5.992  0.00  0.00    -0.003 A 
ATOM      4  C5  UNL d   1      -2.643  -4.935  -5.948  0.00  0.00     0.000 A 
ATOM      5  C6  UNL d   1      -2.376  -3.835  -5.134  0.00  0.00     0.000 A 
ATOM      6  C7  UNL d   1      -1.210  -3.782  -4.351  0.00  0.00    -0.073 A 
ATOM      7  C8  UNL d   1      -0.975  -2.574  -3.487  0.00  0.00     0.078 C 
ENDROOT
BRANCH   1   8
ATOM      8  C1  UNL d   1       0.933  -4.912  -3.523  0.00  0.00     0.053 C 
ATOM      9  C   UNL d   1       1.908  -5.991  -3.969  0.00  0.00     0.018 C 
ENDBRANCH   1   8
TORSDOF 1
ENDMDL
