MODEL 1
REMARK minimizedAffinity 22.4543533
REMARK minimizedRMSD -1
REMARK  1 active torsions:
REMARK  status: ('A' for Active; 'I' for Inactive)
REMARK    1  A    between atoms: C1_2  and  C2_3 
ROOT
ATOM      1  C2  UNL d   1       4.872   3.697  -3.395  0.00  0.00    -0.076 A 
ATOM      2  C3  UNL d   1       3.804   3.282  -4.210  0.00  0.00     0.004 A 
ATOM      3  C4  UNL d   1       2.751   2.533  -3.687  0.00  0.00    -0.003 A 
ATOM      4  C5  UNL d   1       2.749   2.188  -2.340  0.00  0.00     0.000 A 
ATOM      5  C6  UNL d   1       3.791   2.606  -1.513  0.00  0.00     0.000 A 
ATOM      6  C7  UNL d   1       4.852   3.375  -2.021  0.00  0.00    -0.073 A 
ATOM      7  C8  UNL d   1       5.953   3.793  -1.085  0.00  0.00     0.078 C 
ENDROOT
BRANCH   1   8
ATOM      8  C1  UNL d   1       6.000   4.484  -4.024  0.00  0.00     0.053 C 
ATOM      9  C   UNL d   1       5.687   5.968  -4.128  0.00  0.00     0.018 C 
ENDBRANCH   1   8
TORSDOF 1
ENDMDL
