MODEL 1
REMARK minimizedAffinity 6.25300694
REMARK minimizedRMSD -1
REMARK  1 active torsions:
REMARK  status: ('A' for Active; 'I' for Inactive)
REMARK    1  A    between atoms: C1_2  and  C2_3 
ROOT
ATOM      1  C2  UNL d   1       0.036   4.076  -3.516  0.00  0.00    -0.076 A 
ATOM      2  C3  UNL d   1       0.721   2.970  -4.049  0.00  0.00     0.004 A 
ATOM      3  C4  UNL d   1       1.985   2.615  -3.578  0.00  0.00    -0.003 A 
ATOM      4  C5  UNL d   1       2.583   3.360  -2.568  0.00  0.00     0.000 A 
ATOM      5  C6  UNL d   1       1.909   4.449  -2.016  0.00  0.00     0.000 A 
ATOM      6  C7  UNL d   1       0.628   4.811  -2.467  0.00  0.00    -0.073 A 
ATOM      7  C8  UNL d   1      -0.049   5.998  -1.841  0.00  0.00     0.078 C 
ENDROOT
BRANCH   1   8
ATOM      8  C1  UNL d   1      -1.320   4.429  -4.085  0.00  0.00     0.053 C 
ATOM      9  C   UNL d   1      -1.252   4.821  -5.553  0.00  0.00     0.018 C 
ENDBRANCH   1   8
TORSDOF 1
ENDMDL
