MODEL 1
REMARK minimizedAffinity 16.7385807
REMARK minimizedRMSD -1
REMARK  1 active torsions:
REMARK  status: ('A' for Active; 'I' for Inactive)
REMARK    1  A    between atoms: C1_2  and  C2_3 
ROOT
ATOM      1  C2  UNL d   1       3.411   3.321  -3.259  0.00  0.00    -0.076 A 
ATOM      2  C3  UNL d   1       4.067   3.842  -2.130  0.00  0.00     0.004 A 
ATOM      3  C4  UNL d   1       5.351   4.376  -2.229  0.00  0.00    -0.003 A 
ATOM      4  C5  UNL d   1       5.999   4.398  -3.459  0.00  0.00     0.000 A 
ATOM      5  C6  UNL d   1       5.356   3.901  -4.592  0.00  0.00     0.000 A 
ATOM      6  C7  UNL d   1       4.056   3.375  -4.513  0.00  0.00    -0.073 A 
ATOM      7  C8  UNL d   1       3.413   2.847  -5.766  0.00  0.00     0.078 C 
ENDROOT
BRANCH   1   8
ATOM      8  C1  UNL d   1       2.030   2.730  -3.085  0.00  0.00     0.053 C 
ATOM      9  C   UNL d   1       2.028   1.511  -2.175  0.00  0.00     0.018 C 
ENDBRANCH   1   8
TORSDOF 1
ENDMDL
