MODEL 1
REMARK minimizedAffinity 21.8684616
REMARK minimizedRMSD -1
REMARK  1 active torsions:
REMARK  status: ('A' for Active; 'I' for Inactive)
REMARK    1  A    between atoms: C1_2  and  C2_3 
ROOT
ATOM      1  C2  UNL d   1      -3.161  -2.708   0.319  0.00  0.00    -0.076 A 
ATOM      2  C3  UNL d   1      -4.008  -1.589   0.247  0.00  0.00     0.004 A 
ATOM      3  C4  UNL d   1      -3.965  -0.725  -0.846  0.00  0.00    -0.003 A 
ATOM      4  C5  UNL d   1      -3.074  -0.968  -1.886  0.00  0.00     0.000 A 
ATOM      5  C6  UNL d   1      -2.239  -2.084  -1.840  0.00  0.00     0.000 A 
ATOM      6  C7  UNL d   1      -2.281  -2.973  -0.752  0.00  0.00    -0.073 A 
ATOM      7  C8  UNL d   1      -1.354  -4.157  -0.751  0.00  0.00     0.078 C 
ENDROOT
BRANCH   1   8
ATOM      8  C1  UNL d   1      -3.234  -3.594   1.543  0.00  0.00     0.053 C 
ATOM      9  C   UNL d   1      -3.993  -4.886   1.282  0.00  0.00     0.018 C 
ENDBRANCH   1   8
TORSDOF 1
ENDMDL
