MODEL 1
REMARK minimizedAffinity 20.8065376
REMARK minimizedRMSD -1
REMARK  1 active torsions:
REMARK  status: ('A' for Active; 'I' for Inactive)
REMARK    1  A    between atoms: C1_2  and  C2_3 
ROOT
ATOM      1  C2  UNL d   1       4.618   4.391  -3.845  0.00  0.00    -0.076 A 
ATOM      2  C3  UNL d   1       3.863   3.450  -4.566  0.00  0.00     0.004 A 
ATOM      3  C4  UNL d   1       2.594   3.067  -4.135  0.00  0.00    -0.003 A 
ATOM      4  C5  UNL d   1       2.059   3.620  -2.977  0.00  0.00     0.000 A 
ATOM      5  C6  UNL d   1       2.787   4.568  -2.259  0.00  0.00     0.000 A 
ATOM      6  C7  UNL d   1       4.062   4.977  -2.688  0.00  0.00    -0.073 A 
ATOM      7  C8  UNL d   1       4.805   5.998  -1.872  0.00  0.00     0.078 C 
ENDROOT
BRANCH   1   8
ATOM      8  C1  UNL d   1       6.000   4.747  -4.346  0.00  0.00     0.053 C 
ATOM      9  C   UNL d   1       6.000   5.993  -5.219  0.00  0.00     0.018 C 
ENDBRANCH   1   8
TORSDOF 1
ENDMDL
