MODEL 1
REMARK minimizedAffinity 18.4245377
REMARK minimizedRMSD -1
REMARK  1 active torsions:
REMARK  status: ('A' for Active; 'I' for Inactive)
REMARK    1  A    between atoms: C1_2  and  C2_3 
ROOT
ATOM      1  C2  UNL d   1       3.294   3.487  -3.562  0.00  0.00    -0.076 A 
ATOM      2  C3  UNL d   1       3.966   4.135  -2.511  0.00  0.00     0.004 A 
ATOM      3  C4  UNL d   1       5.245   4.658  -2.691  0.00  0.00    -0.003 A 
ATOM      4  C5  UNL d   1       5.873   4.541  -3.926  0.00  0.00     0.000 A 
ATOM      5  C6  UNL d   1       5.215   3.917  -4.985  0.00  0.00     0.000 A 
ATOM      6  C7  UNL d   1       3.918   3.399  -4.825  0.00  0.00    -0.073 A 
ATOM      7  C8  UNL d   1       3.257   2.731  -5.999  0.00  0.00     0.078 C 
ENDROOT
BRANCH   1   8
ATOM      8  C1  UNL d   1       1.918   2.916  -3.300  0.00  0.00     0.053 C 
ATOM      9  C   UNL d   1       1.923   1.870  -2.196  0.00  0.00     0.018 C 
ENDBRANCH   1   8
TORSDOF 1
ENDMDL
