MODEL 1
REMARK minimizedAffinity 16.1965065
REMARK minimizedRMSD -1
REMARK  1 active torsions:
REMARK  status: ('A' for Active; 'I' for Inactive)
REMARK    1  A    between atoms: C1_2  and  C2_3 
ROOT
ATOM      1  C2  UNL d   1      -1.694  -4.632  -3.597  0.00  0.00    -0.076 A 
ATOM      2  C3  UNL d   1      -3.011  -4.928  -3.987  0.00  0.00     0.004 A 
ATOM      3  C4  UNL d   1      -3.272  -5.602  -5.179  0.00  0.00    -0.003 A 
ATOM      4  C5  UNL d   1      -2.219  -5.991  -6.000  0.00  0.00     0.000 A 
ATOM      5  C6  UNL d   1      -0.905  -5.722  -5.620  0.00  0.00     0.000 A 
ATOM      6  C7  UNL d   1      -0.624  -5.058  -4.413  0.00  0.00    -0.073 A 
ATOM      7  C8  UNL d   1       0.812  -4.787  -4.056  0.00  0.00     0.078 C 
ENDROOT
BRANCH   1   8
ATOM      8  C1  UNL d   1      -1.473  -3.875  -2.307  0.00  0.00     0.053 C 
ATOM      9  C   UNL d   1      -1.625  -2.372  -2.480  0.00  0.00     0.018 C 
ENDBRANCH   1   8
TORSDOF 1
ENDMDL
