MODEL 1
REMARK minimizedAffinity 16.0329247
REMARK minimizedRMSD -1
REMARK  1 active torsions:
REMARK  status: ('A' for Active; 'I' for Inactive)
REMARK    1  A    between atoms: C1_2  and  C2_3 
ROOT
ATOM      1  C2  UNL d   1      -0.388  -1.611   2.530  0.00  0.00    -0.076 A 
ATOM      2  C3  UNL d   1      -0.442  -0.537   3.435  0.00  0.00     0.004 A 
ATOM      3  C4  UNL d   1      -1.520   0.347   3.436  0.00  0.00    -0.003 A 
ATOM      4  C5  UNL d   1      -2.561   0.171   2.532  0.00  0.00     0.000 A 
ATOM      5  C6  UNL d   1      -2.533  -0.900   1.639  0.00  0.00     0.000 A 
ATOM      6  C7  UNL d   1      -1.462  -1.810   1.636  0.00  0.00    -0.073 A 
ATOM      7  C8  UNL d   1      -1.480  -2.943   0.647  0.00  0.00     0.078 C 
ENDROOT
BRANCH   1   8
ATOM      8  C1  UNL d   1       0.819  -2.521   2.558  0.00  0.00     0.053 C 
ATOM      9  C   UNL d   1       1.641  -2.361   3.828  0.00  0.00     0.018 C 
ENDBRANCH   1   8
TORSDOF 1
ENDMDL
