MODEL 1
REMARK minimizedAffinity 13.6641321
REMARK minimizedRMSD -1
REMARK  1 active torsions:
REMARK  status: ('A' for Active; 'I' for Inactive)
REMARK    1  A    between atoms: C1_2  and  C2_3 
ROOT
ATOM      1  C2  UNL d   1      -1.425  -3.220   1.667  0.00  0.00    -0.076 A 
ATOM      2  C3  UNL d   1      -0.207  -3.696   2.183  0.00  0.00     0.004 A 
ATOM      3  C4  UNL d   1       0.725  -2.823   2.743  0.00  0.00    -0.003 A 
ATOM      4  C5  UNL d   1       0.453  -1.460   2.797  0.00  0.00     0.000 A 
ATOM      5  C6  UNL d   1      -0.758  -0.973   2.306  0.00  0.00     0.000 A 
ATOM      6  C7  UNL d   1      -1.715  -1.841   1.753  0.00  0.00    -0.073 A 
ATOM      7  C8  UNL d   1      -3.001  -1.260   1.233  0.00  0.00     0.078 C 
ENDROOT
BRANCH   1   8
ATOM      8  C1  UNL d   1      -2.385  -4.210   1.047  0.00  0.00     0.053 C 
ATOM      9  C   UNL d   1      -3.710  -4.280   1.790  0.00  0.00     0.018 C 
ENDBRANCH   1   8
TORSDOF 1
ENDMDL
