MODEL 1
REMARK minimizedAffinity 6.51340246
REMARK minimizedRMSD -1
REMARK  0 active torsions:
REMARK  status: ('A' for Active; 'I' for Inactive)
ROOT
ATOM      1  C   UNL d   1      -2.095   1.778   1.114  0.00  0.00     0.078 C 
ATOM      2  C1  UNL d   1      -3.454   2.412   1.122  0.00  0.00    -0.077 A 
ATOM      3  C2  UNL d   1      -4.241   2.417   2.280  0.00  0.00    -0.001 A 
ATOM      4  C3  UNL d   1      -5.508   3.002   2.269  0.00  0.00     0.003 A 
ATOM      5  C4  UNL d   1      -6.000   3.585   1.104  0.00  0.00    -0.005 A 
ATOM      6  C5  UNL d   1      -5.225   3.583  -0.054  0.00  0.00     0.003 A 
ATOM      7  C6  UNL d   1      -3.958   2.999  -0.046  0.00  0.00    -0.001 A 
ENDROOT
TORSDOF 0
ENDMDL
