MODEL 1
REMARK minimizedAffinity 12.9728317
REMARK minimizedRMSD -1
REMARK  0 active torsions:
REMARK  status: ('A' for Active; 'I' for Inactive)
ROOT
ATOM      1  C   UNL d   1       3.018  -3.648   4.195  0.00  0.00     0.078 C 
ATOM      2  C1  UNL d   1       2.636  -2.379   3.494  0.00  0.00    -0.077 A 
ATOM      3  C2  UNL d   1       2.567  -2.320   2.097  0.00  0.00    -0.001 A 
ATOM      4  C3  UNL d   1       2.219  -1.129   1.457  0.00  0.00     0.003 A 
ATOM      5  C4  UNL d   1       1.938   0.011   2.206  0.00  0.00    -0.005 A 
ATOM      6  C5  UNL d   1       2.005  -0.037   3.597  0.00  0.00     0.003 A 
ATOM      7  C6  UNL d   1       2.353  -1.227   4.239  0.00  0.00    -0.001 A 
ENDROOT
TORSDOF 0
ENDMDL
