MODEL 1
REMARK minimizedAffinity 2.42587423
REMARK minimizedRMSD -1
REMARK  0 active torsions:
REMARK  status: ('A' for Active; 'I' for Inactive)
ROOT
ATOM      1  C   UNL d   1       2.639  -5.933  -2.315  0.00  0.00     0.078 C 
ATOM      2  C1  UNL d   1       3.458  -5.928  -3.571  0.00  0.00    -0.077 A 
ATOM      3  C2  UNL d   1       2.848  -5.996  -4.830  0.00  0.00    -0.001 A 
ATOM      4  C3  UNL d   1       3.623  -6.000  -5.991  0.00  0.00     0.003 A 
ATOM      5  C4  UNL d   1       5.012  -5.938  -5.905  0.00  0.00    -0.005 A 
ATOM      6  C5  UNL d   1       5.628  -5.874  -4.657  0.00  0.00     0.003 A 
ATOM      7  C6  UNL d   1       4.855  -5.869  -3.495  0.00  0.00    -0.001 A 
ENDROOT
TORSDOF 0
ENDMDL
