MODEL 1
REMARK minimizedAffinity 2.93236971
REMARK minimizedRMSD -1
REMARK  0 active torsions:
REMARK  status: ('A' for Active; 'I' for Inactive)
ROOT
ATOM      1  C   UNL d   1       3.918   5.628  -2.401  0.00  0.00     0.078 C 
ATOM      2  C1  UNL d   1       3.072   4.935  -1.375  0.00  0.00    -0.077 A 
ATOM      3  C2  UNL d   1       1.951   5.565  -0.819  0.00  0.00    -0.001 A 
ATOM      4  C3  UNL d   1       1.179   4.912   0.143  0.00  0.00     0.003 A 
ATOM      5  C4  UNL d   1       1.520   3.626   0.559  0.00  0.00    -0.005 A 
ATOM      6  C5  UNL d   1       2.635   2.993   0.014  0.00  0.00     0.003 A 
ATOM      7  C6  UNL d   1       3.408   3.644  -0.948  0.00  0.00    -0.001 A 
ENDROOT
TORSDOF 0
ENDMDL
