MODEL 1
REMARK minimizedAffinity 1.61953104
REMARK minimizedRMSD -1
REMARK  0 active torsions:
REMARK  status: ('A' for Active; 'I' for Inactive)
ROOT
ATOM      1  C   UNL d   1       0.748  -5.581   5.999  0.00  0.00     0.078 C 
ATOM      2  C1  UNL d   1       1.968  -4.841   5.537  0.00  0.00    -0.077 A 
ATOM      3  C2  UNL d   1       3.242  -5.191   6.000  0.00  0.00    -0.001 A 
ATOM      4  C3  UNL d   1       4.368  -4.487   5.568  0.00  0.00     0.003 A 
ATOM      5  C4  UNL d   1       4.230  -3.428   4.674  0.00  0.00    -0.005 A 
ATOM      6  C5  UNL d   1       2.966  -3.071   4.210  0.00  0.00     0.003 A 
ATOM      7  C6  UNL d   1       1.839  -3.773   4.640  0.00  0.00    -0.001 A 
ENDROOT
TORSDOF 0
ENDMDL
