MODEL 1
REMARK minimizedAffinity 1.11905456
REMARK minimizedRMSD -1
REMARK  0 active torsions:
REMARK  status: ('A' for Active; 'I' for Inactive)
ROOT
ATOM      1  C   UNL d   1       4.747  -2.418   5.999  0.00  0.00     0.078 C 
ATOM      2  C1  UNL d   1       3.795  -1.747   5.055  0.00  0.00    -0.077 A 
ATOM      3  C2  UNL d   1       3.246  -2.441   3.970  0.00  0.00    -0.001 A 
ATOM      4  C3  UNL d   1       2.368  -1.800   3.093  0.00  0.00     0.003 A 
ATOM      5  C4  UNL d   1       2.033  -0.463   3.293  0.00  0.00    -0.005 A 
ATOM      6  C5  UNL d   1       2.575   0.237   4.368  0.00  0.00     0.003 A 
ATOM      7  C6  UNL d   1       3.453  -0.402   5.246  0.00  0.00    -0.001 A 
ENDROOT
TORSDOF 0
ENDMDL
