MODEL 1
REMARK minimizedAffinity -0.429603577
REMARK minimizedRMSD -1
REMARK  0 active torsions:
REMARK  status: ('A' for Active; 'I' for Inactive)
ROOT
ATOM      1  C   UNL d   1       0.523  -5.518   5.616  0.00  0.00     0.078 C 
ATOM      2  C1  UNL d   1       1.608  -4.614   5.114  0.00  0.00    -0.077 A 
ATOM      3  C2  UNL d   1       1.349  -3.654   4.127  0.00  0.00    -0.001 A 
ATOM      4  C3  UNL d   1       2.371  -2.826   3.662  0.00  0.00     0.003 A 
ATOM      5  C4  UNL d   1       3.660  -2.950   4.176  0.00  0.00    -0.005 A 
ATOM      6  C5  UNL d   1       3.929  -3.903   5.156  0.00  0.00     0.003 A 
ATOM      7  C6  UNL d   1       2.908  -4.732   5.623  0.00  0.00    -0.001 A 
ENDROOT
TORSDOF 0
ENDMDL
