MODEL 1
REMARK minimizedAffinity 7.28185272
REMARK minimizedRMSD -1
REMARK  0 active torsions:
REMARK  status: ('A' for Active; 'I' for Inactive)
ROOT
ATOM      1  C   UNL d   1       5.996   5.598  -5.987  0.00  0.00     0.078 C 
ATOM      2  C1  UNL d   1       5.292   5.633  -4.664  0.00  0.00    -0.077 A 
ATOM      3  C2  UNL d   1       5.977   5.970  -3.491  0.00  0.00    -0.001 A 
ATOM      4  C3  UNL d   1       5.311   5.990  -2.264  0.00  0.00     0.003 A 
ATOM      5  C4  UNL d   1       3.956   5.671  -2.199  0.00  0.00    -0.005 A 
ATOM      6  C5  UNL d   1       3.266   5.331  -3.361  0.00  0.00     0.003 A 
ATOM      7  C6  UNL d   1       3.930   5.311  -4.588  0.00  0.00    -0.001 A 
ENDROOT
TORSDOF 0
ENDMDL
