MODEL 1
REMARK minimizedAffinity 5.69016218
REMARK minimizedRMSD -1
REMARK  0 active torsions:
REMARK  status: ('A' for Active; 'I' for Inactive)
ROOT
ATOM      1  C   UNL d   1       2.253   1.216   5.472  0.00  0.00     0.078 C 
ATOM      2  C1  UNL d   1       2.451   0.030   4.577  0.00  0.00    -0.077 A 
ATOM      3  C2  UNL d   1       2.841  -1.210   5.097  0.00  0.00    -0.001 A 
ATOM      4  C3  UNL d   1       3.031  -2.303   4.251  0.00  0.00     0.003 A 
ATOM      5  C4  UNL d   1       2.834  -2.167   2.878  0.00  0.00    -0.005 A 
ATOM      6  C5  UNL d   1       2.447  -0.937   2.350  0.00  0.00     0.003 A 
ATOM      7  C6  UNL d   1       2.257   0.157   3.195  0.00  0.00    -0.001 A 
ENDROOT
TORSDOF 0
ENDMDL
