MODEL 1
REMARK minimizedAffinity 1.63406193
REMARK minimizedRMSD -1
REMARK  0 active torsions:
REMARK  status: ('A' for Active; 'I' for Inactive)
ROOT
ATOM      1  C   UNL d   1       2.660   1.707   5.588  0.00  0.00     0.078 C 
ATOM      2  C1  UNL d   1       2.600   0.524   4.668  0.00  0.00    -0.077 A 
ATOM      3  C2  UNL d   1       3.028  -0.740   5.091  0.00  0.00    -0.001 A 
ATOM      4  C3  UNL d   1       2.977  -1.830   4.221  0.00  0.00     0.003 A 
ATOM      5  C4  UNL d   1       2.499  -1.667   2.922  0.00  0.00    -0.005 A 
ATOM      6  C5  UNL d   1       2.073  -0.412   2.492  0.00  0.00     0.003 A 
ATOM      7  C6  UNL d   1       2.124   0.679   3.361  0.00  0.00    -0.001 A 
ENDROOT
TORSDOF 0
ENDMDL
