MODEL 1
REMARK minimizedAffinity -5.07349634
REMARK minimizedRMSD -1
REMARK  1 active torsions:
REMARK  status: ('A' for Active; 'I' for Inactive)
REMARK    1  A    between atoms: C3_4  and  O_7 
ROOT
ATOM      1  C   UNL d   1      -0.190   0.590  -0.152  0.00  0.00    -0.033 A 
ATOM      2  C1  UNL d   1       0.716   1.461   0.457  0.00  0.00     0.039 A 
ATOM      3  C2  UNL d   1       1.990   1.012   0.809  0.00  0.00    -0.080 A 
ATOM      4  C3  UNL d   1       2.346  -0.308   0.546  0.00  0.00     0.150 A 
ATOM      5  C4  UNL d   1       1.450  -1.180  -0.063  0.00  0.00    -0.007 A 
ATOM      6  C5  UNL d   1       0.178  -0.730  -0.413  0.00  0.00     0.039 A 
ENDROOT
BRANCH   4   7
ATOM      7  O   UNL d   1       3.576  -0.793   0.876  0.00  0.00    -0.526 OA
ATOM      8  H5  UNL d   1       4.078  -0.086   1.316  0.00  0.00     0.418 HD
ENDBRANCH   4   7
TORSDOF 1
ENDMDL
