MODEL 1
REMARK minimizedAffinity -1.82325423
REMARK minimizedRMSD -1
REMARK  1 active torsions:
REMARK  status: ('A' for Active; 'I' for Inactive)
REMARK    1  A    between atoms: C3_4  and  O_7 
ROOT
ATOM      1  C   UNL d   1       3.077   1.286   0.429  0.00  0.00    -0.033 A 
ATOM      2  C1  UNL d   1       2.444   0.546   1.430  0.00  0.00     0.039 A 
ATOM      3  C2  UNL d   1       1.082   0.255   1.331  0.00  0.00    -0.080 A 
ATOM      4  C3  UNL d   1       0.365   0.709   0.227  0.00  0.00     0.150 A 
ATOM      5  C4  UNL d   1       0.990   1.443  -0.776  0.00  0.00    -0.007 A 
ATOM      6  C5  UNL d   1       2.350   1.733  -0.675  0.00  0.00     0.039 A 
ENDROOT
BRANCH   4   7
ATOM      7  O   UNL d   1      -0.967   0.454   0.089  0.00  0.00    -0.526 OA
ATOM      8  H5  UNL d   1      -1.269  -0.038   0.871  0.00  0.00     0.418 HD
ENDBRANCH   4   7
TORSDOF 1
ENDMDL
