MODEL 1
REMARK minimizedAffinity -4.52005959
REMARK minimizedRMSD -1
REMARK  1 active torsions:
REMARK  status: ('A' for Active; 'I' for Inactive)
REMARK    1  A    between atoms: C3_4  and  O_7 
ROOT
ATOM      1  C   UNL d   1       2.460  -1.207   2.389  0.00  0.00    -0.033 A 
ATOM      2  C1  UNL d   1       1.363  -2.070   2.376  0.00  0.00     0.039 A 
ATOM      3  C2  UNL d   1       0.231  -1.752   1.623  0.00  0.00    -0.080 A 
ATOM      4  C3  UNL d   1       0.210  -0.571   0.886  0.00  0.00     0.150 A 
ATOM      5  C4  UNL d   1       1.301   0.291   0.891  0.00  0.00    -0.007 A 
ATOM      6  C5  UNL d   1       2.430  -0.027   1.644  0.00  0.00     0.039 A 
ENDROOT
BRANCH   4   7
ATOM      7  O   UNL d   1      -0.874  -0.217   0.140  0.00  0.00    -0.526 OA
ATOM      8  H5  UNL d   1      -1.562  -0.893   0.255  0.00  0.00     0.418 HD
ENDBRANCH   4   7
TORSDOF 1
ENDMDL
