MODEL 1
REMARK minimizedAffinity -5.15438795
REMARK minimizedRMSD -1
REMARK  1 active torsions:
REMARK  status: ('A' for Active; 'I' for Inactive)
REMARK    1  A    between atoms: C3_4  and  O_7 
ROOT
ATOM      1  C   UNL d   1       0.004   0.569  -0.440  0.00  0.00    -0.033 A 
ATOM      2  C1  UNL d   1       0.681   1.321   0.522  0.00  0.00     0.039 A 
ATOM      3  C2  UNL d   1       1.945   0.921   0.961  0.00  0.00    -0.080 A 
ATOM      4  C3  UNL d   1       2.520  -0.230   0.430  0.00  0.00     0.150 A 
ATOM      5  C4  UNL d   1       1.853  -0.982  -0.531  0.00  0.00    -0.007 A 
ATOM      6  C5  UNL d   1       0.590  -0.582  -0.967  0.00  0.00     0.039 A 
ENDROOT
BRANCH   4   7
ATOM      7  O   UNL d   1       3.749  -0.662   0.830  0.00  0.00    -0.526 OA
ATOM      8  H5  UNL d   1       4.078  -0.060   1.519  0.00  0.00     0.418 HD
ENDBRANCH   4   7
TORSDOF 1
ENDMDL
