MODEL 1
REMARK minimizedAffinity -3.39304781
REMARK minimizedRMSD -1
REMARK  1 active torsions:
REMARK  status: ('A' for Active; 'I' for Inactive)
REMARK    1  A    between atoms: C3_4  and  O_7 
ROOT
ATOM      1  C   UNL d   1       2.316  -0.209   1.899  0.00  0.00    -0.033 A 
ATOM      2  C1  UNL d   1       1.354  -1.211   2.040  0.00  0.00     0.039 A 
ATOM      3  C2  UNL d   1       0.212  -1.204   1.237  0.00  0.00    -0.080 A 
ATOM      4  C3  UNL d   1       0.044  -0.190   0.298  0.00  0.00     0.150 A 
ATOM      5  C4  UNL d   1       0.999   0.810   0.150  0.00  0.00    -0.007 A 
ATOM      6  C5  UNL d   1       2.139   0.801   0.953  0.00  0.00     0.039 A 
ENDROOT
BRANCH   4   7
ATOM      7  O   UNL d   1      -1.056  -0.138  -0.505  0.00  0.00    -0.526 OA
ATOM      8  H5  UNL d   1      -1.643  -0.876  -0.271  0.00  0.00     0.418 HD
ENDBRANCH   4   7
TORSDOF 1
ENDMDL
