MODEL 1
REMARK minimizedAffinity -5.03107834
REMARK minimizedRMSD -1
REMARK  1 active torsions:
REMARK  status: ('A' for Active; 'I' for Inactive)
REMARK    1  A    between atoms: C3_4  and  O_7 
ROOT
ATOM      1  C   UNL d   1      -0.141  -1.169   0.382  0.00  0.00    -0.033 A 
ATOM      2  C1  UNL d   1       0.354  -0.208  -0.502  0.00  0.00     0.039 A 
ATOM      3  C2  UNL d   1       1.693   0.183  -0.432  0.00  0.00    -0.080 A 
ATOM      4  C3  UNL d   1       2.525  -0.395   0.523  0.00  0.00     0.150 A 
ATOM      5  C4  UNL d   1       2.039  -1.355   1.404  0.00  0.00    -0.007 A 
ATOM      6  C5  UNL d   1       0.702  -1.744   1.334  0.00  0.00     0.039 A 
ENDROOT
BRANCH   4   7
ATOM      7  O   UNL d   1       3.837  -0.042   0.632  0.00  0.00    -0.526 OA
ATOM      8  H5  UNL d   1       4.025   0.652  -0.022  0.00  0.00     0.418 HD
ENDBRANCH   4   7
TORSDOF 1
ENDMDL
