MODEL 1
REMARK minimizedAffinity -4.91935444
REMARK minimizedRMSD -1
REMARK  1 active torsions:
REMARK  status: ('A' for Active; 'I' for Inactive)
REMARK    1  A    between atoms: C3_4  and  O_7 
ROOT
ATOM      1  C   UNL d   1       0.630   1.656  -0.132  0.00  0.00    -0.033 A 
ATOM      2  C1  UNL d   1      -0.589   0.980  -0.056  0.00  0.00     0.039 A 
ATOM      3  C2  UNL d   1      -0.647  -0.297   0.507  0.00  0.00    -0.080 A 
ATOM      4  C3  UNL d   1       0.519  -0.884   0.991  0.00  0.00     0.150 A 
ATOM      5  C4  UNL d   1       1.736  -0.214   0.922  0.00  0.00    -0.007 A 
ATOM      6  C5  UNL d   1       1.792   1.060   0.359  0.00  0.00     0.039 A 
ENDROOT
BRANCH   4   7
ATOM      7  O   UNL d   1       0.512  -2.130   1.544  0.00  0.00    -0.526 OA
ATOM      8  H5  UNL d   1      -0.392  -2.482   1.498  0.00  0.00     0.418 HD
ENDBRANCH   4   7
TORSDOF 1
ENDMDL
