MODEL 1
REMARK minimizedAffinity -4.33087111
REMARK minimizedRMSD -1
REMARK  1 active torsions:
REMARK  status: ('A' for Active; 'I' for Inactive)
REMARK    1  A    between atoms: C3_4  and  O_7 
ROOT
ATOM      1  C   UNL d   1       2.311  -1.134   1.837  0.00  0.00    -0.033 A 
ATOM      2  C1  UNL d   1       2.353  -0.022   0.994  0.00  0.00     0.039 A 
ATOM      3  C2  UNL d   1       1.200   0.393   0.325  0.00  0.00    -0.080 A 
ATOM      4  C3  UNL d   1       0.013  -0.311   0.509  0.00  0.00     0.150 A 
ATOM      5  C4  UNL d   1      -0.037  -1.417   1.351  0.00  0.00    -0.007 A 
ATOM      6  C5  UNL d   1       1.116  -1.831   2.017  0.00  0.00     0.039 A 
ENDROOT
BRANCH   4   7
ATOM      7  O   UNL d   1      -1.137   0.053  -0.126  0.00  0.00    -0.526 OA
ATOM      8  H5  UNL d   1      -0.946   0.816  -0.696  0.00  0.00     0.418 HD
ENDBRANCH   4   7
TORSDOF 1
ENDMDL
