MODEL 1
REMARK minimizedAffinity -4.89762688
REMARK minimizedRMSD -1
REMARK  1 active torsions:
REMARK  status: ('A' for Active; 'I' for Inactive)
REMARK    1  A    between atoms: C3_4  and  O_7 
ROOT
ATOM      1  C   UNL d   1      -0.251   0.006   0.318  0.00  0.00    -0.033 A 
ATOM      2  C1  UNL d   1       0.362  -1.239   0.469  0.00  0.00     0.039 A 
ATOM      3  C2  UNL d   1       1.700  -1.317   0.863  0.00  0.00    -0.080 A 
ATOM      4  C3  UNL d   1       2.411  -0.144   1.103  0.00  0.00     0.150 A 
ATOM      5  C4  UNL d   1       1.804   1.099   0.958  0.00  0.00    -0.007 A 
ATOM      6  C5  UNL d   1       0.469   1.175   0.563  0.00  0.00     0.039 A 
ENDROOT
BRANCH   4   7
ATOM      7  O   UNL d   1       3.719  -0.170   1.485  0.00  0.00    -0.526 OA
ATOM      8  H5  UNL d   1       4.012  -1.095   1.516  0.00  0.00     0.418 HD
ENDBRANCH   4   7
TORSDOF 1
ENDMDL
