MODEL 1
REMARK minimizedAffinity -3.51276469
REMARK minimizedRMSD -1
REMARK  1 active torsions:
REMARK  status: ('A' for Active; 'I' for Inactive)
REMARK    1  A    between atoms: C3_4  and  O_7 
ROOT
ATOM      1  C   UNL d   1       2.446   0.481   0.986  0.00  0.00    -0.033 A 
ATOM      2  C1  UNL d   1       2.104   1.440   0.031  0.00  0.00     0.039 A 
ATOM      3  C2  UNL d   1       0.866   1.378  -0.611  0.00  0.00    -0.080 A 
ATOM      4  C3  UNL d   1      -0.019   0.353  -0.290  0.00  0.00     0.150 A 
ATOM      5  C4  UNL d   1       0.313  -0.605   0.663  0.00  0.00    -0.007 A 
ATOM      6  C5  UNL d   1       1.550  -0.541   1.303  0.00  0.00     0.039 A 
ENDROOT
BRANCH   4   7
ATOM      7  O   UNL d   1      -1.237   0.247  -0.895  0.00  0.00    -0.526 OA
ATOM      8  H5  UNL d   1      -1.318   0.960  -1.550  0.00  0.00     0.418 HD
ENDBRANCH   4   7
TORSDOF 1
ENDMDL
