MODEL 1
REMARK minimizedAffinity 4.37996531
REMARK minimizedRMSD -1
REMARK  2 active torsions:
REMARK  status: ('A' for Active; 'I' for Inactive)
REMARK    1  A    between atoms: C2'_3  and  C1'_4 
REMARK    2  A    between atoms: C1'_4  and  C1_5 
ROOT
ATOM      1  C1  I4B d   1       1.603   0.387   1.287  0.00  0.00    -0.075 A 
ATOM      2  C2  I4B d   1       2.948   0.427   1.014  0.00  0.00     0.003 A 
ATOM      3  C3  I4B d   1       3.501   1.528   0.317  0.00  0.00     0.002 A 
ATOM      4  C4  I4B d   1       2.670   2.535  -0.131  0.00  0.00    -0.004 A 
ATOM      5  C5  I4B d   1       1.311   2.504   0.166  0.00  0.00     0.002 A 
ATOM      6  C6  I4B d   1       0.775   1.429   0.890  0.00  0.00     0.003 A 
ENDROOT
BRANCH   1   7
ATOM      7  C1' I4B d   1       1.047  -0.807   1.997  0.00  0.00     0.060 C 
BRANCH   7   8
ATOM      8  C2' I4B d   1       0.453  -1.734   0.957  0.00  0.00    -0.013 C 
ATOM      9  C4' I4B d   1       1.088  -3.099   1.016  0.00  0.00     0.013 C 
ATOM     10  C3' I4B d   1      -1.025  -1.813   1.197  0.00  0.00     0.013 C 
ENDBRANCH   7   8
ENDBRANCH   1   7
TORSDOF 2
ENDMDL
