MODEL 1
REMARK minimizedAffinity 3.50050735
REMARK minimizedRMSD -1
REMARK  2 active torsions:
REMARK  status: ('A' for Active; 'I' for Inactive)
REMARK    1  A    between atoms: C2'_3  and  C1'_4 
REMARK    2  A    between atoms: C1'_4  and  C1_5 
ROOT
ATOM      1  C1  I4B d   1      -1.474  -1.904  -0.134  0.00  0.00    -0.075 A 
ATOM      2  C2  I4B d   1      -0.642  -2.913   0.283  0.00  0.00     0.003 A 
ATOM      3  C3  I4B d   1       0.342  -2.662   1.270  0.00  0.00     0.002 A 
ATOM      4  C4  I4B d   1       0.491  -1.386   1.774  0.00  0.00    -0.004 A 
ATOM      5  C5  I4B d   1      -0.370  -0.371   1.367  0.00  0.00     0.002 A 
ATOM      6  C6  I4B d   1      -1.367  -0.633   0.416  0.00  0.00     0.003 A 
ENDROOT
BRANCH   1   7
ATOM      7  C1' I4B d   1      -2.480  -2.195  -1.202  0.00  0.00     0.060 C 
BRANCH   7   8
ATOM      8  C2' I4B d   1      -2.059  -1.454  -2.454  0.00  0.00    -0.013 C 
ATOM      9  C4' I4B d   1      -0.805  -2.045  -3.042  0.00  0.00     0.013 C 
ATOM     10  C3' I4B d   1      -3.195  -1.513  -3.432  0.00  0.00     0.013 C 
ENDBRANCH   7   8
ENDBRANCH   1   7
TORSDOF 2
ENDMDL
