MODEL 1
REMARK minimizedAffinity 1.44659889
REMARK minimizedRMSD -1
REMARK  2 active torsions:
REMARK  status: ('A' for Active; 'I' for Inactive)
REMARK    1  A    between atoms: C2'_3  and  C1'_4 
REMARK    2  A    between atoms: C1'_4  and  C1_5 
ROOT
ATOM      1  C1  I4B d   1       1.500   2.349   0.351  0.00  0.00    -0.075 A 
ATOM      2  C2  I4B d   1       0.156   2.257   0.615  0.00  0.00     0.003 A 
ATOM      3  C3  I4B d   1      -0.727   3.275   0.180  0.00  0.00     0.002 A 
ATOM      4  C4  I4B d   1      -0.220   4.383  -0.468  0.00  0.00    -0.004 A 
ATOM      5  C5  I4B d   1       1.140   4.463  -0.755  0.00  0.00     0.002 A 
ATOM      6  C6  I4B d   1       2.004   3.434  -0.355  0.00  0.00     0.003 A 
ENDROOT
BRANCH   1   7
ATOM      7  C1' I4B d   1       2.409   1.272   0.854  0.00  0.00     0.060 C 
BRANCH   7   8
ATOM      8  C2' I4B d   1       1.643  -0.035   0.827  0.00  0.00    -0.013 C 
ATOM      9  C4' I4B d   1       2.044  -0.878  -0.354  0.00  0.00     0.013 C 
ATOM     10  C3' I4B d   1       1.906  -0.752   2.118  0.00  0.00     0.013 C 
ENDBRANCH   7   8
ENDBRANCH   1   7
TORSDOF 2
ENDMDL
