MODEL 1
REMARK minimizedAffinity 14.1176424
REMARK minimizedRMSD -1
REMARK  2 active torsions:
REMARK  status: ('A' for Active; 'I' for Inactive)
REMARK    1  A    between atoms: C2'_3  and  C1'_4 
REMARK    2  A    between atoms: C1'_4  and  C1_5 
ROOT
ATOM      1  C1  I4B d   1       2.509   1.735   0.857  0.00  0.00    -0.075 A 
ATOM      2  C2  I4B d   1       2.981   1.379  -0.382  0.00  0.00     0.003 A 
ATOM      3  C3  I4B d   1       3.559   0.103  -0.585  0.00  0.00     0.002 A 
ATOM      4  C4  I4B d   1       3.690  -0.762   0.482  0.00  0.00    -0.004 A 
ATOM      5  C5  I4B d   1       3.190  -0.409   1.732  0.00  0.00     0.002 A 
ATOM      6  C6  I4B d   1       2.585   0.842   1.919  0.00  0.00     0.003 A 
ENDROOT
BRANCH   1   7
ATOM      7  C1' I4B d   1       1.935   3.103   1.044  0.00  0.00     0.060 C 
BRANCH   7   8
ATOM      8  C2' I4B d   1       1.839   3.759  -0.318  0.00  0.00    -0.013 C 
ATOM      9  C4' I4B d   1       0.704   4.748  -0.368  0.00  0.00     0.013 C 
ATOM     10  C3' I4B d   1       3.152   4.427  -0.604  0.00  0.00     0.013 C 
ENDBRANCH   7   8
ENDBRANCH   1   7
TORSDOF 2
ENDMDL
