MODEL 1
REMARK minimizedAffinity 9.12926197
REMARK minimizedRMSD -1
REMARK  2 active torsions:
REMARK  status: ('A' for Active; 'I' for Inactive)
REMARK    1  A    between atoms: C2'_3  and  C1'_4 
REMARK    2  A    between atoms: C1'_4  and  C1_5 
ROOT
ATOM      1  C1  I4B d   1      -0.655  -2.382  -1.272  0.00  0.00    -0.075 A 
ATOM      2  C2  I4B d   1      -1.407  -2.042  -0.176  0.00  0.00     0.003 A 
ATOM      3  C3  I4B d   1      -0.922  -2.302   1.129  0.00  0.00     0.002 A 
ATOM      4  C4  I4B d   1       0.288  -2.945   1.289  0.00  0.00    -0.004 A 
ATOM      5  C5  I4B d   1       1.060  -3.268   0.176  0.00  0.00     0.002 A 
ATOM      6  C6  I4B d   1       0.591  -2.974  -1.112  0.00  0.00     0.003 A 
ENDROOT
BRANCH   1   7
ATOM      7  C1' I4B d   1      -1.212  -2.123  -2.636  0.00  0.00     0.060 C 
BRANCH   7   8
ATOM      8  C2' I4B d   1      -2.723  -2.144  -2.535  0.00  0.00    -0.013 C 
ATOM      9  C4' I4B d   1      -3.357  -1.396  -3.679  0.00  0.00     0.013 C 
ATOM     10  C3' I4B d   1      -3.166  -3.577  -2.514  0.00  0.00     0.013 C 
ENDBRANCH   7   8
ENDBRANCH   1   7
TORSDOF 2
ENDMDL
