MODEL 1
REMARK minimizedAffinity 4.59612799
REMARK minimizedRMSD -1
REMARK  2 active torsions:
REMARK  status: ('A' for Active; 'I' for Inactive)
REMARK    1  A    between atoms: C2'_3  and  C1'_4 
REMARK    2  A    between atoms: C1'_4  and  C1_5 
ROOT
ATOM      1  C1  I4B d   1       1.727  -0.182   1.154  0.00  0.00    -0.075 A 
ATOM      2  C2  I4B d   1       2.094  -0.406  -0.150  0.00  0.00     0.003 A 
ATOM      3  C3  I4B d   1       1.792   0.551  -1.150  0.00  0.00     0.002 A 
ATOM      4  C4  I4B d   1       1.082   1.685  -0.812  0.00  0.00    -0.004 A 
ATOM      5  C5  I4B d   1       0.731   1.921   0.514  0.00  0.00     0.002 A 
ATOM      6  C6  I4B d   1       1.066   0.988   1.505  0.00  0.00     0.003 A 
ENDROOT
BRANCH   1   7
ATOM      7  C1' I4B d   1       2.033  -1.228   2.178  0.00  0.00     0.060 C 
BRANCH   7   8
ATOM      8  C2' I4B d   1       0.718  -1.742   2.728  0.00  0.00    -0.013 C 
ATOM      9  C4' I4B d   1       0.109  -2.771   1.811  0.00  0.00     0.013 C 
ATOM     10  C3' I4B d   1       0.978  -2.316   4.089  0.00  0.00     0.013 C 
ENDBRANCH   7   8
ENDBRANCH   1   7
TORSDOF 2
ENDMDL
