MODEL 1
REMARK minimizedAffinity -1.38620448
REMARK minimizedRMSD -1
REMARK  0 active torsions:
REMARK  status: ('A' for Active; 'I' for Inactive)
ROOT
ATOM      1  C   UNL d   1      -0.445   2.237   1.056  0.00  0.00     0.023 A 
ATOM      2  C1  UNL d   1       0.767   1.762   0.553  0.00  0.00     0.003 A 
ATOM      3  C2  UNL d   1       0.886   0.427   0.161  0.00  0.00     0.048 A 
ATOM      4  C3  UNL d   1      -0.210  -0.427   0.274  0.00  0.00     0.023 A 
ATOM      5  C4  UNL d   1      -1.424   0.044   0.776  0.00  0.00     0.048 A 
ATOM      6  C5  UNL d   1      -1.539   1.379   1.167  0.00  0.00     0.003 A 
ATOM      7  I   UNL d   1      -0.035  -2.415  -0.308  0.00  0.00    -0.146 I 
ENDROOT
TORSDOF 0
ENDMDL
