MODEL 1
REMARK minimizedAffinity 1.73956144
REMARK minimizedRMSD -1
REMARK  0 active torsions:
REMARK  status: ('A' for Active; 'I' for Inactive)
ROOT
ATOM      1  C   UNL d   1      -1.869   0.469   0.183  0.00  0.00     0.023 A 
ATOM      2  C1  UNL d   1      -0.791  -0.405   0.317  0.00  0.00     0.003 A 
ATOM      3  C2  UNL d   1       0.477   0.090   0.627  0.00  0.00     0.048 A 
ATOM      4  C3  UNL d   1       0.660   1.461   0.803  0.00  0.00     0.023 A 
ATOM      5  C4  UNL d   1      -0.417   2.340   0.670  0.00  0.00     0.048 A 
ATOM      6  C5  UNL d   1      -1.682   1.840   0.359  0.00  0.00     0.003 A 
ATOM      7  I   UNL d   1       2.546   2.202   1.264  0.00  0.00    -0.146 I 
ENDROOT
TORSDOF 0
ENDMDL
