MODEL 1
REMARK minimizedAffinity -2.95270133
REMARK minimizedRMSD -1
REMARK  0 active torsions:
REMARK  status: ('A' for Active; 'I' for Inactive)
ROOT
ATOM      1  C   UNL d   1      -0.134   2.944   0.574  0.00  0.00     0.023 A 
ATOM      2  C1  UNL d   1      -1.338   2.244   0.662  0.00  0.00     0.003 A 
ATOM      3  C2  UNL d   1      -1.380   0.883   0.352  0.00  0.00     0.048 A 
ATOM      4  C3  UNL d   1      -0.215   0.227  -0.044  0.00  0.00     0.023 A 
ATOM      5  C4  UNL d   1       0.992   0.923  -0.133  0.00  0.00     0.048 A 
ATOM      6  C5  UNL d   1       1.029   2.284   0.177  0.00  0.00     0.003 A 
ATOM      7  I   UNL d   1      -0.276  -1.798  -0.505  0.00  0.00    -0.146 I 
ENDROOT
TORSDOF 0
ENDMDL
