MODEL 1
REMARK minimizedAffinity -3.27033901
REMARK minimizedRMSD -1
REMARK  0 active torsions:
REMARK  status: ('A' for Active; 'I' for Inactive)
ROOT
ATOM      1  C   UNL d   1       0.180   2.967   0.654  0.00  0.00     0.023 A 
ATOM      2  C1  UNL d   1       1.358   2.259   0.891  0.00  0.00     0.003 A 
ATOM      3  C2  UNL d   1       1.411   0.886   0.641  0.00  0.00     0.048 A 
ATOM      4  C3  UNL d   1       0.282   0.228   0.153  0.00  0.00     0.023 A 
ATOM      5  C4  UNL d   1      -0.898   0.933  -0.087  0.00  0.00     0.048 A 
ATOM      6  C5  UNL d   1      -0.947   2.305   0.166  0.00  0.00     0.003 A 
ATOM      7  I   UNL d   1       0.358  -1.815  -0.220  0.00  0.00    -0.146 I 
ENDROOT
TORSDOF 0
ENDMDL
