MODEL 1
REMARK minimizedAffinity -2.87429404
REMARK minimizedRMSD -1
REMARK  0 active torsions:
REMARK  status: ('A' for Active; 'I' for Inactive)
ROOT
ATOM      1  C   UNL d   1      -0.639   2.441   0.600  0.00  0.00     0.023 A 
ATOM      2  C1  UNL d   1      -1.804   1.759   0.246  0.00  0.00     0.003 A 
ATOM      3  C2  UNL d   1      -1.741   0.415  -0.126  0.00  0.00     0.048 A 
ATOM      4  C3  UNL d   1      -0.511  -0.242  -0.140  0.00  0.00     0.023 A 
ATOM      5  C4  UNL d   1       0.656   0.435   0.214  0.00  0.00     0.048 A 
ATOM      6  C5  UNL d   1       0.589   1.780   0.584  0.00  0.00     0.003 A 
ATOM      7  I   UNL d   1      -0.416  -2.244  -0.693  0.00  0.00    -0.146 I 
ENDROOT
TORSDOF 0
ENDMDL
