MODEL 1
REMARK minimizedAffinity -2.87567449
REMARK minimizedRMSD -1
REMARK  0 active torsions:
REMARK  status: ('A' for Active; 'I' for Inactive)
ROOT
ATOM      1  C   UNL d   1      -0.089   2.345   0.854  0.00  0.00     0.023 A 
ATOM      2  C1  UNL d   1       1.030   1.617   0.448  0.00  0.00     0.003 A 
ATOM      3  C2  UNL d   1       0.882   0.310  -0.020  0.00  0.00     0.048 A 
ATOM      4  C3  UNL d   1      -0.387  -0.264  -0.080  0.00  0.00     0.023 A 
ATOM      5  C4  UNL d   1      -1.510   0.461   0.324  0.00  0.00     0.048 A 
ATOM      6  C5  UNL d   1      -1.357   1.767   0.792  0.00  0.00     0.003 A 
ATOM      7  I   UNL d   1      -0.609  -2.209  -0.777  0.00  0.00    -0.146 I 
ENDROOT
TORSDOF 0
ENDMDL
