MODEL 1
REMARK minimizedAffinity 0.110000513
REMARK minimizedRMSD -1
REMARK  0 active torsions:
REMARK  status: ('A' for Active; 'I' for Inactive)
ROOT
ATOM      1  C   UNL d   1      -0.697   2.647   0.983  0.00  0.00     0.023 A 
ATOM      2  C1  UNL d   1      -1.672   1.677   1.218  0.00  0.00     0.003 A 
ATOM      3  C2  UNL d   1      -1.490   0.375   0.747  0.00  0.00     0.048 A 
ATOM      4  C3  UNL d   1      -0.331   0.049   0.044  0.00  0.00     0.023 A 
ATOM      5  C4  UNL d   1       0.648   1.016  -0.192  0.00  0.00     0.048 A 
ATOM      6  C5  UNL d   1       0.461   2.317   0.279  0.00  0.00     0.003 A 
ATOM      7  I   UNL d   1      -0.058  -1.888  -0.656  0.00  0.00    -0.146 I 
ENDROOT
TORSDOF 0
ENDMDL
