MODEL 1
REMARK minimizedAffinity -2.94546175
REMARK minimizedRMSD -1
REMARK  0 active torsions:
REMARK  status: ('A' for Active; 'I' for Inactive)
ROOT
ATOM      1  C   UNL d   1       0.939   2.673   0.988  0.00  0.00     0.023 A 
ATOM      2  C1  UNL d   1       1.969   1.765   0.746  0.00  0.00     0.003 A 
ATOM      3  C2  UNL d   1       1.674   0.471   0.313  0.00  0.00     0.048 A 
ATOM      4  C3  UNL d   1       0.345   0.092   0.122  0.00  0.00     0.023 A 
ATOM      5  C4  UNL d   1      -0.689   0.998   0.361  0.00  0.00     0.048 A 
ATOM      6  C5  UNL d   1      -0.389   2.291   0.796  0.00  0.00     0.003 A 
ATOM      7  I   UNL d   1      -0.097  -1.833  -0.524  0.00  0.00    -0.146 I 
ENDROOT
TORSDOF 0
ENDMDL
