MODEL 1
REMARK minimizedAffinity -2.39480972
REMARK minimizedRMSD -1
REMARK  0 active torsions:
REMARK  status: ('A' for Active; 'I' for Inactive)
ROOT
ATOM      1  C   UNL d   1       0.484   2.208   0.970  0.00  0.00     0.023 A 
ATOM      2  C1  UNL d   1       1.557   1.318   0.912  0.00  0.00     0.003 A 
ATOM      3  C2  UNL d   1       1.362   0.016   0.445  0.00  0.00     0.048 A 
ATOM      4  C3  UNL d   1       0.092  -0.388   0.037  0.00  0.00     0.023 A 
ATOM      5  C4  UNL d   1      -0.985   0.499   0.093  0.00  0.00     0.048 A 
ATOM      6  C5  UNL d   1      -0.785   1.798   0.561  0.00  0.00     0.003 A 
ATOM      7  I   UNL d   1      -0.201  -2.325  -0.659  0.00  0.00    -0.146 I 
ENDROOT
TORSDOF 0
ENDMDL
