MODEL 1
REMARK minimizedAffinity -2.34165859
REMARK minimizedRMSD -1
REMARK  0 active torsions:
REMARK  status: ('A' for Active; 'I' for Inactive)
ROOT
ATOM      1  C   UNL d   1       2.534  -0.634   0.589  0.00  0.00     0.023 A 
ATOM      2  C1  UNL d   1       1.523  -1.595   0.600  0.00  0.00     0.003 A 
ATOM      3  C2  UNL d   1       0.184  -1.202   0.550  0.00  0.00     0.048 A 
ATOM      4  C3  UNL d   1      -0.137   0.154   0.489  0.00  0.00     0.023 A 
ATOM      5  C4  UNL d   1       0.871   1.119   0.478  0.00  0.00     0.048 A 
ATOM      6  C5  UNL d   1       2.209   0.721   0.529  0.00  0.00     0.003 A 
ATOM      7  I   UNL d   1      -2.129   0.741   0.415  0.00  0.00    -0.146 I 
ENDROOT
TORSDOF 0
ENDMDL
