MODEL 1
REMARK minimizedAffinity -0.657355785
REMARK minimizedRMSD -1
REMARK  0 active torsions:
REMARK  status: ('A' for Active; 'I' for Inactive)
ROOT
ATOM      1  C   UNL d   1       0.739  -1.706  -0.334  0.00  0.00     0.023 A 
ATOM      2  C1  UNL d   1      -0.495  -1.176   0.044  0.00  0.00     0.003 A 
ATOM      3  C2  UNL d   1      -0.605   0.176   0.373  0.00  0.00     0.048 A 
ATOM      4  C3  UNL d   1       0.523   0.994   0.321  0.00  0.00     0.023 A 
ATOM      5  C4  UNL d   1       1.760   0.470  -0.058  0.00  0.00     0.048 A 
ATOM      6  C5  UNL d   1       1.865  -0.884  -0.385  0.00  0.00     0.003 A 
ATOM      7  I   UNL d   1       0.362   3.008   0.810  0.00  0.00    -0.146 I 
ENDROOT
TORSDOF 0
ENDMDL
