MODEL 1
REMARK minimizedAffinity -3.59469938
REMARK minimizedRMSD -1
REMARK  0 active torsions:
REMARK  status: ('A' for Active; 'I' for Inactive)
ROOT
ATOM      1  C   UNL d   1       0.123  -3.201  -1.942  0.00  0.00     0.023 A 
ATOM      2  C1  UNL d   1      -0.167  -3.240  -0.578  0.00  0.00     0.003 A 
ATOM      3  C2  UNL d   1      -0.582  -2.081   0.082  0.00  0.00     0.048 A 
ATOM      4  C3  UNL d   1      -0.706  -0.887  -0.628  0.00  0.00     0.023 A 
ATOM      5  C4  UNL d   1      -0.417  -0.844  -1.993  0.00  0.00     0.048 A 
ATOM      6  C5  UNL d   1      -0.001  -2.005  -2.649  0.00  0.00     0.003 A 
ATOM      7  I   UNL d   1      -1.323   0.838   0.352  0.00  0.00    -0.146 I 
ENDROOT
TORSDOF 0
ENDMDL
