MODEL 1
REMARK minimizedAffinity -1.8548559
REMARK minimizedRMSD -1
REMARK  0 active torsions:
REMARK  status: ('A' for Active; 'I' for Inactive)
ROOT
ATOM      1  C   UNL d   1      -0.029  -4.021  -1.518  0.00  0.00     0.023 A 
ATOM      2  C1  UNL d   1      -1.006  -3.168  -2.033  0.00  0.00     0.003 A 
ATOM      3  C2  UNL d   1      -1.229  -1.923  -1.441  0.00  0.00     0.048 A 
ATOM      4  C3  UNL d   1      -0.472  -1.537  -0.336  0.00  0.00     0.023 A 
ATOM      5  C4  UNL d   1       0.507  -2.387   0.181  0.00  0.00     0.048 A 
ATOM      6  C5  UNL d   1       0.726  -3.631  -0.413  0.00  0.00     0.003 A 
ATOM      7  I   UNL d   1      -0.802   0.316   0.546  0.00  0.00    -0.146 I 
ENDROOT
TORSDOF 0
ENDMDL
