MODEL 1
REMARK minimizedAffinity 18.6913109
REMARK minimizedRMSD -1
REMARK  0 active torsions:
REMARK  status: ('A' for Active; 'I' for Inactive)
ROOT
ATOM      1  C   UNL d   1      -2.783  -4.798  -1.461  0.00  0.00     0.124 A 
ATOM      2  C1  UNL d   1      -3.082  -3.648  -0.744  0.00  0.00     0.062 A 
ATOM      3  C2  UNL d   1      -2.956  -2.397  -1.342  0.00  0.00     0.162 A 
ATOM      4  C3  UNL d   1      -2.529  -2.290  -2.666  0.00  0.00    -0.034 A 
ATOM      5  C4  UNL d   1      -2.229  -3.451  -3.380  0.00  0.00     0.162 A 
ATOM      6  C5  UNL d   1      -2.357  -4.699  -2.778  0.00  0.00     0.062 A 
ATOM      7  F   UNL d   1      -2.067  -5.809  -3.472  0.00  0.00    -0.097 F 
ATOM      8  F1  UNL d   1      -1.816  -3.385  -4.654  0.00  0.00    -0.096 F 
ATOM      9  I   UNL d   1      -2.339  -0.422  -3.564  0.00  0.00    -0.060 I 
ATOM     10  F2  UNL d   1      -3.252  -1.303  -0.626  0.00  0.00    -0.096 F 
ATOM     11  F3  UNL d   1      -3.494  -3.741   0.529  0.00  0.00    -0.097 F 
ATOM     12  F4  UNL d   1      -2.905  -6.000  -0.882  0.00  0.00    -0.092 F 
ENDROOT
TORSDOF 0
ENDMDL
