MODEL 1
REMARK minimizedAffinity -2.27510452
REMARK minimizedRMSD -1
REMARK  0 active torsions:
REMARK  status: ('A' for Active; 'I' for Inactive)
ROOT
ATOM      1  C   UNL d   1      -0.565   0.509   0.284  0.00  0.00     0.124 A 
ATOM      2  C1  UNL d   1      -1.611  -0.400   0.360  0.00  0.00     0.062 A 
ATOM      3  C2  UNL d   1      -2.908   0.042   0.603  0.00  0.00     0.162 A 
ATOM      4  C3  UNL d   1      -3.167   1.402   0.772  0.00  0.00    -0.034 A 
ATOM      5  C4  UNL d   1      -2.110   2.311   0.695  0.00  0.00     0.162 A 
ATOM      6  C5  UNL d   1      -0.816   1.864   0.452  0.00  0.00     0.062 A 
ATOM      7  F   UNL d   1       0.193   2.744   0.379  0.00  0.00    -0.097 F 
ATOM      8  F1  UNL d   1      -2.324   3.626   0.853  0.00  0.00    -0.096 F 
ATOM      9  I   UNL d   1      -5.105   2.068   1.136  0.00  0.00    -0.060 I 
ATOM     10  F2  UNL d   1      -3.899  -0.859   0.671  0.00  0.00    -0.096 F 
ATOM     11  F3  UNL d   1      -1.371  -1.710   0.199  0.00  0.00    -0.097 F 
ATOM     12  F4  UNL d   1       0.682   0.080   0.050  0.00  0.00    -0.092 F 
ENDROOT
TORSDOF 0
ENDMDL
