MODEL 1
REMARK minimizedAffinity 9.59510803
REMARK minimizedRMSD -1
REMARK  0 active torsions:
REMARK  status: ('A' for Active; 'I' for Inactive)
ROOT
ATOM      1  C   UNL d   1      -1.217   1.567   0.177  0.00  0.00     0.124 A 
ATOM      2  C1  UNL d   1      -1.953   2.620  -0.349  0.00  0.00     0.062 A 
ATOM      3  C2  UNL d   1      -3.318   2.715  -0.096  0.00  0.00     0.162 A 
ATOM      4  C3  UNL d   1      -3.957   1.755   0.689  0.00  0.00    -0.034 A 
ATOM      5  C4  UNL d   1      -3.211   0.699   1.214  0.00  0.00     0.162 A 
ATOM      6  C5  UNL d   1      -1.846   0.608   0.958  0.00  0.00     0.062 A 
ATOM      7  F   UNL d   1      -1.137  -0.410   1.467  0.00  0.00    -0.097 F 
ATOM      8  F1  UNL d   1      -3.793  -0.242   1.972  0.00  0.00    -0.096 F 
ATOM      9  I   UNL d   1      -5.998   1.894   1.070  0.00  0.00    -0.060 I 
ATOM     10  F2  UNL d   1      -4.004   3.743  -0.617  0.00  0.00    -0.096 F 
ATOM     11  F3  UNL d   1      -1.348   3.548  -1.104  0.00  0.00    -0.097 F 
ATOM     12  F4  UNL d   1       0.096   1.478  -0.069  0.00  0.00    -0.092 F 
ENDROOT
TORSDOF 0
ENDMDL
