MODEL 1
REMARK minimizedAffinity 5.82494164
REMARK minimizedRMSD -1
REMARK  0 active torsions:
REMARK  status: ('A' for Active; 'I' for Inactive)
ROOT
ATOM      1  C   UNL d   1      -0.771   1.289   1.538  0.00  0.00     0.124 A 
ATOM      2  C1  UNL d   1      -1.804   0.547   2.094  0.00  0.00     0.062 A 
ATOM      3  C2  UNL d   1      -3.114   0.742   1.668  0.00  0.00     0.162 A 
ATOM      4  C3  UNL d   1      -3.400   1.683   0.679  0.00  0.00    -0.034 A 
ATOM      5  C4  UNL d   1      -2.356   2.426   0.124  0.00  0.00     0.162 A 
ATOM      6  C5  UNL d   1      -1.048   2.228   0.554  0.00  0.00     0.062 A 
ATOM      7  F   UNL d   1      -0.052   2.946   0.015  0.00  0.00    -0.097 F 
ATOM      8  F1  UNL d   1      -2.595   3.339  -0.829  0.00  0.00    -0.096 F 
ATOM      9  I   UNL d   1      -5.358   1.977   0.038  0.00  0.00    -0.060 I 
ATOM     10  F2  UNL d   1      -4.092   0.011   2.223  0.00  0.00    -0.096 F 
ATOM     11  F3  UNL d   1      -1.539  -0.359   3.046  0.00  0.00    -0.097 F 
ATOM     12  F4  UNL d   1       0.489   1.101   1.951  0.00  0.00    -0.092 F 
ENDROOT
TORSDOF 0
ENDMDL
