MODEL 1
REMARK minimizedAffinity -0.640915036
REMARK minimizedRMSD -1
REMARK  0 active torsions:
REMARK  status: ('A' for Active; 'I' for Inactive)
ROOT
ATOM      1  C   UNL d   1      -0.455   0.292   0.748  0.00  0.00     0.124 A 
ATOM      2  C1  UNL d   1      -0.684   1.604   0.358  0.00  0.00     0.062 A 
ATOM      3  C2  UNL d   1      -1.985   2.091   0.269  0.00  0.00     0.162 A 
ATOM      4  C3  UNL d   1      -3.068   1.266   0.573  0.00  0.00    -0.034 A 
ATOM      5  C4  UNL d   1      -2.830  -0.053   0.964  0.00  0.00     0.162 A 
ATOM      6  C5  UNL d   1      -1.528  -0.535   1.051  0.00  0.00     0.062 A 
ATOM      7  F   UNL d   1      -1.309  -1.803   1.429  0.00  0.00    -0.097 F 
ATOM      8  F1  UNL d   1      -3.848  -0.873   1.263  0.00  0.00    -0.096 F 
ATOM      9  I   UNL d   1      -5.014   1.991   0.441  0.00  0.00    -0.060 I 
ATOM     10  F2  UNL d   1      -2.176   3.363  -0.111  0.00  0.00    -0.096 F 
ATOM     11  F3  UNL d   1       0.351   2.404   0.064  0.00  0.00    -0.097 F 
ATOM     12  F4  UNL d   1       0.797  -0.175   0.832  0.00  0.00    -0.092 F 
ENDROOT
TORSDOF 0
ENDMDL
