MODEL 1
REMARK minimizedAffinity 5.52498341
REMARK minimizedRMSD -1
REMARK  0 active torsions:
REMARK  status: ('A' for Active; 'I' for Inactive)
ROOT
ATOM      1  C   UNL d   1      -1.126   0.791   0.640  0.00  0.00     0.124 A 
ATOM      2  C1  UNL d   1      -2.122  -0.174   0.573  0.00  0.00     0.062 A 
ATOM      3  C2  UNL d   1      -3.458   0.186   0.727  0.00  0.00     0.162 A 
ATOM      4  C3  UNL d   1      -3.806   1.519   0.948  0.00  0.00    -0.034 A 
ATOM      5  C4  UNL d   1      -2.799   2.484   1.015  0.00  0.00     0.162 A 
ATOM      6  C5  UNL d   1      -1.466   2.118   0.861  0.00  0.00     0.062 A 
ATOM      7  F   UNL d   1      -0.506   3.052   0.926  0.00  0.00    -0.097 F 
ATOM      8  F1  UNL d   1      -3.099   3.774   1.226  0.00  0.00    -0.096 F 
ATOM      9  I   UNL d   1      -5.802   2.062   1.177  0.00  0.00    -0.060 I 
ATOM     10  F2  UNL d   1      -4.398  -0.767   0.657  0.00  0.00    -0.096 F 
ATOM     11  F3  UNL d   1      -1.796  -1.457   0.361  0.00  0.00    -0.097 F 
ATOM     12  F4  UNL d   1       0.158   0.442   0.493  0.00  0.00    -0.092 F 
ENDROOT
TORSDOF 0
ENDMDL
