MODEL 1
REMARK minimizedAffinity 1.28481352
REMARK minimizedRMSD -1
REMARK  0 active torsions:
REMARK  status: ('A' for Active; 'I' for Inactive)
ROOT
ATOM      1  C   UNL d   1       3.499   0.777   1.744  0.00  0.00     0.124 A 
ATOM      2  C1  UNL d   1       3.189   0.626   0.400  0.00  0.00     0.062 A 
ATOM      3  C2  UNL d   1       1.923   0.966  -0.069  0.00  0.00     0.162 A 
ATOM      4  C3  UNL d   1       0.958   1.462   0.808  0.00  0.00    -0.034 A 
ATOM      5  C4  UNL d   1       1.277   1.610   2.159  0.00  0.00     0.162 A 
ATOM      6  C5  UNL d   1       2.543   1.269   2.622  0.00  0.00     0.062 A 
ATOM      7  F   UNL d   1       2.841   1.416   3.921  0.00  0.00    -0.097 F 
ATOM      8  F1  UNL d   1       0.372   2.084   3.029  0.00  0.00    -0.096 F 
ATOM      9  I   UNL d   1      -0.936   1.972   0.111  0.00  0.00    -0.060 I 
ATOM     10  F2  UNL d   1       1.651   0.810  -1.373  0.00  0.00    -0.096 F 
ATOM     11  F3  UNL d   1       4.110   0.151  -0.450  0.00  0.00    -0.097 F 
ATOM     12  F4  UNL d   1       4.717   0.448   2.193  0.00  0.00    -0.092 F 
ENDROOT
TORSDOF 0
ENDMDL
