MODEL 1
REMARK minimizedAffinity -1.30263603
REMARK minimizedRMSD -1
REMARK  0 active torsions:
REMARK  status: ('A' for Active; 'I' for Inactive)
ROOT
ATOM      1  C   UNL d   1      -0.730   1.102   0.780  0.00  0.00     0.124 A 
ATOM      2  C1  UNL d   1      -1.086   2.253   0.089  0.00  0.00     0.062 A 
ATOM      3  C2  UNL d   1      -2.419   2.646   0.025  0.00  0.00     0.162 A 
ATOM      4  C3  UNL d   1      -3.408   1.889   0.654  0.00  0.00    -0.034 A 
ATOM      5  C4  UNL d   1      -3.042   0.733   1.345  0.00  0.00     0.162 A 
ATOM      6  C5  UNL d   1      -1.708   0.344   1.407  0.00  0.00     0.062 A 
ATOM      7  F   UNL d   1      -1.366  -0.768   2.074  0.00  0.00    -0.097 F 
ATOM      8  F1  UNL d   1      -3.967  -0.019   1.961  0.00  0.00    -0.096 F 
ATOM      9  I   UNL d   1      -5.403   2.474   0.559  0.00  0.00    -0.060 I 
ATOM     10  F2  UNL d   1      -2.734   3.762  -0.649  0.00  0.00    -0.096 F 
ATOM     11  F3  UNL d   1      -0.143   2.987  -0.518  0.00  0.00    -0.097 F 
ATOM     12  F4  UNL d   1       0.554   0.726   0.839  0.00  0.00    -0.092 F 
ENDROOT
TORSDOF 0
ENDMDL
