MODEL 1
REMARK minimizedAffinity 14.7435541
REMARK minimizedRMSD -1
REMARK  0 active torsions:
REMARK  status: ('A' for Active; 'I' for Inactive)
ROOT
ATOM      1  C   UNL d   1       3.876  -2.852  -0.116  0.00  0.00     0.124 A 
ATOM      2  C1  UNL d   1       3.038  -2.089   0.685  0.00  0.00     0.062 A 
ATOM      3  C2  UNL d   1       1.868  -2.641   1.200  0.00  0.00     0.162 A 
ATOM      4  C3  UNL d   1       1.529  -3.963   0.915  0.00  0.00    -0.034 A 
ATOM      5  C4  UNL d   1       2.376  -4.724   0.107  0.00  0.00     0.162 A 
ATOM      6  C5  UNL d   1       3.544  -4.168  -0.405  0.00  0.00     0.062 A 
ATOM      7  F   UNL d   1       4.352  -4.907  -1.179  0.00  0.00    -0.097 F 
ATOM      8  F1  UNL d   1       2.080  -5.999  -0.187  0.00  0.00    -0.096 F 
ATOM      9  I   UNL d   1      -0.219  -4.792   1.682  0.00  0.00    -0.060 I 
ATOM     10  F2  UNL d   1       1.077  -1.880   1.972  0.00  0.00    -0.096 F 
ATOM     11  F3  UNL d   1       3.355  -0.817   0.965  0.00  0.00    -0.097 F 
ATOM     12  F4  UNL d   1       5.000  -2.318  -0.611  0.00  0.00    -0.092 F 
ENDROOT
TORSDOF 0
ENDMDL
