MODEL 1
REMARK minimizedAffinity 4.17711163
REMARK minimizedRMSD -1
REMARK  0 active torsions:
REMARK  status: ('A' for Active; 'I' for Inactive)
ROOT
ATOM      1  C   UNL d   1      -0.613   1.195   0.789  0.00  0.00     0.124 A 
ATOM      2  C1  UNL d   1      -1.645   0.364   1.203  0.00  0.00     0.062 A 
ATOM      3  C2  UNL d   1      -2.969   0.759   1.042  0.00  0.00     0.162 A 
ATOM      4  C3  UNL d   1      -3.270   1.992   0.462  0.00  0.00    -0.034 A 
ATOM      5  C4  UNL d   1      -2.227   2.823   0.049  0.00  0.00     0.162 A 
ATOM      6  C5  UNL d   1      -0.905   2.423   0.213  0.00  0.00     0.062 A 
ATOM      7  F   UNL d   1       0.090   3.227  -0.187  0.00  0.00    -0.097 F 
ATOM      8  F1  UNL d   1      -2.481   4.014  -0.512  0.00  0.00    -0.096 F 
ATOM      9  I   UNL d   1      -5.250   2.586   0.219  0.00  0.00    -0.060 I 
ATOM     10  F2  UNL d   1      -3.946  -0.064   1.451  0.00  0.00    -0.096 F 
ATOM     11  F3  UNL d   1      -1.365  -0.823   1.761  0.00  0.00    -0.097 F 
ATOM     12  F4  UNL d   1       0.661   0.813   0.947  0.00  0.00    -0.092 F 
ENDROOT
TORSDOF 0
ENDMDL
