MODEL 1
REMARK minimizedAffinity 1.95612931
REMARK minimizedRMSD -1
REMARK  0 active torsions:
REMARK  status: ('A' for Active; 'I' for Inactive)
ROOT
ATOM      1  C   UNL d   1       0.390   1.880   2.785  0.00  0.00     0.124 A 
ATOM      2  C1  UNL d   1       1.672   1.450   3.101  0.00  0.00     0.062 A 
ATOM      3  C2  UNL d   1       2.545   1.052   2.093  0.00  0.00     0.162 A 
ATOM      4  C3  UNL d   1       2.141   1.083   0.759  0.00  0.00    -0.034 A 
ATOM      5  C4  UNL d   1       0.851   1.516   0.448  0.00  0.00     0.162 A 
ATOM      6  C5  UNL d   1      -0.019   1.912   1.459  0.00  0.00     0.062 A 
ATOM      7  F   UNL d   1      -1.256   2.327   1.152  0.00  0.00    -0.097 F 
ATOM      8  F1  UNL d   1       0.430   1.558  -0.824  0.00  0.00    -0.096 F 
ATOM      9  I   UNL d   1       3.445   0.490  -0.751  0.00  0.00    -0.060 I 
ATOM     10  F2  UNL d   1       3.778   0.642   2.428  0.00  0.00    -0.096 F 
ATOM     11  F3  UNL d   1       2.069   1.417   4.381  0.00  0.00    -0.097 F 
ATOM     12  F4  UNL d   1      -0.449   2.261   3.757  0.00  0.00    -0.092 F 
ENDROOT
TORSDOF 0
ENDMDL
