MODEL 1
REMARK minimizedAffinity 1.53975213
REMARK minimizedRMSD -1
REMARK  0 active torsions:
REMARK  status: ('A' for Active; 'I' for Inactive)
ROOT
ATOM      1  C   UNL d   1      -0.129   0.987   0.866  0.00  0.00     0.124 A 
ATOM      2  C1  UNL d   1      -1.096   0.293   1.580  0.00  0.00     0.062 A 
ATOM      3  C2  UNL d   1      -2.446   0.551   1.364  0.00  0.00     0.162 A 
ATOM      4  C3  UNL d   1      -2.839   1.507   0.428  0.00  0.00    -0.034 A 
ATOM      5  C4  UNL d   1      -1.861   2.202  -0.286  0.00  0.00     0.162 A 
ATOM      6  C5  UNL d   1      -0.512   1.941  -0.066  0.00  0.00     0.062 A 
ATOM      7  F   UNL d   1       0.420   2.613  -0.757  0.00  0.00    -0.097 F 
ATOM      8  F1  UNL d   1      -2.203   3.129  -1.194  0.00  0.00    -0.096 F 
ATOM      9  I   UNL d   1      -4.857   1.896   0.101  0.00  0.00    -0.060 I 
ATOM     10  F2  UNL d   1      -3.359  -0.135   2.068  0.00  0.00    -0.096 F 
ATOM     11  F3  UNL d   1      -0.728  -0.629   2.482  0.00  0.00    -0.097 F 
ATOM     12  F4  UNL d   1       1.170   0.738   1.077  0.00  0.00    -0.092 F 
ENDROOT
TORSDOF 0
ENDMDL
