MODEL 1
REMARK minimizedAffinity 2.21390557
REMARK minimizedRMSD -1
REMARK  0 active torsions:
REMARK  status: ('A' for Active; 'I' for Inactive)
ROOT
ATOM      1  C   UNL d   1      -2.976   1.409  -0.071  0.00  0.00     0.124 A 
ATOM      2  C1  UNL d   1      -1.990   2.350  -0.331  0.00  0.00     0.062 A 
ATOM      3  C2  UNL d   1      -0.735   2.230   0.259  0.00  0.00     0.162 A 
ATOM      4  C3  UNL d   1      -0.458   1.164   1.113  0.00  0.00    -0.034 A 
ATOM      5  C4  UNL d   1      -1.455   0.221   1.371  0.00  0.00     0.162 A 
ATOM      6  C5  UNL d   1      -2.708   0.345   0.780  0.00  0.00     0.062 A 
ATOM      7  F   UNL d   1      -3.659  -0.565   1.032  0.00  0.00    -0.097 F 
ATOM      8  F1  UNL d   1      -1.222  -0.817   2.188  0.00  0.00    -0.096 F 
ATOM      9  I   UNL d   1       1.418   0.981   1.997  0.00  0.00    -0.060 I 
ATOM     10  F2  UNL d   1       0.199   3.155  -0.011  0.00  0.00    -0.096 F 
ATOM     11  F3  UNL d   1      -2.247   3.379  -1.151  0.00  0.00    -0.097 F 
ATOM     12  F4  UNL d   1      -4.183   1.527  -0.638  0.00  0.00    -0.092 F 
ENDROOT
TORSDOF 0
ENDMDL
