MODEL 1
REMARK minimizedAffinity 3.13766408
REMARK minimizedRMSD -1
REMARK  0 active torsions:
REMARK  status: ('A' for Active; 'I' for Inactive)
ROOT
ATOM      1  C   UNL d   1       2.433   0.584   1.747  0.00  0.00     0.124 A 
ATOM      2  C1  UNL d   1       1.728   1.220   2.759  0.00  0.00     0.062 A 
ATOM      3  C2  UNL d   1       0.470   1.759   2.505  0.00  0.00     0.162 A 
ATOM      4  C3  UNL d   1      -0.092   1.664   1.231  0.00  0.00    -0.034 A 
ATOM      5  C4  UNL d   1       0.624   1.024   0.218  0.00  0.00     0.162 A 
ATOM      6  C5  UNL d   1       1.881   0.487   0.477  0.00  0.00     0.062 A 
ATOM      7  F   UNL d   1       2.560  -0.127  -0.502  0.00  0.00    -0.097 F 
ATOM      8  F1  UNL d   1       0.113   0.914  -1.018  0.00  0.00    -0.096 F 
ATOM      9  I   UNL d   1      -1.972   2.468   0.847  0.00  0.00    -0.060 I 
ATOM     10  F2  UNL d   1      -0.188   2.367   3.502  0.00  0.00    -0.096 F 
ATOM     11  F3  UNL d   1       2.260   1.316   3.986  0.00  0.00    -0.097 F 
ATOM     12  F4  UNL d   1       3.644   0.067   1.994  0.00  0.00    -0.092 F 
ENDROOT
TORSDOF 0
ENDMDL
