MODEL 1
REMARK minimizedAffinity 0.193201616
REMARK minimizedRMSD -1
REMARK  0 active torsions:
REMARK  status: ('A' for Active; 'I' for Inactive)
ROOT
ATOM      1  C   UNL d   1      -0.739   0.630   1.170  0.00  0.00     0.124 A 
ATOM      2  C1  UNL d   1      -0.981   1.903   0.673  0.00  0.00     0.062 A 
ATOM      3  C2  UNL d   1      -2.278   2.406   0.640  0.00  0.00     0.162 A 
ATOM      4  C3  UNL d   1      -3.344   1.637   1.106  0.00  0.00    -0.034 A 
ATOM      5  C4  UNL d   1      -3.093   0.357   1.604  0.00  0.00     0.162 A 
ATOM      6  C5  UNL d   1      -1.795  -0.142   1.635  0.00  0.00     0.062 A 
ATOM      7  F   UNL d   1      -1.563  -1.372   2.116  0.00  0.00    -0.097 F 
ATOM      8  F1  UNL d   1      -4.094  -0.410   2.060  0.00  0.00    -0.096 F 
ATOM      9  I   UNL d   1      -5.285   2.386   1.058  0.00  0.00    -0.060 I 
ATOM     10  F2  UNL d   1      -2.483   3.639   0.154  0.00  0.00    -0.096 F 
ATOM     11  F3  UNL d   1       0.037   2.650   0.222  0.00  0.00    -0.097 F 
ATOM     12  F4  UNL d   1       0.510   0.147   1.200  0.00  0.00    -0.092 F 
ENDROOT
TORSDOF 0
ENDMDL
