MODEL 1
REMARK minimizedAffinity 0.367185414
REMARK minimizedRMSD -1
REMARK  2 active torsions:
REMARK  status: ('A' for Active; 'I' for Inactive)
REMARK    1  A    between atoms: C2'_3  and  C1'_4 
REMARK    2  A    between atoms: C1'_4  and  C1_5 
ROOT
ATOM      1  C1  I4B d   1      -5.942   4.938   3.266  0.00  0.00    -0.075 A 
ATOM      2  C2  I4B d   1      -5.890   5.967   4.172  0.00  0.00     0.003 A 
ATOM      3  C3  I4B d   1      -5.876   5.694   5.561  0.00  0.00     0.002 A 
ATOM      4  C4  I4B d   1      -5.965   4.388   5.998  0.00  0.00    -0.004 A 
ATOM      5  C5  I4B d   1      -5.994   3.344   5.077  0.00  0.00     0.002 A 
ATOM      6  C6  I4B d   1      -5.970   3.620   3.702  0.00  0.00     0.003 A 
ENDROOT
BRANCH   1   7
ATOM      7  C1' I4B d   1      -5.989   5.264   1.806  0.00  0.00     0.060 C 
BRANCH   7   8
ATOM      8  C2' I4B d   1      -5.171   4.224   1.069  0.00  0.00    -0.013 C 
ATOM      9  C4' I4B d   1      -4.905   4.646  -0.352  0.00  0.00     0.013 C 
ATOM     10  C3' I4B d   1      -3.890   4.022   1.823  0.00  0.00     0.013 C 
ENDBRANCH   7   8
ENDBRANCH   1   7
TORSDOF 2
ENDMDL
