MODEL 1
REMARK minimizedAffinity 2.7084527
REMARK minimizedRMSD -1
REMARK  2 active torsions:
REMARK  status: ('A' for Active; 'I' for Inactive)
REMARK    1  A    between atoms: C2'_3  and  C1'_4 
REMARK    2  A    between atoms: C1'_4  and  C1_5 
ROOT
ATOM      1  C1  I4B d   1      -1.863  -1.098  -1.303  0.00  0.00    -0.075 A 
ATOM      2  C2  I4B d   1      -1.617  -2.437  -1.126  0.00  0.00     0.003 A 
ATOM      3  C3  I4B d   1      -1.621  -3.315  -2.237  0.00  0.00     0.002 A 
ATOM      4  C4  I4B d   1      -1.923  -2.823  -3.491  0.00  0.00    -0.004 A 
ATOM      5  C5  I4B d   1      -2.148  -1.462  -3.671  0.00  0.00     0.002 A 
ATOM      6  C6  I4B d   1      -2.106  -0.591  -2.573  0.00  0.00     0.003 A 
ENDROOT
BRANCH   1   7
ATOM      7  C1' I4B d   1      -1.883  -0.205  -0.103  0.00  0.00     0.060 C 
BRANCH   7   8
ATOM      8  C2' I4B d   1      -3.169  -0.470   0.654  0.00  0.00    -0.013 C 
ATOM      9  C4' I4B d   1      -2.899  -1.189   1.950  0.00  0.00     0.013 C 
ATOM     10  C3' I4B d   1      -3.844   0.847   0.896  0.00  0.00     0.013 C 
ENDBRANCH   7   8
ENDBRANCH   1   7
TORSDOF 2
ENDMDL
