MODEL 1
REMARK minimizedAffinity -0.645249426
REMARK minimizedRMSD -1
REMARK  2 active torsions:
REMARK  status: ('A' for Active; 'I' for Inactive)
REMARK    1  A    between atoms: C2'_3  and  C1'_4 
REMARK    2  A    between atoms: C1'_4  and  C1_5 
ROOT
ATOM      1  C1  I4B d   1      -5.703   3.999   4.277  0.00  0.00    -0.075 A 
ATOM      2  C2  I4B d   1      -6.000   5.322   4.061  0.00  0.00     0.003 A 
ATOM      3  C3  I4B d   1      -5.960   5.856   2.750  0.00  0.00     0.002 A 
ATOM      4  C4  I4B d   1      -5.572   5.051   1.699  0.00  0.00    -0.004 A 
ATOM      5  C5  I4B d   1      -5.294   3.705   1.916  0.00  0.00     0.002 A 
ATOM      6  C6  I4B d   1      -5.371   3.172   3.211  0.00  0.00     0.003 A 
ENDROOT
BRANCH   1   7
ATOM      7  C1' I4B d   1      -5.722   3.476   5.678  0.00  0.00     0.060 C 
BRANCH   7   8
ATOM      8  C2' I4B d   1      -4.353   2.902   5.981  0.00  0.00    -0.013 C 
ATOM      9  C4' I4B d   1      -4.384   1.397   6.000  0.00  0.00     0.013 C 
ATOM     10  C3' I4B d   1      -3.398   3.412   4.943  0.00  0.00     0.013 C 
ENDBRANCH   7   8
ENDBRANCH   1   7
TORSDOF 2
ENDMDL
