MODEL 1
REMARK minimizedAffinity 12.9709864
REMARK minimizedRMSD -1
REMARK  2 active torsions:
REMARK  status: ('A' for Active; 'I' for Inactive)
REMARK    1  A    between atoms: C2'_3  and  C1'_4 
REMARK    2  A    between atoms: C1'_4  and  C1_5 
ROOT
ATOM      1  C1  I4B d   1       0.988  -0.373  -2.767  0.00  0.00    -0.075 A 
ATOM      2  C2  I4B d   1      -0.282  -0.387  -3.287  0.00  0.00     0.003 A 
ATOM      3  C3  I4B d   1      -1.386  -0.708  -2.461  0.00  0.00     0.002 A 
ATOM      4  C4  I4B d   1      -1.171  -1.054  -1.143  0.00  0.00    -0.004 A 
ATOM      5  C5  I4B d   1       0.115  -1.017  -0.612  0.00  0.00     0.002 A 
ATOM      6  C6  I4B d   1       1.201  -0.663  -1.426  0.00  0.00     0.003 A 
ENDROOT
BRANCH   1   7
ATOM      7  C1' I4B d   1       2.135  -0.063  -3.676  0.00  0.00     0.060 C 
BRANCH   7   8
ATOM      8  C2' I4B d   1       1.744  -0.478  -5.080  0.00  0.00    -0.013 C 
ATOM      9  C4' I4B d   1       1.670   0.713  -5.999  0.00  0.00     0.013 C 
ATOM     10  C3' I4B d   1       2.753  -1.475  -5.566  0.00  0.00     0.013 C 
ENDBRANCH   7   8
ENDBRANCH   1   7
TORSDOF 2
ENDMDL
