MODEL 1
REMARK minimizedAffinity -1.97021663
REMARK minimizedRMSD -1
REMARK  2 active torsions:
REMARK  status: ('A' for Active; 'I' for Inactive)
REMARK    1  A    between atoms: C2'_3  and  C1'_4 
REMARK    2  A    between atoms: C1'_4  and  C1_5 
ROOT
ATOM      1  C1  I4B d   1      -5.715   4.103   3.307  0.00  0.00    -0.075 A 
ATOM      2  C2  I4B d   1      -5.869   5.080   4.259  0.00  0.00     0.003 A 
ATOM      3  C3  I4B d   1      -5.639   4.788   5.625  0.00  0.00     0.002 A 
ATOM      4  C4  I4B d   1      -5.308   3.501   5.998  0.00  0.00    -0.004 A 
ATOM      5  C5  I4B d   1      -5.129   2.517   5.030  0.00  0.00     0.002 A 
ATOM      6  C6  I4B d   1      -5.322   2.822   3.675  0.00  0.00     0.003 A 
ENDROOT
BRANCH   1   7
ATOM      7  C1' I4B d   1      -5.998   4.438   1.877  0.00  0.00     0.060 C 
BRANCH   7   8
ATOM      8  C2' I4B d   1      -5.418   5.809   1.596  0.00  0.00    -0.013 C 
ATOM      9  C4' I4B d   1      -4.101   5.999   2.301  0.00  0.00     0.013 C 
ATOM     10  C3' I4B d   1      -5.262   5.950   0.111  0.00  0.00     0.013 C 
ENDBRANCH   7   8
ENDBRANCH   1   7
TORSDOF 2
ENDMDL
