MODEL 1
REMARK minimizedAffinity -3.14758229
REMARK minimizedRMSD -1
REMARK  2 active torsions:
REMARK  status: ('A' for Active; 'I' for Inactive)
REMARK    1  A    between atoms: C2'_3  and  C1'_4 
REMARK    2  A    between atoms: C1'_4  and  C1_5 
ROOT
ATOM      1  C1  I4B d   1      -5.646   4.820   3.995  0.00  0.00    -0.075 A 
ATOM      2  C2  I4B d   1      -4.947   5.906   3.531  0.00  0.00     0.003 A 
ATOM      3  C3  I4B d   1      -4.571   5.982   2.168  0.00  0.00     0.002 A 
ATOM      4  C4  I4B d   1      -4.868   4.934   1.321  0.00  0.00    -0.004 A 
ATOM      5  C5  I4B d   1      -5.597   3.844   1.789  0.00  0.00     0.002 A 
ATOM      6  C6  I4B d   1      -6.000   3.792   3.131  0.00  0.00     0.003 A 
ENDROOT
BRANCH   1   7
ATOM      7  C1' I4B d   1      -5.999   4.757   5.448  0.00  0.00     0.060 C 
BRANCH   7   8
ATOM      8  C2' I4B d   1      -5.471   3.449   6.000  0.00  0.00    -0.013 C 
ATOM      9  C4' I4B d   1      -5.995   2.275   5.216  0.00  0.00     0.013 C 
ATOM     10  C3' I4B d   1      -3.972   3.501   5.961  0.00  0.00     0.013 C 
ENDBRANCH   7   8
ENDBRANCH   1   7
TORSDOF 2
ENDMDL
