MODEL 1
REMARK minimizedAffinity -2.72308207
REMARK minimizedRMSD -1
REMARK  2 active torsions:
REMARK  status: ('A' for Active; 'I' for Inactive)
REMARK    1  A    between atoms: C2'_3  and  C1'_4 
REMARK    2  A    between atoms: C1'_4  and  C1_5 
ROOT
ATOM      1  C1  I4B d   1      -5.599   3.969   3.324  0.00  0.00    -0.075 A 
ATOM      2  C2  I4B d   1      -5.999   4.838   4.308  0.00  0.00     0.003 A 
ATOM      3  C3  I4B d   1      -5.735   4.545   5.668  0.00  0.00     0.002 A 
ATOM      4  C4  I4B d   1      -5.117   3.357   6.000  0.00  0.00    -0.004 A 
ATOM      5  C5  I4B d   1      -4.691   2.488   4.999  0.00  0.00     0.002 A 
ATOM      6  C6  I4B d   1      -4.923   2.801   3.652  0.00  0.00     0.003 A 
ENDROOT
BRANCH   1   7
ATOM      7  C1' I4B d   1      -5.924   4.293   1.900  0.00  0.00     0.060 C 
BRANCH   7   8
ATOM      8  C2' I4B d   1      -5.145   5.534   1.515  0.00  0.00    -0.013 C 
ATOM      9  C4' I4B d   1      -4.266   6.000   2.646  0.00  0.00     0.013 C 
ATOM     10  C3' I4B d   1      -4.333   5.211   0.296  0.00  0.00     0.013 C 
ENDBRANCH   7   8
ENDBRANCH   1   7
TORSDOF 2
ENDMDL
