MODEL 1
REMARK minimizedAffinity 1.75925732
REMARK minimizedRMSD -1
REMARK  2 active torsions:
REMARK  status: ('A' for Active; 'I' for Inactive)
REMARK    1  A    between atoms: C2'_3  and  C1'_4 
REMARK    2  A    between atoms: C1'_4  and  C1_5 
ROOT
ATOM      1  C1  I4B d   1      -5.234   3.596   2.560  0.00  0.00    -0.075 A 
ATOM      2  C2  I4B d   1      -4.484   3.345   1.438  0.00  0.00     0.003 A 
ATOM      3  C3  I4B d   1      -4.472   4.271   0.367  0.00  0.00     0.002 A 
ATOM      4  C4  I4B d   1      -5.258   5.403   0.438  0.00  0.00    -0.004 A 
ATOM      5  C5  I4B d   1      -6.000   5.667   1.586  0.00  0.00     0.002 A 
ATOM      6  C6  I4B d   1      -5.978   4.765   2.659  0.00  0.00     0.003 A 
ENDROOT
BRANCH   1   7
ATOM      7  C1' I4B d   1      -5.249   2.581   3.658  0.00  0.00     0.060 C 
BRANCH   7   8
ATOM      8  C2' I4B d   1      -4.951   3.297   4.960  0.00  0.00    -0.013 C 
ATOM      9  C4' I4B d   1      -5.999   2.999   5.999  0.00  0.00     0.013 C 
ATOM     10  C3' I4B d   1      -3.591   2.868   5.423  0.00  0.00     0.013 C 
ENDBRANCH   7   8
ENDBRANCH   1   7
TORSDOF 2
ENDMDL
