MODEL 1
REMARK minimizedAffinity 5.57526636
REMARK minimizedRMSD -1
REMARK  2 active torsions:
REMARK  status: ('A' for Active; 'I' for Inactive)
REMARK    1  A    between atoms: C2'_3  and  C1'_4 
REMARK    2  A    between atoms: C1'_4  and  C1_5 
ROOT
ATOM      1  C1  I4B d   1       2.731   3.308   2.017  0.00  0.00    -0.075 A 
ATOM      2  C2  I4B d   1       3.806   4.029   1.559  0.00  0.00     0.003 A 
ATOM      3  C3  I4B d   1       3.996   4.217   0.168  0.00  0.00     0.002 A 
ATOM      4  C4  I4B d   1       3.123   3.629  -0.723  0.00  0.00    -0.004 A 
ATOM      5  C5  I4B d   1       2.021   2.918  -0.256  0.00  0.00     0.002 A 
ATOM      6  C6  I4B d   1       1.817   2.767   1.123  0.00  0.00     0.003 A 
ENDROOT
BRANCH   1   7
ATOM      7  C1' I4B d   1       2.579   3.101   3.491  0.00  0.00     0.060 C 
BRANCH   7   8
ATOM      8  C2' I4B d   1       1.391   2.187   3.713  0.00  0.00    -0.013 C 
ATOM      9  C4' I4B d   1       1.786   0.960   4.491  0.00  0.00     0.013 C 
ATOM     10  C3' I4B d   1       0.334   2.968   4.435  0.00  0.00     0.013 C 
ENDBRANCH   7   8
ENDBRANCH   1   7
TORSDOF 2
ENDMDL
