MODEL 1
REMARK minimizedAffinity -3.57124829
REMARK minimizedRMSD -1
REMARK  2 active torsions:
REMARK  status: ('A' for Active; 'I' for Inactive)
REMARK    1  A    between atoms: C2'_3  and  C1'_4 
REMARK    2  A    between atoms: C1'_4  and  C1_5 
ROOT
ATOM      1  C1  I4B d   1      -5.306   4.308   4.781  0.00  0.00    -0.075 A 
ATOM      2  C2  I4B d   1      -5.951   3.103   4.900  0.00  0.00     0.003 A 
ATOM      3  C3  I4B d   1      -5.313   2.013   5.540  0.00  0.00     0.002 A 
ATOM      4  C4  I4B d   1      -4.019   2.157   5.998  0.00  0.00    -0.004 A 
ATOM      5  C5  I4B d   1      -3.375   3.386   5.898  0.00  0.00     0.002 A 
ATOM      6  C6  I4B d   1      -4.027   4.473   5.296  0.00  0.00     0.003 A 
ENDROOT
BRANCH   1   7
ATOM      7  C1' I4B d   1      -5.997   5.428   4.070  0.00  0.00     0.060 C 
BRANCH   7   8
ATOM      8  C2' I4B d   1      -5.767   5.250   2.583  0.00  0.00    -0.013 C 
ATOM      9  C4' I4B d   1      -4.407   5.752   2.178  0.00  0.00     0.013 C 
ATOM     10  C3' I4B d   1      -5.925   3.793   2.262  0.00  0.00     0.013 C 
ENDBRANCH   7   8
ENDBRANCH   1   7
TORSDOF 2
ENDMDL
