MODEL 1
REMARK minimizedAffinity -3.29933977
REMARK minimizedRMSD -1
REMARK  2 active torsions:
REMARK  status: ('A' for Active; 'I' for Inactive)
REMARK    1  A    between atoms: C2'_3  and  C1'_4 
REMARK    2  A    between atoms: C1'_4  and  C1_5 
ROOT
ATOM      1  C1  I4B d   1      -5.027   4.513   3.286  0.00  0.00    -0.075 A 
ATOM      2  C2  I4B d   1      -5.442   5.541   4.096  0.00  0.00     0.003 A 
ATOM      3  C3  I4B d   1      -5.902   5.273   5.408  0.00  0.00     0.002 A 
ATOM      4  C4  I4B d   1      -5.978   3.968   5.849  0.00  0.00    -0.004 A 
ATOM      5  C5  I4B d   1      -5.536   2.929   5.034  0.00  0.00     0.002 A 
ATOM      6  C6  I4B d   1      -5.046   3.204   3.750  0.00  0.00     0.003 A 
ENDROOT
BRANCH   1   7
ATOM      7  C1' I4B d   1      -4.578   4.828   1.895  0.00  0.00     0.060 C 
BRANCH   7   8
ATOM      8  C2' I4B d   1      -5.808   4.908   1.014  0.00  0.00    -0.013 C 
ATOM      9  C4' I4B d   1      -5.673   6.000  -0.014  0.00  0.00     0.013 C 
ATOM     10  C3' I4B d   1      -5.999   3.571   0.362  0.00  0.00     0.013 C 
ENDBRANCH   7   8
ENDBRANCH   1   7
TORSDOF 2
ENDMDL
