MODEL 1
REMARK minimizedAffinity -3.65548921
REMARK minimizedRMSD -1
REMARK  2 active torsions:
REMARK  status: ('A' for Active; 'I' for Inactive)
REMARK    1  A    between atoms: C2'_3  and  C1'_4 
REMARK    2  A    between atoms: C1'_4  and  C1_5 
ROOT
ATOM      1  C1  I4B d   1      -5.561   3.505   4.003  0.00  0.00    -0.075 A 
ATOM      2  C2  I4B d   1      -5.997   4.636   4.647  0.00  0.00     0.003 A 
ATOM      3  C3  I4B d   1      -5.886   5.901   4.019  0.00  0.00     0.002 A 
ATOM      4  C4  I4B d   1      -5.292   5.993   2.777  0.00  0.00    -0.004 A 
ATOM      5  C5  I4B d   1      -4.872   4.842   2.116  0.00  0.00     0.002 A 
ATOM      6  C6  I4B d   1      -5.019   3.588   2.727  0.00  0.00     0.003 A 
ENDROOT
BRANCH   1   7
ATOM      7  C1' I4B d   1      -5.663   2.190   4.709  0.00  0.00     0.060 C 
BRANCH   7   8
ATOM      8  C2' I4B d   1      -4.606   2.160   5.794  0.00  0.00    -0.013 C 
ATOM      9  C4' I4B d   1      -4.075   0.766   6.000  0.00  0.00     0.013 C 
ATOM     10  C3' I4B d   1      -3.510   3.104   5.400  0.00  0.00     0.013 C 
ENDBRANCH   7   8
ENDBRANCH   1   7
TORSDOF 2
ENDMDL
