MODEL 1
REMARK minimizedAffinity -1.52425218
REMARK minimizedRMSD -1
REMARK  2 active torsions:
REMARK  status: ('A' for Active; 'I' for Inactive)
REMARK    1  A    between atoms: C2'_3  and  C1'_4 
REMARK    2  A    between atoms: C1'_4  and  C1_5 
ROOT
ATOM      1  C1  I4B d   1      -5.997   4.839   1.837  0.00  0.00    -0.075 A 
ATOM      2  C2  I4B d   1      -6.000   3.609   2.447  0.00  0.00     0.003 A 
ATOM      3  C3  I4B d   1      -5.995   3.514   3.860  0.00  0.00     0.002 A 
ATOM      4  C4  I4B d   1      -5.938   4.665   4.618  0.00  0.00    -0.004 A 
ATOM      5  C5  I4B d   1      -5.958   5.911   3.999  0.00  0.00     0.002 A 
ATOM      6  C6  I4B d   1      -6.000   5.999   2.600  0.00  0.00     0.003 A 
ENDROOT
BRANCH   1   7
ATOM      7  C1' I4B d   1      -5.968   4.902   0.343  0.00  0.00     0.060 C 
BRANCH   7   8
ATOM      8  C2' I4B d   1      -4.929   3.914  -0.146  0.00  0.00    -0.013 C 
ATOM      9  C4' I4B d   1      -5.188   2.535   0.401  0.00  0.00     0.013 C 
ATOM     10  C3' I4B d   1      -4.958   3.916  -1.646  0.00  0.00     0.013 C 
ENDBRANCH   7   8
ENDBRANCH   1   7
TORSDOF 2
ENDMDL
