MODEL 1
REMARK minimizedAffinity -2.50841522
REMARK minimizedRMSD -1
REMARK  2 active torsions:
REMARK  status: ('A' for Active; 'I' for Inactive)
REMARK    1  A    between atoms: C2'_3  and  C1'_4 
REMARK    2  A    between atoms: C1'_4  and  C1_5 
ROOT
ATOM      1  C1  I4B d   1      -5.184   4.196   4.399  0.00  0.00    -0.075 A 
ATOM      2  C2  I4B d   1      -5.863   3.361   5.251  0.00  0.00     0.003 A 
ATOM      3  C3  I4B d   1      -5.163   2.381   5.996  0.00  0.00     0.002 A 
ATOM      4  C4  I4B d   1      -3.802   2.238   5.822  0.00  0.00    -0.004 A 
ATOM      5  C5  I4B d   1      -3.112   3.101   4.975  0.00  0.00     0.002 A 
ATOM      6  C6  I4B d   1      -3.805   4.095   4.268  0.00  0.00     0.003 A 
ENDROOT
BRANCH   1   7
ATOM      7  C1' I4B d   1      -5.958   5.198   3.603  0.00  0.00     0.060 C 
BRANCH   7   8
ATOM      8  C2' I4B d   1      -5.711   4.920   2.135  0.00  0.00    -0.013 C 
ATOM      9  C4' I4B d   1      -4.620   5.803   1.589  0.00  0.00     0.013 C 
ATOM     10  C3' I4B d   1      -5.357   3.470   1.992  0.00  0.00     0.013 C 
ENDBRANCH   7   8
ENDBRANCH   1   7
TORSDOF 2
ENDMDL
