MODEL 1
REMARK minimizedAffinity -1.69546926
REMARK minimizedRMSD -1
REMARK  0 active torsions:
REMARK  status: ('A' for Active; 'I' for Inactive)
ROOT
ATOM      1  C   UNL d   1       0.751  -3.365  -0.594  0.00  0.00     0.172 C 
ATOM      2  N   UNL d   1       0.518  -2.128   0.113  0.00  0.00    -0.070 N 
ATOM      3  C1  UNL d   1       1.470  -1.193   0.421  0.00  0.00    -0.004 A 
ATOM      4  C2  UNL d   1       0.848  -0.164   1.094  0.00  0.00    -0.047 A 
ATOM      5  C3  UNL d   1      -0.525  -0.493   1.196  0.00  0.00    -0.047 A 
ATOM      6  C4  UNL d   1      -0.701  -1.714   0.580  0.00  0.00    -0.004 A 
ENDROOT
TORSDOF 0
ENDMDL
