MODEL 1
REMARK minimizedAffinity -2.39542937
REMARK minimizedRMSD -1
REMARK  0 active torsions:
REMARK  status: ('A' for Active; 'I' for Inactive)
ROOT
ATOM      1  C   UNL d   1       4.510   3.174  -1.447  0.00  0.00     0.172 C 
ATOM      2  N   UNL d   1       4.595   4.187  -0.421  0.00  0.00    -0.070 N 
ATOM      3  C1  UNL d   1       3.836   4.236   0.717  0.00  0.00    -0.004 A 
ATOM      4  C2  UNL d   1       4.220   5.349   1.433  0.00  0.00    -0.047 A 
ATOM      5  C3  UNL d   1       5.245   5.992   0.700  0.00  0.00    -0.047 A 
ATOM      6  C4  UNL d   1       5.458   5.251  -0.444  0.00  0.00    -0.004 A 
ENDROOT
TORSDOF 0
ENDMDL
