MODEL 1
REMARK minimizedAffinity -1.16024852
REMARK minimizedRMSD -1
REMARK  0 active torsions:
REMARK  status: ('A' for Active; 'I' for Inactive)
ROOT
ATOM      1  C   UNL d   1       1.593  -1.113  -0.107  0.00  0.00     0.172 C 
ATOM      2  N   UNL d   1       0.354  -1.048   0.632  0.00  0.00    -0.070 N 
ATOM      3  C1  UNL d   1      -0.424   0.068   0.788  0.00  0.00    -0.004 A 
ATOM      4  C2  UNL d   1      -1.515  -0.282   1.555  0.00  0.00    -0.047 A 
ATOM      5  C3  UNL d   1      -1.387  -1.655   1.872  0.00  0.00    -0.047 A 
ATOM      6  C4  UNL d   1      -0.221  -2.104   1.288  0.00  0.00    -0.004 A 
ENDROOT
TORSDOF 0
ENDMDL
