MODEL 1
REMARK minimizedAffinity -1.45201218
REMARK minimizedRMSD -1
REMARK  0 active torsions:
REMARK  status: ('A' for Active; 'I' for Inactive)
ROOT
ATOM      1  C   UNL d   1       2.770  -1.834  -0.154  0.00  0.00     0.172 C 
ATOM      2  N   UNL d   1       1.439  -1.495   0.292  0.00  0.00    -0.070 N 
ATOM      3  C1  UNL d   1       1.129  -0.553   1.236  0.00  0.00    -0.004 A 
ATOM      4  C2  UNL d   1      -0.242  -0.532   1.376  0.00  0.00    -0.047 A 
ATOM      5  C3  UNL d   1      -0.774  -1.495   0.486  0.00  0.00    -0.047 A 
ATOM      6  C4  UNL d   1       0.289  -2.077  -0.173  0.00  0.00    -0.004 A 
ENDROOT
TORSDOF 0
ENDMDL
