MODEL 1
REMARK minimizedAffinity -1.57428646
REMARK minimizedRMSD -1
REMARK  0 active torsions:
REMARK  status: ('A' for Active; 'I' for Inactive)
ROOT
ATOM      1  C   UNL d   1       2.351  -0.082   0.720  0.00  0.00     0.172 C 
ATOM      2  N   UNL d   1       1.054  -0.694   0.886  0.00  0.00    -0.070 N 
ATOM      3  C1  UNL d   1       0.725  -1.977   0.536  0.00  0.00    -0.004 A 
ATOM      4  C2  UNL d   1      -0.601  -2.175   0.855  0.00  0.00    -0.047 A 
ATOM      5  C3  UNL d   1      -1.086  -0.970   1.416  0.00  0.00    -0.047 A 
ATOM      6  C4  UNL d   1      -0.042  -0.070   1.423  0.00  0.00    -0.004 A 
ENDROOT
TORSDOF 0
ENDMDL
