MODEL 1
REMARK minimizedAffinity -1.24898624
REMARK minimizedRMSD -1
REMARK  0 active torsions:
REMARK  status: ('A' for Active; 'I' for Inactive)
ROOT
ATOM      1  C   UNL d   1       0.387  -3.467  -0.005  0.00  0.00     0.172 C 
ATOM      2  N   UNL d   1       0.461  -2.075   0.369  0.00  0.00    -0.070 N 
ATOM      3  C1  UNL d   1      -0.435  -1.414   1.167  0.00  0.00    -0.004 A 
ATOM      4  C2  UNL d   1      -0.013  -0.108   1.284  0.00  0.00    -0.047 A 
ATOM      5  C3  UNL d   1       1.178   0.022   0.530  0.00  0.00    -0.047 A 
ATOM      6  C4  UNL d   1       1.448  -1.211  -0.026  0.00  0.00    -0.004 A 
ENDROOT
TORSDOF 0
ENDMDL
