MODEL 1
REMARK minimizedAffinity -2.78844213
REMARK minimizedRMSD -1
REMARK  0 active torsions:
REMARK  status: ('A' for Active; 'I' for Inactive)
ROOT
ATOM      1  C   UNL d   1       0.959  -3.723  -0.410  0.00  0.00     0.172 C 
ATOM      2  N   UNL d   1       0.811  -2.362   0.049  0.00  0.00    -0.070 N 
ATOM      3  C1  UNL d   1      -0.345  -1.801   0.522  0.00  0.00    -0.004 A 
ATOM      4  C2  UNL d   1      -0.073  -0.492   0.856  0.00  0.00    -0.047 A 
ATOM      5  C3  UNL d   1       1.294  -0.258   0.572  0.00  0.00    -0.047 A 
ATOM      6  C4  UNL d   1       1.816  -1.433   0.073  0.00  0.00    -0.004 A 
ENDROOT
TORSDOF 0
ENDMDL
