MODEL 1
REMARK minimizedAffinity 0.151446566
REMARK minimizedRMSD -1
REMARK  0 active torsions:
REMARK  status: ('A' for Active; 'I' for Inactive)
ROOT
ATOM      1  C   UNL d   1      -1.717  -0.543   0.735  0.00  0.00     0.172 C 
ATOM      2  N   UNL d   1      -2.393   0.726   0.595  0.00  0.00    -0.070 N 
ATOM      3  C1  UNL d   1      -3.390   1.005  -0.301  0.00  0.00    -0.004 A 
ATOM      4  C2  UNL d   1      -3.768   2.317  -0.118  0.00  0.00    -0.047 A 
ATOM      5  C3  UNL d   1      -2.970   2.846   0.925  0.00  0.00    -0.047 A 
ATOM      6  C4  UNL d   1      -2.127   1.839   1.348  0.00  0.00    -0.004 A 
ENDROOT
TORSDOF 0
ENDMDL
