MODEL 1
REMARK minimizedAffinity -3.06347513
REMARK minimizedRMSD -1
REMARK  0 active torsions:
REMARK  status: ('A' for Active; 'I' for Inactive)
ROOT
ATOM      1  C   UNL d   1       2.173  -0.391   0.549  0.00  0.00     0.172 C 
ATOM      2  N   UNL d   1       0.799  -0.761   0.798  0.00  0.00    -0.070 N 
ATOM      3  C1  UNL d   1       0.172  -1.876   0.311  0.00  0.00    -0.004 A 
ATOM      4  C2  UNL d   1      -1.126  -1.867   0.775  0.00  0.00    -0.047 A 
ATOM      5  C3  UNL d   1      -1.284  -0.706   1.568  0.00  0.00    -0.047 A 
ATOM      6  C4  UNL d   1      -0.077  -0.039   1.565  0.00  0.00    -0.004 A 
ENDROOT
TORSDOF 0
ENDMDL
