MODEL 1
REMARK minimizedAffinity 1.5478754
REMARK minimizedRMSD -1
REMARK  0 active torsions:
REMARK  status: ('A' for Active; 'I' for Inactive)
ROOT
ATOM      1  C   UNL d   1       2.103  -0.066   1.975  0.00  0.00     0.172 C 
ATOM      2  N   UNL d   1       0.888  -0.469   1.307  0.00  0.00    -0.070 N 
ATOM      3  C1  UNL d   1      -0.375  -0.046   1.623  0.00  0.00    -0.004 A 
ATOM      4  C2  UNL d   1      -1.254  -0.656   0.756  0.00  0.00    -0.047 A 
ATOM      5  C3  UNL d   1      -0.494  -1.476  -0.111  0.00  0.00    -0.047 A 
ATOM      6  C4  UNL d   1       0.830  -1.341   0.252  0.00  0.00    -0.004 A 
ENDROOT
TORSDOF 0
ENDMDL
