MODEL 1
REMARK minimizedAffinity -2.36543512
REMARK minimizedRMSD -1
REMARK  0 active torsions:
REMARK  status: ('A' for Active; 'I' for Inactive)
ROOT
ATOM      1  C   UNL d   1       1.359  -3.475  -0.689  0.00  0.00     0.172 C 
ATOM      2  N   UNL d   1       0.521  -2.501  -0.031  0.00  0.00    -0.070 N 
ATOM      3  C1  UNL d   1      -0.578  -2.782   0.736  0.00  0.00    -0.004 A 
ATOM      4  C2  UNL d   1      -1.099  -1.586   1.182  0.00  0.00    -0.047 A 
ATOM      5  C3  UNL d   1      -0.285  -0.550   0.664  0.00  0.00    -0.047 A 
ATOM      6  C4  UNL d   1       0.710  -1.145  -0.083  0.00  0.00    -0.004 A 
ENDROOT
TORSDOF 0
ENDMDL
