MODEL 1
REMARK minimizedAffinity -2.10608602
REMARK minimizedRMSD -1
REMARK  0 active torsions:
REMARK  status: ('A' for Active; 'I' for Inactive)
ROOT
ATOM      1  C   UNL d   1       2.761  -3.375  -0.406  0.00  0.00     0.172 C 
ATOM      2  N   UNL d   1       1.697  -2.477  -0.022  0.00  0.00    -0.070 N 
ATOM      3  C1  UNL d   1       1.818  -1.124   0.150  0.00  0.00    -0.004 A 
ATOM      4  C2  UNL d   1       0.583  -0.633   0.514  0.00  0.00    -0.047 A 
ATOM      5  C3  UNL d   1      -0.311  -1.730   0.563  0.00  0.00    -0.047 A 
ATOM      6  C4  UNL d   1       0.406  -2.859   0.227  0.00  0.00    -0.004 A 
ENDROOT
TORSDOF 0
ENDMDL
