MODEL 1
REMARK minimizedAffinity -1.81466186
REMARK minimizedRMSD -1
REMARK  0 active torsions:
REMARK  status: ('A' for Active; 'I' for Inactive)
ROOT
ATOM      1  C   UNL d   1       2.380  -3.579  -0.353  0.00  0.00     0.172 C 
ATOM      2  N   UNL d   1       1.483  -2.512   0.024  0.00  0.00    -0.070 N 
ATOM      3  C1  UNL d   1       0.117  -2.553  -0.054  0.00  0.00    -0.004 A 
ATOM      4  C2  UNL d   1      -0.369  -1.345   0.398  0.00  0.00    -0.047 A 
ATOM      5  C3  UNL d   1       0.745  -0.550   0.759  0.00  0.00    -0.047 A 
ATOM      6  C4  UNL d   1       1.878  -1.297   0.517  0.00  0.00    -0.004 A 
ENDROOT
TORSDOF 0
ENDMDL
