MODEL 1
REMARK minimizedAffinity 1.21842122
REMARK minimizedRMSD -1
REMARK  0 active torsions:
REMARK  status: ('A' for Active; 'I' for Inactive)
ROOT
ATOM      1  C   UNL d   1       5.567   5.974  -0.493  0.00  0.00     0.172 C 
ATOM      2  N   UNL d   1       4.738   5.984   0.690  0.00  0.00    -0.070 N 
ATOM      3  C1  UNL d   1       5.191   5.990   1.982  0.00  0.00    -0.004 A 
ATOM      4  C2  UNL d   1       4.092   6.000   2.814  0.00  0.00    -0.047 A 
ATOM      5  C3  UNL d   1       2.939   5.999   1.994  0.00  0.00    -0.047 A 
ATOM      6  C4  UNL d   1       3.368   5.989   0.683  0.00  0.00    -0.004 A 
ENDROOT
TORSDOF 0
ENDMDL
