MODEL 1
REMARK minimizedAffinity -0.627005279
REMARK minimizedRMSD -1
REMARK  1 active torsions:
REMARK  status: ('A' for Active; 'I' for Inactive)
REMARK    1  A    between atoms: C1_2  and  C2_3 
ROOT
ATOM      1  C2  UNL d   1       5.611   3.498  -0.454  0.00  0.00    -0.073 A 
ATOM      2  C3  UNL d   1       5.999   3.249   0.867  0.00  0.00    -0.002 A 
ATOM      3  C4  UNL d   1       5.643   2.053   1.493  0.00  0.00     0.004 A 
ATOM      4  C5  UNL d   1       4.902   1.094   0.803  0.00  0.00    -0.004 A 
ATOM      5  C6  UNL d   1       4.515   1.319  -0.522  0.00  0.00    -0.075 A 
ATOM      6  C7  UNL d   1       3.716   0.298  -1.277  0.00  0.00     0.076 C 
ATOM      7  C8  UNL d   1       4.875   2.523  -1.143  0.00  0.00     0.001 A 
ENDROOT
BRANCH   1   8
ATOM      8  C1  UNL d   1       6.000   4.784  -1.136  0.00  0.00     0.053 C 
ATOM      9  C   UNL d   1       6.000   5.962  -0.174  0.00  0.00     0.018 C 
ENDBRANCH   1   8
TORSDOF 1
ENDMDL
