MODEL 1
REMARK minimizedAffinity 2.93751121
REMARK minimizedRMSD -1
REMARK  1 active torsions:
REMARK  status: ('A' for Active; 'I' for Inactive)
REMARK    1  A    between atoms: C1_2  and  C2_3 
ROOT
ATOM      1  C2  UNL d   1       5.551   3.155  -1.019  0.00  0.00    -0.073 A 
ATOM      2  C3  UNL d   1       5.731   3.052   0.365  0.00  0.00    -0.002 A 
ATOM      3  C4  UNL d   1       5.323   1.903   1.044  0.00  0.00     0.004 A 
ATOM      4  C5  UNL d   1       4.740   0.845   0.348  0.00  0.00    -0.004 A 
ATOM      5  C6  UNL d   1       4.562   0.925  -1.037  0.00  0.00    -0.075 A 
ATOM      6  C7  UNL d   1       3.934  -0.204  -1.801  0.00  0.00     0.076 C 
ATOM      7  C8  UNL d   1       4.972   2.082  -1.712  0.00  0.00     0.001 A 
ENDROOT
BRANCH   1   8
ATOM      8  C1  UNL d   1       5.995   4.391  -1.759  0.00  0.00     0.053 C 
ATOM      9  C   UNL d   1       5.995   5.621  -0.865  0.00  0.00     0.018 C 
ENDBRANCH   1   8
TORSDOF 1
ENDMDL
