MODEL 1
REMARK minimizedAffinity 14.1600075
REMARK minimizedRMSD -1
REMARK  1 active torsions:
REMARK  status: ('A' for Active; 'I' for Inactive)
REMARK    1  A    between atoms: C1_2  and  C2_3 
ROOT
ATOM      1  C2  UNL d   1       0.495   1.293   1.914  0.00  0.00    -0.073 A 
ATOM      2  C3  UNL d   1      -0.239   2.456   2.173  0.00  0.00    -0.002 A 
ATOM      3  C4  UNL d   1      -1.083   2.989   1.198  0.00  0.00     0.004 A 
ATOM      4  C5  UNL d   1      -1.208   2.361  -0.041  0.00  0.00    -0.004 A 
ATOM      5  C6  UNL d   1      -0.492   1.191  -0.315  0.00  0.00    -0.075 A 
ATOM      6  C7  UNL d   1      -0.614   0.505  -1.644  0.00  0.00     0.076 C 
ATOM      7  C8  UNL d   1       0.356   0.664   0.669  0.00  0.00     0.001 A 
ENDROOT
BRANCH   1   8
ATOM      8  C1  UNL d   1       1.403   0.711   2.966  0.00  0.00     0.053 C 
ATOM      9  C   UNL d   1       1.089  -0.751   3.245  0.00  0.00     0.018 C 
ENDBRANCH   1   8
TORSDOF 1
ENDMDL
