MODEL 1
REMARK minimizedAffinity -1.58500075
REMARK minimizedRMSD -1
REMARK  0 active torsions:
REMARK  status: ('A' for Active; 'I' for Inactive)
ROOT
ATOM      1  O1  BZF d   1      -1.710  -0.035  -0.131  0.00  0.00    -0.204 OA
ATOM      2  C2  BZF d   1      -0.465   0.182   0.426  0.00  0.00     0.174 A 
ATOM      3  C3  BZF d   1       0.210   1.124  -0.263  0.00  0.00    -0.012 A 
ATOM      4  C3A BZF d   1      -0.704   1.588  -1.261  0.00  0.00    -0.107 A 
ATOM      5  C4  BZF d   1      -0.622   2.534  -2.243  0.00  0.00     0.055 A 
ATOM      6  C5  BZF d   1      -1.667   2.692  -3.097  0.00  0.00    -0.016 A 
ATOM      7  C6  BZF d   1      -2.806   1.919  -3.001  0.00  0.00     0.022 A 
ATOM      8  C7  BZF d   1      -2.936   0.972  -2.041  0.00  0.00     0.029 A 
ATOM      9  C7A BZF d   1      -1.895   0.832  -1.156  0.00  0.00     0.058 A 
ENDROOT
TORSDOF 0
ENDMDL
