MODEL 1
REMARK minimizedAffinity -2.83953333
REMARK minimizedRMSD -1
REMARK  0 active torsions:
REMARK  status: ('A' for Active; 'I' for Inactive)
ROOT
ATOM      1  O1  BZF d   1      -0.755   0.298   0.505  0.00  0.00    -0.204 OA
ATOM      2  C2  BZF d   1       0.523  -0.224   0.447  0.00  0.00     0.174 A 
ATOM      3  C3  BZF d   1       1.156   0.183  -0.671  0.00  0.00    -0.012 A 
ATOM      4  C3A BZF d   1       0.249   1.086  -1.310  0.00  0.00    -0.107 A 
ATOM      5  C4  BZF d   1       0.313   1.830  -2.453  0.00  0.00     0.055 A 
ATOM      6  C5  BZF d   1      -0.773   2.552  -2.834  0.00  0.00    -0.016 A 
ATOM      7  C6  BZF d   1      -1.940   2.550  -2.099  0.00  0.00     0.022 A 
ATOM      8  C7  BZF d   1      -2.051   1.831  -0.955  0.00  0.00     0.029 A 
ATOM      9  C7A BZF d   1      -0.943   1.127  -0.550  0.00  0.00     0.058 A 
ENDROOT
TORSDOF 0
ENDMDL
