MODEL 1
REMARK minimizedAffinity -3.95678544
REMARK minimizedRMSD -1
REMARK  0 active torsions:
REMARK  status: ('A' for Active; 'I' for Inactive)
ROOT
ATOM      1  O1  BZF d   1      -0.645   2.658  -4.767  0.00  0.00    -0.204 OA
ATOM      2  C2  BZF d   1       0.448   3.377  -4.322  0.00  0.00     0.174 A 
ATOM      3  C3  BZF d   1       0.528   3.342  -2.976  0.00  0.00    -0.012 A 
ATOM      4  C3A BZF d   1      -0.532   2.475  -2.558  0.00  0.00    -0.107 A 
ATOM      5  C4  BZF d   1      -0.957   2.033  -1.338  0.00  0.00     0.055 A 
ATOM      6  C5  BZF d   1      -2.067   1.253  -1.269  0.00  0.00    -0.016 A 
ATOM      7  C6  BZF d   1      -2.779   0.901  -2.397  0.00  0.00     0.022 A 
ATOM      8  C7  BZF d   1      -2.393   1.312  -3.630  0.00  0.00     0.029 A 
ATOM      9  C7A BZF d   1      -1.252   2.073  -3.706  0.00  0.00     0.058 A 
ENDROOT
TORSDOF 0
ENDMDL
