MODEL 1
REMARK minimizedAffinity -2.8993423
REMARK minimizedRMSD -1
REMARK  0 active torsions:
REMARK  status: ('A' for Active; 'I' for Inactive)
ROOT
ATOM      1  O1  BZF d   1      -1.246   0.129   0.896  0.00  0.00    -0.204 OA
ATOM      2  C2  BZF d   1      -1.498   1.106  -0.048  0.00  0.00     0.174 A 
ATOM      3  C3  BZF d   1      -0.388   1.375  -0.766  0.00  0.00    -0.012 A 
ATOM      4  C3A BZF d   1       0.596   0.447  -0.299  0.00  0.00    -0.107 A 
ATOM      5  C4  BZF d   1       1.897   0.209  -0.639  0.00  0.00     0.055 A 
ATOM      6  C5  BZF d   1       2.603  -0.720   0.059  0.00  0.00    -0.016 A 
ATOM      7  C6  BZF d   1       2.041  -1.424   1.104  0.00  0.00     0.022 A 
ATOM      8  C7  BZF d   1       0.752  -1.226   1.474  0.00  0.00     0.029 A 
ATOM      9  C7A BZF d   1       0.027  -0.312   0.750  0.00  0.00     0.058 A 
ENDROOT
TORSDOF 0
ENDMDL
