MODEL 1
REMARK minimizedAffinity -2.37943387
REMARK minimizedRMSD -1
REMARK  0 active torsions:
REMARK  status: ('A' for Active; 'I' for Inactive)
ROOT
ATOM      1  O1  BZF d   1      -0.370  -0.644   1.313  0.00  0.00    -0.204 OA
ATOM      2  C2  BZF d   1      -1.177   0.347   0.789  0.00  0.00     0.174 A 
ATOM      3  C3  BZF d   1      -0.507   1.073  -0.130  0.00  0.00    -0.012 A 
ATOM      4  C3A BZF d   1       0.771   0.442  -0.250  0.00  0.00    -0.107 A 
ATOM      5  C4  BZF d   1       1.873   0.691  -1.017  0.00  0.00     0.055 A 
ATOM      6  C5  BZF d   1       2.986  -0.069  -0.841  0.00  0.00    -0.016 A 
ATOM      7  C6  BZF d   1       3.033  -1.082   0.094  0.00  0.00     0.022 A 
ATOM      8  C7  BZF d   1       1.963  -1.370   0.875  0.00  0.00     0.029 A 
ATOM      9  C7A BZF d   1       0.826  -0.625   0.677  0.00  0.00     0.058 A 
ENDROOT
TORSDOF 0
ENDMDL
