MODEL 1
REMARK minimizedAffinity -2.57718515
REMARK minimizedRMSD -1
REMARK  0 active torsions:
REMARK  status: ('A' for Active; 'I' for Inactive)
ROOT
ATOM      1  O1  BZF d   1      -0.843  -0.562   2.326  0.00  0.00    -0.204 OA
ATOM      2  C2  BZF d   1      -0.233  -1.290   3.329  0.00  0.00     0.174 A 
ATOM      3  C3  BZF d   1       0.922  -1.831   2.893  0.00  0.00    -0.012 A 
ATOM      4  C3A BZF d   1       1.088  -1.339   1.559  0.00  0.00    -0.107 A 
ATOM      5  C4  BZF d   1       2.054  -1.510   0.609  0.00  0.00     0.055 A 
ATOM      6  C5  BZF d   1       1.880  -0.951  -0.617  0.00  0.00    -0.016 A 
ATOM      7  C6  BZF d   1       0.753  -0.220  -0.928  0.00  0.00     0.022 A 
ATOM      8  C7  BZF d   1      -0.230  -0.018  -0.017  0.00  0.00     0.029 A 
ATOM      9  C7A BZF d   1      -0.042  -0.555   1.233  0.00  0.00     0.058 A 
ENDROOT
TORSDOF 0
ENDMDL
