MODEL 1
REMARK minimizedAffinity 0.263376385
REMARK minimizedRMSD -1
REMARK  0 active torsions:
REMARK  status: ('A' for Active; 'I' for Inactive)
ROOT
ATOM      1  O1  BZF d   1       0.085   1.658  -0.527  0.00  0.00    -0.204 OA
ATOM      2  C2  BZF d   1      -0.331   0.622   0.287  0.00  0.00     0.174 A 
ATOM      3  C3  BZF d   1      -1.545   0.174  -0.092  0.00  0.00    -0.012 A 
ATOM      4  C3A BZF d   1      -1.870   0.919  -1.269  0.00  0.00    -0.107 A 
ATOM      5  C4  BZF d   1      -2.941   0.915  -2.117  0.00  0.00     0.055 A 
ATOM      6  C5  BZF d   1      -2.983   1.818  -3.132  0.00  0.00    -0.016 A 
ATOM      7  C6  BZF d   1      -1.976   2.740  -3.325  0.00  0.00     0.022 A 
ATOM      8  C7  BZF d   1      -0.891   2.779  -2.514  0.00  0.00     0.029 A 
ATOM      9  C7A BZF d   1      -0.830   1.847  -1.507  0.00  0.00     0.058 A 
ENDROOT
TORSDOF 0
ENDMDL
