MODEL 1
REMARK minimizedAffinity 1.87530601
REMARK minimizedRMSD -1
REMARK  0 active torsions:
REMARK  status: ('A' for Active; 'I' for Inactive)
ROOT
ATOM      1  O1  BZF d   1      -1.160  -0.034   0.077  0.00  0.00    -0.204 OA
ATOM      2  C2  BZF d   1      -1.143   1.071  -0.752  0.00  0.00     0.174 A 
ATOM      3  C3  BZF d   1       0.119   1.503  -0.948  0.00  0.00    -0.012 A 
ATOM      4  C3A BZF d   1       0.950   0.557  -0.269  0.00  0.00    -0.107 A 
ATOM      5  C4  BZF d   1       2.302   0.436  -0.114  0.00  0.00     0.055 A 
ATOM      6  C5  BZF d   1       2.790  -0.561   0.670  0.00  0.00    -0.016 A 
ATOM      7  C6  BZF d   1       1.956  -1.450   1.317  0.00  0.00     0.022 A 
ATOM      8  C7  BZF d   1       0.609  -1.373   1.189  0.00  0.00     0.029 A 
ATOM      9  C7A BZF d   1       0.114  -0.387   0.371  0.00  0.00     0.058 A 
ENDROOT
TORSDOF 0
ENDMDL
