MODEL 1
REMARK minimizedAffinity -3.70935702
REMARK minimizedRMSD -1
REMARK  0 active torsions:
REMARK  status: ('A' for Active; 'I' for Inactive)
ROOT
ATOM      1  O1  BZF d   1       0.603  -1.441   1.041  0.00  0.00    -0.204 OA
ATOM      2  C2  BZF d   1       1.955  -1.725   1.089  0.00  0.00     0.174 A 
ATOM      3  C3  BZF d   1       2.654  -0.853   0.334  0.00  0.00    -0.012 A 
ATOM      4  C3A BZF d   1       1.688   0.087  -0.146  0.00  0.00    -0.107 A 
ATOM      5  C4  BZF d   1       1.772   1.199  -0.935  0.00  0.00     0.055 A 
ATOM      6  C5  BZF d   1       0.631   1.853  -1.277  0.00  0.00    -0.016 A 
ATOM      7  C6  BZF d   1      -0.609   1.421  -0.854  0.00  0.00     0.022 A 
ATOM      8  C7  BZF d   1      -0.742   0.326  -0.067  0.00  0.00     0.029 A 
ATOM      9  C7A BZF d   1       0.412  -0.318   0.308  0.00  0.00     0.058 A 
ENDROOT
TORSDOF 0
ENDMDL
