MODEL 1
REMARK minimizedAffinity -3.06041884
REMARK minimizedRMSD -1
REMARK  0 active torsions:
REMARK  status: ('A' for Active; 'I' for Inactive)
ROOT
ATOM      1  O1  BZF d   1       0.276  -1.799   1.259  0.00  0.00    -0.204 OA
ATOM      2  C2  BZF d   1       1.543  -2.350   1.283  0.00  0.00     0.174 A 
ATOM      3  C3  BZF d   1       2.376  -1.669   0.470  0.00  0.00    -0.012 A 
ATOM      4  C3A BZF d   1       1.604  -0.572  -0.027  0.00  0.00    -0.107 A 
ATOM      5  C4  BZF d   1       1.883   0.467  -0.868  0.00  0.00     0.055 A 
ATOM      6  C5  BZF d   1       0.887   1.326  -1.209  0.00  0.00    -0.016 A 
ATOM      7  C6  BZF d   1      -0.399   1.172  -0.734  0.00  0.00     0.022 A 
ATOM      8  C7  BZF d   1      -0.723   0.159   0.106  0.00  0.00     0.029 A 
ATOM      9  C7A BZF d   1       0.290  -0.691   0.480  0.00  0.00     0.058 A 
ENDROOT
TORSDOF 0
ENDMDL
