MODEL 1
REMARK minimizedAffinity -3.75397348
REMARK minimizedRMSD -1
REMARK  0 active torsions:
REMARK  status: ('A' for Active; 'I' for Inactive)
ROOT
ATOM      1  O1  BZF d   1       0.795   0.457  -0.246  0.00  0.00    -0.204 OA
ATOM      2  C2  BZF d   1      -0.313   1.230  -0.534  0.00  0.00     0.174 A 
ATOM      3  C3  BZF d   1      -1.358   0.878   0.242  0.00  0.00    -0.012 A 
ATOM      4  C3A BZF d   1      -0.847  -0.120   1.131  0.00  0.00    -0.107 A 
ATOM      5  C4  BZF d   1      -1.400  -0.844   2.148  0.00  0.00     0.055 A 
ATOM      6  C5  BZF d   1      -0.649  -1.790   2.771  0.00  0.00    -0.016 A 
ATOM      7  C6  BZF d   1       0.655  -2.042   2.399  0.00  0.00     0.022 A 
ATOM      8  C7  BZF d   1       1.250  -1.346   1.399  0.00  0.00     0.029 A 
ATOM      9  C7A BZF d   1       0.504  -0.366   0.790  0.00  0.00     0.058 A 
ENDROOT
TORSDOF 0
ENDMDL
