MODEL 1
REMARK minimizedAffinity -1.58323097
REMARK minimizedRMSD -1
REMARK  0 active torsions:
REMARK  status: ('A' for Active; 'I' for Inactive)
ROOT
ATOM      1  O1  BZF d   1       1.692  -0.238   1.304  0.00  0.00    -0.204 OA
ATOM      2  C2  BZF d   1       2.437  -0.037   0.158  0.00  0.00     0.174 A 
ATOM      3  C3  BZF d   1       1.650   0.372  -0.858  0.00  0.00    -0.012 A 
ATOM      4  C3A BZF d   1       0.346   0.519  -0.289  0.00  0.00    -0.107 A 
ATOM      5  C4  BZF d   1      -0.860   0.913  -0.794  0.00  0.00     0.055 A 
ATOM      6  C5  BZF d   1      -1.956   0.876   0.009  0.00  0.00    -0.016 A 
ATOM      7  C6  BZF d   1      -1.883   0.446   1.318  0.00  0.00     0.022 A 
ATOM      8  C7  BZF d   1      -0.708   0.050   1.865  0.00  0.00     0.029 A 
ATOM      9  C7A BZF d   1       0.407   0.118   1.066  0.00  0.00     0.058 A 
ENDROOT
TORSDOF 0
ENDMDL
