MODEL 1
REMARK minimizedAffinity -0.768038154
REMARK minimizedRMSD -1
REMARK  0 active torsions:
REMARK  status: ('A' for Active; 'I' for Inactive)
ROOT
ATOM      1  O1  BZF d   1      -0.006   1.769   0.292  0.00  0.00    -0.204 OA
ATOM      2  C2  BZF d   1      -1.067   0.910   0.082  0.00  0.00     0.174 A 
ATOM      3  C3  BZF d   1      -0.662  -0.202  -0.564  0.00  0.00    -0.012 A 
ATOM      4  C3A BZF d   1       0.757  -0.069  -0.689  0.00  0.00    -0.107 A 
ATOM      5  C4  BZF d   1       1.731  -0.861  -1.226  0.00  0.00     0.055 A 
ATOM      6  C5  BZF d   1       3.012  -0.407  -1.253  0.00  0.00    -0.016 A 
ATOM      7  C6  BZF d   1       3.353   0.834  -0.756  0.00  0.00     0.022 A 
ATOM      8  C7  BZF d   1       2.422   1.653  -0.209  0.00  0.00     0.029 A 
ATOM      9  C7A BZF d   1       1.133   1.184  -0.150  0.00  0.00     0.058 A 
ENDROOT
TORSDOF 0
ENDMDL
