MODEL 1
REMARK minimizedAffinity 1.28243601
REMARK minimizedRMSD -1
REMARK  0 active torsions:
REMARK  status: ('A' for Active; 'I' for Inactive)
ROOT
ATOM      1  O1  BZF d   1      -0.610   0.794  -1.138  0.00  0.00    -0.204 OA
ATOM      2  C2  BZF d   1      -1.402   0.526  -0.038  0.00  0.00     0.174 A 
ATOM      3  C3  BZF d   1      -0.663   0.022   0.971  0.00  0.00    -0.012 A 
ATOM      4  C3A BZF d   1       0.688   0.058   0.503  0.00  0.00    -0.107 A 
ATOM      5  C4  BZF d   1       1.884  -0.296   1.060  0.00  0.00     0.055 A 
ATOM      6  C5  BZF d   1       3.014  -0.204   0.310  0.00  0.00    -0.016 A 
ATOM      7  C6  BZF d   1       2.984   0.232  -0.998  0.00  0.00     0.022 A 
ATOM      8  C7  BZF d   1       1.822   0.598  -1.592  0.00  0.00     0.029 A 
ATOM      9  C7A BZF d   1       0.683   0.538  -0.827  0.00  0.00     0.058 A 
ENDROOT
TORSDOF 0
ENDMDL
