MODEL 1
REMARK minimizedAffinity 2.06607389
REMARK minimizedRMSD -1
REMARK  0 active torsions:
REMARK  status: ('A' for Active; 'I' for Inactive)
ROOT
ATOM      1  O1  BZF d   1       2.050   0.554   0.951  0.00  0.00    -0.204 OA
ATOM      2  C2  BZF d   1       2.977   0.750  -0.054  0.00  0.00     0.174 A 
ATOM      3  C3  BZF d   1       2.363   0.981  -1.233  0.00  0.00    -0.012 A 
ATOM      4  C3A BZF d   1       0.966   1.017  -0.929  0.00  0.00    -0.107 A 
ATOM      5  C4  BZF d   1      -0.154   1.223  -1.683  0.00  0.00     0.055 A 
ATOM      6  C5  BZF d   1      -1.375   1.121  -1.095  0.00  0.00    -0.016 A 
ATOM      7  C6  BZF d   1      -1.512   0.808   0.242  0.00  0.00     0.022 A 
ATOM      8  C7  BZF d   1      -0.431   0.599   1.031  0.00  0.00     0.029 A 
ATOM      9  C7A BZF d   1       0.805   0.735   0.447  0.00  0.00     0.058 A 
ENDROOT
TORSDOF 0
ENDMDL
