MODEL 1
REMARK minimizedAffinity 1.12481964
REMARK minimizedRMSD -1
REMARK  0 active torsions:
REMARK  status: ('A' for Active; 'I' for Inactive)
ROOT
ATOM      1  O1  BZF d   1       0.065  -0.643   1.727  0.00  0.00    -0.204 OA
ATOM      2  C2  BZF d   1      -0.799   0.216   1.076  0.00  0.00     0.174 A 
ATOM      3  C3  BZF d   1      -0.279   0.614  -0.103  0.00  0.00    -0.012 A 
ATOM      4  C3A BZF d   1       0.947  -0.111  -0.237  0.00  0.00    -0.107 A 
ATOM      5  C4  BZF d   1       1.909  -0.157  -1.206  0.00  0.00     0.055 A 
ATOM      6  C5  BZF d   1       3.020  -0.912  -0.998  0.00  0.00    -0.016 A 
ATOM      7  C6  BZF d   1       3.204  -1.628   0.167  0.00  0.00     0.022 A 
ATOM      8  C7  BZF d   1       2.275  -1.617   1.154  0.00  0.00     0.029 A 
ATOM      9  C7A BZF d   1       1.136  -0.881   0.933  0.00  0.00     0.058 A 
ENDROOT
TORSDOF 0
ENDMDL
