MODEL 1
REMARK minimizedAffinity -1.04769564
REMARK minimizedRMSD -1
REMARK  0 active torsions:
REMARK  status: ('A' for Active; 'I' for Inactive)
ROOT
ATOM      1  O1  BZF d   1       2.115  -1.389   1.425  0.00  0.00    -0.204 OA
ATOM      2  C2  BZF d   1       2.812  -1.079   0.273  0.00  0.00     0.174 A 
ATOM      3  C3  BZF d   1       2.053  -0.338  -0.560  0.00  0.00    -0.012 A 
ATOM      4  C3A BZF d   1       0.836  -0.097   0.153  0.00  0.00    -0.107 A 
ATOM      5  C4  BZF d   1      -0.305   0.592  -0.143  0.00  0.00     0.055 A 
ATOM      6  C5  BZF d   1      -1.337   0.572   0.741  0.00  0.00    -0.016 A 
ATOM      7  C6  BZF d   1      -1.264  -0.130   1.927  0.00  0.00     0.022 A 
ATOM      8  C7  BZF d   1      -0.150  -0.825   2.266  0.00  0.00     0.029 A 
ATOM      9  C7A BZF d   1       0.906  -0.779   1.390  0.00  0.00     0.058 A 
ENDROOT
TORSDOF 0
ENDMDL
