MODEL 1
REMARK minimizedAffinity 2.62043667
REMARK minimizedRMSD -1
REMARK  0 active torsions:
REMARK  status: ('A' for Active; 'I' for Inactive)
ROOT
ATOM      1  O1  BZF d   1      -1.130  -0.307   0.085  0.00  0.00    -0.204 OA
ATOM      2  C2  BZF d   1      -1.286   0.801  -0.726  0.00  0.00     0.174 A 
ATOM      3  C3  BZF d   1      -0.111   1.440  -0.894  0.00  0.00    -0.012 A 
ATOM      4  C3A BZF d   1       0.857   0.633  -0.217  0.00  0.00    -0.107 A 
ATOM      5  C4  BZF d   1       2.208   0.735  -0.042  0.00  0.00     0.055 A 
ATOM      6  C5  BZF d   1       2.844  -0.182   0.733  0.00  0.00    -0.016 A 
ATOM      7  C6  BZF d   1       2.162  -1.209   1.351  0.00  0.00     0.022 A 
ATOM      8  C7  BZF d   1       0.823  -1.355   1.203  0.00  0.00     0.029 A 
ATOM      9  C7A BZF d   1       0.182  -0.449   0.393  0.00  0.00     0.058 A 
ENDROOT
TORSDOF 0
ENDMDL
