MODEL 1
REMARK minimizedAffinity -4.26533031
REMARK minimizedRMSD -1
REMARK  1 active torsions:
REMARK  status: ('A' for Active; 'I' for Inactive)
REMARK    1  A    between atoms: C1_2  and  C2_3 
ROOT
ATOM      1  C2  UNL d   1      -0.210  -0.254   1.055  0.00  0.00    -0.077 A 
ATOM      2  C3  UNL d   1      -1.203  -0.958   1.750  0.00  0.00     0.002 A 
ATOM      3  C4  UNL d   1      -1.339  -0.810   3.132  0.00  0.00     0.002 A 
ATOM      4  C5  UNL d   1      -0.487   0.045   3.829  0.00  0.00    -0.004 A 
ATOM      5  C6  UNL d   1       0.505   0.748   3.147  0.00  0.00     0.002 A 
ATOM      6  C7  UNL d   1       0.643   0.600   1.766  0.00  0.00     0.002 A 
ENDROOT
BRANCH   1   7
ATOM      7  C1  UNL d   1      -0.095  -0.376  -0.442  0.00  0.00     0.055 C 
ATOM      8  C   UNL d   1       0.167   0.977  -1.088  0.00  0.00     0.019 C 
ENDBRANCH   1   7
TORSDOF 1
ENDMDL
