MODEL 1
REMARK minimizedAffinity 0.914658964
REMARK minimizedRMSD -1
REMARK  1 active torsions:
REMARK  status: ('A' for Active; 'I' for Inactive)
REMARK    1  A    between atoms: C1_2  and  C2_3 
ROOT
ATOM      1  C2  UNL d   1       0.017   0.625   2.080  0.00  0.00    -0.077 A 
ATOM      2  C3  UNL d   1      -0.779  -0.219   2.868  0.00  0.00     0.002 A 
ATOM      3  C4  UNL d   1      -1.459  -1.292   2.288  0.00  0.00     0.002 A 
ATOM      4  C5  UNL d   1      -1.347  -1.533   0.921  0.00  0.00    -0.004 A 
ATOM      5  C6  UNL d   1      -0.560  -0.698   0.128  0.00  0.00     0.002 A 
ATOM      6  C7  UNL d   1       0.120   0.375   0.706  0.00  0.00     0.002 A 
ENDROOT
BRANCH   1   7
ATOM      7  C1  UNL d   1       0.791   1.753   2.711  0.00  0.00     0.055 C 
ATOM      8  C   UNL d   1      -0.024   2.444   3.795  0.00  0.00     0.019 C 
ENDBRANCH   1   7
TORSDOF 1
ENDMDL
