MODEL 1
REMARK minimizedAffinity -4.97236538
REMARK minimizedRMSD -1
REMARK  1 active torsions:
REMARK  status: ('A' for Active; 'I' for Inactive)
REMARK    1  A    between atoms: C1_2  and  C2_3 
ROOT
ATOM      1  C2  UNL d   1       0.183   0.036  -0.181  0.00  0.00    -0.077 A 
ATOM      2  C3  UNL d   1      -1.059  -0.449   0.252  0.00  0.00     0.002 A 
ATOM      3  C4  UNL d   1      -1.293  -0.680   1.609  0.00  0.00     0.002 A 
ATOM      4  C5  UNL d   1      -0.292  -0.424   2.544  0.00  0.00    -0.004 A 
ATOM      5  C6  UNL d   1       0.947   0.058   2.123  0.00  0.00     0.002 A 
ATOM      6  C7  UNL d   1       1.183   0.288   0.767  0.00  0.00     0.002 A 
ENDROOT
BRANCH   1   7
ATOM      7  C1  UNL d   1       0.420   0.332  -1.639  0.00  0.00     0.055 C 
ATOM      8  C   UNL d   1       0.349  -0.934  -2.480  0.00  0.00     0.019 C 
ENDBRANCH   1   7
TORSDOF 1
ENDMDL
