MODEL 1
REMARK minimizedAffinity -0.30402565
REMARK minimizedRMSD -1
REMARK  1 active torsions:
REMARK  status: ('A' for Active; 'I' for Inactive)
REMARK    1  A    between atoms: C1_2  and  C2_3 
ROOT
ATOM      1  C2  UNL d   1      -0.048  -0.400  -1.473  0.00  0.00    -0.077 A 
ATOM      2  C3  UNL d   1       1.238  -0.180  -1.985  0.00  0.00     0.002 A 
ATOM      3  C4  UNL d   1       1.732  -0.977  -3.020  0.00  0.00     0.002 A 
ATOM      4  C5  UNL d   1       0.945  -1.996  -3.553  0.00  0.00    -0.004 A 
ATOM      5  C6  UNL d   1      -0.335  -2.224  -3.049  0.00  0.00     0.002 A 
ATOM      6  C7  UNL d   1      -0.829  -1.429  -2.014  0.00  0.00     0.002 A 
ENDROOT
BRANCH   1   7
ATOM      7  C1  UNL d   1      -0.601   0.491  -0.391  0.00  0.00     0.055 C 
ATOM      8  C   UNL d   1      -2.123   0.480  -0.389  0.00  0.00     0.019 C 
ENDBRANCH   1   7
TORSDOF 1
ENDMDL
