MODEL 1
REMARK minimizedAffinity -3.99928141
REMARK minimizedRMSD -1
REMARK  1 active torsions:
REMARK  status: ('A' for Active; 'I' for Inactive)
REMARK    1  A    between atoms: C1_2  and  C2_3 
ROOT
ATOM      1  C2  UNL d   1       0.487   0.796   1.588  0.00  0.00    -0.077 A 
ATOM      2  C3  UNL d   1      -0.328   0.798   0.447  0.00  0.00     0.002 A 
ATOM      3  C4  UNL d   1      -1.719   0.800   0.573  0.00  0.00     0.002 A 
ATOM      4  C5  UNL d   1      -2.306   0.804   1.836  0.00  0.00    -0.004 A 
ATOM      5  C6  UNL d   1      -1.504   0.800   2.977  0.00  0.00     0.002 A 
ATOM      6  C7  UNL d   1      -0.114   0.797   2.853  0.00  0.00     0.002 A 
ENDROOT
BRANCH   1   7
ATOM      7  C1  UNL d   1       1.987   0.844   1.455  0.00  0.00     0.055 C 
ATOM      8  C   UNL d   1       2.436   2.090   0.705  0.00  0.00     0.019 C 
ENDBRANCH   1   7
TORSDOF 1
ENDMDL
