MODEL 1
REMARK minimizedAffinity -5.46206522
REMARK minimizedRMSD -1
REMARK  1 active torsions:
REMARK  status: ('A' for Active; 'I' for Inactive)
REMARK    1  A    between atoms: C1_2  and  C2_3 
ROOT
ATOM      1  C2  UNL d   1       0.254  -0.051   0.271  0.00  0.00    -0.077 A 
ATOM      2  C3  UNL d   1      -0.963  -0.515   0.790  0.00  0.00     0.002 A 
ATOM      3  C4  UNL d   1      -1.082  -0.819   2.147  0.00  0.00     0.002 A 
ATOM      4  C5  UNL d   1       0.010  -0.657   2.997  0.00  0.00    -0.004 A 
ATOM      5  C6  UNL d   1       1.225  -0.198   2.491  0.00  0.00     0.002 A 
ATOM      6  C7  UNL d   1       1.346   0.105   1.134  0.00  0.00     0.002 A 
ENDROOT
BRANCH   1   7
ATOM      7  C1  UNL d   1       0.370   0.324  -1.183  0.00  0.00     0.055 C 
ATOM      8  C   UNL d   1       0.823  -0.859  -2.026  0.00  0.00     0.019 C 
ENDBRANCH   1   7
TORSDOF 1
ENDMDL
