MODEL 1
REMARK minimizedAffinity -5.23889017
REMARK minimizedRMSD -1
REMARK  1 active torsions:
REMARK  status: ('A' for Active; 'I' for Inactive)
REMARK    1  A    between atoms: C1_2  and  C2_3 
ROOT
ATOM      1  C2  UNL d   1      -0.043   0.214   0.415  0.00  0.00    -0.077 A 
ATOM      2  C3  UNL d   1       1.052   0.240   1.290  0.00  0.00     0.002 A 
ATOM      3  C4  UNL d   1       0.907  -0.174   2.615  0.00  0.00     0.002 A 
ATOM      4  C5  UNL d   1      -0.330  -0.620   3.076  0.00  0.00    -0.004 A 
ATOM      5  C6  UNL d   1      -1.425  -0.647   2.214  0.00  0.00     0.002 A 
ATOM      6  C7  UNL d   1      -1.282  -0.233   0.890  0.00  0.00     0.002 A 
ENDROOT
BRANCH   1   7
ATOM      7  C1  UNL d   1       0.123   0.614  -1.028  0.00  0.00     0.055 C 
ATOM      8  C   UNL d   1       0.478  -0.585  -1.897  0.00  0.00     0.019 C 
ENDBRANCH   1   7
TORSDOF 1
ENDMDL
