MODEL 1
REMARK minimizedAffinity -4.81377029
REMARK minimizedRMSD -1
REMARK  1 active torsions:
REMARK  status: ('A' for Active; 'I' for Inactive)
REMARK    1  A    between atoms: C1_2  and  C2_3 
ROOT
ATOM      1  C2  UNL d   1       0.914  -0.784  -0.129  0.00  0.00    -0.077 A 
ATOM      2  C3  UNL d   1       1.751  -0.748   0.996  0.00  0.00     0.002 A 
ATOM      3  C4  UNL d   1       1.302  -0.187   2.192  0.00  0.00     0.002 A 
ATOM      4  C5  UNL d   1       0.014   0.339   2.278  0.00  0.00    -0.004 A 
ATOM      5  C6  UNL d   1      -0.825   0.309   1.164  0.00  0.00     0.002 A 
ATOM      6  C7  UNL d   1      -0.377  -0.250  -0.033  0.00  0.00     0.002 A 
ENDROOT
BRANCH   1   7
ATOM      7  C1  UNL d   1       1.379  -1.433  -1.406  0.00  0.00     0.055 C 
ATOM      8  C   UNL d   1       0.715  -0.803  -2.621  0.00  0.00     0.019 C 
ENDBRANCH   1   7
TORSDOF 1
ENDMDL
