MODEL 1
REMARK minimizedAffinity -4.4125495
REMARK minimizedRMSD -1
REMARK  1 active torsions:
REMARK  status: ('A' for Active; 'I' for Inactive)
REMARK    1  A    between atoms: C1_2  and  C2_3 
ROOT
ATOM      1  C2  UNL d   1      -1.562  -0.245   1.039  0.00  0.00    -0.077 A 
ATOM      2  C3  UNL d   1      -2.078   0.670   1.968  0.00  0.00     0.002 A 
ATOM      3  C4  UNL d   1      -2.197   0.319   3.314  0.00  0.00     0.002 A 
ATOM      4  C5  UNL d   1      -1.800  -0.945   3.743  0.00  0.00    -0.004 A 
ATOM      5  C6  UNL d   1      -1.287  -1.863   2.827  0.00  0.00     0.002 A 
ATOM      6  C7  UNL d   1      -1.168  -1.514   1.481  0.00  0.00     0.002 A 
ENDROOT
BRANCH   1   7
ATOM      7  C1  UNL d   1      -1.387   0.150  -0.404  0.00  0.00     0.055 C 
ATOM      8  C   UNL d   1       0.027   0.641  -0.676  0.00  0.00     0.019 C 
ENDBRANCH   1   7
TORSDOF 1
ENDMDL
