MODEL 1
REMARK minimizedAffinity -2.09440923
REMARK minimizedRMSD -1
REMARK  1 active torsions:
REMARK  status: ('A' for Active; 'I' for Inactive)
REMARK    1  A    between atoms: C1_2  and  C2_3 
ROOT
ATOM      1  C2  UNL d   1      -1.200   1.046   3.260  0.00  0.00    -0.077 A 
ATOM      2  C3  UNL d   1      -2.220   1.989   3.451  0.00  0.00     0.002 A 
ATOM      3  C4  UNL d   1      -1.930   3.244   3.988  0.00  0.00     0.002 A 
ATOM      4  C5  UNL d   1      -0.620   3.570   4.335  0.00  0.00    -0.004 A 
ATOM      5  C6  UNL d   1       0.401   2.639   4.152  0.00  0.00     0.002 A 
ATOM      6  C7  UNL d   1       0.112   1.383   3.616  0.00  0.00     0.002 A 
ENDROOT
BRANCH   1   7
ATOM      7  C1  UNL d   1      -1.503  -0.290   2.635  0.00  0.00     0.055 C 
ATOM      8  C   UNL d   1      -0.953  -0.376   1.218  0.00  0.00     0.019 C 
ENDBRANCH   1   7
TORSDOF 1
ENDMDL
