MODEL 1
REMARK minimizedAffinity -4.01164532
REMARK minimizedRMSD -1
REMARK  1 active torsions:
REMARK  status: ('A' for Active; 'I' for Inactive)
REMARK    1  A    between atoms: C1_2  and  C2_3 
ROOT
ATOM      1  C2  UNL d   1       0.394  -3.552  -1.465  0.00  0.00    -0.077 A 
ATOM      2  C3  UNL d   1       1.739  -3.180  -1.599  0.00  0.00     0.002 A 
ATOM      3  C4  UNL d   1       2.095  -2.094  -2.402  0.00  0.00     0.002 A 
ATOM      4  C5  UNL d   1       1.112  -1.369  -3.072  0.00  0.00    -0.004 A 
ATOM      5  C6  UNL d   1      -0.229  -1.733  -2.947  0.00  0.00     0.002 A 
ATOM      6  C7  UNL d   1      -0.586  -2.819  -2.147  0.00  0.00     0.002 A 
ENDROOT
BRANCH   1   7
ATOM      7  C1  UNL d   1       0.004  -4.692  -0.561  0.00  0.00     0.055 C 
ATOM      8  C   UNL d   1      -0.157  -5.988  -1.343  0.00  0.00     0.019 C 
ENDBRANCH   1   7
TORSDOF 1
ENDMDL
