MODEL 1
REMARK minimizedAffinity -5.46070528
REMARK minimizedRMSD -1
REMARK  1 active torsions:
REMARK  status: ('A' for Active; 'I' for Inactive)
REMARK    1  A    between atoms: C1_2  and  C2_3 
ROOT
ATOM      1  C2  UNL d   1      -0.321   0.320   0.182  0.00  0.00    -0.077 A 
ATOM      2  C3  UNL d   1       0.911   0.558   0.806  0.00  0.00     0.002 A 
ATOM      3  C4  UNL d   1       1.022   0.497   2.197  0.00  0.00     0.002 A 
ATOM      4  C5  UNL d   1      -0.095   0.194   2.973  0.00  0.00    -0.004 A 
ATOM      5  C6  UNL d   1      -1.325  -0.042   2.362  0.00  0.00     0.002 A 
ATOM      6  C7  UNL d   1      -1.438   0.020   0.972  0.00  0.00     0.002 A 
ENDROOT
BRANCH   1   7
ATOM      7  C1  UNL d   1      -0.431   0.337  -1.321  0.00  0.00     0.055 C 
ATOM      8  C   UNL d   1       0.854  -0.149  -1.975  0.00  0.00     0.019 C 
ENDBRANCH   1   7
TORSDOF 1
ENDMDL
