MODEL 1
REMARK minimizedAffinity 8.71886349
REMARK minimizedRMSD -1
REMARK  2 active torsions:
REMARK  status: ('A' for Active; 'I' for Inactive)
REMARK    1  A    between atoms: C2'_3  and  C1'_4 
REMARK    2  A    between atoms: C1'_4  and  C1_5 
ROOT
ATOM      1  C1  I4B d   1       1.523   1.228  -1.015  0.00  0.00    -0.075 A 
ATOM      2  C2  I4B d   1       1.445   1.633   0.294  0.00  0.00     0.003 A 
ATOM      3  C3  I4B d   1       0.966   2.927   0.612  0.00  0.00     0.002 A 
ATOM      4  C4  I4B d   1       0.626   3.795  -0.406  0.00  0.00    -0.004 A 
ATOM      5  C5  I4B d   1       0.684   3.374  -1.731  0.00  0.00     0.002 A 
ATOM      6  C6  I4B d   1       1.124   2.078  -2.038  0.00  0.00     0.003 A 
ENDROOT
BRANCH   1   7
ATOM      7  C1' I4B d   1       2.065  -0.134  -1.317  0.00  0.00     0.060 C 
BRANCH   7   8
ATOM      8  C2' I4B d   1       2.601  -0.719  -0.026  0.00  0.00    -0.013 C 
ATOM      9  C4' I4B d   1       2.099  -2.123   0.186  0.00  0.00     0.013 C 
ATOM     10  C3' I4B d   1       4.099  -0.683  -0.089  0.00  0.00     0.013 C 
ENDBRANCH   7   8
ENDBRANCH   1   7
TORSDOF 2
ENDMDL
