MODEL 1
REMARK minimizedAffinity 8.44440937
REMARK minimizedRMSD -1
REMARK  2 active torsions:
REMARK  status: ('A' for Active; 'I' for Inactive)
REMARK    1  A    between atoms: C2'_3  and  C1'_4 
REMARK    2  A    between atoms: C1'_4  and  C1_5 
ROOT
ATOM      1  C1  I4B d   1       0.993   2.004   0.775  0.00  0.00    -0.075 A 
ATOM      2  C2  I4B d   1       1.198   0.690   1.116  0.00  0.00     0.003 A 
ATOM      3  C3  I4B d   1       1.402  -0.283   0.108  0.00  0.00     0.002 A 
ATOM      4  C4  I4B d   1       1.343   0.090  -1.219  0.00  0.00    -0.004 A 
ATOM      5  C5  I4B d   1       1.157   1.426  -1.562  0.00  0.00     0.002 A 
ATOM      6  C6  I4B d   1       0.994   2.392  -0.558  0.00  0.00     0.003 A 
ENDROOT
BRANCH   1   7
ATOM      7  C1' I4B d   1       0.748   3.001   1.864  0.00  0.00     0.060 C 
BRANCH   7   8
ATOM      8  C2' I4B d   1       2.069   3.665   2.194  0.00  0.00    -0.013 C 
ATOM      9  C4' I4B d   1       1.895   4.737   3.238  0.00  0.00     0.013 C 
ATOM     10  C3' I4B d   1       3.018   2.603   2.662  0.00  0.00     0.013 C 
ENDBRANCH   7   8
ENDBRANCH   1   7
TORSDOF 2
ENDMDL
