MODEL 1
REMARK minimizedAffinity -1.66530573
REMARK minimizedRMSD -1
REMARK  2 active torsions:
REMARK  status: ('A' for Active; 'I' for Inactive)
REMARK    1  A    between atoms: C2'_3  and  C1'_4 
REMARK    2  A    between atoms: C1'_4  and  C1_5 
ROOT
ATOM      1  C1  I4B d   1       1.335   0.423  -0.455  0.00  0.00    -0.075 A 
ATOM      2  C2  I4B d   1       0.768   1.213   0.514  0.00  0.00     0.003 A 
ATOM      3  C3  I4B d   1       0.498   2.578   0.253  0.00  0.00     0.002 A 
ATOM      4  C4  I4B d   1       0.855   3.121  -0.964  0.00  0.00    -0.004 A 
ATOM      5  C5  I4B d   1       1.408   2.314  -1.954  0.00  0.00     0.002 A 
ATOM      6  C6  I4B d   1       1.639   0.953  -1.702  0.00  0.00     0.003 A 
ENDROOT
BRANCH   1   7
ATOM      7  C1' I4B d   1       1.637  -1.006  -0.135  0.00  0.00     0.060 C 
BRANCH   7   8
ATOM      8  C2' I4B d   1       0.816  -1.876  -1.064  0.00  0.00    -0.013 C 
ATOM      9  C4' I4B d   1       1.615  -2.289  -2.272  0.00  0.00     0.013 C 
ATOM     10  C3' I4B d   1       0.351  -3.073  -0.288  0.00  0.00     0.013 C 
ENDBRANCH   7   8
ENDBRANCH   1   7
TORSDOF 2
ENDMDL
