MODEL 1
REMARK minimizedAffinity 3.87397242
REMARK minimizedRMSD -1
REMARK  2 active torsions:
REMARK  status: ('A' for Active; 'I' for Inactive)
REMARK    1  A    between atoms: C2'_3  and  C1'_4 
REMARK    2  A    between atoms: C1'_4  and  C1_5 
ROOT
ATOM      1  C1  I4B d   1       1.206   1.643  -0.532  0.00  0.00    -0.075 A 
ATOM      2  C2  I4B d   1       1.147   0.810   0.557  0.00  0.00     0.003 A 
ATOM      3  C3  I4B d   1       1.185  -0.595   0.382  0.00  0.00     0.002 A 
ATOM      4  C4  I4B d   1       1.230  -1.120  -0.894  0.00  0.00    -0.004 A 
ATOM      5  C5  I4B d   1       1.313  -0.273  -1.995  0.00  0.00     0.002 A 
ATOM      6  C6  I4B d   1       1.313   1.118  -1.813  0.00  0.00     0.003 A 
ENDROOT
BRANCH   1   7
ATOM      7  C1' I4B d   1       1.130   3.121  -0.313  0.00  0.00     0.060 C 
BRANCH   7   8
ATOM      8  C2' I4B d   1       1.255   3.800  -1.662  0.00  0.00    -0.013 C 
ATOM      9  C4' I4B d   1       0.079   3.477  -2.546  0.00  0.00     0.013 C 
ATOM     10  C3' I4B d   1       1.366   5.277  -1.428  0.00  0.00     0.013 C 
ENDBRANCH   7   8
ENDBRANCH   1   7
TORSDOF 2
ENDMDL
