MODEL 1
REMARK minimizedAffinity 8.15291595
REMARK minimizedRMSD -1
REMARK  2 active torsions:
REMARK  status: ('A' for Active; 'I' for Inactive)
REMARK    1  A    between atoms: C2'_3  and  C1'_4 
REMARK    2  A    between atoms: C1'_4  and  C1_5 
ROOT
ATOM      1  C1  I4B d   1       0.785   2.345  -1.532  0.00  0.00    -0.075 A 
ATOM      2  C2  I4B d   1       0.426   1.472  -2.529  0.00  0.00     0.003 A 
ATOM      3  C3  I4B d   1       0.753   0.099  -2.427  0.00  0.00     0.002 A 
ATOM      4  C4  I4B d   1       1.480  -0.348  -1.342  0.00  0.00    -0.004 A 
ATOM      5  C5  I4B d   1       1.823   0.534  -0.321  0.00  0.00     0.002 A 
ATOM      6  C6  I4B d   1       1.463   1.886  -0.410  0.00  0.00     0.003 A 
ENDROOT
BRANCH   1   7
ATOM      7  C1' I4B d   1       0.452   3.794  -1.688  0.00  0.00     0.060 C 
BRANCH   7   8
ATOM      8  C2' I4B d   1       1.367   4.585  -0.775  0.00  0.00    -0.013 C 
ATOM      9  C4' I4B d   1       1.557   5.991  -1.278  0.00  0.00     0.013 C 
ATOM     10  C3' I4B d   1       0.768   4.577   0.600  0.00  0.00     0.013 C 
ENDBRANCH   7   8
ENDBRANCH   1   7
TORSDOF 2
ENDMDL
