MODEL 1
REMARK minimizedAffinity -2.70815444
REMARK minimizedRMSD -1
REMARK  2 active torsions:
REMARK  status: ('A' for Active; 'I' for Inactive)
REMARK    1  A    between atoms: C2'_3  and  C1'_4 
REMARK    2  A    between atoms: C1'_4  and  C1_5 
ROOT
ATOM      1  C1  I4B d   1       0.701   1.746  -0.464  0.00  0.00    -0.075 A 
ATOM      2  C2  I4B d   1       0.734   1.856   0.904  0.00  0.00     0.003 A 
ATOM      3  C3  I4B d   1       0.903   3.123   1.513  0.00  0.00     0.002 A 
ATOM      4  C4  I4B d   1       1.084   4.239   0.722  0.00  0.00    -0.004 A 
ATOM      5  C5  I4B d   1       1.028   4.129  -0.664  0.00  0.00     0.002 A 
ATOM      6  C6  I4B d   1       0.823   2.876  -1.262  0.00  0.00     0.003 A 
ENDROOT
BRANCH   1   7
ATOM      7  C1' I4B d   1       0.555   0.388  -1.075  0.00  0.00     0.060 C 
BRANCH   7   8
ATOM      8  C2' I4B d   1       1.229  -0.611  -0.157  0.00  0.00    -0.013 C 
ATOM      9  C4' I4B d   1       1.205  -1.996  -0.749  0.00  0.00     0.013 C 
ATOM     10  C3' I4B d   1       2.636  -0.148   0.079  0.00  0.00     0.013 C 
ENDBRANCH   7   8
ENDBRANCH   1   7
TORSDOF 2
ENDMDL
