MODEL 1
REMARK minimizedAffinity 0.221930906
REMARK minimizedRMSD -1
REMARK  2 active torsions:
REMARK  status: ('A' for Active; 'I' for Inactive)
REMARK    1  A    between atoms: C2'_3  and  C1'_4 
REMARK    2  A    between atoms: C1'_4  and  C1_5 
ROOT
ATOM      1  C1  I4B d   1      -2.411   1.682   3.883  0.00  0.00    -0.075 A 
ATOM      2  C2  I4B d   1      -2.874   0.392   3.814  0.00  0.00     0.003 A 
ATOM      3  C3  I4B d   1      -3.773   0.011   2.788  0.00  0.00     0.002 A 
ATOM      4  C4  I4B d   1      -4.219   0.959   1.889  0.00  0.00    -0.004 A 
ATOM      5  C5  I4B d   1      -3.731   2.261   1.947  0.00  0.00     0.002 A 
ATOM      6  C6  I4B d   1      -2.812   2.622   2.943  0.00  0.00     0.003 A 
ENDROOT
BRANCH   1   7
ATOM      7  C1' I4B d   1      -1.489   2.057   5.000  0.00  0.00     0.060 C 
BRANCH   7   8
ATOM      8  C2' I4B d   1      -2.277   2.879   6.000  0.00  0.00    -0.013 C 
ATOM      9  C4' I4B d   1      -2.219   4.346   5.667  0.00  0.00     0.013 C 
ATOM     10  C3' I4B d   1      -3.690   2.378   5.998  0.00  0.00     0.013 C 
ENDBRANCH   7   8
ENDBRANCH   1   7
TORSDOF 2
ENDMDL
