MODEL 1
REMARK minimizedAffinity -1.18958807
REMARK minimizedRMSD -1
REMARK  2 active torsions:
REMARK  status: ('A' for Active; 'I' for Inactive)
REMARK    1  A    between atoms: C2'_3  and  C1'_4 
REMARK    2  A    between atoms: C1'_4  and  C1_5 
ROOT
ATOM      1  C1  I4B d   1       0.747   0.628  -0.557  0.00  0.00    -0.075 A 
ATOM      2  C2  I4B d   1       1.477  -0.138   0.317  0.00  0.00     0.003 A 
ATOM      3  C3  I4B d   1       1.885   0.397   1.563  0.00  0.00     0.002 A 
ATOM      4  C4  I4B d   1       1.588   1.709   1.870  0.00  0.00    -0.004 A 
ATOM      5  C5  I4B d   1       0.828   2.477   0.992  0.00  0.00     0.002 A 
ATOM      6  C6  I4B d   1       0.394   1.929  -0.224  0.00  0.00     0.003 A 
ENDROOT
BRANCH   1   7
ATOM      7  C1' I4B d   1       0.360   0.042  -1.878  0.00  0.00     0.060 C 
BRANCH   7   8
ATOM      8  C2' I4B d   1       1.425   0.421  -2.887  0.00  0.00    -0.013 C 
ATOM      9  C4' I4B d   1       1.409  -0.509  -4.072  0.00  0.00     0.013 C 
ATOM     10  C3' I4B d   1       1.181   1.839  -3.308  0.00  0.00     0.013 C 
ENDBRANCH   7   8
ENDBRANCH   1   7
TORSDOF 2
ENDMDL
