MODEL 1
REMARK minimizedAffinity 7.24398184
REMARK minimizedRMSD -1
REMARK  2 active torsions:
REMARK  status: ('A' for Active; 'I' for Inactive)
REMARK    1  A    between atoms: C2'_3  and  C1'_4 
REMARK    2  A    between atoms: C1'_4  and  C1_5 
ROOT
ATOM      1  C1  I4B d   1      -0.963   1.604   0.438  0.00  0.00    -0.075 A 
ATOM      2  C2  I4B d   1       0.056   1.801   1.336  0.00  0.00     0.003 A 
ATOM      3  C3  I4B d   1       1.332   1.231   1.102  0.00  0.00     0.002 A 
ATOM      4  C4  I4B d   1       1.528   0.436  -0.008  0.00  0.00    -0.004 A 
ATOM      5  C5  I4B d   1       0.499   0.256  -0.929  0.00  0.00     0.002 A 
ATOM      6  C6  I4B d   1      -0.750   0.854  -0.711  0.00  0.00     0.003 A 
ENDROOT
BRANCH   1   7
ATOM      7  C1' I4B d   1      -2.306   2.193   0.732  0.00  0.00     0.060 C 
BRANCH   7   8
ATOM      8  C2' I4B d   1      -2.504   2.177   2.235  0.00  0.00    -0.013 C 
ATOM      9  C4' I4B d   1      -2.570   3.576   2.790  0.00  0.00     0.013 C 
ATOM     10  C3' I4B d   1      -3.763   1.418   2.528  0.00  0.00     0.013 C 
ENDBRANCH   7   8
ENDBRANCH   1   7
TORSDOF 2
ENDMDL
