MODEL 1
REMARK minimizedAffinity -2.44084263
REMARK minimizedRMSD -1
REMARK  2 active torsions:
REMARK  status: ('A' for Active; 'I' for Inactive)
REMARK    1  A    between atoms: C2'_3  and  C1'_4 
REMARK    2  A    between atoms: C1'_4  and  C1_5 
ROOT
ATOM      1  C1  I4B d   1       1.188   0.175  -0.967  0.00  0.00    -0.075 A 
ATOM      2  C2  I4B d   1       0.842   1.271  -1.718  0.00  0.00     0.003 A 
ATOM      3  C3  I4B d   1       0.793   2.555  -1.124  0.00  0.00     0.002 A 
ATOM      4  C4  I4B d   1       1.047   2.690   0.225  0.00  0.00    -0.004 A 
ATOM      5  C5  I4B d   1       1.420   1.582   0.980  0.00  0.00     0.002 A 
ATOM      6  C6  I4B d   1       1.503   0.318   0.378  0.00  0.00     0.003 A 
ENDROOT
BRANCH   1   7
ATOM      7  C1' I4B d   1       1.198  -1.171  -1.619  0.00  0.00     0.060 C 
BRANCH   7   8
ATOM      8  C2' I4B d   1       0.690  -2.182  -0.610  0.00  0.00    -0.013 C 
ATOM      9  C4' I4B d   1      -0.279  -3.145  -1.244  0.00  0.00     0.013 C 
ATOM     10  C3' I4B d   1       1.874  -2.902  -0.039  0.00  0.00     0.013 C 
ENDBRANCH   7   8
ENDBRANCH   1   7
TORSDOF 2
ENDMDL
