MODEL 1
REMARK minimizedAffinity 4.80420732
REMARK minimizedRMSD -1
REMARK  2 active torsions:
REMARK  status: ('A' for Active; 'I' for Inactive)
REMARK    1  A    between atoms: C2'_3  and  C1'_4 
REMARK    2  A    between atoms: C1'_4  and  C1_5 
ROOT
ATOM      1  C1  I4B d   1       0.885   2.292  -1.150  0.00  0.00    -0.075 A 
ATOM      2  C2  I4B d   1       0.392   1.834   0.046  0.00  0.00     0.003 A 
ATOM      3  C3  I4B d   1       0.517   0.467   0.392  0.00  0.00     0.002 A 
ATOM      4  C4  I4B d   1       1.093  -0.411  -0.503  0.00  0.00    -0.004 A 
ATOM      5  C5  I4B d   1       1.613   0.059  -1.706  0.00  0.00     0.002 A 
ATOM      6  C6  I4B d   1       1.520   1.421  -2.026  0.00  0.00     0.003 A 
ENDROOT
BRANCH   1   7
ATOM      7  C1' I4B d   1       0.707   3.736  -1.498  0.00  0.00     0.060 C 
BRANCH   7   8
ATOM      8  C2' I4B d   1       1.443   4.560  -0.462  0.00  0.00    -0.013 C 
ATOM      9  C4' I4B d   1       1.556   5.999  -0.890  0.00  0.00     0.013 C 
ATOM     10  C3' I4B d   1       0.704   4.438   0.837  0.00  0.00     0.013 C 
ENDBRANCH   7   8
ENDBRANCH   1   7
TORSDOF 2
ENDMDL
