MODEL 1
REMARK minimizedAffinity -0.143340588
REMARK minimizedRMSD -1
REMARK  0 active torsions:
REMARK  status: ('A' for Active; 'I' for Inactive)
ROOT
ATOM      1  C1  DEN d   1       0.691   0.588   0.745  0.00  0.00     0.130 A 
ATOM      2  C2  DEN d   1       0.153  -0.770   0.723  0.00  0.00    -0.031 A 
ATOM      3  C3  DEN d   1      -1.297  -0.690   0.987  0.00  0.00     0.027 A 
ATOM      4  C4  DEN d   1      -2.756   1.393   1.418  0.00  0.00     0.027 A 
ATOM      5  C5  DEN d   1      -2.745   2.764   1.545  0.00  0.00    -0.003 A 
ATOM      6  C6  DEN d   1      -1.592   3.497   1.449  0.00  0.00     0.001 A 
ATOM      7  C7  DEN d   1      -0.408   2.866   1.174  0.00  0.00     0.017 A 
ATOM      8  C8  DEN d   1      -0.410   1.483   1.052  0.00  0.00    -0.094 A 
ATOM      9  C9  DEN d   1      -1.588   0.761   1.140  0.00  0.00    -0.072 A 
ENDROOT
TORSDOF 0
ENDMDL
