MODEL 1
REMARK minimizedAffinity 3.92341423
REMARK minimizedRMSD -1
REMARK  0 active torsions:
REMARK  status: ('A' for Active; 'I' for Inactive)
ROOT
ATOM      1  C1  DEN d   1      -1.534   1.692   0.755  0.00  0.00     0.130 A 
ATOM      2  C2  DEN d   1      -0.539   2.753   0.626  0.00  0.00    -0.031 A 
ATOM      3  C3  DEN d   1       0.767   2.122   0.349  0.00  0.00     0.027 A 
ATOM      4  C4  DEN d   1       1.341  -0.381   0.104  0.00  0.00     0.027 A 
ATOM      5  C5  DEN d   1       0.829  -1.659   0.143  0.00  0.00    -0.003 A 
ATOM      6  C6  DEN d   1      -0.488  -1.909   0.420  0.00  0.00     0.001 A 
ATOM      7  C7  DEN d   1      -1.350  -0.864   0.625  0.00  0.00     0.017 A 
ATOM      8  C8  DEN d   1      -0.839   0.427   0.594  0.00  0.00    -0.094 A 
ATOM      9  C9  DEN d   1       0.493   0.661   0.300  0.00  0.00    -0.072 A 
ENDROOT
TORSDOF 0
ENDMDL
