MODEL 1
REMARK minimizedAffinity -0.532438219
REMARK minimizedRMSD -1
REMARK  0 active torsions:
REMARK  status: ('A' for Active; 'I' for Inactive)
ROOT
ATOM      1  C1  DEN d   1       0.050  -0.213  -0.262  0.00  0.00     0.130 A 
ATOM      2  C2  DEN d   1      -0.225  -1.266   0.712  0.00  0.00    -0.031 A 
ATOM      3  C3  DEN d   1      -1.388  -2.039   0.231  0.00  0.00     0.027 A 
ATOM      4  C4  DEN d   1      -2.777  -1.713  -1.917  0.00  0.00     0.027 A 
ATOM      5  C5  DEN d   1      -2.930  -0.943  -3.049  0.00  0.00    -0.003 A 
ATOM      6  C6  DEN d   1      -2.129   0.136  -3.312  0.00  0.00     0.001 A 
ATOM      7  C7  DEN d   1      -1.108   0.449  -2.453  0.00  0.00     0.017 A 
ATOM      8  C8  DEN d   1      -0.952  -0.319  -1.307  0.00  0.00    -0.094 A 
ATOM      9  C9  DEN d   1      -1.765  -1.413  -1.065  0.00  0.00    -0.072 A 
ENDROOT
TORSDOF 0
ENDMDL
