MODEL 1
REMARK minimizedAffinity -4.59425068
REMARK minimizedRMSD -1
REMARK  0 active torsions:
REMARK  status: ('A' for Active; 'I' for Inactive)
ROOT
ATOM      1  C1  DEN d   1       0.603   1.563   0.932  0.00  0.00     0.130 A 
ATOM      2  C2  DEN d   1      -0.546   1.140   0.135  0.00  0.00    -0.031 A 
ATOM      3  C3  DEN d   1      -0.255  -0.200  -0.411  0.00  0.00     0.027 A 
ATOM      4  C4  DEN d   1       1.851  -1.657  -0.099  0.00  0.00     0.027 A 
ATOM      5  C5  DEN d   1       3.098  -1.718   0.484  0.00  0.00    -0.003 A 
ATOM      6  C6  DEN d   1       3.610  -0.684   1.222  0.00  0.00     0.001 A 
ATOM      7  C7  DEN d   1       2.853   0.438   1.435  0.00  0.00     0.017 A 
ATOM      8  C8  DEN d   1       1.598   0.510   0.845  0.00  0.00    -0.094 A 
ATOM      9  C9  DEN d   1       1.093  -0.551   0.112  0.00  0.00    -0.072 A 
ENDROOT
TORSDOF 0
ENDMDL
