MODEL 1
REMARK minimizedAffinity -3.58715677
REMARK minimizedRMSD -1
REMARK  0 active torsions:
REMARK  status: ('A' for Active; 'I' for Inactive)
ROOT
ATOM      1  C1  DEN d   1      -0.615   3.554   1.638  0.00  0.00     0.130 A 
ATOM      2  C2  DEN d   1      -2.066   3.498   1.790  0.00  0.00    -0.031 A 
ATOM      3  C3  DEN d   1      -2.523   2.173   1.324  0.00  0.00     0.027 A 
ATOM      4  C4  DEN d   1      -1.131   0.211   0.394  0.00  0.00     0.027 A 
ATOM      5  C5  DEN d   1       0.139  -0.207   0.066  0.00  0.00    -0.003 A 
ATOM      6  C6  DEN d   1       1.234   0.603   0.206  0.00  0.00     0.001 A 
ATOM      7  C7  DEN d   1       1.085   1.861   0.729  0.00  0.00     0.017 A 
ATOM      8  C8  DEN d   1      -0.194   2.293   1.055  0.00  0.00    -0.094 A 
ATOM      9  C9  DEN d   1      -1.286   1.454   0.918  0.00  0.00    -0.072 A 
ENDROOT
TORSDOF 0
ENDMDL
