MODEL 1
REMARK minimizedAffinity 1.01292753
REMARK minimizedRMSD -1
REMARK  0 active torsions:
REMARK  status: ('A' for Active; 'I' for Inactive)
ROOT
ATOM      1  C1  DEN d   1      -0.685   2.906   1.091  0.00  0.00     0.130 A 
ATOM      2  C2  DEN d   1      -2.056   3.144   0.648  0.00  0.00    -0.031 A 
ATOM      3  C3  DEN d   1      -2.502   1.961  -0.114  0.00  0.00     0.027 A 
ATOM      4  C4  DEN d   1      -1.211  -0.208  -0.645  0.00  0.00     0.027 A 
ATOM      5  C5  DEN d   1      -0.012  -0.867  -0.491  0.00  0.00    -0.003 A 
ATOM      6  C6  DEN d   1       1.051  -0.305   0.167  0.00  0.00     0.001 A 
ATOM      7  C7  DEN d   1       0.919   0.935   0.734  0.00  0.00     0.017 A 
ATOM      8  C8  DEN d   1      -0.285   1.608   0.576  0.00  0.00    -0.094 A 
ATOM      9  C9  DEN d   1      -1.351   1.018  -0.081  0.00  0.00    -0.072 A 
ENDROOT
TORSDOF 0
ENDMDL
