MODEL 1
REMARK minimizedAffinity -0.853455544
REMARK minimizedRMSD -1
REMARK  0 active torsions:
REMARK  status: ('A' for Active; 'I' for Inactive)
ROOT
ATOM      1  C1  DEN d   1      -1.528   1.606   0.605  0.00  0.00     0.130 A 
ATOM      2  C2  DEN d   1      -0.649   2.753   0.392  0.00  0.00    -0.031 A 
ATOM      3  C3  DEN d   1       0.738   2.255   0.302  0.00  0.00     0.027 A 
ATOM      4  C4  DEN d   1       1.605  -0.169   0.466  0.00  0.00     0.027 A 
ATOM      5  C5  DEN d   1       1.236  -1.483   0.655  0.00  0.00    -0.003 A 
ATOM      6  C6  DEN d   1      -0.064  -1.852   0.873  0.00  0.00     0.001 A 
ATOM      7  C7  DEN d   1      -1.051  -0.901   0.862  0.00  0.00     0.017 A 
ATOM      8  C8  DEN d   1      -0.686   0.426   0.679  0.00  0.00    -0.094 A 
ATOM      9  C9  DEN d   1       0.633   0.778   0.448  0.00  0.00    -0.072 A 
ENDROOT
TORSDOF 0
ENDMDL
