MODEL 1
REMARK minimizedAffinity -0.676276386
REMARK minimizedRMSD -1
REMARK  1 active torsions:
REMARK  status: ('A' for Active; 'I' for Inactive)
REMARK    1  A    between atoms: C3_4  and  O_7 
ROOT
ATOM      1  C   UNL d   1      -1.073  -1.669   1.663  0.00  0.00    -0.033 A 
ATOM      2  C1  UNL d   1      -1.467  -0.546   0.933  0.00  0.00     0.039 A 
ATOM      3  C2  UNL d   1      -0.513   0.228   0.270  0.00  0.00    -0.080 A 
ATOM      4  C3  UNL d   1       0.830  -0.133   0.344  0.00  0.00     0.150 A 
ATOM      5  C4  UNL d   1       1.229  -1.253   1.066  0.00  0.00    -0.007 A 
ATOM      6  C5  UNL d   1       0.275  -2.023   1.728  0.00  0.00     0.039 A 
ENDROOT
BRANCH   4   7
ATOM      7  O   UNL d   1       1.798   0.594  -0.283  0.00  0.00    -0.526 OA
ATOM      8  H5  UNL d   1       1.379   1.355  -0.719  0.00  0.00     0.418 HD
ENDBRANCH   4   7
TORSDOF 1
ENDMDL
