MODEL 1
REMARK minimizedAffinity -3.4725368
REMARK minimizedRMSD -1
REMARK  1 active torsions:
REMARK  status: ('A' for Active; 'I' for Inactive)
REMARK    1  A    between atoms: C3_4  and  O_7 
ROOT
ATOM      1  C   UNL d   1      -2.541  -0.448  -0.714  0.00  0.00    -0.033 A 
ATOM      2  C1  UNL d   1      -1.776   0.312  -1.601  0.00  0.00     0.039 A 
ATOM      3  C2  UNL d   1      -0.469   0.672  -1.268  0.00  0.00    -0.080 A 
ATOM      4  C3  UNL d   1       0.061   0.266  -0.047  0.00  0.00     0.150 A 
ATOM      5  C4  UNL d   1      -0.693  -0.494   0.841  0.00  0.00    -0.007 A 
ATOM      6  C5  UNL d   1      -1.999  -0.852   0.507  0.00  0.00     0.039 A 
ENDROOT
BRANCH   4   7
ATOM      7  O   UNL d   1       1.331   0.598   0.325  0.00  0.00    -0.526 OA
ATOM      8  H5  UNL d   1       1.722   1.148  -0.374  0.00  0.00     0.418 HD
ENDBRANCH   4   7
TORSDOF 1
ENDMDL
