MODEL 1
REMARK minimizedAffinity -1.23513544
REMARK minimizedRMSD -1
REMARK  1 active torsions:
REMARK  status: ('A' for Active; 'I' for Inactive)
REMARK    1  A    between atoms: C3_4  and  O_7 
ROOT
ATOM      1  C   UNL d   1      -0.654  -0.897  -0.193  0.00  0.00    -0.033 A 
ATOM      2  C1  UNL d   1       0.288  -1.083   0.821  0.00  0.00     0.039 A 
ATOM      3  C2  UNL d   1       1.283  -0.128   1.037  0.00  0.00    -0.080 A 
ATOM      4  C3  UNL d   1       1.325   1.008   0.233  0.00  0.00     0.150 A 
ATOM      5  C4  UNL d   1       0.388   1.202  -0.777  0.00  0.00    -0.007 A 
ATOM      6  C5  UNL d   1      -0.604   0.246  -0.991  0.00  0.00     0.039 A 
ENDROOT
BRANCH   4   7
ATOM      7  O   UNL d   1       2.281   1.965   0.402  0.00  0.00    -0.526 OA
ATOM      8  H5  UNL d   1       2.876   1.683   1.117  0.00  0.00     0.418 HD
ENDBRANCH   4   7
TORSDOF 1
ENDMDL
