MODEL 1
REMARK minimizedAffinity -4.60722303
REMARK minimizedRMSD -1
REMARK  1 active torsions:
REMARK  status: ('A' for Active; 'I' for Inactive)
REMARK    1  A    between atoms: C3_4  and  O_7 
ROOT
ATOM      1  C   UNL d   1       0.305  -0.244  -0.434  0.00  0.00    -0.033 A 
ATOM      2  C1  UNL d   1      -0.536   0.079  -1.502  0.00  0.00     0.039 A 
ATOM      3  C2  UNL d   1      -1.921  -0.011  -1.353  0.00  0.00    -0.080 A 
ATOM      4  C3  UNL d   1      -2.452  -0.423  -0.134  0.00  0.00     0.150 A 
ATOM      5  C4  UNL d   1      -1.621  -0.742   0.934  0.00  0.00    -0.007 A 
ATOM      6  C5  UNL d   1      -0.238  -0.653   0.784  0.00  0.00     0.039 A 
ENDROOT
BRANCH   4   7
ATOM      7  O   UNL d   1      -3.798  -0.531   0.056  0.00  0.00    -0.526 OA
ATOM      8  H5  UNL d   1      -4.246  -0.306  -0.776  0.00  0.00     0.418 HD
ENDBRANCH   4   7
TORSDOF 1
ENDMDL
