MODEL 1
REMARK minimizedAffinity -4.32780027
REMARK minimizedRMSD -1
REMARK  1 active torsions:
REMARK  status: ('A' for Active; 'I' for Inactive)
REMARK    1  A    between atoms: C3_4  and  O_7 
ROOT
ATOM      1  C   UNL d   1       0.700   0.002  -0.405  0.00  0.00    -0.033 A 
ATOM      2  C1  UNL d   1       0.100  -0.524   0.741  0.00  0.00     0.039 A 
ATOM      3  C2  UNL d   1      -1.263  -0.828   0.741  0.00  0.00    -0.080 A 
ATOM      4  C3  UNL d   1      -2.013  -0.602  -0.410  0.00  0.00     0.150 A 
ATOM      5  C4  UNL d   1      -1.421  -0.082  -1.557  0.00  0.00    -0.007 A 
ATOM      6  C5  UNL d   1      -0.060   0.222  -1.554  0.00  0.00     0.039 A 
ENDROOT
BRANCH   4   7
ATOM      7  O   UNL d   1      -3.347  -0.879  -0.457  0.00  0.00    -0.526 OA
ATOM      8  H5  UNL d   1      -3.625  -1.205   0.415  0.00  0.00     0.418 HD
ENDBRANCH   4   7
TORSDOF 1
ENDMDL
