MODEL 1
REMARK minimizedAffinity -5.38741732
REMARK minimizedRMSD -1
REMARK  1 active torsions:
REMARK  status: ('A' for Active; 'I' for Inactive)
REMARK    1  A    between atoms: C3_4  and  O_7 
ROOT
ATOM      1  C   UNL d   1       0.331  -0.458  -0.901  0.00  0.00    -0.033 A 
ATOM      2  C1  UNL d   1      -0.584  -0.165  -1.915  0.00  0.00     0.039 A 
ATOM      3  C2  UNL d   1      -1.954  -0.190  -1.650  0.00  0.00    -0.080 A 
ATOM      4  C3  UNL d   1      -2.397  -0.509  -0.369  0.00  0.00     0.150 A 
ATOM      5  C4  UNL d   1      -1.491  -0.798   0.647  0.00  0.00    -0.007 A 
ATOM      6  C5  UNL d   1      -0.123  -0.773   0.380  0.00  0.00     0.039 A 
ENDROOT
BRANCH   4   7
ATOM      7  O   UNL d   1      -3.725  -0.551  -0.063  0.00  0.00    -0.526 OA
ATOM      8  H5  UNL d   1      -4.232  -0.358  -0.869  0.00  0.00     0.418 HD
ENDBRANCH   4   7
TORSDOF 1
ENDMDL
