MODEL 1
REMARK minimizedAffinity -3.57252955
REMARK minimizedRMSD -1
REMARK  1 active torsions:
REMARK  status: ('A' for Active; 'I' for Inactive)
REMARK    1  A    between atoms: C3_4  and  O_7 
ROOT
ATOM      1  C   UNL d   1       0.452  -0.086  -0.232  0.00  0.00    -0.033 A 
ATOM      2  C1  UNL d   1      -0.169   0.245  -1.438  0.00  0.00     0.039 A 
ATOM      3  C2  UNL d   1      -1.556   0.140  -1.562  0.00  0.00    -0.080 A 
ATOM      4  C3  UNL d   1      -2.309  -0.295  -0.475  0.00  0.00     0.150 A 
ATOM      5  C4  UNL d   1      -1.696  -0.623   0.730  0.00  0.00    -0.007 A 
ATOM      6  C5  UNL d   1      -0.312  -0.519   0.852  0.00  0.00     0.039 A 
ENDROOT
BRANCH   4   7
ATOM      7  O   UNL d   1      -3.664  -0.418  -0.551  0.00  0.00    -0.526 OA
ATOM      8  H5  UNL d   1      -3.945  -0.185  -1.451  0.00  0.00     0.418 HD
ENDBRANCH   4   7
TORSDOF 1
ENDMDL
