MODEL 1
REMARK minimizedAffinity -5.05194759
REMARK minimizedRMSD -1
REMARK  1 active torsions:
REMARK  status: ('A' for Active; 'I' for Inactive)
REMARK    1  A    between atoms: C3_4  and  O_7 
ROOT
ATOM      1  C   UNL d   1       0.264  -0.011  -0.813  0.00  0.00    -0.033 A 
ATOM      2  C1  UNL d   1      -0.620  -0.183  -1.880  0.00  0.00     0.039 A 
ATOM      3  C2  UNL d   1      -1.997  -0.218  -1.650  0.00  0.00    -0.080 A 
ATOM      4  C3  UNL d   1      -2.476  -0.078  -0.350  0.00  0.00     0.150 A 
ATOM      5  C4  UNL d   1      -1.601   0.097   0.717  0.00  0.00    -0.007 A 
ATOM      6  C5  UNL d   1      -0.227   0.130   0.485  0.00  0.00     0.039 A 
ENDROOT
BRANCH   4   7
ATOM      7  O   UNL d   1      -3.811  -0.110  -0.076  0.00  0.00    -0.526 OA
ATOM      8  H5  UNL d   1      -4.292  -0.266  -0.906  0.00  0.00     0.418 HD
ENDBRANCH   4   7
TORSDOF 1
ENDMDL
