MODEL 1
REMARK minimizedAffinity -2.72912574
REMARK minimizedRMSD -1
REMARK  1 active torsions:
REMARK  status: ('A' for Active; 'I' for Inactive)
REMARK    1  A    between atoms: C3_4  and  O_7 
ROOT
ATOM      1  C   UNL d   1       0.337  -0.040  -0.541  0.00  0.00    -0.033 A 
ATOM      2  C1  UNL d   1      -0.536  -0.011  -1.631  0.00  0.00     0.039 A 
ATOM      3  C2  UNL d   1      -1.915  -0.073  -1.424  0.00  0.00    -0.080 A 
ATOM      4  C3  UNL d   1      -2.408  -0.164  -0.125  0.00  0.00     0.150 A 
ATOM      5  C4  UNL d   1      -1.544  -0.190   0.965  0.00  0.00    -0.007 A 
ATOM      6  C5  UNL d   1      -0.167  -0.128   0.757  0.00  0.00     0.039 A 
ENDROOT
BRANCH   4   7
ATOM      7  O   UNL d   1      -3.746  -0.232   0.127  0.00  0.00    -0.526 OA
ATOM      8  H5  UNL d   1      -4.219  -0.233  -0.722  0.00  0.00     0.418 HD
ENDBRANCH   4   7
TORSDOF 1
ENDMDL
