MODEL 1
REMARK minimizedAffinity -3.92881632
REMARK minimizedRMSD -1
REMARK  1 active torsions:
REMARK  status: ('A' for Active; 'I' for Inactive)
REMARK    1  A    between atoms: C3_4  and  O_7 
ROOT
ATOM      1  C   UNL d   1      -2.399  -1.250  -0.624  0.00  0.00    -0.033 A 
ATOM      2  C1  UNL d   1      -1.962  -1.448   0.688  0.00  0.00     0.039 A 
ATOM      3  C2  UNL d   1      -0.805  -0.813   1.143  0.00  0.00    -0.080 A 
ATOM      4  C3  UNL d   1      -0.095   0.016   0.278  0.00  0.00     0.150 A 
ATOM      5  C4  UNL d   1      -0.527   0.220  -1.029  0.00  0.00    -0.007 A 
ATOM      6  C5  UNL d   1      -1.682  -0.416  -1.481  0.00  0.00     0.039 A 
ENDROOT
BRANCH   4   7
ATOM      7  O   UNL d   1       1.043   0.653   0.675  0.00  0.00    -0.526 OA
ATOM      8  H5  UNL d   1       1.236   0.395   1.592  0.00  0.00     0.418 HD
ENDBRANCH   4   7
TORSDOF 1
ENDMDL
