MODEL 1
REMARK minimizedAffinity -3.4571414
REMARK minimizedRMSD -1
REMARK  1 active torsions:
REMARK  status: ('A' for Active; 'I' for Inactive)
REMARK    1  A    between atoms: C3_4  and  O_7 
ROOT
ATOM      1  C   UNL d   1       1.655   0.750   1.013  0.00  0.00    -0.033 A 
ATOM      2  C1  UNL d   1       1.734  -0.063  -0.119  0.00  0.00     0.039 A 
ATOM      3  C2  UNL d   1       0.567  -0.511  -0.742  0.00  0.00    -0.080 A 
ATOM      4  C3  UNL d   1      -0.670  -0.138  -0.224  0.00  0.00     0.150 A 
ATOM      5  C4  UNL d   1      -0.756   0.675   0.901  0.00  0.00    -0.007 A 
ATOM      6  C5  UNL d   1       0.410   1.120   1.523  0.00  0.00     0.039 A 
ENDROOT
BRANCH   4   7
ATOM      7  O   UNL d   1      -1.836  -0.554  -0.795  0.00  0.00    -0.526 OA
ATOM      8  H5  UNL d   1      -1.622  -1.132  -1.546  0.00  0.00     0.418 HD
ENDBRANCH   4   7
TORSDOF 1
ENDMDL
