MODEL 1
REMARK minimizedAffinity -4.71983814
REMARK minimizedRMSD -1
REMARK  1 active torsions:
REMARK  status: ('A' for Active; 'I' for Inactive)
REMARK    1  A    between atoms: C3_4  and  O_7 
ROOT
ATOM      1  C   UNL d   1       0.215   0.062  -1.087  0.00  0.00    -0.033 A 
ATOM      2  C1  UNL d   1      -0.649  -0.356  -2.101  0.00  0.00     0.039 A 
ATOM      3  C2  UNL d   1      -1.971  -0.691  -1.801  0.00  0.00    -0.080 A 
ATOM      4  C3  UNL d   1      -2.416  -0.602  -0.485  0.00  0.00     0.150 A 
ATOM      5  C4  UNL d   1      -1.561  -0.183   0.530  0.00  0.00    -0.007 A 
ATOM      6  C5  UNL d   1      -0.242   0.150   0.228  0.00  0.00     0.039 A 
ENDROOT
BRANCH   4   7
ATOM      7  O   UNL d   1      -3.695  -0.923  -0.142  0.00  0.00    -0.526 OA
ATOM      8  H5  UNL d   1      -4.162  -1.223  -0.940  0.00  0.00     0.418 HD
ENDBRANCH   4   7
TORSDOF 1
ENDMDL
