MODEL 1
REMARK minimizedAffinity -5.14557171
REMARK minimizedRMSD -1
REMARK  1 active torsions:
REMARK  status: ('A' for Active; 'I' for Inactive)
REMARK    1  A    between atoms: C3_4  and  O_7 
ROOT
ATOM      1  C   UNL d   1      -0.056   0.402  -0.361  0.00  0.00    -0.033 A 
ATOM      2  C1  UNL d   1      -0.555  -0.216   0.787  0.00  0.00     0.039 A 
ATOM      3  C2  UNL d   1      -1.837  -0.768   0.784  0.00  0.00    -0.080 A 
ATOM      4  C3  UNL d   1      -2.608  -0.698  -0.373  0.00  0.00     0.150 A 
ATOM      5  C4  UNL d   1      -2.116  -0.088  -1.522  0.00  0.00    -0.007 A 
ATOM      6  C5  UNL d   1      -0.836   0.464  -1.516  0.00  0.00     0.039 A 
ENDROOT
BRANCH   4   7
ATOM      7  O   UNL d   1      -3.867  -1.219  -0.422  0.00  0.00    -0.526 OA
ATOM      8  H5  UNL d   1      -4.084  -1.583   0.452  0.00  0.00     0.418 HD
ENDBRANCH   4   7
TORSDOF 1
ENDMDL
