MODEL 1
REMARK minimizedAffinity -4.59057617
REMARK minimizedRMSD -1
REMARK  1 active torsions:
REMARK  status: ('A' for Active; 'I' for Inactive)
REMARK    1  A    between atoms: C3_4  and  O_7 
ROOT
ATOM      1  C   UNL d   1       1.010  -0.712   0.398  0.00  0.00    -0.033 A 
ATOM      2  C1  UNL d   1       0.391  -0.037  -0.656  0.00  0.00     0.039 A 
ATOM      3  C2  UNL d   1      -0.997  -0.090  -0.803  0.00  0.00    -0.080 A 
ATOM      4  C3  UNL d   1      -1.753  -0.819   0.110  0.00  0.00     0.150 A 
ATOM      5  C4  UNL d   1      -1.143  -1.491   1.165  0.00  0.00    -0.007 A 
ATOM      6  C5  UNL d   1       0.242  -1.437   1.309  0.00  0.00     0.039 A 
ENDROOT
BRANCH   4   7
ATOM      7  O   UNL d   1      -3.109  -0.904   0.005  0.00  0.00    -0.526 OA
ATOM      8  H5  UNL d   1      -3.388  -0.415  -0.787  0.00  0.00     0.418 HD
ENDBRANCH   4   7
TORSDOF 1
ENDMDL
