MODEL 1
REMARK minimizedAffinity -4.07414675
REMARK minimizedRMSD -1
REMARK  1 active torsions:
REMARK  status: ('A' for Active; 'I' for Inactive)
REMARK    1  A    between atoms: C3_4  and  O_7 
ROOT
ATOM      1  C   UNL d   1       0.004   0.457  -0.132  0.00  0.00    -0.033 A 
ATOM      2  C1  UNL d   1       1.133  -0.252   0.284  0.00  0.00     0.039 A 
ATOM      3  C2  UNL d   1       0.999  -1.324   1.168  0.00  0.00    -0.080 A 
ATOM      4  C3  UNL d   1      -0.266  -1.677   1.628  0.00  0.00     0.150 A 
ATOM      5  C4  UNL d   1      -1.395  -0.978   1.216  0.00  0.00    -0.007 A 
ATOM      6  C5  UNL d   1      -1.260   0.093   0.333  0.00  0.00     0.039 A 
ENDROOT
BRANCH   4   7
ATOM      7  O   UNL d   1      -0.446  -2.713   2.496  0.00  0.00    -0.526 OA
ATOM      8  H5  UNL d   1       0.425  -3.085   2.716  0.00  0.00     0.418 HD
ENDBRANCH   4   7
TORSDOF 1
ENDMDL
