MODEL 1
REMARK minimizedAffinity -4.26738501
REMARK minimizedRMSD -1
REMARK  1 active torsions:
REMARK  status: ('A' for Active; 'I' for Inactive)
REMARK    1  A    between atoms: C3_4  and  O_7 
ROOT
ATOM      1  C   UNL d   1       0.286   0.339   0.075  0.00  0.00    -0.033 A 
ATOM      2  C1  UNL d   1      -0.417  -0.159   1.173  0.00  0.00     0.039 A 
ATOM      3  C2  UNL d   1      -1.748  -0.555   1.032  0.00  0.00    -0.080 A 
ATOM      4  C3  UNL d   1      -2.364  -0.450  -0.212  0.00  0.00     0.150 A 
ATOM      5  C4  UNL d   1      -1.669   0.042  -1.312  0.00  0.00    -0.007 A 
ATOM      6  C5  UNL d   1      -0.340   0.438  -1.169  0.00  0.00     0.039 A 
ENDROOT
BRANCH   4   7
ATOM      7  O   UNL d   1      -3.663  -0.819  -0.398  0.00  0.00    -0.526 OA
ATOM      8  H5  UNL d   1      -4.025  -1.112   0.455  0.00  0.00     0.418 HD
ENDBRANCH   4   7
TORSDOF 1
ENDMDL
