MODEL 1
REMARK minimizedAffinity 2.03694153
REMARK minimizedRMSD -1
REMARK  0 active torsions:
REMARK  status: ('A' for Active; 'I' for Inactive)
ROOT
ATOM      1  C   UNL d   1       1.012  -0.874   0.918  0.00  0.00    -0.002 A 
ATOM      2  C1  UNL d   1       0.598   0.018  -0.061  0.00  0.00     0.010 A 
ATOM      3  C2  UNL d   1      -0.177  -0.419  -1.138  0.00  0.00     0.041 A 
ATOM      4  C3  UNL d   1      -0.534  -1.780  -1.213  0.00  0.00    -0.075 A 
ATOM      5  S   UNL d   1      -1.477  -2.541  -2.439  0.00  0.00     0.015 SA
ATOM      6  C4  UNL d   1      -1.353  -4.067  -1.692  0.00  0.00     0.022 A 
ATOM      7  C5  UNL d   1      -0.613  -4.016  -0.535  0.00  0.00     0.026 A 
ATOM      8  C6  UNL d   1      -0.129  -2.697  -0.239  0.00  0.00    -0.082 A 
ATOM      9  C7  UNL d   1       0.657  -2.223   0.839  0.00  0.00     0.045 A 
ENDROOT
TORSDOF 0
ENDMDL
