MODEL 1
REMARK minimizedAffinity -2.87300038
REMARK minimizedRMSD -1
REMARK  0 active torsions:
REMARK  status: ('A' for Active; 'I' for Inactive)
ROOT
ATOM      1  C   UNL d   1      -0.059  -1.440  -0.786  0.00  0.00    -0.002 A 
ATOM      2  C1  UNL d   1      -0.414  -1.445   0.556  0.00  0.00     0.010 A 
ATOM      3  C2  UNL d   1      -0.518  -0.248   1.267  0.00  0.00     0.041 A 
ATOM      4  C3  UNL d   1      -0.260   0.966   0.600  0.00  0.00    -0.075 A 
ATOM      5  S   UNL d   1      -0.327   2.554   1.268  0.00  0.00     0.015 SA
ATOM      6  C4  UNL d   1       0.113   3.276  -0.212  0.00  0.00     0.022 A 
ATOM      7  C5  UNL d   1       0.310   2.343  -1.203  0.00  0.00     0.026 A 
ATOM      8  C6  UNL d   1       0.098   0.996  -0.751  0.00  0.00    -0.082 A 
ATOM      9  C7  UNL d   1       0.197  -0.235  -1.444  0.00  0.00     0.045 A 
ENDROOT
TORSDOF 0
ENDMDL
