MODEL 1
REMARK minimizedAffinity -3.7051537
REMARK minimizedRMSD -1
REMARK  0 active torsions:
REMARK  status: ('A' for Active; 'I' for Inactive)
ROOT
ATOM      1  C   UNL d   1       1.436   2.807  -0.468  0.00  0.00    -0.002 A 
ATOM      2  C1  UNL d   1       0.279   3.408   0.008  0.00  0.00     0.010 A 
ATOM      3  C2  UNL d   1      -0.768   2.634   0.513  0.00  0.00     0.041 A 
ATOM      4  C3  UNL d   1      -0.630   1.232   0.533  0.00  0.00    -0.075 A 
ATOM      5  S   UNL d   1      -1.781   0.083   1.105  0.00  0.00     0.015 SA
ATOM      6  C4  UNL d   1      -0.764  -1.233   0.732  0.00  0.00     0.022 A 
ATOM      7  C5  UNL d   1       0.429  -0.824   0.183  0.00  0.00     0.026 A 
ATOM      8  C6  UNL d   1       0.525   0.604   0.060  0.00  0.00    -0.082 A 
ATOM      9  C7  UNL d   1       1.568   1.416  -0.446  0.00  0.00     0.045 A 
ENDROOT
TORSDOF 0
ENDMDL
