MODEL 1
REMARK minimizedAffinity -2.74851155
REMARK minimizedRMSD -1
REMARK  0 active torsions:
REMARK  status: ('A' for Active; 'I' for Inactive)
ROOT
ATOM      1  C   UNL d   1       0.420   0.090   0.480  0.00  0.00    -0.002 A 
ATOM      2  C1  UNL d   1      -0.351   0.626  -0.541  0.00  0.00     0.010 A 
ATOM      3  C2  UNL d   1      -0.829  -0.185  -1.572  0.00  0.00     0.041 A 
ATOM      4  C3  UNL d   1      -0.516  -1.559  -1.559  0.00  0.00    -0.075 A 
ATOM      5  S   UNL d   1      -0.992  -2.745  -2.716  0.00  0.00     0.015 SA
ATOM      6  C4  UNL d   1      -0.182  -3.991  -1.882  0.00  0.00     0.022 A 
ATOM      7  C5  UNL d   1       0.441  -3.532  -0.747  0.00  0.00     0.026 A 
ATOM      8  C6  UNL d   1       0.259  -2.122  -0.541  0.00  0.00    -0.082 A 
ATOM      9  C7  UNL d   1       0.729  -1.273   0.490  0.00  0.00     0.045 A 
ENDROOT
TORSDOF 0
ENDMDL
