MODEL 1
REMARK minimizedAffinity 0.0571513548
REMARK minimizedRMSD -1
REMARK  0 active torsions:
REMARK  status: ('A' for Active; 'I' for Inactive)
ROOT
ATOM      1  C   UNL d   1      -0.253   3.403   1.136  0.00  0.00    -0.002 A 
ATOM      2  C1  UNL d   1       1.125   3.298   1.257  0.00  0.00     0.010 A 
ATOM      3  C2  UNL d   1       1.766   2.075   1.045  0.00  0.00     0.041 A 
ATOM      4  C3  UNL d   1       0.990   0.950   0.704  0.00  0.00    -0.075 A 
ATOM      5  S   UNL d   1       1.558  -0.649   0.398  0.00  0.00     0.015 SA
ATOM      6  C4  UNL d   1      -0.016  -1.230   0.097  0.00  0.00     0.022 A 
ATOM      7  C5  UNL d   1      -0.963  -0.242   0.224  0.00  0.00     0.026 A 
ATOM      8  C6  UNL d   1      -0.399   1.030   0.576  0.00  0.00    -0.082 A 
ATOM      9  C7  UNL d   1      -1.019   2.284   0.798  0.00  0.00     0.045 A 
ENDROOT
TORSDOF 0
ENDMDL
