MODEL 1
REMARK minimizedAffinity 0.981102347
REMARK minimizedRMSD -1
REMARK  0 active torsions:
REMARK  status: ('A' for Active; 'I' for Inactive)
ROOT
ATOM      1  C   UNL d   1       0.692   2.985  -0.090  0.00  0.00    -0.002 A 
ATOM      2  C1  UNL d   1       2.017   2.574  -0.053  0.00  0.00     0.010 A 
ATOM      3  C2  UNL d   1       2.340   1.216  -0.087  0.00  0.00     0.041 A 
ATOM      4  C3  UNL d   1       1.300   0.270  -0.163  0.00  0.00    -0.075 A 
ATOM      5  S   UNL d   1       1.458  -1.446  -0.217  0.00  0.00     0.015 SA
ATOM      6  C4  UNL d   1      -0.229  -1.674  -0.293  0.00  0.00     0.022 A 
ATOM      7  C5  UNL d   1      -0.912  -0.481  -0.277  0.00  0.00     0.026 A 
ATOM      8  C6  UNL d   1      -0.042   0.659  -0.203  0.00  0.00    -0.082 A 
ATOM      9  C7  UNL d   1      -0.337   2.043  -0.165  0.00  0.00     0.045 A 
ENDROOT
TORSDOF 0
ENDMDL
