MODEL 1
REMARK minimizedAffinity -4.52157831
REMARK minimizedRMSD -1
REMARK  0 active torsions:
REMARK  status: ('A' for Active; 'I' for Inactive)
ROOT
ATOM      1  C   UNL d   1       2.245   3.384   0.486  0.00  0.00    -0.002 A 
ATOM      2  C1  UNL d   1       2.982   2.224   0.292  0.00  0.00     0.010 A 
ATOM      3  C2  UNL d   1       2.364   0.973   0.343  0.00  0.00     0.041 A 
ATOM      4  C3  UNL d   1       0.979   0.907   0.593  0.00  0.00    -0.075 A 
ATOM      5  S   UNL d   1       0.009  -0.514   0.700  0.00  0.00     0.015 SA
ATOM      6  C4  UNL d   1      -1.406   0.384   1.005  0.00  0.00     0.022 A 
ATOM      7  C5  UNL d   1      -1.163   1.737   1.029  0.00  0.00     0.026 A 
ATOM      8  C6  UNL d   1       0.216   2.061   0.791  0.00  0.00    -0.082 A 
ATOM      9  C7  UNL d   1       0.872   3.314   0.734  0.00  0.00     0.045 A 
ENDROOT
TORSDOF 0
ENDMDL
