MODEL 1
REMARK minimizedAffinity -4.96543121
REMARK minimizedRMSD -1
REMARK  0 active torsions:
REMARK  status: ('A' for Active; 'I' for Inactive)
ROOT
ATOM      1  C   UNL d   1       1.157   3.406   0.346  0.00  0.00    -0.002 A 
ATOM      2  C1  UNL d   1       2.360   2.884   0.800  0.00  0.00     0.010 A 
ATOM      3  C2  UNL d   1       2.511   1.509   0.992  0.00  0.00     0.041 A 
ATOM      4  C3  UNL d   1       1.421   0.659   0.717  0.00  0.00    -0.075 A 
ATOM      5  S   UNL d   1       1.374  -1.057   0.879  0.00  0.00     0.015 SA
ATOM      6  C4  UNL d   1      -0.244  -1.137   0.349  0.00  0.00     0.022 A 
ATOM      7  C5  UNL d   1      -0.751   0.105   0.052  0.00  0.00     0.026 A 
ATOM      8  C6  UNL d   1       0.200   1.161   0.259  0.00  0.00    -0.082 A 
ATOM      9  C7  UNL d   1       0.079   2.560   0.075  0.00  0.00     0.045 A 
ENDROOT
TORSDOF 0
ENDMDL
