MODEL 1
REMARK minimizedAffinity -4.44305658
REMARK minimizedRMSD -1
REMARK  0 active torsions:
REMARK  status: ('A' for Active; 'I' for Inactive)
ROOT
ATOM      1  C   UNL d   1      -0.521   2.728  -0.063  0.00  0.00    -0.002 A 
ATOM      2  C1  UNL d   1       0.854   2.829  -0.225  0.00  0.00     0.010 A 
ATOM      3  C2  UNL d   1       1.656   1.686  -0.211  0.00  0.00     0.041 A 
ATOM      4  C3  UNL d   1       1.047   0.428  -0.033  0.00  0.00    -0.075 A 
ATOM      5  S   UNL d   1       1.830  -1.107   0.016  0.00  0.00     0.015 SA
ATOM      6  C4  UNL d   1       0.358  -1.933   0.252  0.00  0.00     0.022 A 
ATOM      7  C5  UNL d   1      -0.715  -1.074   0.295  0.00  0.00     0.026 A 
ATOM      8  C6  UNL d   1      -0.335   0.301   0.131  0.00  0.00    -0.082 A 
ATOM      9  C7  UNL d   1      -1.121   1.479   0.114  0.00  0.00     0.045 A 
ENDROOT
TORSDOF 0
ENDMDL
