MODEL 1
REMARK minimizedAffinity -2.83985949
REMARK minimizedRMSD -1
REMARK  0 active torsions:
REMARK  status: ('A' for Active; 'I' for Inactive)
ROOT
ATOM      1  C   UNL d   1      -2.086   1.558   0.561  0.00  0.00    -0.002 A 
ATOM      2  C1  UNL d   1      -1.322   2.683   0.285  0.00  0.00     0.010 A 
ATOM      3  C2  UNL d   1       0.056   2.576   0.086  0.00  0.00     0.041 A 
ATOM      4  C3  UNL d   1       0.659   1.305   0.167  0.00  0.00    -0.075 A 
ATOM      5  S   UNL d   1       2.329   0.932  -0.042  0.00  0.00     0.015 SA
ATOM      6  C4  UNL d   1       2.068  -0.731   0.228  0.00  0.00     0.022 A 
ATOM      7  C5  UNL d   1       0.745  -1.012   0.474  0.00  0.00     0.026 A 
ATOM      8  C6  UNL d   1      -0.089   0.157   0.442  0.00  0.00    -0.082 A 
ATOM      9  C7  UNL d   1      -1.484   0.299   0.641  0.00  0.00     0.045 A 
ENDROOT
TORSDOF 0
ENDMDL
