MODEL 1
REMARK minimizedAffinity -2.52792764
REMARK minimizedRMSD -1
REMARK  0 active torsions:
REMARK  status: ('A' for Active; 'I' for Inactive)
ROOT
ATOM      1  C   UNL d   1       1.740   3.251  -0.111  0.00  0.00    -0.002 A 
ATOM      2  C1  UNL d   1       2.789   2.377   0.135  0.00  0.00     0.010 A 
ATOM      3  C2  UNL d   1       2.543   1.027   0.392  0.00  0.00     0.041 A 
ATOM      4  C3  UNL d   1       1.212   0.565   0.397  0.00  0.00    -0.075 A 
ATOM      5  S   UNL d   1       0.672  -1.046   0.687  0.00  0.00     0.015 SA
ATOM      6  C4  UNL d   1      -0.965  -0.612   0.491  0.00  0.00     0.022 A 
ATOM      7  C5  UNL d   1      -1.113   0.726   0.211  0.00  0.00     0.026 A 
ATOM      8  C6  UNL d   1       0.139   1.426   0.152  0.00  0.00    -0.082 A 
ATOM      9  C7  UNL d   1       0.421   2.790  -0.105  0.00  0.00     0.045 A 
ENDROOT
TORSDOF 0
ENDMDL
