MODEL 1
REMARK minimizedAffinity -2.9453299
REMARK minimizedRMSD -1
REMARK  0 active torsions:
REMARK  status: ('A' for Active; 'I' for Inactive)
ROOT
ATOM      1  C   UNL d   1       0.131   3.429  -0.028  0.00  0.00    -0.002 A 
ATOM      2  C1  UNL d   1       1.415   3.065  -0.410  0.00  0.00     0.010 A 
ATOM      3  C2  UNL d   1       1.825   1.732  -0.344  0.00  0.00     0.041 A 
ATOM      4  C3  UNL d   1       0.914   0.761   0.115  0.00  0.00    -0.075 A 
ATOM      5  S   UNL d   1       1.195  -0.932   0.280  0.00  0.00     0.015 SA
ATOM      6  C4  UNL d   1      -0.383  -1.213   0.860  0.00  0.00     0.022 A 
ATOM      7  C5  UNL d   1      -1.120  -0.054   0.933  0.00  0.00     0.026 A 
ATOM      8  C6  UNL d   1      -0.384   1.102   0.505  0.00  0.00    -0.082 A 
ATOM      9  C7  UNL d   1      -0.770   2.462   0.427  0.00  0.00     0.045 A 
ENDROOT
TORSDOF 0
ENDMDL
