MODEL 1
REMARK minimizedAffinity -4.12282705
REMARK minimizedRMSD -1
REMARK  0 active torsions:
REMARK  status: ('A' for Active; 'I' for Inactive)
ROOT
ATOM      1  C   UNL d   1       0.076  -0.236  -0.318  0.00  0.00     0.172 C 
ATOM      2  N   UNL d   1      -0.591   0.980   0.087  0.00  0.00    -0.070 N 
ATOM      3  C1  UNL d   1      -0.448   2.205  -0.508  0.00  0.00    -0.004 A 
ATOM      4  C2  UNL d   1      -1.248   3.099   0.170  0.00  0.00    -0.047 A 
ATOM      5  C3  UNL d   1      -1.893   2.387   1.209  0.00  0.00    -0.047 A 
ATOM      6  C4  UNL d   1      -1.468   1.077   1.135  0.00  0.00    -0.004 A 
ENDROOT
TORSDOF 0
ENDMDL
