MODEL 1
REMARK minimizedAffinity -3.81839418
REMARK minimizedRMSD -1
REMARK  0 active torsions:
REMARK  status: ('A' for Active; 'I' for Inactive)
ROOT
ATOM      1  C   UNL d   1       0.684  -0.615  -0.707  0.00  0.00     0.172 C 
ATOM      2  N   UNL d   1      -0.270  -0.116   0.255  0.00  0.00    -0.070 N 
ATOM      3  C1  UNL d   1      -1.296   0.751  -0.013  0.00  0.00    -0.004 A 
ATOM      4  C2  UNL d   1      -1.975   0.979   1.164  0.00  0.00    -0.047 A 
ATOM      5  C3  UNL d   1      -1.334   0.224   2.175  0.00  0.00    -0.047 A 
ATOM      6  C4  UNL d   1      -0.283  -0.444   1.585  0.00  0.00    -0.004 A 
ENDROOT
TORSDOF 0
ENDMDL
