MODEL 1
REMARK minimizedAffinity -3.76967502
REMARK minimizedRMSD -1
REMARK  0 active torsions:
REMARK  status: ('A' for Active; 'I' for Inactive)
ROOT
ATOM      1  C   UNL d   1       0.743  -0.712  -0.944  0.00  0.00     0.172 C 
ATOM      2  N   UNL d   1      -0.076  -0.014   0.019  0.00  0.00    -0.070 N 
ATOM      3  C1  UNL d   1       0.066  -0.073   1.380  0.00  0.00    -0.004 A 
ATOM      4  C2  UNL d   1      -0.903   0.731   1.940  0.00  0.00    -0.047 A 
ATOM      5  C3  UNL d   1      -1.654   1.292   0.880  0.00  0.00    -0.047 A 
ATOM      6  C4  UNL d   1      -1.120   0.814  -0.299  0.00  0.00    -0.004 A 
ENDROOT
TORSDOF 0
ENDMDL
