MODEL 1
REMARK minimizedAffinity -3.75696826
REMARK minimizedRMSD -1
REMARK  0 active torsions:
REMARK  status: ('A' for Active; 'I' for Inactive)
ROOT
ATOM      1  C   UNL d   1       0.592  -0.612  -0.380  0.00  0.00     0.172 C 
ATOM      2  N   UNL d   1      -0.351   0.206   0.345  0.00  0.00    -0.070 N 
ATOM      3  C1  UNL d   1      -0.876  -0.082   1.577  0.00  0.00    -0.004 A 
ATOM      4  C2  UNL d   1      -1.731   0.943   1.921  0.00  0.00    -0.047 A 
ATOM      5  C3  UNL d   1      -1.721   1.878   0.860  0.00  0.00    -0.047 A 
ATOM      6  C4  UNL d   1      -0.858   1.397  -0.103  0.00  0.00    -0.004 A 
ENDROOT
TORSDOF 0
ENDMDL
