MODEL 1
REMARK minimizedAffinity -3.12393308
REMARK minimizedRMSD -1
REMARK  0 active torsions:
REMARK  status: ('A' for Active; 'I' for Inactive)
ROOT
ATOM      1  C   UNL d   1       0.426  -0.663  -0.699  0.00  0.00     0.172 C 
ATOM      2  N   UNL d   1       0.490  -1.884  -1.467  0.00  0.00    -0.070 N 
ATOM      3  C1  UNL d   1       1.074  -3.054  -1.058  0.00  0.00    -0.004 A 
ATOM      4  C2  UNL d   1       0.924  -3.976  -2.071  0.00  0.00    -0.047 A 
ATOM      5  C3  UNL d   1       0.227  -3.339  -3.125  0.00  0.00    -0.047 A 
ATOM      6  C4  UNL d   1      -0.029  -2.045  -2.724  0.00  0.00    -0.004 A 
ENDROOT
TORSDOF 0
ENDMDL
