MODEL 1
REMARK minimizedAffinity -3.20547748
REMARK minimizedRMSD -1
REMARK  0 active torsions:
REMARK  status: ('A' for Active; 'I' for Inactive)
ROOT
ATOM      1  C   UNL d   1      -2.202   1.930   1.470  0.00  0.00     0.172 C 
ATOM      2  N   UNL d   1      -1.269   1.146   0.695  0.00  0.00    -0.070 N 
ATOM      3  C1  UNL d   1      -0.656   1.548  -0.461  0.00  0.00    -0.004 A 
ATOM      4  C2  UNL d   1       0.155   0.519  -0.889  0.00  0.00    -0.047 A 
ATOM      5  C3  UNL d   1       0.023  -0.539   0.042  0.00  0.00    -0.047 A 
ATOM      6  C4  UNL d   1      -0.864  -0.124   1.012  0.00  0.00    -0.004 A 
ENDROOT
TORSDOF 0
ENDMDL
