MODEL 1
REMARK minimizedAffinity -1.2521497
REMARK minimizedRMSD -1
REMARK  0 active torsions:
REMARK  status: ('A' for Active; 'I' for Inactive)
ROOT
ATOM      1  C   UNL d   1      -1.597   1.684   1.030  0.00  0.00     0.172 C 
ATOM      2  N   UNL d   1      -0.581   1.020   0.246  0.00  0.00    -0.070 N 
ATOM      3  C1  UNL d   1      -0.001  -0.184   0.546  0.00  0.00    -0.004 A 
ATOM      4  C2  UNL d   1       0.914  -0.469  -0.444  0.00  0.00    -0.047 A 
ATOM      5  C3  UNL d   1       0.885   0.601  -1.370  0.00  0.00    -0.047 A 
ATOM      6  C4  UNL d   1      -0.050   1.509  -0.918  0.00  0.00    -0.004 A 
ENDROOT
TORSDOF 0
ENDMDL
