MODEL 1
REMARK minimizedAffinity -1.32677329
REMARK minimizedRMSD -1
REMARK  0 active torsions:
REMARK  status: ('A' for Active; 'I' for Inactive)
ROOT
ATOM      1  C   UNL d   1       1.426  -2.395  -1.151  0.00  0.00     0.172 C 
ATOM      2  N   UNL d   1       0.900  -1.102  -0.783  0.00  0.00    -0.070 N 
ATOM      3  C1  UNL d   1       0.894   0.013  -1.577  0.00  0.00    -0.004 A 
ATOM      4  C2  UNL d   1       0.307   1.037  -0.864  0.00  0.00    -0.047 A 
ATOM      5  C3  UNL d   1      -0.050   0.519   0.403  0.00  0.00    -0.047 A 
ATOM      6  C4  UNL d   1       0.328  -0.807   0.427  0.00  0.00    -0.004 A 
ENDROOT
TORSDOF 0
ENDMDL
