MODEL 1
REMARK minimizedAffinity -3.20011258
REMARK minimizedRMSD -1
REMARK  0 active torsions:
REMARK  status: ('A' for Active; 'I' for Inactive)
ROOT
ATOM      1  C   UNL d   1       0.608  -0.724  -0.686  0.00  0.00     0.172 C 
ATOM      2  N   UNL d   1      -0.220   0.089   0.173  0.00  0.00    -0.070 N 
ATOM      3  C1  UNL d   1      -1.143   1.009  -0.247  0.00  0.00    -0.004 A 
ATOM      4  C2  UNL d   1      -1.720   1.569   0.872  0.00  0.00    -0.047 A 
ATOM      5  C3  UNL d   1      -1.123   0.965   2.004  0.00  0.00    -0.047 A 
ATOM      6  C4  UNL d   1      -0.198   0.053   1.542  0.00  0.00    -0.004 A 
ENDROOT
TORSDOF 0
ENDMDL
