MODEL 1
REMARK minimizedAffinity -3.54695153
REMARK minimizedRMSD -1
REMARK  0 active torsions:
REMARK  status: ('A' for Active; 'I' for Inactive)
ROOT
ATOM      1  C   UNL d   1      -2.294   1.527   1.240  0.00  0.00     0.172 C 
ATOM      2  N   UNL d   1      -1.133   0.804   0.775  0.00  0.00    -0.070 N 
ATOM      3  C1  UNL d   1      -0.364   1.140  -0.307  0.00  0.00    -0.004 A 
ATOM      4  C2  UNL d   1       0.643   0.205  -0.415  0.00  0.00    -0.047 A 
ATOM      5  C3  UNL d   1       0.472  -0.725   0.637  0.00  0.00    -0.047 A 
ATOM      6  C4  UNL d   1      -0.634  -0.330   1.359  0.00  0.00    -0.004 A 
ENDROOT
TORSDOF 0
ENDMDL
