MODEL 1
REMARK minimizedAffinity -4.00774813
REMARK minimizedRMSD -1
REMARK  0 active torsions:
REMARK  status: ('A' for Active; 'I' for Inactive)
ROOT
ATOM      1  C   UNL d   1      -1.892   2.301   1.015  0.00  0.00     0.172 C 
ATOM      2  N   UNL d   1      -1.030   1.143   1.071  0.00  0.00    -0.070 N 
ATOM      3  C1  UNL d   1      -0.498   0.490  -0.009  0.00  0.00    -0.004 A 
ATOM      4  C2  UNL d   1       0.264  -0.556   0.463  0.00  0.00    -0.047 A 
ATOM      5  C3  UNL d   1       0.188  -0.531   1.876  0.00  0.00    -0.047 A 
ATOM      6  C4  UNL d   1      -0.620   0.531   2.225  0.00  0.00    -0.004 A 
ENDROOT
TORSDOF 0
ENDMDL
