MODEL 1
REMARK minimizedAffinity -4.24210548
REMARK minimizedRMSD -1
REMARK  0 active torsions:
REMARK  status: ('A' for Active; 'I' for Inactive)
ROOT
ATOM      1  C   UNL d   1       0.734   0.090  -0.020  0.00  0.00     0.172 C 
ATOM      2  N   UNL d   1      -0.236   1.114   0.291  0.00  0.00    -0.070 N 
ATOM      3  C1  UNL d   1      -1.308   0.970   1.131  0.00  0.00    -0.004 A 
ATOM      4  C2  UNL d   1      -1.986   2.169   1.160  0.00  0.00    -0.047 A 
ATOM      5  C3  UNL d   1      -1.298   3.065   0.308  0.00  0.00    -0.047 A 
ATOM      6  C4  UNL d   1      -0.219   2.386  -0.217  0.00  0.00    -0.004 A 
ENDROOT
TORSDOF 0
ENDMDL
