MODEL 1
REMARK minimizedAffinity -3.45381904
REMARK minimizedRMSD -1
REMARK  0 active torsions:
REMARK  status: ('A' for Active; 'I' for Inactive)
ROOT
ATOM      1  C   UNL d   1       0.645  -0.822  -0.680  0.00  0.00     0.172 C 
ATOM      2  N   UNL d   1      -0.095   0.098   0.150  0.00  0.00    -0.070 N 
ATOM      3  C1  UNL d   1      -0.593   1.310  -0.250  0.00  0.00    -0.004 A 
ATOM      4  C2  UNL d   1      -1.233   1.880   0.830  0.00  0.00    -0.047 A 
ATOM      5  C3  UNL d   1      -1.114   0.980   1.916  0.00  0.00    -0.047 A 
ATOM      6  C4  UNL d   1      -0.405  -0.114   1.467  0.00  0.00    -0.004 A 
ENDROOT
TORSDOF 0
ENDMDL
