MODEL 1
REMARK minimizedAffinity -3.55792069
REMARK minimizedRMSD -1
REMARK  0 active torsions:
REMARK  status: ('A' for Active; 'I' for Inactive)
ROOT
ATOM      1  C   UNL d   1      -1.898   1.543   1.833  0.00  0.00     0.172 C 
ATOM      2  N   UNL d   1      -0.974   0.855   0.962  0.00  0.00    -0.070 N 
ATOM      3  C1  UNL d   1      -0.334  -0.322   1.246  0.00  0.00    -0.004 A 
ATOM      4  C2  UNL d   1       0.456  -0.644   0.163  0.00  0.00    -0.047 A 
ATOM      5  C3  UNL d   1       0.285   0.374  -0.804  0.00  0.00    -0.047 A 
ATOM      6  C4  UNL d   1      -0.605   1.290  -0.284  0.00  0.00    -0.004 A 
ENDROOT
TORSDOF 0
ENDMDL
