MODEL 1
REMARK minimizedAffinity -3.7577889
REMARK minimizedRMSD -1
REMARK  0 active torsions:
REMARK  status: ('A' for Active; 'I' for Inactive)
ROOT
ATOM      1  C   UNL d   1      -0.839   0.503  -1.518  0.00  0.00     0.172 C 
ATOM      2  N   UNL d   1      -0.797   1.945  -1.577  0.00  0.00    -0.070 N 
ATOM      3  C1  UNL d   1      -1.885   2.775  -1.616  0.00  0.00    -0.004 A 
ATOM      4  C2  UNL d   1      -1.424   4.073  -1.666  0.00  0.00    -0.047 A 
ATOM      5  C3  UNL d   1      -0.010   4.021  -1.657  0.00  0.00    -0.047 A 
ATOM      6  C4  UNL d   1       0.352   2.692  -1.601  0.00  0.00    -0.004 A 
ENDROOT
TORSDOF 0
ENDMDL
