MODEL 1
REMARK minimizedAffinity 3.66371083
REMARK minimizedRMSD -1
REMARK  0 active torsions:
REMARK  status: ('A' for Active; 'I' for Inactive)
ROOT
ATOM      1  N1  IND d   1      -1.923   3.570   0.015  0.00  0.00    -0.196 N 
ATOM      2  C2  IND d   1      -1.281   4.438   0.853  0.00  0.00     0.054 A 
ATOM      3  C3  IND d   1      -0.014   4.023   1.079  0.00  0.00    -0.031 A 
ATOM      4  C4  IND d   1       1.245   2.004   0.096  0.00  0.00     0.051 A 
ATOM      5  C5  IND d   1       1.065   0.900  -0.688  0.00  0.00    -0.031 A 
ATOM      6  C6  IND d   1      -0.145   0.625  -1.293  0.00  0.00     0.015 A 
ATOM      7  C7  IND d   1      -1.220   1.455  -1.144  0.00  0.00    -0.016 A 
ATOM      8  C8  IND d   1      -1.043   2.573  -0.343  0.00  0.00    -0.047 A 
ATOM      9  C9  IND d   1       0.170   2.835   0.308  0.00  0.00    -0.096 A 
ATOM     10  HN1 IND d   1      -2.740   3.636  -0.245  0.00  0.00     0.298 HD
ENDROOT
TORSDOF 0
ENDMDL
