MODEL 1
REMARK minimizedAffinity 5.047472
REMARK minimizedRMSD -1
REMARK  0 active torsions:
REMARK  status: ('A' for Active; 'I' for Inactive)
ROOT
ATOM      1  N1  IND d   1       2.970   0.248  -3.401  0.00  0.00    -0.196 N 
ATOM      2  C2  IND d   1       4.135   0.951  -3.271  0.00  0.00     0.054 A 
ATOM      3  C3  IND d   1       4.368   1.238  -1.971  0.00  0.00    -0.031 A 
ATOM      4  C4  IND d   1       3.025   0.564   0.119  0.00  0.00     0.051 A 
ATOM      5  C5  IND d   1       1.866  -0.051   0.503  0.00  0.00    -0.031 A 
ATOM      6  C6  IND d   1       1.000  -0.611  -0.413  0.00  0.00     0.015 A 
ATOM      7  C7  IND d   1       1.268  -0.588  -1.753  0.00  0.00    -0.016 A 
ATOM      8  C8  IND d   1       2.440   0.042  -2.147  0.00  0.00    -0.047 A 
ATOM      9  C9  IND d   1       3.301   0.650  -1.225  0.00  0.00    -0.096 A 
ATOM     10  HN1 IND d   1       2.627  -0.021  -4.142  0.00  0.00     0.298 HD
ENDROOT
TORSDOF 0
ENDMDL
