MODEL 1
REMARK minimizedAffinity 8.60211754
REMARK minimizedRMSD -1
REMARK  0 active torsions:
REMARK  status: ('A' for Active; 'I' for Inactive)
ROOT
ATOM      1  N1  IND d   1       2.062   2.400   1.080  0.00  0.00    -0.196 N 
ATOM      2  C2  IND d   1       2.871   1.312   1.252  0.00  0.00     0.054 A 
ATOM      3  C3  IND d   1       2.457   0.289   0.470  0.00  0.00    -0.031 A 
ATOM      4  C4  IND d   1       0.537   0.215  -1.243  0.00  0.00     0.051 A 
ATOM      5  C5  IND d   1      -0.506   0.955  -1.726  0.00  0.00    -0.031 A 
ATOM      6  C6  IND d   1      -0.749   2.242  -1.291  0.00  0.00     0.015 A 
ATOM      7  C7  IND d   1       0.052   2.843  -0.361  0.00  0.00    -0.016 A 
ATOM      8  C8  IND d   1       1.107   2.092   0.136  0.00  0.00    -0.047 A 
ATOM      9  C9  IND d   1       1.334   0.770  -0.270  0.00  0.00    -0.096 A 
ATOM     10  HN1 IND d   1       2.137   3.151   1.492  0.00  0.00     0.298 HD
ENDROOT
TORSDOF 0
ENDMDL
