MODEL 1
REMARK minimizedAffinity 8.79164696
REMARK minimizedRMSD -1
REMARK  0 active torsions:
REMARK  status: ('A' for Active; 'I' for Inactive)
ROOT
ATOM      1  N1  IND d   1       1.958   2.407   1.859  0.00  0.00    -0.196 N 
ATOM      2  C2  IND d   1       2.758   1.323   2.089  0.00  0.00     0.054 A 
ATOM      3  C3  IND d   1       2.453   0.323   1.232  0.00  0.00    -0.031 A 
ATOM      4  C4  IND d   1       0.744   0.283  -0.693  0.00  0.00     0.051 A 
ATOM      5  C5  IND d   1      -0.248   1.027  -1.269  0.00  0.00    -0.031 A 
ATOM      6  C6  IND d   1      -0.559   2.296  -0.824  0.00  0.00     0.015 A 
ATOM      7  C7  IND d   1       0.120   2.875   0.211  0.00  0.00    -0.016 A 
ATOM      8  C8  IND d   1       1.123   2.119   0.802  0.00  0.00    -0.047 A 
ATOM      9  C9  IND d   1       1.415   0.815   0.382  0.00  0.00    -0.096 A 
ATOM     10  HN1 IND d   1       1.973   3.144   2.301  0.00  0.00     0.298 HD
ENDROOT
TORSDOF 0
ENDMDL
