MODEL 1
REMARK minimizedAffinity 4.65003443
REMARK minimizedRMSD -1
REMARK  0 active torsions:
REMARK  status: ('A' for Active; 'I' for Inactive)
ROOT
ATOM      1  N1  IND d   1       3.104   0.729  -3.013  0.00  0.00    -0.196 N 
ATOM      2  C2  IND d   1       4.359   1.269  -3.014  0.00  0.00     0.054 A 
ATOM      3  C3  IND d   1       4.781   1.480  -1.747  0.00  0.00    -0.031 A 
ATOM      4  C4  IND d   1       3.618   0.918   0.480  0.00  0.00     0.051 A 
ATOM      5  C5  IND d   1       2.441   0.447   0.992  0.00  0.00    -0.031 A 
ATOM      6  C6  IND d   1       1.406   0.035   0.178  0.00  0.00     0.015 A 
ATOM      7  C7  IND d   1       1.513   0.068  -1.183  0.00  0.00    -0.016 A 
ATOM      8  C8  IND d   1       2.703   0.552  -1.706  0.00  0.00    -0.047 A 
ATOM      9  C9  IND d   1       3.742   1.012  -0.886  0.00  0.00    -0.096 A 
ATOM     10  HN1 IND d   1       2.642   0.532  -3.711  0.00  0.00     0.298 HD
ENDROOT
TORSDOF 0
ENDMDL
