MODEL 1
REMARK minimizedAffinity 4.25657463
REMARK minimizedRMSD -1
REMARK  0 active torsions:
REMARK  status: ('A' for Active; 'I' for Inactive)
ROOT
ATOM      1  N1  IND d   1       1.106   2.391   1.587  0.00  0.00    -0.196 N 
ATOM      2  C2  IND d   1       1.863   1.315   1.959  0.00  0.00     0.054 A 
ATOM      3  C3  IND d   1       1.615   0.262   1.149  0.00  0.00    -0.031 A 
ATOM      4  C4  IND d   1       0.081   0.111  -0.913  0.00  0.00     0.051 A 
ATOM      5  C5  IND d   1      -0.842   0.826  -1.624  0.00  0.00    -0.031 A 
ATOM      6  C6  IND d   1      -1.168   2.126  -1.295  0.00  0.00     0.015 A 
ATOM      7  C7  IND d   1      -0.571   2.766  -0.246  0.00  0.00    -0.016 A 
ATOM      8  C8  IND d   1       0.362   2.041   0.482  0.00  0.00    -0.047 A 
ATOM      9  C9  IND d   1       0.665   0.708   0.179  0.00  0.00    -0.096 A 
ATOM     10  HN1 IND d   1       1.096   3.157   1.978  0.00  0.00     0.298 HD
ENDROOT
TORSDOF 0
ENDMDL
