MODEL 1
REMARK minimizedAffinity -1.11672068
REMARK minimizedRMSD -1
REMARK  0 active torsions:
REMARK  status: ('A' for Active; 'I' for Inactive)
ROOT
ATOM      1  N1  IND d   1      -1.032   3.008  -0.716  0.00  0.00    -0.196 N 
ATOM      2  C2  IND d   1      -0.650   3.817   0.318  0.00  0.00     0.054 A 
ATOM      3  C3  IND d   1       0.434   3.305   0.941  0.00  0.00    -0.031 A 
ATOM      4  C4  IND d   1       1.808   1.203   0.371  0.00  0.00     0.051 A 
ATOM      5  C5  IND d   1       1.825   0.122  -0.465  0.00  0.00    -0.031 A 
ATOM      6  C6  IND d   1       0.874  -0.055  -1.449  0.00  0.00     0.015 A 
ATOM      7  C7  IND d   1      -0.129   0.853  -1.641  0.00  0.00    -0.016 A 
ATOM      8  C8  IND d   1      -0.154   1.949  -0.790  0.00  0.00    -0.047 A 
ATOM      9  C9  IND d   1       0.784   2.112   0.238  0.00  0.00    -0.096 A 
ATOM     10  HN1 IND d   1      -1.707   3.138  -1.232  0.00  0.00     0.298 HD
ENDROOT
TORSDOF 0
ENDMDL
