MODEL 1
REMARK minimizedAffinity 5.87273598
REMARK minimizedRMSD -1
REMARK  0 active torsions:
REMARK  status: ('A' for Active; 'I' for Inactive)
ROOT
ATOM      1  N1  IND d   1      -0.150  -0.957   0.422  0.00  0.00    -0.196 N 
ATOM      2  C2  IND d   1      -0.682  -0.751  -0.820  0.00  0.00     0.054 A 
ATOM      3  C3  IND d   1       0.191  -0.073  -1.599  0.00  0.00    -0.031 A 
ATOM      4  C4  IND d   1       2.586   0.709  -1.072  0.00  0.00     0.051 A 
ATOM      5  C5  IND d   1       3.497   0.782  -0.056  0.00  0.00    -0.031 A 
ATOM      6  C6  IND d   1       3.233   0.267   1.197  0.00  0.00     0.015 A 
ATOM      7  C7  IND d   1       2.049  -0.354   1.478  0.00  0.00    -0.016 A 
ATOM      8  C8  IND d   1       1.120  -0.424   0.449  0.00  0.00    -0.047 A 
ATOM      9  C9  IND d   1       1.365   0.135  -0.812  0.00  0.00    -0.096 A 
ATOM     10  HN1 IND d   1      -0.543  -1.352   1.077  0.00  0.00     0.298 HD
ENDROOT
TORSDOF 0
ENDMDL
