MODEL 1
REMARK minimizedAffinity 6.76985455
REMARK minimizedRMSD -1
REMARK  0 active torsions:
REMARK  status: ('A' for Active; 'I' for Inactive)
ROOT
ATOM      1  N1  IND d   1       1.825  -1.878   1.751  0.00  0.00    -0.196 N 
ATOM      2  C2  IND d   1       2.213  -1.374   2.962  0.00  0.00     0.054 A 
ATOM      3  C3  IND d   1       2.835  -0.185   2.798  0.00  0.00    -0.031 A 
ATOM      4  C4  IND d   1       3.236   1.169   0.646  0.00  0.00     0.051 A 
ATOM      5  C5  IND d   1       3.092   1.102  -0.711  0.00  0.00    -0.031 A 
ATOM      6  C6  IND d   1       2.505   0.017  -1.330  0.00  0.00     0.015 A 
ATOM      7  C7  IND d   1       2.027  -1.040  -0.609  0.00  0.00    -0.016 A 
ATOM      8  C8  IND d   1       2.177  -0.979   0.769  0.00  0.00    -0.047 A 
ATOM      9  C9  IND d   1       2.810   0.100   1.399  0.00  0.00    -0.096 A 
ATOM     10  HN1 IND d   1       1.428  -2.630   1.625  0.00  0.00     0.298 HD
ENDROOT
TORSDOF 0
ENDMDL
