MODEL 1
REMARK minimizedAffinity 6.3859663
REMARK minimizedRMSD -1
REMARK  0 active torsions:
REMARK  status: ('A' for Active; 'I' for Inactive)
ROOT
ATOM      1  N1  IND d   1       3.019   0.397  -1.807  0.00  0.00    -0.196 N 
ATOM      2  C2  IND d   1       3.797   0.863  -2.830  0.00  0.00     0.054 A 
ATOM      3  C3  IND d   1       4.767   1.674  -2.352  0.00  0.00    -0.031 A 
ATOM      4  C4  IND d   1       5.327   2.294   0.083  0.00  0.00     0.051 A 
ATOM      5  C5  IND d   1       4.876   2.142   1.365  0.00  0.00    -0.031 A 
ATOM      6  C6  IND d   1       3.763   1.383   1.660  0.00  0.00     0.015 A 
ATOM      7  C7  IND d   1       3.062   0.735   0.683  0.00  0.00    -0.016 A 
ATOM      8  C8  IND d   1       3.512   0.893  -0.620  0.00  0.00    -0.047 A 
ATOM      9  C9  IND d   1       4.617   1.697  -0.931  0.00  0.00    -0.096 A 
ATOM     10  HN1 IND d   1       2.336  -0.119  -1.890  0.00  0.00     0.298 HD
ENDROOT
TORSDOF 0
ENDMDL
