MODEL 1
REMARK minimizedAffinity 2.37076592
REMARK minimizedRMSD -1
REMARK  1 active torsions:
REMARK  status: ('A' for Active; 'I' for Inactive)
REMARK    1  A    between atoms: C1_2  and  C2_3 
ROOT
ATOM      1  C2  UNL d   1      -1.338   2.622   0.638  0.00  0.00    -0.073 A 
ATOM      2  C3  UNL d   1      -0.852   1.831  -0.409  0.00  0.00    -0.002 A 
ATOM      3  C4  UNL d   1      -0.037   2.388  -1.394  0.00  0.00     0.004 A 
ATOM      4  C5  UNL d   1       0.306   3.739  -1.340  0.00  0.00    -0.004 A 
ATOM      5  C6  UNL d   1      -0.160   4.544  -0.296  0.00  0.00    -0.075 A 
ATOM      6  C7  UNL d   1       0.199   5.999  -0.224  0.00  0.00     0.076 C 
ATOM      7  C8  UNL d   1      -0.980   3.977   0.689  0.00  0.00     0.001 A 
ENDROOT
BRANCH   1   8
ATOM      8  C1  UNL d   1      -2.214   2.023   1.708  0.00  0.00     0.053 C 
ATOM      9  C   UNL d   1      -1.402   1.293   2.766  0.00  0.00     0.018 C 
ENDBRANCH   1   8
TORSDOF 1
ENDMDL
