MODEL 1
REMARK minimizedAffinity 7.86070013
REMARK minimizedRMSD -1
REMARK  1 active torsions:
REMARK  status: ('A' for Active; 'I' for Inactive)
REMARK    1  A    between atoms: C1_2  and  C2_3 
ROOT
ATOM      1  C2  UNL d   1       0.586   0.769   1.818  0.00  0.00    -0.073 A 
ATOM      2  C3  UNL d   1      -0.595   0.308   2.411  0.00  0.00    -0.002 A 
ATOM      3  C4  UNL d   1      -1.782   1.028   2.270  0.00  0.00     0.004 A 
ATOM      4  C5  UNL d   1      -1.803   2.211   1.531  0.00  0.00    -0.004 A 
ATOM      5  C6  UNL d   1      -0.636   2.682   0.922  0.00  0.00    -0.075 A 
ATOM      6  C7  UNL d   1      -0.641   3.953   0.125  0.00  0.00     0.076 C 
ATOM      7  C8  UNL d   1       0.553   1.955   1.069  0.00  0.00     0.001 A 
ENDROOT
BRANCH   1   8
ATOM      8  C1  UNL d   1       1.869  -0.008   1.962  0.00  0.00     0.053 C 
ATOM      9  C   UNL d   1       2.461  -0.384   0.613  0.00  0.00     0.018 C 
ENDBRANCH   1   8
TORSDOF 1
ENDMDL
