MODEL 1
REMARK minimizedAffinity 6.33965921
REMARK minimizedRMSD -1
REMARK  1 active torsions:
REMARK  status: ('A' for Active; 'I' for Inactive)
REMARK    1  A    between atoms: C1_2  and  C2_3 
ROOT
ATOM      1  C2  UNL d   1       3.233  -3.455   0.394  0.00  0.00    -0.073 A 
ATOM      2  C3  UNL d   1       4.606  -3.332   0.635  0.00  0.00    -0.002 A 
ATOM      3  C4  UNL d   1       5.236  -2.092   0.512  0.00  0.00     0.004 A 
ATOM      4  C5  UNL d   1       4.499  -0.964   0.154  0.00  0.00    -0.004 A 
ATOM      5  C6  UNL d   1       3.123  -1.064  -0.080  0.00  0.00    -0.075 A 
ATOM      6  C7  UNL d   1       2.317   0.140  -0.468  0.00  0.00     0.076 C 
ATOM      7  C8  UNL d   1       2.499  -2.313   0.043  0.00  0.00     0.001 A 
ENDROOT
BRANCH   1   8
ATOM      8  C1  UNL d   1       2.549  -4.790   0.532  0.00  0.00     0.053 C 
ATOM      9  C   UNL d   1       1.446  -4.975  -0.499  0.00  0.00     0.018 C 
ENDBRANCH   1   8
TORSDOF 1
ENDMDL
