MODEL 1
REMARK minimizedAffinity 10.1134243
REMARK minimizedRMSD -1
REMARK  1 active torsions:
REMARK  status: ('A' for Active; 'I' for Inactive)
REMARK    1  A    between atoms: C1_2  and  C2_3 
ROOT
ATOM      1  C2  UNL d   1      -1.228   2.877   0.873  0.00  0.00    -0.073 A 
ATOM      2  C3  UNL d   1      -2.514   2.541   1.310  0.00  0.00    -0.002 A 
ATOM      3  C4  UNL d   1      -2.689   1.622   2.346  0.00  0.00     0.004 A 
ATOM      4  C5  UNL d   1      -1.582   1.035   2.959  0.00  0.00    -0.004 A 
ATOM      5  C6  UNL d   1      -0.288   1.367   2.544  0.00  0.00    -0.075 A 
ATOM      6  C7  UNL d   1       0.913   0.743   3.192  0.00  0.00     0.076 C 
ATOM      7  C8  UNL d   1      -0.120   2.289   1.502  0.00  0.00     0.001 A 
ENDROOT
BRANCH   1   8
ATOM      8  C1  UNL d   1      -1.033   3.873  -0.240  0.00  0.00     0.053 C 
ATOM      9  C   UNL d   1      -0.113   3.341  -1.327  0.00  0.00     0.018 C 
ENDBRANCH   1   8
TORSDOF 1
ENDMDL
