MODEL 1
REMARK minimizedAffinity 8.18241024
REMARK minimizedRMSD -1
REMARK  1 active torsions:
REMARK  status: ('A' for Active; 'I' for Inactive)
REMARK    1  A    between atoms: C1_2  and  C2_3 
ROOT
ATOM      1  C2  UNL d   1       2.601  -3.913  -0.262  0.00  0.00    -0.073 A 
ATOM      2  C3  UNL d   1       3.925  -4.364  -0.298  0.00  0.00    -0.002 A 
ATOM      3  C4  UNL d   1       4.962  -3.542   0.144  0.00  0.00     0.004 A 
ATOM      4  C5  UNL d   1       4.687  -2.266   0.633  0.00  0.00    -0.004 A 
ATOM      5  C6  UNL d   1       3.369  -1.801   0.689  0.00  0.00    -0.075 A 
ATOM      6  C7  UNL d   1       3.055  -0.429   1.211  0.00  0.00     0.076 C 
ATOM      7  C8  UNL d   1       2.333  -2.631   0.240  0.00  0.00     0.001 A 
ENDROOT
BRANCH   1   8
ATOM      8  C1  UNL d   1       1.477  -4.799  -0.732  0.00  0.00     0.053 C 
ATOM      9  C   UNL d   1       1.987  -6.000  -1.514  0.00  0.00     0.018 C 
ENDBRANCH   1   8
TORSDOF 1
ENDMDL
