MODEL 1
REMARK minimizedAffinity 5.03306341
REMARK minimizedRMSD -1
REMARK  1 active torsions:
REMARK  status: ('A' for Active; 'I' for Inactive)
REMARK    1  A    between atoms: C1_2  and  C2_3 
ROOT
ATOM      1  C2  UNL d   1      -1.024   3.001   0.333  0.00  0.00    -0.073 A 
ATOM      2  C3  UNL d   1      -2.166   2.271   0.681  0.00  0.00    -0.002 A 
ATOM      3  C4  UNL d   1      -2.329   1.794   1.982  0.00  0.00     0.004 A 
ATOM      4  C5  UNL d   1      -1.357   2.049   2.950  0.00  0.00    -0.004 A 
ATOM      5  C6  UNL d   1      -0.214   2.787   2.624  0.00  0.00    -0.075 A 
ATOM      6  C7  UNL d   1       0.842   3.068   3.653  0.00  0.00     0.076 C 
ATOM      7  C8  UNL d   1      -0.057   3.260   1.314  0.00  0.00     0.001 A 
ENDROOT
BRANCH   1   8
ATOM      8  C1  UNL d   1      -0.848   3.523  -1.070  0.00  0.00     0.053 C 
ATOM      9  C   UNL d   1       0.610   3.814  -1.390  0.00  0.00     0.018 C 
ENDBRANCH   1   8
TORSDOF 1
ENDMDL
