MODEL 1
REMARK minimizedAffinity 1.89361036
REMARK minimizedRMSD -1
REMARK  1 active torsions:
REMARK  status: ('A' for Active; 'I' for Inactive)
REMARK    1  A    between atoms: C1_2  and  C2_3 
ROOT
ATOM      1  C2  UNL d   1      -1.430   1.449   2.031  0.00  0.00    -0.073 A 
ATOM      2  C3  UNL d   1      -2.771   1.843   1.954  0.00  0.00    -0.002 A 
ATOM      3  C4  UNL d   1      -3.193   2.712   0.948  0.00  0.00     0.004 A 
ATOM      4  C5  UNL d   1      -2.283   3.190   0.005  0.00  0.00    -0.004 A 
ATOM      5  C6  UNL d   1      -0.941   2.799   0.059  0.00  0.00    -0.075 A 
ATOM      6  C7  UNL d   1       0.051   3.307  -0.946  0.00  0.00     0.076 C 
ATOM      7  C8  UNL d   1      -0.524   1.928   1.074  0.00  0.00     0.001 A 
ENDROOT
BRANCH   1   8
ATOM      8  C1  UNL d   1      -0.970   0.505   3.112  0.00  0.00     0.053 C 
ATOM      9  C   UNL d   1      -1.888  -0.699   3.246  0.00  0.00     0.018 C 
ENDBRANCH   1   8
TORSDOF 1
ENDMDL
