MODEL 1
REMARK minimizedAffinity 3.26296449
REMARK minimizedRMSD -1
REMARK  1 active torsions:
REMARK  status: ('A' for Active; 'I' for Inactive)
REMARK    1  A    between atoms: C1_2  and  C2_3 
ROOT
ATOM      1  C2  UNL d   1      -2.924   1.831   1.622  0.00  0.00    -0.073 A 
ATOM      2  C3  UNL d   1      -3.587   3.025   1.928  0.00  0.00    -0.002 A 
ATOM      3  C4  UNL d   1      -3.171   4.228   1.356  0.00  0.00     0.004 A 
ATOM      4  C5  UNL d   1      -2.095   4.249   0.468  0.00  0.00    -0.004 A 
ATOM      5  C6  UNL d   1      -1.427   3.064   0.141  0.00  0.00    -0.075 A 
ATOM      6  C7  UNL d   1      -0.267   3.070  -0.810  0.00  0.00     0.076 C 
ATOM      7  C8  UNL d   1      -1.849   1.861   0.722  0.00  0.00     0.001 A 
ENDROOT
BRANCH   1   8
ATOM      8  C1  UNL d   1      -3.373   0.528   2.232  0.00  0.00     0.053 C 
ATOM      9  C   UNL d   1      -2.262  -0.144   3.022  0.00  0.00     0.018 C 
ENDBRANCH   1   8
TORSDOF 1
ENDMDL
