MODEL 1
REMARK minimizedAffinity 4.0677495
REMARK minimizedRMSD -1
REMARK  1 active torsions:
REMARK  status: ('A' for Active; 'I' for Inactive)
REMARK    1  A    between atoms: C1_2  and  C2_3 
ROOT
ATOM      1  C2  UNL d   1       0.210   1.750  -1.236  0.00  0.00    -0.073 A 
ATOM      2  C3  UNL d   1       0.524   3.051  -1.645  0.00  0.00    -0.002 A 
ATOM      3  C4  UNL d   1       0.234   4.139  -0.821  0.00  0.00     0.004 A 
ATOM      4  C5  UNL d   1      -0.366   3.937   0.422  0.00  0.00    -0.004 A 
ATOM      5  C6  UNL d   1      -0.678   2.644   0.854  0.00  0.00    -0.075 A 
ATOM      6  C7  UNL d   1      -1.326   2.411   2.187  0.00  0.00     0.076 C 
ATOM      7  C8  UNL d   1      -0.385   1.557   0.019  0.00  0.00     0.001 A 
ENDROOT
BRANCH   1   8
ATOM      8  C1  UNL d   1       0.527   0.571  -2.119  0.00  0.00     0.053 C 
ATOM      9  C   UNL d   1      -0.730  -0.125  -2.614  0.00  0.00     0.018 C 
ENDBRANCH   1   8
TORSDOF 1
ENDMDL
