MODEL 1
REMARK minimizedAffinity 11.5036659
REMARK minimizedRMSD -1
REMARK  1 active torsions:
REMARK  status: ('A' for Active; 'I' for Inactive)
REMARK    1  A    between atoms: C1_2  and  C2_3 
ROOT
ATOM      1  C2  UNL d   1      -2.013  -0.001  -2.073  0.00  0.00    -0.073 A 
ATOM      2  C3  UNL d   1      -1.012  -0.688  -2.768  0.00  0.00    -0.002 A 
ATOM      3  C4  UNL d   1       0.252  -0.120  -2.930  0.00  0.00     0.004 A 
ATOM      4  C5  UNL d   1       0.531   1.136  -2.392  0.00  0.00    -0.004 A 
ATOM      5  C6  UNL d   1      -0.452   1.834  -1.683  0.00  0.00    -0.075 A 
ATOM      6  C7  UNL d   1      -0.169   3.188  -1.101  0.00  0.00     0.076 C 
ATOM      7  C8  UNL d   1      -1.720   1.258  -1.528  0.00  0.00     0.001 A 
ENDROOT
BRANCH   1   8
ATOM      8  C1  UNL d   1      -3.378  -0.613  -1.891  0.00  0.00     0.053 C 
ATOM      9  C   UNL d   1      -4.069  -0.102  -0.636  0.00  0.00     0.018 C 
ENDBRANCH   1   8
TORSDOF 1
ENDMDL
