MODEL 1
REMARK minimizedAffinity 10.7527905
REMARK minimizedRMSD -1
REMARK  1 active torsions:
REMARK  status: ('A' for Active; 'I' for Inactive)
REMARK    1  A    between atoms: C1_2  and  C2_3 
ROOT
ATOM      1  C2  UNL d   1      -0.236   1.745  -1.229  0.00  0.00    -0.073 A 
ATOM      2  C3  UNL d   1      -0.041   2.931  -1.947  0.00  0.00    -0.002 A 
ATOM      3  C4  UNL d   1      -0.066   4.163  -1.293  0.00  0.00     0.004 A 
ATOM      4  C5  UNL d   1      -0.280   4.223   0.084  0.00  0.00    -0.004 A 
ATOM      5  C6  UNL d   1      -0.465   3.049   0.821  0.00  0.00    -0.075 A 
ATOM      6  C7  UNL d   1      -0.698   3.096   2.302  0.00  0.00     0.076 C 
ATOM      7  C8  UNL d   1      -0.441   1.815   0.156  0.00  0.00     0.001 A 
ENDROOT
BRANCH   1   8
ATOM      8  C1  UNL d   1      -0.203   0.412  -1.930  0.00  0.00     0.053 C 
ATOM      9  C   UNL d   1      -1.595  -0.067  -2.310  0.00  0.00     0.018 C 
ENDBRANCH   1   8
TORSDOF 1
ENDMDL
