MODEL 1
REMARK minimizedAffinity 5.74955463
REMARK minimizedRMSD -1
REMARK  0 active torsions:
REMARK  status: ('A' for Active; 'I' for Inactive)
ROOT
ATOM      1  N1  IND d   1      -0.052   2.909  -2.466  0.00  0.00    -0.196 N 
ATOM      2  C2  IND d   1      -1.393   3.171  -2.507  0.00  0.00     0.054 A 
ATOM      3  C3  IND d   1      -2.096   2.095  -2.088  0.00  0.00    -0.031 A 
ATOM      4  C4  IND d   1      -1.249  -0.165  -1.193  0.00  0.00     0.051 A 
ATOM      5  C5  IND d   1      -0.105  -0.887  -1.001  0.00  0.00    -0.031 A 
ATOM      6  C6  IND d   1       1.141  -0.369  -1.291  0.00  0.00     0.015 A 
ATOM      7  C7  IND d   1       1.290   0.900  -1.775  0.00  0.00    -0.016 A 
ATOM      8  C8  IND d   1       0.130   1.633  -1.978  0.00  0.00    -0.047 A 
ATOM      9  C9  IND d   1      -1.140   1.098  -1.726  0.00  0.00    -0.096 A 
ATOM     10  HN1 IND d   1       0.573   3.449  -2.705  0.00  0.00     0.298 HD
ENDROOT
TORSDOF 0
ENDMDL
