MODEL 1
REMARK minimizedAffinity 10.8546
REMARK minimizedRMSD -1
REMARK  0 active torsions:
REMARK  status: ('A' for Active; 'I' for Inactive)
ROOT
ATOM      1  N1  IND d   1       4.976  -2.529   1.066  0.00  0.00    -0.196 N 
ATOM      2  C2  IND d   1       5.775  -3.638   1.030  0.00  0.00     0.054 A 
ATOM      3  C3  IND d   1       5.052  -4.748   1.301  0.00  0.00    -0.031 A 
ATOM      4  C4  IND d   1       2.526  -4.988   1.733  0.00  0.00     0.051 A 
ATOM      5  C5  IND d   1       1.387  -4.252   1.903  0.00  0.00    -0.031 A 
ATOM      6  C6  IND d   1       1.386  -2.876   1.798  0.00  0.00     0.015 A 
ATOM      7  C7  IND d   1       2.527  -2.183   1.506  0.00  0.00    -0.016 A 
ATOM      8  C8  IND d   1       3.686  -2.927   1.340  0.00  0.00    -0.047 A 
ATOM      9  C9  IND d   1       3.702  -4.320   1.487  0.00  0.00    -0.096 A 
ATOM     10  HN1 IND d   1       5.236  -1.719   0.939  0.00  0.00     0.298 HD
ENDROOT
TORSDOF 0
ENDMDL
