MODEL 1
REMARK minimizedAffinity 10.2488575
REMARK minimizedRMSD -1
REMARK  0 active torsions:
REMARK  status: ('A' for Active; 'I' for Inactive)
ROOT
ATOM      1  N1  IND d   1      -3.583  -2.250  -3.897  0.00  0.00    -0.196 N 
ATOM      2  C2  IND d   1      -4.902  -2.527  -4.126  0.00  0.00     0.054 A 
ATOM      3  C3  IND d   1      -5.625  -2.336  -3.000  0.00  0.00    -0.031 A 
ATOM      4  C4  IND d   1      -4.866  -1.472  -0.696  0.00  0.00     0.051 A 
ATOM      5  C5  IND d   1      -3.749  -1.121   0.008  0.00  0.00    -0.031 A 
ATOM      6  C6  IND d   1      -2.494  -1.125  -0.566  0.00  0.00     0.015 A 
ATOM      7  C7  IND d   1      -2.311  -1.472  -1.875  0.00  0.00    -0.016 A 
ATOM      8  C8  IND d   1      -3.442  -1.836  -2.591  0.00  0.00    -0.047 A 
ATOM      9  C9  IND d   1      -4.712  -1.875  -2.002  0.00  0.00    -0.096 A 
ATOM     10  HN1 IND d   1      -2.948  -2.322  -4.473  0.00  0.00     0.298 HD
ENDROOT
TORSDOF 0
ENDMDL
