MODEL 1
REMARK minimizedAffinity 14.0528145
REMARK minimizedRMSD -1
REMARK  0 active torsions:
REMARK  status: ('A' for Active; 'I' for Inactive)
ROOT
ATOM      1  N1  IND d   1      -2.224   5.686  -4.945  0.00  0.00    -0.196 N 
ATOM      2  C2  IND d   1      -1.014   5.541  -5.564  0.00  0.00     0.054 A 
ATOM      3  C3  IND d   1      -0.858   4.270  -5.997  0.00  0.00    -0.031 A 
ATOM      4  C4  IND d   1      -2.500   2.290  -5.886  0.00  0.00     0.051 A 
ATOM      5  C5  IND d   1      -3.717   1.927  -5.381  0.00  0.00    -0.031 A 
ATOM      6  C6  IND d   1      -4.516   2.817  -4.693  0.00  0.00     0.015 A 
ATOM      7  C7  IND d   1      -4.131   4.113  -4.494  0.00  0.00    -0.016 A 
ATOM      8  C8  IND d   1      -2.893   4.483  -4.999  0.00  0.00    -0.047 A 
ATOM      9  C9  IND d   1      -2.059   3.572  -5.661  0.00  0.00    -0.096 A 
ATOM     10  HN1 IND d   1      -2.519   6.408  -4.582  0.00  0.00     0.298 HD
ENDROOT
TORSDOF 0
ENDMDL
