MODEL 1
REMARK minimizedAffinity 7.01939201
REMARK minimizedRMSD -1
REMARK  0 active torsions:
REMARK  status: ('A' for Active; 'I' for Inactive)
ROOT
ATOM      1  N1  IND d   1       2.475   5.070   5.782  0.00  0.00    -0.196 N 
ATOM      2  C2  IND d   1       1.496   6.000   6.000  0.00  0.00     0.054 A 
ATOM      3  C3  IND d   1       0.391   5.697   5.283  0.00  0.00    -0.031 A 
ATOM      4  C4  IND d   1      -0.068   3.668   3.765  0.00  0.00     0.051 A 
ATOM      5  C5  IND d   1       0.537   2.567   3.227  0.00  0.00    -0.031 A 
ATOM      6  C6  IND d   1       1.843   2.236   3.521  0.00  0.00     0.015 A 
ATOM      7  C7  IND d   1       2.594   2.991   4.377  0.00  0.00    -0.016 A 
ATOM      8  C8  IND d   1       1.986   4.114   4.920  0.00  0.00    -0.047 A 
ATOM      9  C9  IND d   1       0.674   4.478   4.592  0.00  0.00    -0.096 A 
ATOM     10  HN1 IND d   1       3.263   5.081   6.126  0.00  0.00     0.298 HD
ENDROOT
TORSDOF 0
ENDMDL
