MODEL 1
REMARK minimizedAffinity 6.88164186
REMARK minimizedRMSD -1
REMARK  0 active torsions:
REMARK  status: ('A' for Active; 'I' for Inactive)
ROOT
ATOM      1  N1  IND d   1       0.719  -1.686   1.608  0.00  0.00    -0.196 N 
ATOM      2  C2  IND d   1      -0.331  -1.991   2.428  0.00  0.00     0.054 A 
ATOM      3  C3  IND d   1      -0.182  -3.234   2.940  0.00  0.00    -0.031 A 
ATOM      4  C4  IND d   1       1.756  -4.903   2.646  0.00  0.00     0.051 A 
ATOM      5  C5  IND d   1       2.924  -5.087   1.960  0.00  0.00    -0.031 A 
ATOM      6  C6  IND d   1       3.429  -4.127   1.108  0.00  0.00     0.015 A 
ATOM      7  C7  IND d   1       2.786  -2.936   0.916  0.00  0.00    -0.016 A 
ATOM      8  C8  IND d   1       1.597  -2.748   1.605  0.00  0.00    -0.047 A 
ATOM      9  C9  IND d   1       1.058  -3.737   2.439  0.00  0.00    -0.096 A 
ATOM     10  HN1 IND d   1       0.816  -0.954   1.168  0.00  0.00     0.298 HD
ENDROOT
TORSDOF 0
ENDMDL
