MODEL 1
REMARK minimizedAffinity 16.8772354
REMARK minimizedRMSD -1
REMARK  0 active torsions:
REMARK  status: ('A' for Active; 'I' for Inactive)
ROOT
ATOM      1  N1  IND d   1      -0.593  -0.907  -0.962  0.00  0.00    -0.196 N 
ATOM      2  C2  IND d   1      -0.544   0.157  -1.818  0.00  0.00     0.054 A 
ATOM      3  C3  IND d   1       0.294   1.106  -1.342  0.00  0.00    -0.031 A 
ATOM      4  C4  IND d   1       1.765   1.079   0.770  0.00  0.00     0.051 A 
ATOM      5  C5  IND d   1       2.033   0.337   1.886  0.00  0.00    -0.031 A 
ATOM      6  C6  IND d   1       1.430  -0.884   2.113  0.00  0.00     0.015 A 
ATOM      7  C7  IND d   1       0.540  -1.415   1.223  0.00  0.00    -0.016 A 
ATOM      8  C8  IND d   1       0.260  -0.661   0.092  0.00  0.00    -0.047 A 
ATOM      9  C9  IND d   1       0.837   0.597  -0.123  0.00  0.00    -0.096 A 
ATOM     10  HN1 IND d   1      -1.075  -1.611  -1.064  0.00  0.00     0.298 HD
ENDROOT
TORSDOF 0
ENDMDL
