MODEL 1
REMARK minimizedAffinity 16.1733246
REMARK minimizedRMSD -1
REMARK  0 active torsions:
REMARK  status: ('A' for Active; 'I' for Inactive)
ROOT
ATOM      1  N1  IND d   1      -2.564  -1.588  -1.554  0.00  0.00    -0.196 N 
ATOM      2  C2  IND d   1      -2.409  -0.347  -1.000  0.00  0.00     0.054 A 
ATOM      3  C3  IND d   1      -3.313   0.515  -1.519  0.00  0.00    -0.031 A 
ATOM      4  C4  IND d   1      -5.203   0.081  -3.212  0.00  0.00     0.051 A 
ATOM      5  C5  IND d   1      -5.718  -0.888  -4.027  0.00  0.00    -0.031 A 
ATOM      6  C6  IND d   1      -5.199  -2.166  -4.058  0.00  0.00     0.015 A 
ATOM      7  C7  IND d   1      -4.148  -2.528  -3.263  0.00  0.00    -0.016 A 
ATOM      8  C8  IND d   1      -3.618  -1.545  -2.439  0.00  0.00    -0.047 A 
ATOM      9  C9  IND d   1      -4.114  -0.234  -2.435  0.00  0.00    -0.096 A 
ATOM     10  HN1 IND d   1      -2.083  -2.279  -1.378  0.00  0.00     0.298 HD
ENDROOT
TORSDOF 0
ENDMDL
