MODEL 1
REMARK minimizedAffinity 4.07703352
REMARK minimizedRMSD -1
REMARK  0 active torsions:
REMARK  status: ('A' for Active; 'I' for Inactive)
ROOT
ATOM      1  N1  IND d   1       1.881  -4.238   1.461  0.00  0.00    -0.196 N 
ATOM      2  C2  IND d   1       2.639  -3.103   1.392  0.00  0.00     0.054 A 
ATOM      3  C3  IND d   1       1.969  -2.057   1.925  0.00  0.00    -0.031 A 
ATOM      4  C4  IND d   1      -0.340  -2.002   3.062  0.00  0.00     0.051 A 
ATOM      5  C5  IND d   1      -1.427  -2.785   3.332  0.00  0.00    -0.031 A 
ATOM      6  C6  IND d   1      -1.466  -4.121   2.987  0.00  0.00     0.015 A 
ATOM      7  C7  IND d   1      -0.411  -4.728   2.368  0.00  0.00    -0.016 A 
ATOM      8  C8  IND d   1       0.692  -3.934   2.086  0.00  0.00    -0.047 A 
ATOM      9  C9  IND d   1       0.720  -2.568   2.395  0.00  0.00    -0.096 A 
ATOM     10  HN1 IND d   1       2.109  -5.013   1.165  0.00  0.00     0.298 HD
ENDROOT
TORSDOF 0
ENDMDL
