MODEL 1
REMARK minimizedAffinity 5.23965025
REMARK minimizedRMSD -1
REMARK  0 active torsions:
REMARK  status: ('A' for Active; 'I' for Inactive)
ROOT
ATOM      1  N1  IND d   1      -0.235  -2.231  -3.435  0.00  0.00    -0.196 N 
ATOM      2  C2  IND d   1       1.040  -1.871  -3.100  0.00  0.00     0.054 A 
ATOM      3  C3  IND d   1       1.131  -1.641  -1.771  0.00  0.00    -0.031 A 
ATOM      4  C4  IND d   1      -0.664  -1.892   0.058  0.00  0.00     0.051 A 
ATOM      5  C5  IND d   1      -1.992  -2.161   0.234  0.00  0.00    -0.031 A 
ATOM      6  C6  IND d   1      -2.819  -2.476  -0.825  0.00  0.00     0.015 A 
ATOM      7  C7  IND d   1      -2.343  -2.545  -2.104  0.00  0.00    -0.016 A 
ATOM      8  C8  IND d   1      -0.997  -2.266  -2.287  0.00  0.00    -0.047 A 
ATOM      9  C9  IND d   1      -0.162  -1.904  -1.222  0.00  0.00    -0.096 A 
ATOM     10  HN1 IND d   1      -0.515  -2.405  -4.229  0.00  0.00     0.298 HD
ENDROOT
TORSDOF 0
ENDMDL
