MODEL 1
REMARK minimizedAffinity 5.62008286
REMARK minimizedRMSD -1
REMARK  0 active torsions:
REMARK  status: ('A' for Active; 'I' for Inactive)
ROOT
ATOM      1  N1  IND d   1       5.938   4.676  -2.358  0.00  0.00    -0.196 N 
ATOM      2  C2  IND d   1       5.100   5.440  -1.594  0.00  0.00     0.054 A 
ATOM      3  C3  IND d   1       4.128   5.982  -2.360  0.00  0.00    -0.031 A 
ATOM      4  C4  IND d   1       3.659   5.670  -4.872  0.00  0.00     0.051 A 
ATOM      5  C5  IND d   1       4.172   5.092  -6.000  0.00  0.00    -0.031 A 
ATOM      6  C6  IND d   1       5.321   4.329  -5.970  0.00  0.00     0.015 A 
ATOM      7  C7  IND d   1       5.997   4.104  -4.804  0.00  0.00    -0.016 A 
ATOM      8  C8  IND d   1       5.483   4.695  -3.658  0.00  0.00    -0.047 A 
ATOM      9  C9  IND d   1       4.341   5.505  -3.689  0.00  0.00    -0.096 A 
ATOM     10  HN1 IND d   1       6.632   4.255  -2.074  0.00  0.00     0.298 HD
ENDROOT
TORSDOF 0
ENDMDL
