MODEL 1
REMARK minimizedAffinity 0.603091776
REMARK minimizedRMSD -1
REMARK  0 active torsions:
REMARK  status: ('A' for Active; 'I' for Inactive)
ROOT
ATOM      1  N1  IND d   1      -1.681  -2.502  -2.442  0.00  0.00    -0.196 N 
ATOM      2  C2  IND d   1      -1.968  -2.096  -1.169  0.00  0.00     0.054 A 
ATOM      3  C3  IND d   1      -0.837  -1.723  -0.529  0.00  0.00    -0.031 A 
ATOM      4  C4  IND d   1       1.578  -1.600  -1.412  0.00  0.00     0.051 A 
ATOM      5  C5  IND d   1       2.343  -1.902  -2.503  0.00  0.00    -0.031 A 
ATOM      6  C6  IND d   1       1.793  -2.428  -3.655  0.00  0.00     0.015 A 
ATOM      7  C7  IND d   1       0.452  -2.662  -3.762  0.00  0.00    -0.016 A 
ATOM      8  C8  IND d   1      -0.327  -2.363  -2.653  0.00  0.00    -0.047 A 
ATOM      9  C9  IND d   1       0.231  -1.868  -1.467  0.00  0.00    -0.096 A 
ATOM     10  HN1 IND d   1      -2.251  -2.796  -3.016  0.00  0.00     0.298 HD
ENDROOT
TORSDOF 0
ENDMDL
