MODEL 1
REMARK minimizedAffinity 7.56027412
REMARK minimizedRMSD -1
REMARK  0 active torsions:
REMARK  status: ('A' for Active; 'I' for Inactive)
ROOT
ATOM      1  N1  IND d   1       2.428  -2.151  -4.123  0.00  0.00    -0.196 N 
ATOM      2  C2  IND d   1       3.341  -1.737  -3.193  0.00  0.00     0.054 A 
ATOM      3  C3  IND d   1       2.722  -1.425  -2.033  0.00  0.00    -0.031 A 
ATOM      4  C4  IND d   1       0.233  -1.618  -1.403  0.00  0.00     0.051 A 
ATOM      5  C5  IND d   1      -0.992  -1.914  -1.932  0.00  0.00    -0.031 A 
ATOM      6  C6  IND d   1      -1.142  -2.314  -3.244  0.00  0.00     0.015 A 
ATOM      7  C7  IND d   1      -0.067  -2.446  -4.076  0.00  0.00    -0.016 A 
ATOM      8  C8  IND d   1       1.178  -2.140  -3.545  0.00  0.00    -0.047 A 
ATOM      9  C9  IND d   1       1.332  -1.692  -2.226  0.00  0.00    -0.096 A 
ATOM     10  HN1 IND d   1       2.605  -2.381  -4.932  0.00  0.00     0.298 HD
ENDROOT
TORSDOF 0
ENDMDL
