MODEL 1
REMARK minimizedAffinity 0.324307233
REMARK minimizedRMSD -1
REMARK  0 active torsions:
REMARK  status: ('A' for Active; 'I' for Inactive)
ROOT
ATOM      1  N1  IND d   1      -0.767  -1.764  -3.479  0.00  0.00    -0.196 N 
ATOM      2  C2  IND d   1       0.463  -1.365  -3.036  0.00  0.00     0.054 A 
ATOM      3  C3  IND d   1       0.573  -1.572  -1.704  0.00  0.00    -0.031 A 
ATOM      4  C4  IND d   1      -1.102  -2.650  -0.073  0.00  0.00     0.051 A 
ATOM      5  C5  IND d   1      -2.376  -3.139  -0.005  0.00  0.00    -0.031 A 
ATOM      6  C6  IND d   1      -3.194  -3.199  -1.114  0.00  0.00     0.015 A 
ATOM      7  C7  IND d   1      -2.763  -2.780  -2.341  0.00  0.00    -0.016 A 
ATOM      8  C8  IND d   1      -1.472  -2.276  -2.413  0.00  0.00    -0.047 A 
ATOM      9  C9  IND d   1      -0.652  -2.173  -1.282  0.00  0.00    -0.096 A 
ATOM     10  HN1 IND d   1      -1.051  -1.705  -4.288  0.00  0.00     0.298 HD
ENDROOT
TORSDOF 0
ENDMDL
