MODEL 1
REMARK minimizedAffinity -0.626205981
REMARK minimizedRMSD -1
REMARK  0 active torsions:
REMARK  status: ('A' for Active; 'I' for Inactive)
ROOT
ATOM      1  N1  IND d   1       4.373   5.998  -1.994  0.00  0.00    -0.196 N 
ATOM      2  C2  IND d   1       5.259   5.313  -1.211  0.00  0.00     0.054 A 
ATOM      3  C3  IND d   1       6.000   4.470  -1.966  0.00  0.00    -0.031 A 
ATOM      4  C4  IND d   1       5.996   4.128  -4.518  0.00  0.00     0.051 A 
ATOM      5  C5  IND d   1       5.335   4.503  -5.654  0.00  0.00    -0.031 A 
ATOM      6  C6  IND d   1       4.301   5.417  -5.628  0.00  0.00     0.015 A 
ATOM      7  C7  IND d   1       3.895   6.000  -4.461  0.00  0.00    -0.016 A 
ATOM      8  C8  IND d   1       4.559   5.616  -3.305  0.00  0.00    -0.047 A 
ATOM      9  C9  IND d   1       5.581   4.658  -3.319  0.00  0.00    -0.096 A 
ATOM     10  HN1 IND d   1       3.797   6.572  -1.715  0.00  0.00     0.298 HD
ENDROOT
TORSDOF 0
ENDMDL
