MODEL 1
REMARK minimizedAffinity -3.58225703
REMARK minimizedRMSD -1
REMARK  0 active torsions:
REMARK  status: ('A' for Active; 'I' for Inactive)
ROOT
ATOM      1  N1  IND d   1       0.862  -1.888  -1.638  0.00  0.00    -0.196 N 
ATOM      2  C2  IND d   1       0.916  -2.081  -2.990  0.00  0.00     0.054 A 
ATOM      3  C3  IND d   1      -0.262  -2.563  -3.444  0.00  0.00    -0.031 A 
ATOM      4  C4  IND d   1      -2.448  -3.014  -2.161  0.00  0.00     0.051 A 
ATOM      5  C5  IND d   1      -2.975  -3.024  -0.900  0.00  0.00    -0.031 A 
ATOM      6  C6  IND d   1      -2.235  -2.645   0.202  0.00  0.00     0.015 A 
ATOM      7  C7  IND d   1      -0.939  -2.230   0.081  0.00  0.00    -0.016 A 
ATOM      8  C8  IND d   1      -0.399  -2.226  -1.197  0.00  0.00    -0.047 A 
ATOM      9  C9  IND d   1      -1.131  -2.649  -2.314  0.00  0.00    -0.096 A 
ATOM     10  HN1 IND d   1       1.507  -1.604  -1.145  0.00  0.00     0.298 HD
ENDROOT
TORSDOF 0
ENDMDL
