MODEL 1
REMARK minimizedAffinity -0.717244625
REMARK minimizedRMSD -1
REMARK  0 active torsions:
REMARK  status: ('A' for Active; 'I' for Inactive)
ROOT
ATOM      1  N1  IND d   1       5.555   3.902  -1.272  0.00  0.00    -0.196 N 
ATOM      2  C2  IND d   1       6.000   5.130  -0.869  0.00  0.00     0.054 A 
ATOM      3  C3  IND d   1       5.986   5.999  -1.904  0.00  0.00    -0.031 A 
ATOM      4  C4  IND d   1       5.177   5.648  -4.323  0.00  0.00     0.051 A 
ATOM      5  C5  IND d   1       4.718   4.684  -5.176  0.00  0.00    -0.031 A 
ATOM      6  C6  IND d   1       4.508   3.385  -4.762  0.00  0.00     0.015 A 
ATOM      7  C7  IND d   1       4.739   3.002  -3.471  0.00  0.00    -0.016 A 
ATOM      8  C8  IND d   1       5.212   3.976  -2.604  0.00  0.00    -0.047 A 
ATOM      9  C9  IND d   1       5.468   5.286  -3.029  0.00  0.00    -0.096 A 
ATOM     10  HN1 IND d   1       5.499   3.201  -0.777  0.00  0.00     0.298 HD
ENDROOT
TORSDOF 0
ENDMDL
