MODEL 1
REMARK minimizedAffinity -2.14087057
REMARK minimizedRMSD -1
REMARK  0 active torsions:
REMARK  status: ('A' for Active; 'I' for Inactive)
ROOT
ATOM      1  N1  IND d   1       4.746   5.630  -5.192  0.00  0.00    -0.196 N 
ATOM      2  C2  IND d   1       4.532   4.509  -5.945  0.00  0.00     0.054 A 
ATOM      3  C3  IND d   1       4.843   3.400  -5.238  0.00  0.00    -0.031 A 
ATOM      4  C4  IND d   1       5.624   3.184  -2.795  0.00  0.00     0.051 A 
ATOM      5  C5  IND d   1       5.999   3.931  -1.713  0.00  0.00    -0.031 A 
ATOM      6  C6  IND d   1       5.972   5.310  -1.736  0.00  0.00     0.015 A 
ATOM      7  C7  IND d   1       5.557   5.997  -2.842  0.00  0.00    -0.016 A 
ATOM      8  C8  IND d   1       5.182   5.241  -3.944  0.00  0.00    -0.047 A 
ATOM      9  C9  IND d   1       5.248   3.842  -3.941  0.00  0.00    -0.096 A 
ATOM     10  HN1 IND d   1       4.629   6.440  -5.453  0.00  0.00     0.298 HD
ENDROOT
TORSDOF 0
ENDMDL
