MODEL 1
REMARK minimizedAffinity 0.0297416635
REMARK minimizedRMSD -1
REMARK  0 active torsions:
REMARK  status: ('A' for Active; 'I' for Inactive)
ROOT
ATOM      1  N1  IND d   1       4.409   4.727  -5.493  0.00  0.00    -0.196 N 
ATOM      2  C2  IND d   1       3.396   5.644  -5.455  0.00  0.00     0.054 A 
ATOM      3  C3  IND d   1       3.130   5.999  -4.177  0.00  0.00    -0.031 A 
ATOM      4  C4  IND d   1       4.302   5.277  -2.002  0.00  0.00     0.051 A 
ATOM      5  C5  IND d   1       5.260   4.427  -1.526  0.00  0.00    -0.031 A 
ATOM      6  C6  IND d   1       6.000   3.618  -2.365  0.00  0.00     0.015 A 
ATOM      7  C7  IND d   1       5.816   3.639  -3.718  0.00  0.00    -0.016 A 
ATOM      8  C8  IND d   1       4.840   4.496  -4.205  0.00  0.00    -0.047 A 
ATOM      9  C9  IND d   1       4.057   5.288  -3.355  0.00  0.00    -0.096 A 
ATOM     10  HN1 IND d   1       4.723   4.356  -6.202  0.00  0.00     0.298 HD
ENDROOT
TORSDOF 0
ENDMDL
