MODEL 1
REMARK minimizedAffinity 0.412694991
REMARK minimizedRMSD -1
REMARK  0 active torsions:
REMARK  status: ('A' for Active; 'I' for Inactive)
ROOT
ATOM      1  N1  IND d   1      -1.921  -3.111  -2.252  0.00  0.00    -0.196 N 
ATOM      2  C2  IND d   1      -0.776  -2.757  -2.907  0.00  0.00     0.054 A 
ATOM      3  C3  IND d   1       0.141  -2.287  -2.032  0.00  0.00    -0.031 A 
ATOM      4  C4  IND d   1       0.011  -2.107   0.533  0.00  0.00     0.051 A 
ATOM      5  C5  IND d   1      -0.849  -2.275   1.582  0.00  0.00    -0.031 A 
ATOM      6  C6  IND d   1      -2.135  -2.742   1.404  0.00  0.00     0.015 A 
ATOM      7  C7  IND d   1      -2.607  -3.072   0.165  0.00  0.00    -0.016 A 
ATOM      8  C8  IND d   1      -1.740  -2.895  -0.903  0.00  0.00    -0.047 A 
ATOM      9  C9  IND d   1      -0.448  -2.381  -0.734  0.00  0.00    -0.096 A 
ATOM     10  HN1 IND d   1      -2.636  -3.418  -2.620  0.00  0.00     0.298 HD
ENDROOT
TORSDOF 0
ENDMDL
