MODEL 1
REMARK minimizedAffinity 4.08788967
REMARK minimizedRMSD -1
REMARK  0 active torsions:
REMARK  status: ('A' for Active; 'I' for Inactive)
ROOT
ATOM      1  N1  IND d   1      -1.620  -2.190  -0.470  0.00  0.00    -0.196 N 
ATOM      2  C2  IND d   1      -2.623  -3.011  -0.035  0.00  0.00     0.054 A 
ATOM      3  C3  IND d   1      -3.017  -3.838  -1.029  0.00  0.00    -0.031 A 
ATOM      4  C4  IND d   1      -2.086  -4.087  -3.416  0.00  0.00     0.051 A 
ATOM      5  C5  IND d   1      -1.191  -3.531  -4.287  0.00  0.00    -0.031 A 
ATOM      6  C6  IND d   1      -0.375  -2.480  -3.921  0.00  0.00     0.015 A 
ATOM      7  C7  IND d   1      -0.415  -1.951  -2.662  0.00  0.00    -0.016 A 
ATOM      8  C8  IND d   1      -1.328  -2.508  -1.778  0.00  0.00    -0.047 A 
ATOM      9  C9  IND d   1      -2.189  -3.547  -2.156  0.00  0.00    -0.096 A 
ATOM     10  HN1 IND d   1      -1.236  -1.577  -0.004  0.00  0.00     0.298 HD
ENDROOT
TORSDOF 0
ENDMDL
