MODEL 1
REMARK minimizedAffinity -0.492585599
REMARK minimizedRMSD -1
REMARK  0 active torsions:
REMARK  status: ('A' for Active; 'I' for Inactive)
ROOT
ATOM      1  N1  IND d   1      -2.565  -2.389   3.413  0.00  0.00    -0.196 N 
ATOM      2  C2  IND d   1      -1.977  -2.164   2.200  0.00  0.00     0.054 A 
ATOM      3  C3  IND d   1      -1.469  -0.912   2.149  0.00  0.00    -0.031 A 
ATOM      4  C4  IND d   1      -1.402   0.902   3.974  0.00  0.00     0.051 A 
ATOM      5  C5  IND d   1      -1.844   1.175   5.238  0.00  0.00    -0.031 A 
ATOM      6  C6  IND d   1      -2.561   0.254   5.975  0.00  0.00     0.015 A 
ATOM      7  C7  IND d   1      -2.854  -0.984   5.476  0.00  0.00    -0.016 A 
ATOM      8  C8  IND d   1      -2.413  -1.262   4.190  0.00  0.00    -0.047 A 
ATOM      9  C9  IND d   1      -1.722  -0.316   3.422  0.00  0.00    -0.096 A 
ATOM     10  HN1 IND d   1      -2.963  -3.113   3.651  0.00  0.00     0.298 HD
ENDROOT
TORSDOF 0
ENDMDL
