MODEL 1
REMARK minimizedAffinity 4.64307308
REMARK minimizedRMSD -1
REMARK  0 active torsions:
REMARK  status: ('A' for Active; 'I' for Inactive)
ROOT
ATOM      1  N1  IND d   1      -2.606  -3.115  -2.279  0.00  0.00    -0.196 N 
ATOM      2  C2  IND d   1      -1.375  -3.171  -2.872  0.00  0.00     0.054 A 
ATOM      3  C3  IND d   1      -0.400  -3.094  -1.939  0.00  0.00    -0.031 A 
ATOM      4  C4  IND d   1      -0.595  -2.974   0.625  0.00  0.00     0.051 A 
ATOM      5  C5  IND d   1      -1.513  -2.861   1.632  0.00  0.00    -0.031 A 
ATOM      6  C6  IND d   1      -2.870  -2.829   1.381  0.00  0.00     0.015 A 
ATOM      7  C7  IND d   1      -3.361  -2.921   0.109  0.00  0.00    -0.016 A 
ATOM      8  C8  IND d   1      -2.432  -3.028  -0.915  0.00  0.00    -0.047 A 
ATOM      9  C9  IND d   1      -1.053  -3.018  -0.670  0.00  0.00    -0.096 A 
ATOM     10  HN1 IND d   1      -3.361  -3.131  -2.689  0.00  0.00     0.298 HD
ENDROOT
TORSDOF 0
ENDMDL
