MODEL 1
REMARK minimizedAffinity 4.7090354
REMARK minimizedRMSD -1
REMARK  0 active torsions:
REMARK  status: ('A' for Active; 'I' for Inactive)
ROOT
ATOM      1  N1  IND d   1       4.992   4.159  -5.393  0.00  0.00    -0.196 N 
ATOM      2  C2  IND d   1       4.116   5.098  -5.862  0.00  0.00     0.054 A 
ATOM      3  C3  IND d   1       3.738   5.928  -4.864  0.00  0.00    -0.031 A 
ATOM      4  C4  IND d   1       4.509   5.992  -2.409  0.00  0.00     0.051 A 
ATOM      5  C5  IND d   1       5.273   5.312  -1.502  0.00  0.00    -0.031 A 
ATOM      6  C6  IND d   1       5.999   4.192  -1.853  0.00  0.00     0.015 A 
ATOM      7  C7  IND d   1       5.997   3.715  -3.133  0.00  0.00    -0.016 A 
ATOM      8  C8  IND d   1       5.217   4.398  -4.056  0.00  0.00    -0.047 A 
ATOM      9  C9  IND d   1       4.445   5.510  -3.695  0.00  0.00    -0.096 A 
ATOM     10  HN1 IND d   1       5.343   3.525  -5.856  0.00  0.00     0.298 HD
ENDROOT
TORSDOF 0
ENDMDL
