MODEL 1
REMARK minimizedAffinity 2.05113554
REMARK minimizedRMSD -1
REMARK  0 active torsions:
REMARK  status: ('A' for Active; 'I' for Inactive)
ROOT
ATOM      1  N1  IND d   1      -1.439   1.218   3.486  0.00  0.00    -0.196 N 
ATOM      2  C2  IND d   1      -1.821   0.739   4.708  0.00  0.00     0.054 A 
ATOM      3  C3  IND d   1      -2.116  -0.578   4.625  0.00  0.00    -0.031 A 
ATOM      4  C4  IND d   1      -1.946  -2.168   2.608  0.00  0.00     0.051 A 
ATOM      5  C5  IND d   1      -1.679  -2.183   1.267  0.00  0.00    -0.031 A 
ATOM      6  C6  IND d   1      -1.309  -1.043   0.585  0.00  0.00     0.015 A 
ATOM      7  C7  IND d   1      -1.180   0.159   1.222  0.00  0.00    -0.016 A 
ATOM      8  C8  IND d   1      -1.457   0.179   2.582  0.00  0.00    -0.047 A 
ATOM      9  C9  IND d   1      -1.874  -0.967   3.272  0.00  0.00    -0.096 A 
ATOM     10  HN1 IND d   1      -1.225   2.033   3.311  0.00  0.00     0.298 HD
ENDROOT
TORSDOF 0
ENDMDL
