MODEL 1
REMARK minimizedAffinity -1.95291245
REMARK minimizedRMSD -1
REMARK  0 active torsions:
REMARK  status: ('A' for Active; 'I' for Inactive)
ROOT
ATOM      1  N1  IND d   1       6.000   4.531  -2.380  0.00  0.00    -0.196 N 
ATOM      2  C2  IND d   1       5.244   5.299  -1.538  0.00  0.00     0.054 A 
ATOM      3  C3  IND d   1       4.325   6.000  -2.239  0.00  0.00    -0.031 A 
ATOM      4  C4  IND d   1       3.814   5.963  -4.762  0.00  0.00     0.051 A 
ATOM      5  C5  IND d   1       4.263   5.444  -5.944  0.00  0.00    -0.031 A 
ATOM      6  C6  IND d   1       5.333   4.574  -6.000  0.00  0.00     0.015 A 
ATOM      7  C7  IND d   1       5.991   4.181  -4.868  0.00  0.00    -0.016 A 
ATOM      8  C8  IND d   1       5.543   4.711  -3.667  0.00  0.00    -0.047 A 
ATOM      9  C9  IND d   1       4.484   5.627  -3.609  0.00  0.00    -0.096 A 
ATOM     10  HN1 IND d   1       6.651   4.021  -2.145  0.00  0.00     0.298 HD
ENDROOT
TORSDOF 0
ENDMDL
