MODEL 1
REMARK minimizedAffinity -0.194456801
REMARK minimizedRMSD -1
REMARK  0 active torsions:
REMARK  status: ('A' for Active; 'I' for Inactive)
ROOT
ATOM      1  N1  IND d   1       5.698   5.982  -4.480  0.00  0.00    -0.196 N 
ATOM      2  C2  IND d   1       4.898   5.268  -5.327  0.00  0.00     0.054 A 
ATOM      3  C3  IND d   1       4.141   4.390  -4.632  0.00  0.00    -0.031 A 
ATOM      4  C4  IND d   1       3.978   4.027  -2.088  0.00  0.00     0.051 A 
ATOM      5  C5  IND d   1       4.541   4.419  -0.906  0.00  0.00    -0.031 A 
ATOM      6  C6  IND d   1       5.536   5.373  -0.853  0.00  0.00     0.015 A 
ATOM      7  C7  IND d   1       6.000   5.982  -1.985  0.00  0.00    -0.016 A 
ATOM      8  C8  IND d   1       5.436   5.581  -3.188  0.00  0.00    -0.047 A 
ATOM      9  C9  IND d   1       4.455   4.583  -3.252  0.00  0.00    -0.096 A 
ATOM     10  HN1 IND d   1       6.268   6.581  -4.714  0.00  0.00     0.298 HD
ENDROOT
TORSDOF 0
ENDMDL
