MODEL 1
REMARK minimizedAffinity -1.59461224
REMARK minimizedRMSD -1
REMARK  0 active torsions:
REMARK  status: ('A' for Active; 'I' for Inactive)
ROOT
ATOM      1  C1  BNZ d   1      -4.529   5.984  -3.839  0.00  0.00     0.000 A 
ATOM      2  C2  BNZ d   1      -4.546   4.889  -3.018  0.00  0.00     0.000 A 
ATOM      3  C3  BNZ d   1      -5.267   3.776  -3.351  0.00  0.00     0.000 A 
ATOM      4  C4  BNZ d   1      -6.000   3.775  -4.483  0.00  0.00     0.000 A 
ATOM      5  C5  BNZ d   1      -6.000   4.875  -5.317  0.00  0.00     0.000 A 
ATOM      6  C6  BNZ d   1      -5.243   5.979  -4.998  0.00  0.00     0.000 A 
ENDROOT
TORSDOF 0
ENDMDL
