MODEL 1
REMARK minimizedAffinity 7.48998928
REMARK minimizedRMSD -1
REMARK  0 active torsions:
REMARK  status: ('A' for Active; 'I' for Inactive)
ROOT
ATOM      1  C1  BNZ d   1       0.331   1.673  -0.704  0.00  0.00     0.000 A 
ATOM      2  C2  BNZ d   1       0.048   2.775  -1.466  0.00  0.00     0.000 A 
ATOM      3  C3  BNZ d   1       0.036   4.025  -0.912  0.00  0.00     0.000 A 
ATOM      4  C4  BNZ d   1       0.267   4.166   0.410  0.00  0.00     0.000 A 
ATOM      5  C5  BNZ d   1       0.545   3.064   1.193  0.00  0.00     0.000 A 
ATOM      6  C6  BNZ d   1       0.595   1.812   0.624  0.00  0.00     0.000 A 
ENDROOT
TORSDOF 0
ENDMDL
