MODEL 1
REMARK minimizedAffinity 2.11999726
REMARK minimizedRMSD -1
REMARK  0 active torsions:
REMARK  status: ('A' for Active; 'I' for Inactive)
ROOT
ATOM      1  C1  BNZ d   1      -0.674  -4.962  -2.038  0.00  0.00     0.000 A 
ATOM      2  C2  BNZ d   1      -1.041  -4.856  -3.353  0.00  0.00     0.000 A 
ATOM      3  C3  BNZ d   1      -0.206  -5.279  -4.349  0.00  0.00     0.000 A 
ATOM      4  C4  BNZ d   1       1.009  -5.771  -4.032  0.00  0.00     0.000 A 
ATOM      5  C5  BNZ d   1       1.397  -5.876  -2.711  0.00  0.00     0.000 A 
ATOM      6  C6  BNZ d   1       0.538  -5.484  -1.709  0.00  0.00     0.000 A 
ENDROOT
TORSDOF 0
ENDMDL
