MODEL 1
REMARK minimizedAffinity 3.66553664
REMARK minimizedRMSD -1
REMARK  0 active torsions:
REMARK  status: ('A' for Active; 'I' for Inactive)
ROOT
ATOM      1  C1  BNZ d   1      -0.182  -1.004  -1.582  0.00  0.00     0.000 A 
ATOM      2  C2  BNZ d   1       0.446   0.144  -1.985  0.00  0.00     0.000 A 
ATOM      3  C3  BNZ d   1       0.220   0.667  -3.227  0.00  0.00     0.000 A 
ATOM      4  C4  BNZ d   1      -0.602   0.021  -4.079  0.00  0.00     0.000 A 
ATOM      5  C5  BNZ d   1      -1.235  -1.143  -3.691  0.00  0.00     0.000 A 
ATOM      6  C6  BNZ d   1      -1.035  -1.646  -2.426  0.00  0.00     0.000 A 
ENDROOT
TORSDOF 0
ENDMDL
