MODEL 1
REMARK minimizedAffinity 3.15754032
REMARK minimizedRMSD -1
REMARK  0 active torsions:
REMARK  status: ('A' for Active; 'I' for Inactive)
ROOT
ATOM      1  C1  BNZ d   1       0.081   0.623   2.158  0.00  0.00     0.000 A 
ATOM      2  C2  BNZ d   1      -0.233   0.801   0.837  0.00  0.00     0.000 A 
ATOM      3  C3  BNZ d   1       0.335   0.017  -0.128  0.00  0.00     0.000 A 
ATOM      4  C4  BNZ d   1       1.244  -0.915   0.224  0.00  0.00     0.000 A 
ATOM      5  C5  BNZ d   1       1.578  -1.099   1.551  0.00  0.00     0.000 A 
ATOM      6  C6  BNZ d   1       0.975  -0.335   2.524  0.00  0.00     0.000 A 
ENDROOT
TORSDOF 0
ENDMDL
