MODEL 1
REMARK minimizedAffinity -1.01350164
REMARK minimizedRMSD -1
REMARK  0 active torsions:
REMARK  status: ('A' for Active; 'I' for Inactive)
ROOT
ATOM      1  C1  BNZ d   1       0.262   0.752   3.237  0.00  0.00     0.000 A 
ATOM      2  C2  BNZ d   1       0.789   1.812   2.548  0.00  0.00     0.000 A 
ATOM      3  C3  BNZ d   1       1.003   1.733   1.200  0.00  0.00     0.000 A 
ATOM      4  C4  BNZ d   1       0.728   0.583   0.551  0.00  0.00     0.000 A 
ATOM      5  C5  BNZ d   1       0.205  -0.497   1.234  0.00  0.00     0.000 A 
ATOM      6  C6  BNZ d   1      -0.045  -0.401   2.584  0.00  0.00     0.000 A 
ENDROOT
TORSDOF 0
ENDMDL
