MODEL 1
REMARK minimizedAffinity -0.1594266
REMARK minimizedRMSD -1
REMARK  0 active torsions:
REMARK  status: ('A' for Active; 'I' for Inactive)
ROOT
ATOM      1  C1  BNZ d   1      -5.996  -2.300   3.071  0.00  0.00     0.000 A 
ATOM      2  C2  BNZ d   1      -5.998  -3.134   4.157  0.00  0.00     0.000 A 
ATOM      3  C3  BNZ d   1      -5.832  -2.639   5.420  0.00  0.00     0.000 A 
ATOM      4  C4  BNZ d   1      -5.625  -1.318   5.593  0.00  0.00     0.000 A 
ATOM      5  C5  BNZ d   1      -5.611  -0.465   4.507  0.00  0.00     0.000 A 
ATOM      6  C6  BNZ d   1      -5.818  -0.962   3.240  0.00  0.00     0.000 A 
ENDROOT
TORSDOF 0
ENDMDL
