MODEL 1
REMARK minimizedAffinity -2.70663905
REMARK minimizedRMSD -1
REMARK  0 active torsions:
REMARK  status: ('A' for Active; 'I' for Inactive)
ROOT
ATOM      1  C1  BNZ d   1       0.464   0.410   0.133  0.00  0.00     0.000 A 
ATOM      2  C2  BNZ d   1      -0.037   1.537   0.728  0.00  0.00     0.000 A 
ATOM      3  C3  BNZ d   1       0.271   1.839   2.025  0.00  0.00     0.000 A 
ATOM      4  C4  BNZ d   1       1.046   0.995   2.737  0.00  0.00     0.000 A 
ATOM      5  C5  BNZ d   1       1.551  -0.150   2.153  0.00  0.00     0.000 A 
ATOM      6  C6  BNZ d   1       1.271  -0.431   0.836  0.00  0.00     0.000 A 
ENDROOT
TORSDOF 0
ENDMDL
