MODEL 1
REMARK minimizedAffinity -2.127388
REMARK minimizedRMSD -1
REMARK  0 active torsions:
REMARK  status: ('A' for Active; 'I' for Inactive)
ROOT
ATOM      1  C1  BNZ d   1       1.501   0.213   2.419  0.00  0.00     0.000 A 
ATOM      2  C2  BNZ d   1       1.363   1.481   2.917  0.00  0.00     0.000 A 
ATOM      3  C3  BNZ d   1       0.756   2.460   2.181  0.00  0.00     0.000 A 
ATOM      4  C4  BNZ d   1       0.324   2.180   0.934  0.00  0.00     0.000 A 
ATOM      5  C5  BNZ d   1       0.465   0.909   0.414  0.00  0.00     0.000 A 
ATOM      6  C6  BNZ d   1       1.041  -0.084   1.173  0.00  0.00     0.000 A 
ENDROOT
TORSDOF 0
ENDMDL
