MODEL 1
REMARK minimizedAffinity 8.15821171
REMARK minimizedRMSD -1
REMARK  0 active torsions:
REMARK  status: ('A' for Active; 'I' for Inactive)
ROOT
ATOM      1  C2' OXE d   1      -0.948  -1.198  -3.237  0.00  0.00     0.078 C 
ATOM      2  C1' OXE d   1      -3.130  -0.955  -1.487  0.00  0.00     0.078 C 
ATOM      3  C1  OXE d   1      -2.080   0.128  -1.457  0.00  0.00    -0.078 A 
ATOM      4  C2  OXE d   1      -0.992  -0.023  -2.283  0.00  0.00    -0.078 A 
ATOM      5  C3  OXE d   1      -0.022   0.973  -2.335  0.00  0.00     0.003 A 
ATOM      6  C4  OXE d   1      -0.065   2.051  -1.443  0.00  0.00    -0.002 A 
ATOM      7  C5  OXE d   1      -1.144   2.204  -0.565  0.00  0.00    -0.002 A 
ATOM      8  C6  OXE d   1      -2.179   1.275  -0.589  0.00  0.00     0.003 A 
ENDROOT
TORSDOF 0
ENDMDL
