MODEL 1
REMARK minimizedAffinity 10.5547075
REMARK minimizedRMSD -1
REMARK  0 active torsions:
REMARK  status: ('A' for Active; 'I' for Inactive)
ROOT
ATOM      1  C2' OXE d   1      -5.126  -5.999  -3.122  0.00  0.00     0.078 C 
ATOM      2  C1' OXE d   1      -5.189  -5.966  -5.928  0.00  0.00     0.078 C 
ATOM      3  C1  OXE d   1      -3.840  -5.969  -5.255  0.00  0.00    -0.078 A 
ATOM      4  C2  OXE d   1      -3.818  -5.938  -3.881  0.00  0.00    -0.078 A 
ATOM      5  C3  OXE d   1      -2.601  -5.994  -3.209  0.00  0.00     0.003 A 
ATOM      6  C4  OXE d   1      -1.396  -5.927  -3.918  0.00  0.00    -0.002 A 
ATOM      7  C5  OXE d   1      -1.395  -5.918  -5.317  0.00  0.00    -0.002 A 
ATOM      8  C6  OXE d   1      -2.605  -5.981  -6.000  0.00  0.00     0.003 A 
ENDROOT
TORSDOF 0
ENDMDL
