MODEL 1
REMARK minimizedAffinity 13.22754
REMARK minimizedRMSD -1
REMARK  0 active torsions:
REMARK  status: ('A' for Active; 'I' for Inactive)
ROOT
ATOM      1  C2' OXE d   1      -5.227   0.452  -4.414  0.00  0.00     0.078 C 
ATOM      2  C1' OXE d   1      -5.386   1.020  -1.669  0.00  0.00     0.078 C 
ATOM      3  C1  OXE d   1      -5.206   2.179  -2.618  0.00  0.00    -0.078 A 
ATOM      4  C2  OXE d   1      -5.082   1.887  -3.955  0.00  0.00    -0.078 A 
ATOM      5  C3  OXE d   1      -4.970   2.923  -4.879  0.00  0.00     0.003 A 
ATOM      6  C4  OXE d   1      -4.826   4.246  -4.446  0.00  0.00    -0.002 A 
ATOM      7  C5  OXE d   1      -4.909   4.561  -3.085  0.00  0.00    -0.002 A 
ATOM      8  C6  OXE d   1      -5.141   3.546  -2.164  0.00  0.00     0.003 A 
ENDROOT
TORSDOF 0
ENDMDL
