MODEL 1
REMARK minimizedAffinity 7.8434329
REMARK minimizedRMSD -1
REMARK  0 active torsions:
REMARK  status: ('A' for Active; 'I' for Inactive)
ROOT
ATOM      1  C2' OXE d   1      -2.272   3.515   1.124  0.00  0.00     0.078 C 
ATOM      2  C1' OXE d   1       0.177   2.265   1.688  0.00  0.00     0.078 C 
ATOM      3  C1  OXE d   1      -0.451   2.006   0.341  0.00  0.00    -0.078 A 
ATOM      4  C2  OXE d   1      -1.672   2.585   0.092  0.00  0.00    -0.078 A 
ATOM      5  C3  OXE d   1      -2.270   2.424  -1.155  0.00  0.00     0.003 A 
ATOM      6  C4  OXE d   1      -1.713   1.554  -2.100  0.00  0.00    -0.002 A 
ATOM      7  C5  OXE d   1      -0.490   0.923  -1.851  0.00  0.00    -0.002 A 
ATOM      8  C6  OXE d   1       0.174   1.171  -0.655  0.00  0.00     0.003 A 
ENDROOT
TORSDOF 0
ENDMDL
