MODEL 1
REMARK minimizedAffinity 5.40388298
REMARK minimizedRMSD -1
REMARK  0 active torsions:
REMARK  status: ('A' for Active; 'I' for Inactive)
ROOT
ATOM      1  C2' OXE d   1       1.756   0.406   0.717  0.00  0.00     0.078 C 
ATOM      2  C1' OXE d   1      -0.167   2.417   0.345  0.00  0.00     0.078 C 
ATOM      3  C1  OXE d   1      -0.251   1.587   1.601  0.00  0.00    -0.078 A 
ATOM      4  C2  OXE d   1       0.666   0.575   1.753  0.00  0.00    -0.078 A 
ATOM      5  C3  OXE d   1       0.667  -0.185   2.919  0.00  0.00     0.003 A 
ATOM      6  C4  OXE d   1      -0.351  -0.029   3.868  0.00  0.00    -0.002 A 
ATOM      7  C5  OXE d   1      -1.318   0.970   3.714  0.00  0.00    -0.002 A 
ATOM      8  C6  OXE d   1      -1.257   1.813   2.610  0.00  0.00     0.003 A 
ENDROOT
TORSDOF 0
ENDMDL
