MODEL 1
REMARK minimizedAffinity 5.63152027
REMARK minimizedRMSD -1
REMARK  0 active torsions:
REMARK  status: ('A' for Active; 'I' for Inactive)
ROOT
ATOM      1  C2' OXE d   1      -1.052   1.754   0.585  0.00  0.00     0.078 C 
ATOM      2  C1' OXE d   1      -2.872  -0.262  -0.126  0.00  0.00     0.078 C 
ATOM      3  C1  OXE d   1      -1.860   0.168  -1.158  0.00  0.00    -0.078 A 
ATOM      4  C2  OXE d   1      -1.004   1.187  -0.818  0.00  0.00    -0.078 A 
ATOM      5  C3  OXE d   1      -0.015   1.585  -1.714  0.00  0.00     0.003 A 
ATOM      6  C4  OXE d   1       0.016   1.063  -3.013  0.00  0.00    -0.002 A 
ATOM      7  C5  OXE d   1      -0.873   0.052  -3.393  0.00  0.00    -0.002 A 
ATOM      8  C6  OXE d   1      -1.787  -0.436  -2.466  0.00  0.00     0.003 A 
ENDROOT
TORSDOF 0
ENDMDL
