MODEL 1
REMARK minimizedAffinity 0.729511559
REMARK minimizedRMSD -1
REMARK  0 active torsions:
REMARK  status: ('A' for Active; 'I' for Inactive)
ROOT
ATOM      1  C2' OXE d   1      -1.204   4.579   1.332  0.00  0.00     0.078 C 
ATOM      2  C1' OXE d   1       1.485   4.302   2.090  0.00  0.00     0.078 C 
ATOM      3  C1  OXE d   1       0.834   3.147   1.372  0.00  0.00    -0.078 A 
ATOM      4  C2  OXE d   1      -0.495   3.272   1.046  0.00  0.00    -0.078 A 
ATOM      5  C3  OXE d   1      -1.130   2.258   0.335  0.00  0.00     0.003 A 
ATOM      6  C4  OXE d   1      -0.470   1.049   0.083  0.00  0.00    -0.002 A 
ATOM      7  C5  OXE d   1       0.873   0.885   0.441  0.00  0.00    -0.002 A 
ATOM      8  C6  OXE d   1       1.550   1.938   1.047  0.00  0.00     0.003 A 
ENDROOT
TORSDOF 0
ENDMDL
