MODEL 1
REMARK minimizedAffinity 8.76888084
REMARK minimizedRMSD -1
REMARK  0 active torsions:
REMARK  status: ('A' for Active; 'I' for Inactive)
ROOT
ATOM      1  C2' OXE d   1      -0.700   2.015  -1.655  0.00  0.00     0.078 C 
ATOM      2  C1' OXE d   1      -2.637   0.443  -0.368  0.00  0.00     0.078 C 
ATOM      3  C1  OXE d   1      -1.690   1.239   0.495  0.00  0.00    -0.078 A 
ATOM      4  C2  OXE d   1      -0.716   1.969  -0.143  0.00  0.00    -0.078 A 
ATOM      5  C3  OXE d   1       0.148   2.765   0.604  0.00  0.00     0.003 A 
ATOM      6  C4  OXE d   1       0.133   2.710   2.002  0.00  0.00    -0.002 A 
ATOM      7  C5  OXE d   1      -0.826   1.942   2.672  0.00  0.00    -0.002 A 
ATOM      8  C6  OXE d   1      -1.770   1.236   1.935  0.00  0.00     0.003 A 
ENDROOT
TORSDOF 0
ENDMDL
