MODEL 1
REMARK minimizedAffinity -4.36373281
REMARK minimizedRMSD -1
REMARK  0 active torsions:
REMARK  status: ('A' for Active; 'I' for Inactive)
ROOT
ATOM      1  C   UNL d   1      -1.173   3.088   0.776  0.00  0.00     0.020 A 
ATOM      2  C1  UNL d   1      -1.261   2.972  -0.611  0.00  0.00     0.020 A 
ATOM      3  C2  UNL d   1      -0.767   1.832  -1.249  0.00  0.00     0.034 A 
ATOM      4  C3  UNL d   1      -0.183   0.804  -0.500  0.00  0.00     0.017 A 
ATOM      5  C4  UNL d   1      -0.096   0.921   0.892  0.00  0.00     0.017 A 
ATOM      6  C5  UNL d   1      -0.592   2.064   1.525  0.00  0.00     0.034 A 
ATOM      7 Cl   UNL d   1       0.610  -0.306   1.883  0.00  0.00    -0.070 Cl
ATOM      8 Cl1  UNL d   1       0.406  -0.577  -1.355  0.00  0.00    -0.070 Cl
ENDROOT
TORSDOF 0
ENDMDL
