MODEL 1
REMARK minimizedAffinity -4.19772196
REMARK minimizedRMSD -1
REMARK  0 active torsions:
REMARK  status: ('A' for Active; 'I' for Inactive)
ROOT
ATOM      1  C   UNL d   1      -1.161   2.014   2.126  0.00  0.00     0.020 A 
ATOM      2  C1  UNL d   1      -1.828   1.764   0.927  0.00  0.00     0.020 A 
ATOM      3  C2  UNL d   1      -1.288   0.870   0.000  0.00  0.00     0.034 A 
ATOM      4  C3  UNL d   1      -0.077   0.223   0.271  0.00  0.00     0.017 A 
ATOM      5  C4  UNL d   1       0.592   0.474   1.474  0.00  0.00     0.017 A 
ATOM      6  C5  UNL d   1       0.046   1.370   2.399  0.00  0.00     0.034 A 
ATOM      7 Cl   UNL d   1       2.090  -0.288   1.878  0.00  0.00    -0.070 Cl
ATOM      8 Cl1  UNL d   1       0.533  -0.871  -0.920  0.00  0.00    -0.070 Cl
ENDROOT
TORSDOF 0
ENDMDL
