MODEL 1
REMARK minimizedAffinity -0.292246073
REMARK minimizedRMSD -1
REMARK  0 active torsions:
REMARK  status: ('A' for Active; 'I' for Inactive)
ROOT
ATOM      1  C   UNL d   1       0.659   0.552   2.617  0.00  0.00     0.020 A 
ATOM      2  C1  UNL d   1       0.328   1.836   2.185  0.00  0.00     0.020 A 
ATOM      3  C2  UNL d   1       0.010   2.060   0.844  0.00  0.00     0.034 A 
ATOM      4  C3  UNL d   1       0.024   1.000  -0.070  0.00  0.00     0.017 A 
ATOM      5  C4  UNL d   1       0.356  -0.288   0.365  0.00  0.00     0.017 A 
ATOM      6  C5  UNL d   1       0.673  -0.507   1.710  0.00  0.00     0.034 A 
ATOM      7 Cl   UNL d   1       0.394  -1.646  -0.703  0.00  0.00    -0.070 Cl
ATOM      8 Cl1  UNL d   1      -0.380   1.350  -1.713  0.00  0.00    -0.070 Cl
ENDROOT
TORSDOF 0
ENDMDL
