MODEL 1
REMARK minimizedAffinity -3.85471845
REMARK minimizedRMSD -1
REMARK  0 active torsions:
REMARK  status: ('A' for Active; 'I' for Inactive)
ROOT
ATOM      1  C   UNL d   1      -0.388   2.982   1.829  0.00  0.00     0.020 A 
ATOM      2  C1  UNL d   1      -1.201   2.807   0.710  0.00  0.00     0.020 A 
ATOM      3  C2  UNL d   1      -1.143   1.616  -0.016  0.00  0.00     0.034 A 
ATOM      4  C3  UNL d   1      -0.269   0.595   0.375  0.00  0.00     0.017 A 
ATOM      5  C4  UNL d   1       0.547   0.771   1.499  0.00  0.00     0.017 A 
ATOM      6  C5  UNL d   1       0.484   1.966   2.223  0.00  0.00     0.034 A 
ATOM      7 Cl   UNL d   1       1.649  -0.443   2.043  0.00  0.00    -0.070 Cl
ATOM      8 Cl1  UNL d   1      -0.249  -0.852  -0.569  0.00  0.00    -0.070 Cl
ENDROOT
TORSDOF 0
ENDMDL
