MODEL 1
REMARK minimizedAffinity -3.11007404
REMARK minimizedRMSD -1
REMARK  0 active torsions:
REMARK  status: ('A' for Active; 'I' for Inactive)
ROOT
ATOM      1  C   UNL d   1      -0.394   0.050  -0.791  0.00  0.00     0.020 A 
ATOM      2  C1  UNL d   1       0.382  -1.098  -0.636  0.00  0.00     0.020 A 
ATOM      3  C2  UNL d   1       1.121  -1.288   0.533  0.00  0.00     0.034 A 
ATOM      4  C3  UNL d   1       1.088  -0.329   1.551  0.00  0.00     0.017 A 
ATOM      5  C4  UNL d   1       0.309   0.823   1.395  0.00  0.00     0.017 A 
ATOM      6  C5  UNL d   1      -0.430   1.009   0.222  0.00  0.00     0.034 A 
ATOM      7 Cl   UNL d   1       0.217   2.051   2.608  0.00  0.00    -0.070 Cl
ATOM      8 Cl1  UNL d   1       2.027  -0.630   2.970  0.00  0.00    -0.070 Cl
ENDROOT
TORSDOF 0
ENDMDL
