MODEL 1
REMARK minimizedAffinity -2.0608964
REMARK minimizedRMSD -1
REMARK  0 active torsions:
REMARK  status: ('A' for Active; 'I' for Inactive)
ROOT
ATOM      1  C   UNL d   1      -0.331  -0.090  -1.195  0.00  0.00     0.020 A 
ATOM      2  C1  UNL d   1       0.606  -0.971  -0.657  0.00  0.00     0.020 A 
ATOM      3  C2  UNL d   1       0.948  -0.887   0.694  0.00  0.00     0.034 A 
ATOM      4  C3  UNL d   1       0.353   0.080   1.512  0.00  0.00     0.017 A 
ATOM      5  C4  UNL d   1      -0.588   0.965   0.971  0.00  0.00     0.017 A 
ATOM      6  C5  UNL d   1      -0.926   0.876  -0.383  0.00  0.00     0.034 A 
ATOM      7 Cl   UNL d   1      -1.364   2.185   1.917  0.00  0.00    -0.070 Cl
ATOM      8 Cl1  UNL d   1       0.823   0.127   3.174  0.00  0.00    -0.070 Cl
ENDROOT
TORSDOF 0
ENDMDL
