MODEL 1
REMARK minimizedAffinity -5.85606813
REMARK minimizedRMSD -1
REMARK  0 active torsions:
REMARK  status: ('A' for Active; 'I' for Inactive)
ROOT
ATOM      1  C   UNL d   1      -0.818   3.289   0.732  0.00  0.00     0.020 A 
ATOM      2  C1  UNL d   1      -0.725   2.951  -0.618  0.00  0.00     0.020 A 
ATOM      3  C2  UNL d   1      -0.346   1.659  -0.989  0.00  0.00     0.034 A 
ATOM      4  C3  UNL d   1      -0.058   0.701  -0.011  0.00  0.00     0.017 A 
ATOM      5  C4  UNL d   1      -0.151   1.041   1.344  0.00  0.00     0.017 A 
ATOM      6  C5  UNL d   1      -0.531   2.336   1.710  0.00  0.00     0.034 A 
ATOM      7 Cl   UNL d   1       0.188  -0.087   2.608  0.00  0.00    -0.070 Cl
ATOM      8 Cl1  UNL d   1       0.405  -0.876  -0.543  0.00  0.00    -0.070 Cl
ENDROOT
TORSDOF 0
ENDMDL
