MODEL 1
REMARK minimizedAffinity 5.31990576
REMARK minimizedRMSD -1
REMARK  0 active torsions:
REMARK  status: ('A' for Active; 'I' for Inactive)
ROOT
ATOM      1  C   UNL d   1      -3.020   2.642  -1.113  0.00  0.00     0.020 A 
ATOM      2  C1  UNL d   1      -2.797   1.316  -1.481  0.00  0.00     0.020 A 
ATOM      3  C2  UNL d   1      -1.524   0.758  -1.344  0.00  0.00     0.034 A 
ATOM      4  C3  UNL d   1      -0.469   1.526  -0.838  0.00  0.00     0.017 A 
ATOM      5  C4  UNL d   1      -0.694   2.858  -0.469  0.00  0.00     0.017 A 
ATOM      6  C5  UNL d   1      -1.970   3.411  -0.608  0.00  0.00     0.034 A 
ATOM      7 Cl   UNL d   1       0.558   3.868   0.163  0.00  0.00    -0.070 Cl
ATOM      8 Cl1  UNL d   1       1.078   0.771  -0.696  0.00  0.00    -0.070 Cl
ENDROOT
TORSDOF 0
ENDMDL
