MODEL 1
REMARK minimizedAffinity 6.90606499
REMARK minimizedRMSD -1
REMARK  0 active torsions:
REMARK  status: ('A' for Active; 'I' for Inactive)
ROOT
ATOM      1  C   UNL d   1       2.184  -1.411   0.377  0.00  0.00     0.020 A 
ATOM      2  C1  UNL d   1       2.625  -0.352  -0.415  0.00  0.00     0.020 A 
ATOM      3  C2  UNL d   1       3.806  -0.476  -1.151  0.00  0.00     0.034 A 
ATOM      4  C3  UNL d   1       4.550  -1.660  -1.095  0.00  0.00     0.017 A 
ATOM      5  C4  UNL d   1       4.106  -2.722  -0.299  0.00  0.00     0.017 A 
ATOM      6  C5  UNL d   1       2.923  -2.593   0.436  0.00  0.00     0.034 A 
ATOM      7 Cl   UNL d   1       4.970  -4.215  -0.179  0.00  0.00    -0.070 Cl
ATOM      8 Cl1  UNL d   1       6.000  -1.743  -2.031  0.00  0.00    -0.070 Cl
ENDROOT
TORSDOF 0
ENDMDL
