MODEL 1
REMARK minimizedAffinity 6.12652302
REMARK minimizedRMSD -1
REMARK  0 active torsions:
REMARK  status: ('A' for Active; 'I' for Inactive)
ROOT
ATOM      1  C   UNL d   1      -5.603  -1.733   4.405  0.00  0.00     0.020 A 
ATOM      2  C1  UNL d   1      -4.465  -1.101   4.903  0.00  0.00     0.020 A 
ATOM      3  C2  UNL d   1      -3.722  -0.251   4.081  0.00  0.00     0.034 A 
ATOM      4  C3  UNL d   1      -4.116  -0.031   2.756  0.00  0.00     0.017 A 
ATOM      5  C4  UNL d   1      -5.260  -0.666   2.257  0.00  0.00     0.017 A 
ATOM      6  C5  UNL d   1      -6.000  -1.516   3.085  0.00  0.00     0.034 A 
ATOM      7 Cl   UNL d   1      -5.809  -0.444   0.634  0.00  0.00    -0.070 Cl
ATOM      8 Cl1  UNL d   1      -3.151   1.032   1.796  0.00  0.00    -0.070 Cl
ENDROOT
TORSDOF 0
ENDMDL
