MODEL 1
REMARK minimizedAffinity -1.53123879
REMARK minimizedRMSD -1
REMARK  0 active torsions:
REMARK  status: ('A' for Active; 'I' for Inactive)
ROOT
ATOM      1  C   UNL d   1       2.306  -1.066  -1.333  0.00  0.00     0.124 A 
ATOM      2  C1  UNL d   1       1.844   0.242  -1.292  0.00  0.00     0.062 A 
ATOM      3  C2  UNL d   1       0.759   0.576  -0.485  0.00  0.00     0.162 A 
ATOM      4  C3  UNL d   1       0.130  -0.400   0.287  0.00  0.00    -0.034 A 
ATOM      5  C4  UNL d   1       0.600  -1.714   0.240  0.00  0.00     0.162 A 
ATOM      6  C5  UNL d   1       1.684  -2.042  -0.568  0.00  0.00     0.062 A 
ATOM      7  F   UNL d   1       2.129  -3.307  -0.607  0.00  0.00    -0.097 F 
ATOM      8  F1  UNL d   1       0.018  -2.677   0.970  0.00  0.00    -0.096 F 
ATOM      9  I   UNL d   1      -1.492   0.095   1.494  0.00  0.00    -0.060 I 
ATOM     10  F2  UNL d   1       0.334   1.848  -0.465  0.00  0.00    -0.096 F 
ATOM     11  F3  UNL d   1       2.442   1.187  -2.031  0.00  0.00    -0.097 F 
ATOM     12  F4  UNL d   1       3.349  -1.385  -2.111  0.00  0.00    -0.092 F 
ENDROOT
TORSDOF 0
ENDMDL
