MODEL 1
REMARK minimizedAffinity -4.77246571
REMARK minimizedRMSD -1
REMARK  0 active torsions:
REMARK  status: ('A' for Active; 'I' for Inactive)
ROOT
ATOM      1  C   UNL d   1       1.019  -2.183  -1.288  0.00  0.00     0.124 A 
ATOM      2  C1  UNL d   1       1.548  -1.199  -2.111  0.00  0.00     0.062 A 
ATOM      3  C2  UNL d   1       1.579   0.127  -1.686  0.00  0.00     0.162 A 
ATOM      4  C3  UNL d   1       1.079   0.475  -0.432  0.00  0.00    -0.034 A 
ATOM      5  C4  UNL d   1       0.547  -0.520   0.390  0.00  0.00     0.162 A 
ATOM      6  C5  UNL d   1       0.519  -1.843  -0.039  0.00  0.00     0.062 A 
ATOM      7  F   UNL d   1       0.007  -2.793   0.757  0.00  0.00    -0.097 F 
ATOM      8  F1  UNL d   1       0.058  -0.220   1.602  0.00  0.00    -0.096 F 
ATOM      9  I   UNL d   1       1.123   2.456   0.207  0.00  0.00    -0.060 I 
ATOM     10  F2  UNL d   1       2.096   1.057  -2.502  0.00  0.00    -0.096 F 
ATOM     11  F3  UNL d   1       2.031  -1.524  -3.319  0.00  0.00    -0.097 F 
ATOM     12  F4  UNL d   1       0.990  -3.457  -1.700  0.00  0.00    -0.092 F 
ENDROOT
TORSDOF 0
ENDMDL
