MODEL 1
REMARK minimizedAffinity -1.18993628
REMARK minimizedRMSD -1
REMARK  0 active torsions:
REMARK  status: ('A' for Active; 'I' for Inactive)
ROOT
ATOM      1  C   UNL d   1       1.574  -0.166  -2.131  0.00  0.00     0.124 A 
ATOM      2  C1  UNL d   1       0.776  -1.230  -1.735  0.00  0.00     0.062 A 
ATOM      3  C2  UNL d   1      -0.124  -1.077  -0.684  0.00  0.00     0.162 A 
ATOM      4  C3  UNL d   1      -0.232   0.147  -0.023  0.00  0.00    -0.034 A 
ATOM      5  C4  UNL d   1       0.574   1.212  -0.427  0.00  0.00     0.162 A 
ATOM      6  C5  UNL d   1       1.473   1.053  -1.477  0.00  0.00     0.062 A 
ATOM      7  F   UNL d   1       2.243   2.083  -1.858  0.00  0.00    -0.097 F 
ATOM      8  F1  UNL d   1       0.496   2.402   0.187  0.00  0.00    -0.096 F 
ATOM      9  I   UNL d   1      -1.578   0.380   1.548  0.00  0.00    -0.060 I 
ATOM     10  F2  UNL d   1      -0.883  -2.122  -0.323  0.00  0.00    -0.096 F 
ATOM     11  F3  UNL d   1       0.873  -2.410  -2.364  0.00  0.00    -0.097 F 
ATOM     12  F4  UNL d   1       2.441  -0.317  -3.141  0.00  0.00    -0.092 F 
ENDROOT
TORSDOF 0
ENDMDL
