MODEL 1
REMARK minimizedAffinity 1.51566136
REMARK minimizedRMSD -1
REMARK  0 active torsions:
REMARK  status: ('A' for Active; 'I' for Inactive)
ROOT
ATOM      1  C   UNL d   1       1.585  -0.163  -1.688  0.00  0.00     0.124 A 
ATOM      2  C1  UNL d   1       1.814   1.018  -0.995  0.00  0.00     0.062 A 
ATOM      3  C2  UNL d   1       1.011   1.360   0.089  0.00  0.00     0.162 A 
ATOM      4  C3  UNL d   1      -0.028   0.520   0.488  0.00  0.00    -0.034 A 
ATOM      5  C4  UNL d   1      -0.253  -0.666  -0.214  0.00  0.00     0.162 A 
ATOM      6  C5  UNL d   1       0.552  -1.003  -1.297  0.00  0.00     0.062 A 
ATOM      7  F   UNL d   1       0.330  -2.144  -1.965  0.00  0.00    -0.097 F 
ATOM      8  F1  UNL d   1      -1.243  -1.497   0.143  0.00  0.00    -0.096 F 
ATOM      9  I   UNL d   1      -1.230   1.028   2.109  0.00  0.00    -0.060 I 
ATOM     10  F2  UNL d   1       1.255   2.507   0.740  0.00  0.00    -0.096 F 
ATOM     11  F3  UNL d   1       2.810   1.832  -1.372  0.00  0.00    -0.097 F 
ATOM     12  F4  UNL d   1       2.358  -0.489  -2.732  0.00  0.00    -0.092 F 
ENDROOT
TORSDOF 0
ENDMDL
