MODEL 1
REMARK minimizedAffinity -0.945731342
REMARK minimizedRMSD -1
REMARK  0 active torsions:
REMARK  status: ('A' for Active; 'I' for Inactive)
ROOT
ATOM      1  C   UNL d   1       0.676  -0.791   1.536  0.00  0.00     0.124 A 
ATOM      2  C1  UNL d   1       1.090   0.449   1.070  0.00  0.00     0.062 A 
ATOM      3  C2  UNL d   1       1.236   0.671  -0.296  0.00  0.00     0.162 A 
ATOM      4  C3  UNL d   1       0.966  -0.350  -1.208  0.00  0.00    -0.034 A 
ATOM      5  C4  UNL d   1       0.551  -1.595  -0.732  0.00  0.00     0.162 A 
ATOM      6  C5  UNL d   1       0.407  -1.812   0.635  0.00  0.00     0.062 A 
ATOM      7  F   UNL d   1       0.007  -3.011   1.083  0.00  0.00    -0.097 F 
ATOM      8  F1  UNL d   1       0.283  -2.599  -1.580  0.00  0.00    -0.096 F 
ATOM      9  I   UNL d   1       1.182  -0.022  -3.252  0.00  0.00    -0.060 I 
ATOM     10  F2  UNL d   1       1.637   1.879  -0.718  0.00  0.00    -0.096 F 
ATOM     11  F3  UNL d   1       1.352   1.437   1.938  0.00  0.00    -0.097 F 
ATOM     12  F4  UNL d   1       0.538  -1.002   2.851  0.00  0.00    -0.092 F 
ENDROOT
TORSDOF 0
ENDMDL
