MODEL 1
REMARK minimizedAffinity 1.32436419
REMARK minimizedRMSD -1
REMARK  0 active torsions:
REMARK  status: ('A' for Active; 'I' for Inactive)
ROOT
ATOM      1  C   UNL d   1       1.818   0.082  -2.639  0.00  0.00     0.124 A 
ATOM      2  C1  UNL d   1       1.849   0.956  -1.562  0.00  0.00     0.062 A 
ATOM      3  C2  UNL d   1       0.938   0.816  -0.519  0.00  0.00     0.162 A 
ATOM      4  C3  UNL d   1      -0.013  -0.205  -0.548  0.00  0.00    -0.034 A 
ATOM      5  C4  UNL d   1      -0.039  -1.079  -1.636  0.00  0.00     0.162 A 
ATOM      6  C5  UNL d   1       0.874  -0.935  -2.675  0.00  0.00     0.062 A 
ATOM      7  F   UNL d   1       0.842  -1.780  -3.716  0.00  0.00    -0.097 F 
ATOM      8  F1  UNL d   1      -0.940  -2.071  -1.696  0.00  0.00    -0.096 F 
ATOM      9  I   UNL d   1      -1.377  -0.418   1.008  0.00  0.00    -0.060 I 
ATOM     10  F2  UNL d   1       0.992   1.675   0.510  0.00  0.00    -0.096 F 
ATOM     11  F3  UNL d   1       2.760   1.940  -1.525  0.00  0.00    -0.097 F 
ATOM     12  F4  UNL d   1       2.695   0.221  -3.641  0.00  0.00    -0.092 F 
ENDROOT
TORSDOF 0
ENDMDL
