MODEL 1
REMARK minimizedAffinity -2.2223773
REMARK minimizedRMSD -1
REMARK  0 active torsions:
REMARK  status: ('A' for Active; 'I' for Inactive)
ROOT
ATOM      1  C   UNL d   1       1.267  -2.328  -1.609  0.00  0.00     0.124 A 
ATOM      2  C1  UNL d   1       1.713  -1.299  -2.427  0.00  0.00     0.062 A 
ATOM      3  C2  UNL d   1       1.416   0.024  -2.113  0.00  0.00     0.162 A 
ATOM      4  C3  UNL d   1       0.668   0.326  -0.975  0.00  0.00    -0.034 A 
ATOM      5  C4  UNL d   1       0.222  -0.715  -0.158  0.00  0.00     0.162 A 
ATOM      6  C5  UNL d   1       0.522  -2.035  -0.476  0.00  0.00     0.062 A 
ATOM      7  F   UNL d   1       0.090  -3.028   0.315  0.00  0.00    -0.097 F 
ATOM      8  F1  UNL d   1      -0.499  -0.460   0.944  0.00  0.00    -0.096 F 
ATOM      9  I   UNL d   1       0.222   2.302  -0.501  0.00  0.00    -0.060 I 
ATOM     10  F2  UNL d   1       1.860   0.998  -2.921  0.00  0.00    -0.096 F 
ATOM     11  F3  UNL d   1       2.433  -1.580  -3.523  0.00  0.00    -0.097 F 
ATOM     12  F4  UNL d   1       1.554  -3.600  -1.914  0.00  0.00    -0.092 F 
ENDROOT
TORSDOF 0
ENDMDL
