MODEL 1
REMARK minimizedAffinity -5.00101042
REMARK minimizedRMSD -1
REMARK  0 active torsions:
REMARK  status: ('A' for Active; 'I' for Inactive)
ROOT
ATOM      1  C   UNL d   1       1.979  -0.405  -2.340  0.00  0.00     0.124 A 
ATOM      2  C1  UNL d   1       1.880   0.755  -1.584  0.00  0.00     0.062 A 
ATOM      3  C2  UNL d   1       1.086   0.780  -0.441  0.00  0.00     0.162 A 
ATOM      4  C3  UNL d   1       0.385  -0.359  -0.046  0.00  0.00    -0.034 A 
ATOM      5  C4  UNL d   1       0.488  -1.522  -0.812  0.00  0.00     0.162 A 
ATOM      6  C5  UNL d   1       1.283  -1.542  -1.953  0.00  0.00     0.062 A 
ATOM      7  F   UNL d   1       1.377  -2.663  -2.683  0.00  0.00    -0.097 F 
ATOM      8  F1  UNL d   1      -0.173  -2.635  -0.461  0.00  0.00    -0.096 F 
ATOM      9  I   UNL d   1      -0.803  -0.326   1.662  0.00  0.00    -0.060 I 
ATOM     10  F2  UNL d   1       1.010   1.914   0.271  0.00  0.00    -0.096 F 
ATOM     11  F3  UNL d   1       2.551   1.855  -1.955  0.00  0.00    -0.097 F 
ATOM     12  F4  UNL d   1       2.743  -0.426  -3.439  0.00  0.00    -0.092 F 
ENDROOT
TORSDOF 0
ENDMDL
