MODEL 1
REMARK minimizedAffinity 1.42845166
REMARK minimizedRMSD -1
REMARK  0 active torsions:
REMARK  status: ('A' for Active; 'I' for Inactive)
ROOT
ATOM      1  C   UNL d   1       0.730  -2.198  -1.446  0.00  0.00     0.124 A 
ATOM      2  C1  UNL d   1       1.045  -1.103  -2.240  0.00  0.00     0.062 A 
ATOM      3  C2  UNL d   1       1.092   0.173  -1.685  0.00  0.00     0.162 A 
ATOM      4  C3  UNL d   1       0.824   0.361  -0.330  0.00  0.00    -0.034 A 
ATOM      5  C4  UNL d   1       0.507  -0.744   0.462  0.00  0.00     0.162 A 
ATOM      6  C5  UNL d   1       0.461  -2.017  -0.097  0.00  0.00     0.062 A 
ATOM      7  F   UNL d   1       0.156  -3.073   0.671  0.00  0.00    -0.097 F 
ATOM      8  F1  UNL d   1       0.244  -0.598   1.769  0.00  0.00    -0.096 F 
ATOM      9  I   UNL d   1       0.894   2.268   0.503  0.00  0.00    -0.060 I 
ATOM     10  F2  UNL d   1       1.400   1.212  -2.476  0.00  0.00    -0.096 F 
ATOM     11  F3  UNL d   1       1.304  -1.275  -3.544  0.00  0.00    -0.097 F 
ATOM     12  F4  UNL d   1       0.684  -3.424  -1.982  0.00  0.00    -0.092 F 
ENDROOT
TORSDOF 0
ENDMDL
