MODEL 1
REMARK minimizedAffinity -0.115130872
REMARK minimizedRMSD -1
REMARK  0 active torsions:
REMARK  status: ('A' for Active; 'I' for Inactive)
ROOT
ATOM      1  C   UNL d   1       1.619  -0.196  -2.187  0.00  0.00     0.124 A 
ATOM      2  C1  UNL d   1       0.730  -1.191  -1.807  0.00  0.00     0.062 A 
ATOM      3  C2  UNL d   1      -0.110  -0.999  -0.714  0.00  0.00     0.162 A 
ATOM      4  C3  UNL d   1      -0.065   0.194   0.007  0.00  0.00    -0.034 A 
ATOM      5  C4  UNL d   1       0.833   1.190  -0.381  0.00  0.00     0.162 A 
ATOM      6  C5  UNL d   1       1.670   0.993  -1.474  0.00  0.00     0.062 A 
ATOM      7  F   UNL d   1       2.529   1.956  -1.840  0.00  0.00    -0.097 F 
ATOM      8  F1  UNL d   1       0.902   2.349   0.290  0.00  0.00    -0.096 F 
ATOM      9  I   UNL d   1      -1.319   0.485   1.642  0.00  0.00    -0.060 I 
ATOM     10  F2  UNL d   1      -0.960  -1.978  -0.369  0.00  0.00    -0.096 F 
ATOM     11  F3  UNL d   1       0.679  -2.342  -2.494  0.00  0.00    -0.097 F 
ATOM     12  F4  UNL d   1       2.427  -0.384  -3.239  0.00  0.00    -0.092 F 
ENDROOT
TORSDOF 0
ENDMDL
