MODEL 1
REMARK minimizedAffinity -0.987692416
REMARK minimizedRMSD -1
REMARK  0 active torsions:
REMARK  status: ('A' for Active; 'I' for Inactive)
ROOT
ATOM      1  C   UNL d   1       1.781   0.010  -1.717  0.00  0.00     0.124 A 
ATOM      2  C1  UNL d   1       1.894   1.096  -0.859  0.00  0.00     0.062 A 
ATOM      3  C2  UNL d   1       1.002   1.248   0.198  0.00  0.00     0.162 A 
ATOM      4  C3  UNL d   1      -0.012   0.313   0.404  0.00  0.00    -0.034 A 
ATOM      5  C4  UNL d   1      -0.120  -0.775  -0.464  0.00  0.00     0.162 A 
ATOM      6  C5  UNL d   1       0.774  -0.924  -1.518  0.00  0.00     0.062 A 
ATOM      7  F   UNL d   1       0.663  -1.973  -2.346  0.00  0.00    -0.097 F 
ATOM      8  F1  UNL d   1      -1.083  -1.694  -0.295  0.00  0.00    -0.096 F 
ATOM      9  I   UNL d   1      -1.349   0.538   1.983  0.00  0.00    -0.060 I 
ATOM     10  F2  UNL d   1       1.135   2.307   1.012  0.00  0.00    -0.096 F 
ATOM     11  F3  UNL d   1       2.866   2.000  -1.049  0.00  0.00    -0.097 F 
ATOM     12  F4  UNL d   1       2.641  -0.134  -2.734  0.00  0.00    -0.092 F 
ENDROOT
TORSDOF 0
ENDMDL
