MODEL 1
REMARK minimizedAffinity -3.24303627
REMARK minimizedRMSD -1
REMARK  0 active torsions:
REMARK  status: ('A' for Active; 'I' for Inactive)
ROOT
ATOM      1  C   UNL d   1       0.626  -0.824  -1.508  0.00  0.00     0.124 A 
ATOM      2  C1  UNL d   1       0.527  -1.578  -0.347  0.00  0.00     0.062 A 
ATOM      3  C2  UNL d   1      -0.155  -1.075   0.758  0.00  0.00     0.162 A 
ATOM      4  C3  UNL d   1      -0.745   0.188   0.706  0.00  0.00    -0.034 A 
ATOM      5  C4  UNL d   1      -0.641   0.940  -0.465  0.00  0.00     0.162 A 
ATOM      6  C5  UNL d   1       0.042   0.434  -1.566  0.00  0.00     0.062 A 
ATOM      7  F   UNL d   1       0.136   1.163  -2.688  0.00  0.00    -0.097 F 
ATOM      8  F1  UNL d   1      -1.196   2.158  -0.549  0.00  0.00    -0.096 F 
ATOM      9  I   UNL d   1      -1.765   0.942   2.356  0.00  0.00    -0.060 I 
ATOM     10  F2  UNL d   1      -0.234  -1.825   1.867  0.00  0.00    -0.096 F 
ATOM     11  F3  UNL d   1       1.091  -2.793  -0.288  0.00  0.00    -0.097 F 
ATOM     12  F4  UNL d   1       1.283  -1.309  -2.569  0.00  0.00    -0.092 F 
ENDROOT
TORSDOF 0
ENDMDL
