MODEL 1
REMARK minimizedAffinity -2.22295928
REMARK minimizedRMSD -1
REMARK  0 active torsions:
REMARK  status: ('A' for Active; 'I' for Inactive)
ROOT
ATOM      1  C   UNL d   1       1.311   0.439  -0.568  0.00  0.00     0.124 A 
ATOM      2  C1  UNL d   1       0.451  -0.438  -1.214  0.00  0.00     0.062 A 
ATOM      3  C2  UNL d   1      -0.798  -0.721  -0.669  0.00  0.00     0.162 A 
ATOM      4  C3  UNL d   1      -1.195  -0.125   0.528  0.00  0.00    -0.034 A 
ATOM      5  C4  UNL d   1      -0.324   0.755   1.172  0.00  0.00     0.162 A 
ATOM      6  C5  UNL d   1       0.923   1.035   0.624  0.00  0.00     0.062 A 
ATOM      7  F   UNL d   1       1.754   1.882   1.249  0.00  0.00    -0.097 F 
ATOM      8  F1  UNL d   1      -0.674   1.345   2.325  0.00  0.00    -0.096 F 
ATOM      9  I   UNL d   1      -3.063  -0.546   1.346  0.00  0.00    -0.060 I 
ATOM     10  F2  UNL d   1      -1.610  -1.572  -1.315  0.00  0.00    -0.096 F 
ATOM     11  F3  UNL d   1       0.824  -1.015  -2.365  0.00  0.00    -0.097 F 
ATOM     12  F4  UNL d   1       2.513   0.709  -1.094  0.00  0.00    -0.092 F 
ENDROOT
TORSDOF 0
ENDMDL
