MODEL 1
REMARK minimizedAffinity 0.151471645
REMARK minimizedRMSD -1
REMARK  0 active torsions:
REMARK  status: ('A' for Active; 'I' for Inactive)
ROOT
ATOM      1  C   UNL d   1       0.338  -0.654   1.289  0.00  0.00     0.124 A 
ATOM      2  C1  UNL d   1       0.063  -1.612   0.323  0.00  0.00     0.062 A 
ATOM      3  C2  UNL d   1       0.185  -1.298  -1.028  0.00  0.00     0.162 A 
ATOM      4  C3  UNL d   1       0.584  -0.021  -1.420  0.00  0.00    -0.034 A 
ATOM      5  C4  UNL d   1       0.857   0.938  -0.443  0.00  0.00     0.162 A 
ATOM      6  C5  UNL d   1       0.734   0.620   0.906  0.00  0.00     0.062 A 
ATOM      7  F   UNL d   1       1.000   1.546   1.838  0.00  0.00    -0.097 F 
ATOM      8  F1  UNL d   1       1.243   2.176  -0.786  0.00  0.00    -0.096 F 
ATOM      9  I   UNL d   1       0.767   0.452  -3.439  0.00  0.00    -0.060 I 
ATOM     10  F2  UNL d   1      -0.086  -2.244  -1.940  0.00  0.00    -0.096 F 
ATOM     11  F3  UNL d   1      -0.321  -2.842   0.691  0.00  0.00    -0.097 F 
ATOM     12  F4  UNL d   1       0.219  -0.958   2.588  0.00  0.00    -0.092 F 
ENDROOT
TORSDOF 0
ENDMDL
