MODEL 1
REMARK minimizedAffinity 12.58848
REMARK minimizedRMSD -1
REMARK  0 active torsions:
REMARK  status: ('A' for Active; 'I' for Inactive)
ROOT
ATOM      1  C   UNL d   1      -5.094   1.143   1.988  0.00  0.00     0.077 C 
ATOM      2  C1  UNL d   1      -4.435   0.665   0.729  0.00  0.00    -0.074 A 
ATOM      3  C2  UNL d   1      -4.249  -0.700   0.488  0.00  0.00    -0.005 A 
ATOM      4  C3  UNL d   1      -3.643  -1.130  -0.693  0.00  0.00     0.006 A 
ATOM      5  C4  UNL d   1      -3.217  -0.201  -1.643  0.00  0.00    -0.005 A 
ATOM      6  C5  UNL d   1      -3.395   1.168  -1.419  0.00  0.00    -0.074 A 
ATOM      7  C6  UNL d   1      -2.952   2.180  -2.434  0.00  0.00     0.077 C 
ATOM      8  C7  UNL d   1      -4.011   1.592  -0.234  0.00  0.00    -0.001 A 
ENDROOT
TORSDOF 0
ENDMDL
