MODEL 1
REMARK minimizedAffinity 11.0605412
REMARK minimizedRMSD -1
REMARK  0 active torsions:
REMARK  status: ('A' for Active; 'I' for Inactive)
ROOT
ATOM      1  C   UNL d   1      -0.616  -1.546   1.449  0.00  0.00     0.077 C 
ATOM      2  C1  UNL d   1       0.734  -2.134   1.159  0.00  0.00    -0.074 A 
ATOM      3  C2  UNL d   1       1.898  -1.375   1.320  0.00  0.00    -0.005 A 
ATOM      4  C3  UNL d   1       3.146  -1.938   1.055  0.00  0.00     0.006 A 
ATOM      5  C4  UNL d   1       3.243  -3.263   0.628  0.00  0.00    -0.005 A 
ATOM      6  C5  UNL d   1       2.091  -4.037   0.463  0.00  0.00    -0.074 A 
ATOM      7  C6  UNL d   1       2.178  -5.465   0.014  0.00  0.00     0.077 C 
ATOM      8  C7  UNL d   1       0.840  -3.466   0.737  0.00  0.00    -0.001 A 
ENDROOT
TORSDOF 0
ENDMDL
