MODEL 1
REMARK minimizedAffinity 2.68133116
REMARK minimizedRMSD -1
REMARK  0 active torsions:
REMARK  status: ('A' for Active; 'I' for Inactive)
ROOT
ATOM      1  C   UNL d   1       1.821  -5.450   1.047  0.00  0.00     0.077 C 
ATOM      2  C1  UNL d   1       1.578  -3.993   1.308  0.00  0.00    -0.074 A 
ATOM      3  C2  UNL d   1       2.407  -3.014   0.751  0.00  0.00    -0.005 A 
ATOM      4  C3  UNL d   1       2.162  -1.663   0.996  0.00  0.00     0.006 A 
ATOM      5  C4  UNL d   1       1.088  -1.277   1.798  0.00  0.00    -0.005 A 
ATOM      6  C5  UNL d   1       0.247  -2.242   2.362  0.00  0.00    -0.074 A 
ATOM      7  C6  UNL d   1      -0.918  -1.844   3.219  0.00  0.00     0.077 C 
ATOM      8  C7  UNL d   1       0.495  -3.597   2.107  0.00  0.00    -0.001 A 
ENDROOT
TORSDOF 0
ENDMDL
