MODEL 1
REMARK minimizedAffinity 13.9566565
REMARK minimizedRMSD -1
REMARK  0 active torsions:
REMARK  status: ('A' for Active; 'I' for Inactive)
ROOT
ATOM      1  C   UNL d   1      -1.232  -1.958   2.223  0.00  0.00     0.077 C 
ATOM      2  C1  UNL d   1       0.214  -2.094   1.847  0.00  0.00    -0.074 A 
ATOM      3  C2  UNL d   1       1.144  -1.113   2.204  0.00  0.00    -0.005 A 
ATOM      4  C3  UNL d   1       2.487  -1.257   1.855  0.00  0.00     0.006 A 
ATOM      5  C4  UNL d   1       2.912  -2.382   1.147  0.00  0.00    -0.005 A 
ATOM      6  C5  UNL d   1       1.996  -3.374   0.783  0.00  0.00    -0.074 A 
ATOM      7  C6  UNL d   1       2.438  -4.594   0.031  0.00  0.00     0.077 C 
ATOM      8  C7  UNL d   1       0.650  -3.225   1.143  0.00  0.00    -0.001 A 
ENDROOT
TORSDOF 0
ENDMDL
