MODEL 1
REMARK minimizedAffinity 12.6272421
REMARK minimizedRMSD -1
REMARK  0 active torsions:
REMARK  status: ('A' for Active; 'I' for Inactive)
ROOT
ATOM      1  C   UNL d   1      -2.626   1.382  -2.376  0.00  0.00     0.077 C 
ATOM      2  C1  UNL d   1      -3.462   2.273  -3.246  0.00  0.00    -0.074 A 
ATOM      3  C2  UNL d   1      -4.438   1.740  -4.094  0.00  0.00    -0.005 A 
ATOM      4  C3  UNL d   1      -5.214   2.582  -4.890  0.00  0.00     0.006 A 
ATOM      5  C4  UNL d   1      -5.022   3.963  -4.847  0.00  0.00    -0.005 A 
ATOM      6  C5  UNL d   1      -4.051   4.515  -4.005  0.00  0.00    -0.074 A 
ATOM      7  C6  UNL d   1      -3.839   5.998  -3.939  0.00  0.00     0.077 C 
ATOM      8  C7  UNL d   1      -3.280   3.663  -3.202  0.00  0.00    -0.001 A 
ENDROOT
TORSDOF 0
ENDMDL
