MODEL 1
REMARK minimizedAffinity 6.37175703
REMARK minimizedRMSD -1
REMARK  0 active torsions:
REMARK  status: ('A' for Active; 'I' for Inactive)
ROOT
ATOM      1  C   UNL d   1       3.969  -2.719   1.599  0.00  0.00     0.077 C 
ATOM      2  C1  UNL d   1       2.546  -2.341   1.314  0.00  0.00    -0.074 A 
ATOM      3  C2  UNL d   1       1.977  -2.577   0.058  0.00  0.00    -0.005 A 
ATOM      4  C3  UNL d   1       0.649  -2.229  -0.189  0.00  0.00     0.006 A 
ATOM      5  C4  UNL d   1      -0.122  -1.642   0.816  0.00  0.00    -0.005 A 
ATOM      6  C5  UNL d   1       0.430  -1.400   2.078  0.00  0.00    -0.074 A 
ATOM      7  C6  UNL d   1      -0.388  -0.779   3.171  0.00  0.00     0.077 C 
ATOM      8  C7  UNL d   1       1.763  -1.758   2.320  0.00  0.00    -0.001 A 
ENDROOT
TORSDOF 0
ENDMDL
