MODEL 1
REMARK minimizedAffinity 12.8569908
REMARK minimizedRMSD -1
REMARK  0 active torsions:
REMARK  status: ('A' for Active; 'I' for Inactive)
ROOT
ATOM      1  C   UNL d   1      -1.822  -0.003  -1.420  0.00  0.00     0.077 C 
ATOM      2  C1  UNL d   1      -1.693   1.219  -2.279  0.00  0.00    -0.074 A 
ATOM      3  C2  UNL d   1      -0.459   1.583  -2.830  0.00  0.00    -0.005 A 
ATOM      4  C3  UNL d   1      -0.356   2.717  -3.635  0.00  0.00     0.006 A 
ATOM      5  C4  UNL d   1      -1.483   3.497  -3.898  0.00  0.00    -0.005 A 
ATOM      6  C5  UNL d   1      -2.725   3.148  -3.358  0.00  0.00    -0.074 A 
ATOM      7  C6  UNL d   1      -3.948   3.969  -3.639  0.00  0.00     0.077 C 
ATOM      8  C7  UNL d   1      -2.822   2.003  -2.555  0.00  0.00    -0.001 A 
ENDROOT
TORSDOF 0
ENDMDL
