MODEL 1
REMARK minimizedAffinity 9.84552097
REMARK minimizedRMSD -1
REMARK  0 active torsions:
REMARK  status: ('A' for Active; 'I' for Inactive)
ROOT
ATOM      1  C   UNL d   1       1.639  -4.769   5.970  0.00  0.00     0.077 C 
ATOM      2  C1  UNL d   1       3.138  -4.789   5.925  0.00  0.00    -0.074 A 
ATOM      3  C2  UNL d   1       3.843  -5.994   5.999  0.00  0.00    -0.005 A 
ATOM      4  C3  UNL d   1       5.237  -5.998   5.947  0.00  0.00     0.006 A 
ATOM      5  C4  UNL d   1       5.939  -4.798   5.819  0.00  0.00    -0.005 A 
ATOM      6  C5  UNL d   1       5.250  -3.583   5.743  0.00  0.00    -0.074 A 
ATOM      7  C6  UNL d   1       5.989  -2.286   5.595  0.00  0.00     0.077 C 
ATOM      8  C7  UNL d   1       3.850  -3.589   5.789  0.00  0.00    -0.001 A 
ENDROOT
TORSDOF 0
ENDMDL
