MODEL 1
REMARK minimizedAffinity -3.91190743
REMARK minimizedRMSD -1
REMARK  1 active torsions:
REMARK  status: ('A' for Active; 'I' for Inactive)
REMARK    1  A    between atoms: C1_2  and  C2_3 
ROOT
ATOM      1  C2  UNL d   1      -0.005  -0.182   2.129  0.00  0.00    -0.077 A 
ATOM      2  C3  UNL d   1      -1.301   0.341   2.244  0.00  0.00     0.002 A 
ATOM      3  C4  UNL d   1      -2.103   0.494   1.112  0.00  0.00     0.002 A 
ATOM      4  C5  UNL d   1      -1.621   0.123  -0.142  0.00  0.00    -0.004 A 
ATOM      5  C6  UNL d   1      -0.333  -0.397  -0.266  0.00  0.00     0.002 A 
ATOM      6  C7  UNL d   1       0.471  -0.550   0.864  0.00  0.00     0.002 A 
ENDROOT
BRANCH   1   7
ATOM      7  C1  UNL d   1       0.844  -0.394   3.355  0.00  0.00     0.055 C 
ATOM      8  C   UNL d   1       2.270  -0.773   2.983  0.00  0.00     0.019 C 
ENDBRANCH   1   7
TORSDOF 1
ENDMDL
