MODEL 1
REMARK minimizedAffinity -4.25896788
REMARK minimizedRMSD -1
REMARK  1 active torsions:
REMARK  status: ('A' for Active; 'I' for Inactive)
REMARK    1  A    between atoms: C1_2  and  C2_3 
ROOT
ATOM      1  C2  UNL d   1       0.369   0.174  -1.892  0.00  0.00    -0.077 A 
ATOM      2  C3  UNL d   1       0.864  -0.774  -0.987  0.00  0.00     0.002 A 
ATOM      3  C4  UNL d   1       0.301  -0.898   0.285  0.00  0.00     0.002 A 
ATOM      4  C5  UNL d   1      -0.762  -0.079   0.661  0.00  0.00    -0.004 A 
ATOM      5  C6  UNL d   1      -1.260   0.869  -0.232  0.00  0.00     0.002 A 
ATOM      6  C7  UNL d   1      -0.698   0.994  -1.503  0.00  0.00     0.002 A 
ENDROOT
BRANCH   1   7
ATOM      7  C1  UNL d   1       0.942   0.275  -3.282  0.00  0.00     0.055 C 
ATOM      8  C   UNL d   1       2.430   0.590  -3.245  0.00  0.00     0.019 C 
ENDBRANCH   1   7
TORSDOF 1
ENDMDL
