MODEL 1
REMARK minimizedAffinity 0.439139485
REMARK minimizedRMSD -1
REMARK  1 active torsions:
REMARK  status: ('A' for Active; 'I' for Inactive)
REMARK    1  A    between atoms: C1_2  and  C2_3 
ROOT
ATOM      1  C2  UNL d   1       0.080   0.079  -1.572  0.00  0.00    -0.077 A 
ATOM      2  C3  UNL d   1       0.295  -0.558  -0.342  0.00  0.00     0.002 A 
ATOM      3  C4  UNL d   1      -0.619  -0.406   0.702  0.00  0.00     0.002 A 
ATOM      4  C5  UNL d   1      -1.756   0.380   0.526  0.00  0.00    -0.004 A 
ATOM      5  C6  UNL d   1      -1.978   1.020  -0.693  0.00  0.00     0.002 A 
ATOM      6  C7  UNL d   1      -1.065   0.870  -1.737  0.00  0.00     0.002 A 
ENDROOT
BRANCH   1   7
ATOM      7  C1  UNL d   1       1.039  -0.124  -2.715  0.00  0.00     0.055 C 
ATOM      8  C   UNL d   1       0.310  -0.156  -4.051  0.00  0.00     0.019 C 
ENDBRANCH   1   7
TORSDOF 1
ENDMDL
