MODEL 1
REMARK minimizedAffinity -4.69090176
REMARK minimizedRMSD -1
REMARK  1 active torsions:
REMARK  status: ('A' for Active; 'I' for Inactive)
REMARK    1  A    between atoms: C1_2  and  C2_3 
ROOT
ATOM      1  C2  UNL d   1       1.077   0.458  -1.797  0.00  0.00    -0.077 A 
ATOM      2  C3  UNL d   1       0.105   1.343  -1.309  0.00  0.00     0.002 A 
ATOM      3  C4  UNL d   1      -0.550   1.078  -0.104  0.00  0.00     0.002 A 
ATOM      4  C5  UNL d   1      -0.237  -0.067   0.624  0.00  0.00    -0.004 A 
ATOM      5  C6  UNL d   1       0.727  -0.954   0.146  0.00  0.00     0.002 A 
ATOM      6  C7  UNL d   1       1.382  -0.692  -1.058  0.00  0.00     0.002 A 
ENDROOT
BRANCH   1   7
ATOM      7  C1  UNL d   1       1.819   0.767  -3.071  0.00  0.00     0.055 C 
ATOM      8  C   UNL d   1       0.900   0.685  -4.281  0.00  0.00     0.019 C 
ENDBRANCH   1   7
TORSDOF 1
ENDMDL
