MODEL 1
REMARK minimizedAffinity -1.90516698
REMARK minimizedRMSD -1
REMARK  1 active torsions:
REMARK  status: ('A' for Active; 'I' for Inactive)
REMARK    1  A    between atoms: C1_2  and  C2_3 
ROOT
ATOM      1  C2  UNL d   1       0.451  -0.113  -1.459  0.00  0.00    -0.077 A 
ATOM      2  C3  UNL d   1       1.665   0.456  -1.871  0.00  0.00     0.002 A 
ATOM      3  C4  UNL d   1       1.952   0.600  -3.230  0.00  0.00     0.002 A 
ATOM      4  C5  UNL d   1       1.028   0.184  -4.187  0.00  0.00    -0.004 A 
ATOM      5  C6  UNL d   1      -0.180  -0.385  -3.787  0.00  0.00     0.002 A 
ATOM      6  C7  UNL d   1      -0.468  -0.531  -2.429  0.00  0.00     0.002 A 
ENDROOT
BRANCH   1   7
ATOM      7  C1  UNL d   1       0.119  -0.224   0.006  0.00  0.00     0.055 C 
ATOM      8  C   UNL d   1      -1.196   0.469   0.330  0.00  0.00     0.019 C 
ENDBRANCH   1   7
TORSDOF 1
ENDMDL
