MODEL 1
REMARK minimizedAffinity -4.51158667
REMARK minimizedRMSD -1
REMARK  1 active torsions:
REMARK  status: ('A' for Active; 'I' for Inactive)
REMARK    1  A    between atoms: C1_2  and  C2_3 
ROOT
ATOM      1  C2  UNL d   1       0.617   0.375  -1.551  0.00  0.00    -0.077 A 
ATOM      2  C3  UNL d   1      -0.012   1.505  -1.010  0.00  0.00     0.002 A 
ATOM      3  C4  UNL d   1      -0.974   1.365  -0.008  0.00  0.00     0.002 A 
ATOM      4  C5  UNL d   1      -1.313   0.099   0.464  0.00  0.00    -0.004 A 
ATOM      5  C6  UNL d   1      -0.694  -1.031  -0.070  0.00  0.00     0.002 A 
ATOM      6  C7  UNL d   1       0.267  -0.894  -1.072  0.00  0.00     0.002 A 
ENDROOT
BRANCH   1   7
ATOM      7  C1  UNL d   1       1.691   0.526  -2.597  0.00  0.00     0.055 C 
ATOM      8  C   UNL d   1       1.120   0.387  -4.001  0.00  0.00     0.019 C 
ENDBRANCH   1   7
TORSDOF 1
ENDMDL
