MODEL 1
REMARK minimizedAffinity -4.89476967
REMARK minimizedRMSD -1
REMARK  1 active torsions:
REMARK  status: ('A' for Active; 'I' for Inactive)
REMARK    1  A    between atoms: C1_2  and  C2_3 
ROOT
ATOM      1  C2  UNL d   1       0.310  -0.361  -0.067  0.00  0.00    -0.077 A 
ATOM      2  C3  UNL d   1       0.830  -0.648   1.203  0.00  0.00     0.002 A 
ATOM      3  C4  UNL d   1       0.116  -0.303   2.352  0.00  0.00     0.002 A 
ATOM      4  C5  UNL d   1      -1.122   0.326   2.243  0.00  0.00    -0.004 A 
ATOM      5  C6  UNL d   1      -1.647   0.617   0.985  0.00  0.00     0.002 A 
ATOM      6  C7  UNL d   1      -0.934   0.275  -0.165  0.00  0.00     0.002 A 
ENDROOT
BRANCH   1   7
ATOM      7  C1  UNL d   1       1.055  -0.776  -1.309  0.00  0.00     0.055 C 
ATOM      8  C   UNL d   1       0.949   0.281  -2.398  0.00  0.00     0.019 C 
ENDBRANCH   1   7
TORSDOF 1
ENDMDL
