MODEL 1
REMARK minimizedAffinity -4.59686756
REMARK minimizedRMSD -1
REMARK  1 active torsions:
REMARK  status: ('A' for Active; 'I' for Inactive)
REMARK    1  A    between atoms: C1_2  and  C2_3 
ROOT
ATOM      1  C2  UNL d   1      -0.151   0.140   2.517  0.00  0.00    -0.077 A 
ATOM      2  C3  UNL d   1       0.365  -0.329   1.301  0.00  0.00     0.002 A 
ATOM      3  C4  UNL d   1      -0.348  -0.144   0.114  0.00  0.00     0.002 A 
ATOM      4  C5  UNL d   1      -1.577   0.511   0.132  0.00  0.00    -0.004 A 
ATOM      5  C6  UNL d   1      -2.099   0.979   1.338  0.00  0.00     0.002 A 
ATOM      6  C7  UNL d   1      -1.389   0.795   2.525  0.00  0.00     0.002 A 
ENDROOT
BRANCH   1   7
ATOM      7  C1  UNL d   1       0.639  -0.014   3.791  0.00  0.00     0.055 C 
ATOM      8  C   UNL d   1       1.983  -0.679   3.532  0.00  0.00     0.019 C 
ENDBRANCH   1   7
TORSDOF 1
ENDMDL
