MODEL 1
REMARK minimizedAffinity -4.8460331
REMARK minimizedRMSD -1
REMARK  1 active torsions:
REMARK  status: ('A' for Active; 'I' for Inactive)
REMARK    1  A    between atoms: C1_2  and  C2_3 
ROOT
ATOM      1  C2  UNL d   1      -0.346  -0.509  -0.233  0.00  0.00    -0.077 A 
ATOM      2  C3  UNL d   1      -1.666  -0.037  -0.260  0.00  0.00     0.002 A 
ATOM      3  C4  UNL d   1      -2.257   0.475   0.897  0.00  0.00     0.002 A 
ATOM      4  C5  UNL d   1      -1.535   0.523   2.087  0.00  0.00    -0.004 A 
ATOM      5  C6  UNL d   1      -0.222   0.054   2.125  0.00  0.00     0.002 A 
ATOM      6  C7  UNL d   1       0.370  -0.458   0.970  0.00  0.00     0.002 A 
ENDROOT
BRANCH   1   7
ATOM      7  C1  UNL d   1       0.310  -1.015  -1.491  0.00  0.00     0.055 C 
ATOM      8  C   UNL d   1       0.825   0.133  -2.347  0.00  0.00     0.019 C 
ENDBRANCH   1   7
TORSDOF 1
ENDMDL
