MODEL 1
REMARK minimizedAffinity -1.42141283
REMARK minimizedRMSD -1
REMARK  1 active torsions:
REMARK  status: ('A' for Active; 'I' for Inactive)
REMARK    1  A    between atoms: C3_4  and  O_7 
ROOT
ATOM      1  C   UNL d   1       0.700   0.834   1.078  0.00  0.00    -0.033 A 
ATOM      2  C1  UNL d   1       0.888  -0.024  -0.008  0.00  0.00     0.039 A 
ATOM      3  C2  UNL d   1       1.192   0.497  -1.267  0.00  0.00    -0.080 A 
ATOM      4  C3  UNL d   1       1.305   1.876  -1.427  0.00  0.00     0.150 A 
ATOM      5  C4  UNL d   1       1.122   2.736  -0.349  0.00  0.00    -0.007 A 
ATOM      6  C5  UNL d   1       0.818   2.213   0.908  0.00  0.00     0.039 A 
ENDROOT
BRANCH   4   7
ATOM      7  O   UNL d   1       1.594   2.431  -2.637  0.00  0.00    -0.526 OA
ATOM      8  H5  UNL d   1       1.665   1.718  -3.294  0.00  0.00     0.418 HD
ENDBRANCH   4   7
TORSDOF 1
ENDMDL
