MODEL 1
REMARK minimizedAffinity -4.45650864
REMARK minimizedRMSD -1
REMARK  1 active torsions:
REMARK  status: ('A' for Active; 'I' for Inactive)
REMARK    1  A    between atoms: C3_4  and  O_7 
ROOT
ATOM      1  C   UNL d   1       1.539   2.262  -0.629  0.00  0.00    -0.033 A 
ATOM      2  C1  UNL d   1       1.843   1.639  -1.841  0.00  0.00     0.039 A 
ATOM      3  C2  UNL d   1       1.632   0.268  -1.996  0.00  0.00    -0.080 A 
ATOM      4  C3  UNL d   1       1.117  -0.468  -0.932  0.00  0.00     0.150 A 
ATOM      5  C4  UNL d   1       0.808   0.146   0.277  0.00  0.00    -0.007 A 
ATOM      6  C5  UNL d   1       1.021   1.516   0.430  0.00  0.00     0.039 A 
ENDROOT
BRANCH   4   7
ATOM      7  O   UNL d   1       0.898  -1.810  -1.034  0.00  0.00    -0.526 OA
ATOM      8  H5  UNL d   1       1.184  -2.102  -1.916  0.00  0.00     0.418 HD
ENDBRANCH   4   7
TORSDOF 1
ENDMDL
