MODEL 1
REMARK minimizedAffinity -1.79628026
REMARK minimizedRMSD -1
REMARK  1 active torsions:
REMARK  status: ('A' for Active; 'I' for Inactive)
REMARK    1  A    between atoms: C3_4  and  O_7 
ROOT
ATOM      1  C   UNL d   1       0.571   0.716  -0.939  0.00  0.00    -0.033 A 
ATOM      2  C1  UNL d   1       0.645   1.333   0.311  0.00  0.00     0.039 A 
ATOM      3  C2  UNL d   1       1.006   2.678   0.407  0.00  0.00    -0.080 A 
ATOM      4  C3  UNL d   1       1.287   3.395  -0.753  0.00  0.00     0.150 A 
ATOM      5  C4  UNL d   1       1.211   2.787  -2.002  0.00  0.00    -0.007 A 
ATOM      6  C5  UNL d   1       0.852   1.443  -2.096  0.00  0.00     0.039 A 
ENDROOT
BRANCH   4   7
ATOM      7  O   UNL d   1       1.648   4.709  -0.709  0.00  0.00    -0.526 OA
ATOM      8  H5  UNL d   1       1.686   4.986   0.222  0.00  0.00     0.418 HD
ENDBRANCH   4   7
TORSDOF 1
ENDMDL
