MODEL 1
REMARK minimizedAffinity -5.2802124
REMARK minimizedRMSD -1
REMARK  1 active torsions:
REMARK  status: ('A' for Active; 'I' for Inactive)
REMARK    1  A    between atoms: C3_4  and  O_7 
ROOT
ATOM      1  C   UNL d   1       1.114   1.018  -0.143  0.00  0.00    -0.033 A 
ATOM      2  C1  UNL d   1       0.820   2.098   0.691  0.00  0.00     0.039 A 
ATOM      3  C2  UNL d   1       1.058   3.403   0.255  0.00  0.00    -0.080 A 
ATOM      4  C3  UNL d   1       1.588   3.614  -1.015  0.00  0.00     0.150 A 
ATOM      5  C4  UNL d   1       1.879   2.543  -1.852  0.00  0.00    -0.007 A 
ATOM      6  C5  UNL d   1       1.642   1.240  -1.415  0.00  0.00     0.039 A 
ENDROOT
BRANCH   4   7
ATOM      7  O   UNL d   1       1.841   4.870  -1.482  0.00  0.00    -0.526 OA
ATOM      8  H5  UNL d   1       1.618   5.508  -0.784  0.00  0.00     0.418 HD
ENDBRANCH   4   7
TORSDOF 1
ENDMDL
