MODEL 1
REMARK minimizedAffinity -3.2383852
REMARK minimizedRMSD -1
REMARK  1 active torsions:
REMARK  status: ('A' for Active; 'I' for Inactive)
REMARK    1  A    between atoms: C3_4  and  O_7 
ROOT
ATOM      1  C   UNL d   1       1.167   2.192  -1.044  0.00  0.00    -0.033 A 
ATOM      2  C1  UNL d   1       1.105   1.329  -2.139  0.00  0.00     0.039 A 
ATOM      3  C2  UNL d   1       1.108  -0.054  -1.943  0.00  0.00    -0.080 A 
ATOM      4  C3  UNL d   1       1.172  -0.559  -0.647  0.00  0.00     0.150 A 
ATOM      5  C4  UNL d   1       1.229   0.294   0.449  0.00  0.00    -0.007 A 
ATOM      6  C5  UNL d   1       1.227   1.674   0.251  0.00  0.00     0.039 A 
ENDROOT
BRANCH   4   7
ATOM      7  O   UNL d   1       1.182  -1.901  -0.406  0.00  0.00    -0.526 OA
ATOM      8  H5  UNL d   1       1.166  -2.367  -1.259  0.00  0.00     0.418 HD
ENDBRANCH   4   7
TORSDOF 1
ENDMDL
