MODEL 1
REMARK minimizedAffinity -3.34033823
REMARK minimizedRMSD -1
REMARK  1 active torsions:
REMARK  status: ('A' for Active; 'I' for Inactive)
REMARK    1  A    between atoms: C3_4  and  O_7 
ROOT
ATOM      1  C   UNL d   1       1.382  -0.611  -0.311  0.00  0.00    -0.033 A 
ATOM      2  C1  UNL d   1       0.691   0.018  -1.349  0.00  0.00     0.039 A 
ATOM      3  C2  UNL d   1       0.588   1.410  -1.379  0.00  0.00    -0.080 A 
ATOM      4  C3  UNL d   1       1.180   2.161  -0.367  0.00  0.00     0.150 A 
ATOM      5  C4  UNL d   1       1.873   1.541   0.668  0.00  0.00    -0.007 A 
ATOM      6  C5  UNL d   1       1.974   0.151   0.696  0.00  0.00     0.039 A 
ENDROOT
BRANCH   4   7
ATOM      7  O   UNL d   1       1.103   3.522  -0.351  0.00  0.00    -0.526 OA
ATOM      8  H5  UNL d   1       0.570   3.809  -1.111  0.00  0.00     0.418 HD
ENDBRANCH   4   7
TORSDOF 1
ENDMDL
