MODEL 1
REMARK minimizedAffinity -3.66397285
REMARK minimizedRMSD -1
REMARK  1 active torsions:
REMARK  status: ('A' for Active; 'I' for Inactive)
REMARK    1  A    between atoms: C3_4  and  O_7 
ROOT
ATOM      1  C   UNL d   1       1.904   2.764   0.198  0.00  0.00    -0.033 A 
ATOM      2  C1  UNL d   1       2.892   1.781   0.280  0.00  0.00     0.039 A 
ATOM      3  C2  UNL d   1       2.751   0.585  -0.427  0.00  0.00    -0.080 A 
ATOM      4  C3  UNL d   1       1.619   0.386  -1.212  0.00  0.00     0.150 A 
ATOM      5  C4  UNL d   1       0.633   1.363  -1.302  0.00  0.00    -0.007 A 
ATOM      6  C5  UNL d   1       0.775   2.555  -0.594  0.00  0.00     0.039 A 
ENDROOT
BRANCH   4   7
ATOM      7  O   UNL d   1       1.435  -0.766  -1.917  0.00  0.00    -0.526 OA
ATOM      8  H5  UNL d   1       2.182  -1.361  -1.737  0.00  0.00     0.418 HD
ENDBRANCH   4   7
TORSDOF 1
ENDMDL
