MODEL 1
REMARK minimizedAffinity -3.03215194
REMARK minimizedRMSD -1
REMARK  1 active torsions:
REMARK  status: ('A' for Active; 'I' for Inactive)
REMARK    1  A    between atoms: C3_4  and  O_7 
ROOT
ATOM      1  C   UNL d   1       1.212  -3.466  -0.029  0.00  0.00    -0.033 A 
ATOM      2  C1  UNL d   1       0.317  -3.144  -1.051  0.00  0.00     0.039 A 
ATOM      3  C2  UNL d   1       0.256  -1.838  -1.543  0.00  0.00    -0.080 A 
ATOM      4  C3  UNL d   1       1.095  -0.866  -1.005  0.00  0.00     0.150 A 
ATOM      5  C4  UNL d   1       1.992  -1.180   0.010  0.00  0.00    -0.007 A 
ATOM      6  C5  UNL d   1       2.050  -2.484   0.501  0.00  0.00     0.039 A 
ENDROOT
BRANCH   4   7
ATOM      7  O   UNL d   1       1.068   0.423  -1.449  0.00  0.00    -0.526 OA
ATOM      8  H5  UNL d   1       0.380   0.499  -2.132  0.00  0.00     0.418 HD
ENDBRANCH   4   7
TORSDOF 1
ENDMDL
