MODEL 1
REMARK minimizedAffinity -2.6120348
REMARK minimizedRMSD -1
REMARK  1 active torsions:
REMARK  status: ('A' for Active; 'I' for Inactive)
REMARK    1  A    between atoms: C3_4  and  O_7 
ROOT
ATOM      1  C   UNL d   1       0.950   2.275  -0.889  0.00  0.00    -0.033 A 
ATOM      2  C1  UNL d   1       0.933   1.347  -1.932  0.00  0.00     0.039 A 
ATOM      3  C2  UNL d   1       0.888  -0.020  -1.652  0.00  0.00    -0.080 A 
ATOM      4  C3  UNL d   1       0.860  -0.445  -0.326  0.00  0.00     0.150 A 
ATOM      5  C4  UNL d   1       0.873   0.474   0.718  0.00  0.00    -0.007 A 
ATOM      6  C5  UNL d   1       0.919   1.839   0.435  0.00  0.00     0.039 A 
ENDROOT
BRANCH   4   7
ATOM      7  O   UNL d   1       0.820  -1.769  -0.003  0.00  0.00    -0.526 OA
ATOM      8  H5  UNL d   1       0.845  -2.287  -0.825  0.00  0.00     0.418 HD
ENDBRANCH   4   7
TORSDOF 1
ENDMDL
