MODEL 1
REMARK minimizedAffinity 1.21688855
REMARK minimizedRMSD -1
REMARK  1 active torsions:
REMARK  status: ('A' for Active; 'I' for Inactive)
REMARK    1  A    between atoms: C3_4  and  O_7 
ROOT
ATOM      1  C   UNL d   1       1.047   1.725  -0.213  0.00  0.00    -0.033 A 
ATOM      2  C1  UNL d   1       1.622   0.996   0.830  0.00  0.00     0.039 A 
ATOM      3  C2  UNL d   1       1.643  -0.399   0.781  0.00  0.00    -0.080 A 
ATOM      4  C3  UNL d   1       1.088  -1.053  -0.316  0.00  0.00     0.150 A 
ATOM      5  C4  UNL d   1       0.518  -0.333  -1.361  0.00  0.00    -0.007 A 
ATOM      6  C5  UNL d   1       0.497   1.060  -1.309  0.00  0.00     0.039 A 
ENDROOT
BRANCH   4   7
ATOM      7  O   UNL d   1       1.081  -2.413  -0.407  0.00  0.00    -0.526 OA
ATOM      8  H5  UNL d   1       1.482  -2.777   0.399  0.00  0.00     0.418 HD
ENDBRANCH   4   7
TORSDOF 1
ENDMDL
