MODEL 1
REMARK minimizedAffinity -4.16263056
REMARK minimizedRMSD -1
REMARK  1 active torsions:
REMARK  status: ('A' for Active; 'I' for Inactive)
REMARK    1  A    between atoms: C3_4  and  O_7 
ROOT
ATOM      1  C   UNL d   1       1.539   0.716  -0.398  0.00  0.00    -0.033 A 
ATOM      2  C1  UNL d   1       1.460   1.369  -1.629  0.00  0.00     0.039 A 
ATOM      3  C2  UNL d   1       1.443   2.764  -1.681  0.00  0.00    -0.080 A 
ATOM      4  C3  UNL d   1       1.508   3.493  -0.497  0.00  0.00     0.150 A 
ATOM      5  C4  UNL d   1       1.591   2.849   0.733  0.00  0.00    -0.007 A 
ATOM      6  C5  UNL d   1       1.607   1.455   0.783  0.00  0.00     0.039 A 
ENDROOT
BRANCH   4   7
ATOM      7  O   UNL d   1       1.490   4.856  -0.497  0.00  0.00    -0.526 OA
ATOM      8  H5  UNL d   1       1.401   5.163  -1.415  0.00  0.00     0.418 HD
ENDBRANCH   4   7
TORSDOF 1
ENDMDL
