MODEL 1
REMARK minimizedAffinity -4.03454304
REMARK minimizedRMSD -1
REMARK  1 active torsions:
REMARK  status: ('A' for Active; 'I' for Inactive)
REMARK    1  A    between atoms: C3_4  and  O_7 
ROOT
ATOM      1  C   UNL d   1       0.778   0.355  -0.394  0.00  0.00    -0.033 A 
ATOM      2  C1  UNL d   1       1.063   0.844  -1.670  0.00  0.00     0.039 A 
ATOM      3  C2  UNL d   1       1.384   2.191  -1.848  0.00  0.00    -0.080 A 
ATOM      4  C3  UNL d   1       1.417   3.037  -0.743  0.00  0.00     0.150 A 
ATOM      5  C4  UNL d   1       1.138   2.556   0.532  0.00  0.00    -0.007 A 
ATOM      6  C5  UNL d   1       0.817   1.210   0.707  0.00  0.00     0.039 A 
ENDROOT
BRANCH   4   7
ATOM      7  O   UNL d   1       1.721   4.360  -0.867  0.00  0.00    -0.526 OA
ATOM      8  H5  UNL d   1       1.863   4.556  -1.809  0.00  0.00     0.418 HD
ENDBRANCH   4   7
TORSDOF 1
ENDMDL
