MODEL 1
REMARK minimizedAffinity -1.34124148
REMARK minimizedRMSD -1
REMARK  1 active torsions:
REMARK  status: ('A' for Active; 'I' for Inactive)
REMARK    1  A    between atoms: C3_4  and  O_7 
ROOT
ATOM      1  C   UNL d   1       1.687   2.579  -1.284  0.00  0.00    -0.033 A 
ATOM      2  C1  UNL d   1       0.916   2.595  -0.120  0.00  0.00     0.039 A 
ATOM      3  C2  UNL d   1       0.498   1.396   0.459  0.00  0.00    -0.080 A 
ATOM      4  C3  UNL d   1       0.859   0.189  -0.134  0.00  0.00     0.150 A 
ATOM      5  C4  UNL d   1       1.630   0.165  -1.291  0.00  0.00    -0.007 A 
ATOM      6  C5  UNL d   1       2.045   1.364  -1.869  0.00  0.00     0.039 A 
ENDROOT
BRANCH   4   7
ATOM      7  O   UNL d   1       0.471  -1.008   0.392  0.00  0.00    -0.526 OA
ATOM      8  H5  UNL d   1      -0.081  -0.836   1.174  0.00  0.00     0.418 HD
ENDBRANCH   4   7
TORSDOF 1
ENDMDL
