MODEL 1
REMARK minimizedAffinity -4.5814023
REMARK minimizedRMSD -1
REMARK  1 active torsions:
REMARK  status: ('A' for Active; 'I' for Inactive)
REMARK    1  A    between atoms: C3_4  and  O_7 
ROOT
ATOM      1  C   UNL d   1       0.499   0.301  -0.532  0.00  0.00    -0.033 A 
ATOM      2  C1  UNL d   1       0.291   0.793  -1.822  0.00  0.00     0.039 A 
ATOM      3  C2  UNL d   1       0.707   2.084  -2.154  0.00  0.00    -0.080 A 
ATOM      4  C3  UNL d   1       1.331   2.870  -1.189  0.00  0.00     0.150 A 
ATOM      5  C4  UNL d   1       1.545   2.384   0.097  0.00  0.00    -0.007 A 
ATOM      6  C5  UNL d   1       1.127   1.096   0.427  0.00  0.00     0.039 A 
ENDROOT
BRANCH   4   7
ATOM      7  O   UNL d   1       1.751   4.137  -1.465  0.00  0.00    -0.526 OA
ATOM      8  H5  UNL d   1       1.511   4.348  -2.382  0.00  0.00     0.418 HD
ENDBRANCH   4   7
TORSDOF 1
ENDMDL
