MODEL 1
REMARK minimizedAffinity -0.748596251
REMARK minimizedRMSD -1
REMARK  1 active torsions:
REMARK  status: ('A' for Active; 'I' for Inactive)
REMARK    1  A    between atoms: C3_4  and  O_7 
ROOT
ATOM      1  C   UNL d   1       0.970   0.315   0.018  0.00  0.00    -0.033 A 
ATOM      2  C1  UNL d   1       0.844   0.428  -1.368  0.00  0.00     0.039 A 
ATOM      3  C2  UNL d   1       1.178   1.623  -2.006  0.00  0.00    -0.080 A 
ATOM      4  C3  UNL d   1       1.637   2.698  -1.249  0.00  0.00     0.150 A 
ATOM      5  C4  UNL d   1       1.769   2.592   0.132  0.00  0.00    -0.007 A 
ATOM      6  C5  UNL d   1       1.434   1.397   0.768  0.00  0.00     0.039 A 
ENDROOT
BRANCH   4   7
ATOM      7  O   UNL d   1       1.971   3.886  -1.827  0.00  0.00    -0.526 OA
ATOM      8  H5  UNL d   1       1.802   3.822  -2.782  0.00  0.00     0.418 HD
ENDBRANCH   4   7
TORSDOF 1
ENDMDL
