MODEL 1
REMARK minimizedAffinity -4.97639179
REMARK minimizedRMSD -1
REMARK  1 active torsions:
REMARK  status: ('A' for Active; 'I' for Inactive)
REMARK    1  A    between atoms: C1_2  and  C2_3 
ROOT
ATOM      1  C2  UNL d   1      -0.558   1.026  -0.336  0.00  0.00    -0.073 A 
ATOM      2  C3  UNL d   1      -1.128   2.076   0.392  0.00  0.00    -0.002 A 
ATOM      3  C4  UNL d   1      -0.781   2.277   1.729  0.00  0.00     0.004 A 
ATOM      4  C5  UNL d   1       0.143   1.436   2.348  0.00  0.00    -0.004 A 
ATOM      5  C6  UNL d   1       0.733   0.389   1.634  0.00  0.00    -0.075 A 
ATOM      6  C7  UNL d   1       1.728  -0.526   2.286  0.00  0.00     0.076 C 
ATOM      7  C8  UNL d   1       0.377   0.192   0.293  0.00  0.00     0.001 A 
ENDROOT
BRANCH   1   8
ATOM      8  C1  UNL d   1      -0.925   0.809  -1.781  0.00  0.00     0.053 C 
ATOM      9  C   UNL d   1      -1.124   2.122  -2.522  0.00  0.00     0.018 C 
ENDBRANCH   1   8
TORSDOF 1
ENDMDL
