MODEL 1
REMARK minimizedAffinity -4.45396519
REMARK minimizedRMSD -1
REMARK  1 active torsions:
REMARK  status: ('A' for Active; 'I' for Inactive)
REMARK    1  A    between atoms: C1_2  and  C2_3 
ROOT
ATOM      1  C2  UNL d   1      -0.255  -0.736  -1.101  0.00  0.00    -0.073 A 
ATOM      2  C3  UNL d   1      -0.275   0.120  -2.208  0.00  0.00    -0.002 A 
ATOM      3  C4  UNL d   1      -0.509   1.486  -2.038  0.00  0.00     0.004 A 
ATOM      4  C5  UNL d   1      -0.717   2.009  -0.762  0.00  0.00    -0.004 A 
ATOM      5  C6  UNL d   1      -0.689   1.171   0.357  0.00  0.00    -0.075 A 
ATOM      6  C7  UNL d   1      -0.914   1.718   1.736  0.00  0.00     0.076 C 
ATOM      7  C8  UNL d   1      -0.456  -0.200   0.178  0.00  0.00     0.001 A 
ENDROOT
BRANCH   1   8
ATOM      8  C1  UNL d   1       0.003  -2.210  -1.279  0.00  0.00     0.053 C 
ATOM      9  C   UNL d   1      -1.172  -2.920  -1.931  0.00  0.00     0.018 C 
ENDBRANCH   1   8
TORSDOF 1
ENDMDL
