MODEL 1
REMARK minimizedAffinity -3.15326715
REMARK minimizedRMSD -1
REMARK  1 active torsions:
REMARK  status: ('A' for Active; 'I' for Inactive)
REMARK    1  A    between atoms: C1_2  and  C2_3 
ROOT
ATOM      1  C2  UNL d   1       0.061  -0.782  -0.627  0.00  0.00    -0.073 A 
ATOM      2  C3  UNL d   1       0.066   0.001  -1.787  0.00  0.00    -0.002 A 
ATOM      3  C4  UNL d   1      -0.413   1.311  -1.755  0.00  0.00     0.004 A 
ATOM      4  C5  UNL d   1      -0.895   1.854  -0.563  0.00  0.00    -0.004 A 
ATOM      5  C6  UNL d   1      -0.897   1.091   0.609  0.00  0.00    -0.075 A 
ATOM      6  C7  UNL d   1      -1.414   1.658   1.898  0.00  0.00     0.076 C 
ATOM      7  C8  UNL d   1      -0.417  -0.225   0.568  0.00  0.00     0.001 A 
ENDROOT
BRANCH   1   8
ATOM      8  C1  UNL d   1       0.583  -2.195  -0.656  0.00  0.00     0.053 C 
ATOM      9  C   UNL d   1      -0.453  -3.175  -1.184  0.00  0.00     0.018 C 
ENDBRANCH   1   8
TORSDOF 1
ENDMDL
