MODEL 1
REMARK minimizedAffinity 2.09297729
REMARK minimizedRMSD -1
REMARK  1 active torsions:
REMARK  status: ('A' for Active; 'I' for Inactive)
REMARK    1  A    between atoms: C1_2  and  C2_3 
ROOT
ATOM      1  C2  UNL d   1       0.515   0.735   0.418  0.00  0.00    -0.073 A 
ATOM      2  C3  UNL d   1       0.004   2.009   0.689  0.00  0.00    -0.002 A 
ATOM      3  C4  UNL d   1      -0.298   2.383   1.999  0.00  0.00     0.004 A 
ATOM      4  C5  UNL d   1      -0.086   1.492   3.050  0.00  0.00    -0.004 A 
ATOM      5  C6  UNL d   1       0.435   0.218   2.801  0.00  0.00    -0.075 A 
ATOM      6  C7  UNL d   1       0.667  -0.754   3.920  0.00  0.00     0.076 C 
ATOM      7  C8  UNL d   1       0.733  -0.151   1.482  0.00  0.00     0.001 A 
ENDROOT
BRANCH   1   8
ATOM      8  C1  UNL d   1       0.849   0.328  -0.995  0.00  0.00     0.053 C 
ATOM      9  C   UNL d   1       1.180  -1.152  -1.099  0.00  0.00     0.018 C 
ENDBRANCH   1   8
TORSDOF 1
ENDMDL
