MODEL 1
REMARK minimizedAffinity -5.98019695
REMARK minimizedRMSD -1
REMARK  1 active torsions:
REMARK  status: ('A' for Active; 'I' for Inactive)
REMARK    1  A    between atoms: C1_2  and  C2_3 
ROOT
ATOM      1  C2  UNL d   1      -0.735   2.192   0.182  0.00  0.00    -0.073 A 
ATOM      2  C3  UNL d   1      -0.544   2.268   1.567  0.00  0.00    -0.002 A 
ATOM      3  C4  UNL d   1      -0.202   1.128   2.295  0.00  0.00     0.004 A 
ATOM      4  C5  UNL d   1      -0.041  -0.096   1.647  0.00  0.00    -0.004 A 
ATOM      5  C6  UNL d   1      -0.215  -0.190   0.263  0.00  0.00    -0.075 A 
ATOM      6  C7  UNL d   1      -0.047  -1.501  -0.449  0.00  0.00     0.076 C 
ATOM      7  C8  UNL d   1      -0.561   0.958  -0.461  0.00  0.00     0.001 A 
ENDROOT
BRANCH   1   8
ATOM      8  C1  UNL d   1      -1.098   3.422  -0.609  0.00  0.00     0.053 C 
ATOM      9  C   UNL d   1      -0.637   3.326  -2.055  0.00  0.00     0.018 C 
ENDBRANCH   1   8
TORSDOF 1
ENDMDL
