MODEL 1
REMARK minimizedAffinity 0.527799845
REMARK minimizedRMSD -1
REMARK  1 active torsions:
REMARK  status: ('A' for Active; 'I' for Inactive)
REMARK    1  A    between atoms: C1_2  and  C2_3 
ROOT
ATOM      1  C2  UNL d   1       1.142  -1.021   0.621  0.00  0.00    -0.073 A 
ATOM      2  C3  UNL d   1       1.045  -1.720   1.829  0.00  0.00    -0.002 A 
ATOM      3  C4  UNL d   1       0.635  -1.065   2.991  0.00  0.00     0.004 A 
ATOM      4  C5  UNL d   1       0.312   0.292   2.956  0.00  0.00    -0.004 A 
ATOM      5  C6  UNL d   1       0.392   1.004   1.755  0.00  0.00    -0.075 A 
ATOM      6  C7  UNL d   1       0.050   2.464   1.700  0.00  0.00     0.076 C 
ATOM      7  C8  UNL d   1       0.807   0.340   0.593  0.00  0.00     0.001 A 
ENDROOT
BRANCH   1   8
ATOM      8  C1  UNL d   1       1.578  -1.725  -0.638  0.00  0.00     0.053 C 
ATOM      9  C   UNL d   1       1.242  -3.208  -0.607  0.00  0.00     0.018 C 
ENDBRANCH   1   8
TORSDOF 1
ENDMDL
