MODEL 1
REMARK minimizedAffinity -3.89618945
REMARK minimizedRMSD -1
REMARK  1 active torsions:
REMARK  status: ('A' for Active; 'I' for Inactive)
REMARK    1  A    between atoms: C1_2  and  C2_3 
ROOT
ATOM      1  C2  UNL d   1       0.125   0.223   0.466  0.00  0.00    -0.073 A 
ATOM      2  C3  UNL d   1      -0.032   0.672   1.782  0.00  0.00    -0.002 A 
ATOM      3  C4  UNL d   1      -0.685   1.877   2.043  0.00  0.00     0.004 A 
ATOM      4  C5  UNL d   1      -1.193   2.642   0.993  0.00  0.00    -0.004 A 
ATOM      5  C6  UNL d   1      -1.056   2.205  -0.328  0.00  0.00    -0.075 A 
ATOM      6  C7  UNL d   1      -1.594   3.017  -1.469  0.00  0.00     0.076 C 
ATOM      7  C8  UNL d   1      -0.396   0.995  -0.582  0.00  0.00     0.001 A 
ENDROOT
BRANCH   1   8
ATOM      8  C1  UNL d   1       0.824  -1.081   0.180  0.00  0.00     0.053 C 
ATOM      9  C   UNL d   1       0.704  -1.483  -1.281  0.00  0.00     0.018 C 
ENDBRANCH   1   8
TORSDOF 1
ENDMDL
