MODEL 1
REMARK minimizedAffinity -3.8386693
REMARK minimizedRMSD -1
REMARK  1 active torsions:
REMARK  status: ('A' for Active; 'I' for Inactive)
REMARK    1  A    between atoms: C1_2  and  C2_3 
ROOT
ATOM      1  C2  UNL d   1      -0.846   1.252   0.211  0.00  0.00    -0.073 A 
ATOM      2  C3  UNL d   1       0.237   1.172   1.094  0.00  0.00    -0.002 A 
ATOM      3  C4  UNL d   1       0.938  -0.026   1.243  0.00  0.00     0.004 A 
ATOM      4  C5  UNL d   1       0.568  -1.151   0.506  0.00  0.00    -0.004 A 
ATOM      5  C6  UNL d   1      -0.503  -1.087  -0.390  0.00  0.00    -0.075 A 
ATOM      6  C7  UNL d   1      -0.915  -2.290  -1.188  0.00  0.00     0.076 C 
ATOM      7  C8  UNL d   1      -1.204   0.118  -0.532  0.00  0.00     0.001 A 
ENDROOT
BRANCH   1   8
ATOM      8  C1  UNL d   1      -1.602   2.545   0.042  0.00  0.00     0.053 C 
ATOM      9  C   UNL d   1      -1.644   3.353   1.330  0.00  0.00     0.018 C 
ENDBRANCH   1   8
TORSDOF 1
ENDMDL
