MODEL 1
REMARK minimizedAffinity -1.79831815
REMARK minimizedRMSD -1
REMARK  1 active torsions:
REMARK  status: ('A' for Active; 'I' for Inactive)
REMARK    1  A    between atoms: C1_2  and  C2_3 
ROOT
ATOM      1  C2  UNL d   1       0.110  -1.166  -1.084  0.00  0.00    -0.073 A 
ATOM      2  C3  UNL d   1       0.283  -0.481  -2.291  0.00  0.00    -0.002 A 
ATOM      3  C4  UNL d   1      -0.134   0.846  -2.414  0.00  0.00     0.004 A 
ATOM      4  C5  UNL d   1      -0.720   1.501  -1.332  0.00  0.00    -0.004 A 
ATOM      5  C6  UNL d   1      -0.891   0.836  -0.113  0.00  0.00    -0.075 A 
ATOM      6  C7  UNL d   1      -1.522   1.526   1.061  0.00  0.00     0.076 C 
ATOM      7  C8  UNL d   1      -0.472  -0.496   0.002  0.00  0.00     0.001 A 
ENDROOT
BRANCH   1   8
ATOM      8  C1  UNL d   1       0.564  -2.596  -0.944  0.00  0.00     0.053 C 
ATOM      9  C   UNL d   1      -0.114  -3.511  -1.952  0.00  0.00     0.018 C 
ENDBRANCH   1   8
TORSDOF 1
ENDMDL
