MODEL 1
REMARK minimizedAffinity 1.58942676
REMARK minimizedRMSD -1
REMARK  0 active torsions:
REMARK  status: ('A' for Active; 'I' for Inactive)
ROOT
ATOM      1  C   UNL d   1       2.902   1.484   0.962  0.00  0.00     0.078 C 
ATOM      2  C1  UNL d   1       2.173   2.644   0.353  0.00  0.00    -0.077 A 
ATOM      3  C2  UNL d   1       0.774   2.710   0.377  0.00  0.00    -0.001 A 
ATOM      4  C3  UNL d   1       0.109   3.792  -0.202  0.00  0.00     0.003 A 
ATOM      5  C4  UNL d   1       0.833   4.815  -0.811  0.00  0.00    -0.005 A 
ATOM      6  C5  UNL d   1       2.225   4.757  -0.841  0.00  0.00     0.003 A 
ATOM      7  C6  UNL d   1       2.892   3.676  -0.262  0.00  0.00    -0.001 A 
ENDROOT
TORSDOF 0
ENDMDL
