MODEL 1
REMARK minimizedAffinity 1.03813601
REMARK minimizedRMSD -1
REMARK  0 active torsions:
REMARK  status: ('A' for Active; 'I' for Inactive)
ROOT
ATOM      1  C   UNL d   1       3.299  -5.975  -2.081  0.00  0.00     0.078 C 
ATOM      2  C1  UNL d   1       3.910  -5.973  -3.451  0.00  0.00    -0.077 A 
ATOM      3  C2  UNL d   1       3.108  -5.992  -4.598  0.00  0.00    -0.001 A 
ATOM      4  C3  UNL d   1       3.690  -5.999  -5.867  0.00  0.00     0.003 A 
ATOM      5  C4  UNL d   1       5.077  -5.989  -6.000  0.00  0.00    -0.005 A 
ATOM      6  C5  UNL d   1       5.884  -5.972  -4.863  0.00  0.00     0.003 A 
ATOM      7  C6  UNL d   1       5.303  -5.965  -3.594  0.00  0.00    -0.001 A 
ENDROOT
TORSDOF 0
ENDMDL
