MODEL 1
REMARK minimizedAffinity 4.0445118
REMARK minimizedRMSD -1
REMARK  0 active torsions:
REMARK  status: ('A' for Active; 'I' for Inactive)
ROOT
ATOM      1  C   UNL d   1       5.998  -2.052   3.372  0.00  0.00     0.078 C 
ATOM      2  C1  UNL d   1       4.507  -1.921   3.470  0.00  0.00    -0.077 A 
ATOM      3  C2  UNL d   1       3.808  -1.019   2.659  0.00  0.00    -0.001 A 
ATOM      4  C3  UNL d   1       2.421  -0.900   2.768  0.00  0.00     0.003 A 
ATOM      5  C4  UNL d   1       1.722  -1.679   3.688  0.00  0.00    -0.005 A 
ATOM      6  C5  UNL d   1       2.410  -2.577   4.501  0.00  0.00     0.003 A 
ATOM      7  C6  UNL d   1       3.796  -2.698   4.393  0.00  0.00    -0.001 A 
ENDROOT
TORSDOF 0
ENDMDL
