MODEL 1
REMARK minimizedAffinity -0.368906528
REMARK minimizedRMSD -1
REMARK  0 active torsions:
REMARK  status: ('A' for Active; 'I' for Inactive)
ROOT
ATOM      1  C   UNL d   1       5.999  -1.900   4.324  0.00  0.00     0.078 C 
ATOM      2  C1  UNL d   1       4.514  -1.974   4.128  0.00  0.00    -0.077 A 
ATOM      3  C2  UNL d   1       3.865  -1.136   3.212  0.00  0.00    -0.001 A 
ATOM      4  C3  UNL d   1       2.481  -1.209   3.047  0.00  0.00     0.003 A 
ATOM      5  C4  UNL d   1       1.734  -2.117   3.795  0.00  0.00    -0.005 A 
ATOM      6  C5  UNL d   1       2.371  -2.953   4.710  0.00  0.00     0.003 A 
ATOM      7  C6  UNL d   1       3.755  -2.881   4.876  0.00  0.00    -0.001 A 
ENDROOT
TORSDOF 0
ENDMDL
