MODEL 1
REMARK minimizedAffinity 4.96227264
REMARK minimizedRMSD -1
REMARK  0 active torsions:
REMARK  status: ('A' for Active; 'I' for Inactive)
ROOT
ATOM      1  C   UNL d   1       2.290   0.584   2.599  0.00  0.00     0.078 C 
ATOM      2  C1  UNL d   1       2.466  -0.663   3.413  0.00  0.00    -0.077 A 
ATOM      3  C2  UNL d   1       1.372  -1.478   3.729  0.00  0.00    -0.001 A 
ATOM      4  C3  UNL d   1       1.549  -2.631   4.497  0.00  0.00     0.003 A 
ATOM      5  C4  UNL d   1       2.818  -2.978   4.955  0.00  0.00    -0.005 A 
ATOM      6  C5  UNL d   1       3.912  -2.172   4.647  0.00  0.00     0.003 A 
ATOM      7  C6  UNL d   1       3.737  -1.019   3.880  0.00  0.00    -0.001 A 
ENDROOT
TORSDOF 0
ENDMDL
