MODEL 1
REMARK minimizedAffinity 9.86942387
REMARK minimizedRMSD -1
REMARK  0 active torsions:
REMARK  status: ('A' for Active; 'I' for Inactive)
ROOT
ATOM      1  C   UNL d   1      -5.972   4.903  -0.680  0.00  0.00     0.078 C 
ATOM      2  C1  UNL d   1      -5.199   4.075   0.302  0.00  0.00    -0.077 A 
ATOM      3  C2  UNL d   1      -5.794   3.612   1.482  0.00  0.00    -0.001 A 
ATOM      4  C3  UNL d   1      -5.059   2.850   2.391  0.00  0.00     0.003 A 
ATOM      5  C4  UNL d   1      -3.725   2.545   2.131  0.00  0.00    -0.005 A 
ATOM      6  C5  UNL d   1      -3.123   3.003   0.961  0.00  0.00     0.003 A 
ATOM      7  C6  UNL d   1      -3.856   3.765   0.050  0.00  0.00    -0.001 A 
ENDROOT
TORSDOF 0
ENDMDL
