MODEL 1
REMARK minimizedAffinity 0.989168763
REMARK minimizedRMSD -1
REMARK  0 active torsions:
REMARK  status: ('A' for Active; 'I' for Inactive)
ROOT
ATOM      1  C   UNL d   1       5.994  -1.957   5.005  0.00  0.00     0.078 C 
ATOM      2  C1  UNL d   1       4.581  -2.005   4.506  0.00  0.00    -0.077 A 
ATOM      3  C2  UNL d   1       4.056  -0.969   3.724  0.00  0.00    -0.001 A 
ATOM      4  C3  UNL d   1       2.736  -1.023   3.274  0.00  0.00     0.003 A 
ATOM      5  C4  UNL d   1       1.929  -2.111   3.602  0.00  0.00    -0.005 A 
ATOM      6  C5  UNL d   1       2.442  -3.146   4.381  0.00  0.00     0.003 A 
ATOM      7  C6  UNL d   1       3.762  -3.094   4.832  0.00  0.00    -0.001 A 
ENDROOT
TORSDOF 0
ENDMDL
