MODEL 1
REMARK minimizedAffinity -1.14237452
REMARK minimizedRMSD -1
REMARK  0 active torsions:
REMARK  status: ('A' for Active; 'I' for Inactive)
ROOT
ATOM      1  C   UNL d   1       5.624  -2.571   6.000  0.00  0.00     0.078 C 
ATOM      2  C1  UNL d   1       4.517  -2.081   5.115  0.00  0.00    -0.077 A 
ATOM      3  C2  UNL d   1       3.268  -1.735   5.646  0.00  0.00    -0.001 A 
ATOM      4  C3  UNL d   1       2.244  -1.289   4.809  0.00  0.00     0.003 A 
ATOM      5  C4  UNL d   1       2.458  -1.186   3.436  0.00  0.00    -0.005 A 
ATOM      6  C5  UNL d   1       3.696  -1.530   2.898  0.00  0.00     0.003 A 
ATOM      7  C6  UNL d   1       4.721  -1.976   3.733  0.00  0.00    -0.001 A 
ENDROOT
TORSDOF 0
ENDMDL
