MODEL 1
REMARK minimizedAffinity 3.89552236
REMARK minimizedRMSD -1
REMARK  0 active torsions:
REMARK  status: ('A' for Active; 'I' for Inactive)
ROOT
ATOM      1  C   UNL d   1       5.941  -2.166   5.300  0.00  0.00     0.078 C 
ATOM      2  C1  UNL d   1       4.481  -2.220   4.962  0.00  0.00    -0.077 A 
ATOM      3  C2  UNL d   1       3.568  -2.861   5.809  0.00  0.00    -0.001 A 
ATOM      4  C3  UNL d   1       2.213  -2.912   5.476  0.00  0.00     0.003 A 
ATOM      5  C4  UNL d   1       1.760  -2.326   4.296  0.00  0.00    -0.005 A 
ATOM      6  C5  UNL d   1       2.661  -1.688   3.446  0.00  0.00     0.003 A 
ATOM      7  C6  UNL d   1       4.016  -1.636   3.777  0.00  0.00    -0.001 A 
ENDROOT
TORSDOF 0
ENDMDL
