MODEL 1
REMARK minimizedAffinity -2.84136915
REMARK minimizedRMSD -1
REMARK  3 active torsions:
REMARK  status: ('A' for Active; 'I' for Inactive)
REMARK    1  A    between atoms: C3'_2  and  C2'_3 
REMARK    2  A    between atoms: C2'_3  and  C1'_4 
REMARK    3  A    between atoms: C1'_4  and  C1_5 
ROOT
ATOM      1  C1  N4B d   1      -0.156  -0.851   0.292  0.00  0.00    -0.075 A 
ATOM      2  C2  N4B d   1      -0.601  -1.766   1.272  0.00  0.00     0.002 A 
ATOM      3  C3  N4B d   1      -0.745  -1.359   2.576  0.00  0.00     0.002 A 
ATOM      4  C4  N4B d   1      -0.434  -0.053   2.926  0.00  0.00    -0.004 A 
ATOM      5  C5  N4B d   1      -0.030   0.831   1.968  0.00  0.00     0.002 A 
ATOM      6  C6  N4B d   1       0.116   0.437   0.654  0.00  0.00     0.002 A 
ENDROOT
BRANCH   1   7
ATOM      7  C1' N4B d   1       0.099  -1.272  -1.129  0.00  0.00     0.057 C 
BRANCH   7   8
ATOM      8  C2' N4B d   1       1.260  -0.458  -1.692  0.00  0.00     0.009 C 
BRANCH   8   9
ATOM      9  C3' N4B d   1       1.767  -1.024  -3.007  0.00  0.00     0.004 C 
ATOM     10  C4' N4B d   1       0.976  -2.211  -3.471  0.00  0.00     0.003 C 
ENDBRANCH   8   9
ENDBRANCH   7   8
ENDBRANCH   1   7
TORSDOF 3
ENDMDL
