MODEL 1
REMARK minimizedAffinity -4.02783871
REMARK minimizedRMSD -1
REMARK  3 active torsions:
REMARK  status: ('A' for Active; 'I' for Inactive)
REMARK    1  A    between atoms: C3'_2  and  C2'_3 
REMARK    2  A    between atoms: C2'_3  and  C1'_4 
REMARK    3  A    between atoms: C1'_4  and  C1_5 
ROOT
ATOM      1  C1  N4B d   1      -0.709  -0.427  -0.332  0.00  0.00    -0.075 A 
ATOM      2  C2  N4B d   1      -1.485   0.590  -0.930  0.00  0.00     0.002 A 
ATOM      3  C3  N4B d   1      -2.804   0.744  -0.578  0.00  0.00     0.002 A 
ATOM      4  C4  N4B d   1      -3.371  -0.116   0.351  0.00  0.00    -0.004 A 
ATOM      5  C5  N4B d   1      -2.607  -1.079   0.943  0.00  0.00     0.002 A 
ATOM      6  C6  N4B d   1      -1.279  -1.242   0.602  0.00  0.00     0.002 A 
ENDROOT
BRANCH   1   7
ATOM      7  C1' N4B d   1       0.713  -0.688  -0.747  0.00  0.00     0.057 C 
BRANCH   7   8
ATOM      8  C2' N4B d   1       0.803  -0.662  -2.270  0.00  0.00     0.009 C 
BRANCH   8   9
ATOM      9  C3' N4B d   1       0.492  -2.017  -2.881  0.00  0.00     0.004 C 
ATOM     10  C4' N4B d   1       1.627  -2.560  -3.698  0.00  0.00     0.003 C 
ENDBRANCH   8   9
ENDBRANCH   7   8
ENDBRANCH   1   7
TORSDOF 3
ENDMDL
