MODEL 1
REMARK minimizedAffinity -1.48566067
REMARK minimizedRMSD -1
REMARK  3 active torsions:
REMARK  status: ('A' for Active; 'I' for Inactive)
REMARK    1  A    between atoms: C3'_2  and  C2'_3 
REMARK    2  A    between atoms: C2'_3  and  C1'_4 
REMARK    3  A    between atoms: C1'_4  and  C1_5 
ROOT
ATOM      1  C1  N4B d   1      -0.900  -0.445   1.535  0.00  0.00    -0.075 A 
ATOM      2  C2  N4B d   1      -2.029  -0.247   0.710  0.00  0.00     0.002 A 
ATOM      3  C3  N4B d   1      -1.864   0.094  -0.610  0.00  0.00     0.002 A 
ATOM      4  C4  N4B d   1      -0.585   0.261  -1.120  0.00  0.00    -0.004 A 
ATOM      5  C5  N4B d   1       0.501   0.042  -0.323  0.00  0.00     0.002 A 
ATOM      6  C6  N4B d   1       0.349  -0.305   1.004  0.00  0.00     0.002 A 
ENDROOT
BRANCH   1   7
ATOM      7  C1' N4B d   1      -1.032  -0.735   3.005  0.00  0.00     0.057 C 
BRANCH   7   8
ATOM      8  C2' N4B d   1      -1.164   0.582   3.765  0.00  0.00     0.009 C 
BRANCH   8   9
ATOM      9  C3' N4B d   1      -0.042   1.548   3.427  0.00  0.00     0.004 C 
ATOM     10  C4' N4B d   1      -0.307   2.940   3.918  0.00  0.00     0.003 C 
ENDBRANCH   8   9
ENDBRANCH   7   8
ENDBRANCH   1   7
TORSDOF 3
ENDMDL
