MODEL 1
REMARK minimizedAffinity -6.84251595
REMARK minimizedRMSD -1
REMARK  3 active torsions:
REMARK  status: ('A' for Active; 'I' for Inactive)
REMARK    1  A    between atoms: C3'_2  and  C2'_3 
REMARK    2  A    between atoms: C2'_3  and  C1'_4 
REMARK    3  A    between atoms: C1'_4  and  C1_5 
ROOT
ATOM      1  C1  N4B d   1      -0.234   0.231  -0.112  0.00  0.00    -0.075 A 
ATOM      2  C2  N4B d   1      -1.293  -0.282   0.669  0.00  0.00     0.002 A 
ATOM      3  C3  N4B d   1      -1.143  -0.414   2.027  0.00  0.00     0.002 A 
ATOM      4  C4  N4B d   1       0.058  -0.060   2.622  0.00  0.00    -0.004 A 
ATOM      5  C5  N4B d   1       1.067   0.459   1.865  0.00  0.00     0.002 A 
ATOM      6  C6  N4B d   1       0.929   0.601   0.499  0.00  0.00     0.002 A 
ENDROOT
BRANCH   1   7
ATOM      7  C1' N4B d   1      -0.321   0.314  -1.611  0.00  0.00     0.057 C 
BRANCH   7   8
ATOM      8  C2' N4B d   1       1.016  -0.108  -2.214  0.00  0.00     0.009 C 
BRANCH   8   9
ATOM      9  C3' N4B d   1       0.850  -0.705  -3.601  0.00  0.00     0.004 C 
ATOM     10  C4' N4B d   1       0.313  -2.104  -3.571  0.00  0.00     0.003 C 
ENDBRANCH   8   9
ENDBRANCH   7   8
ENDBRANCH   1   7
TORSDOF 3
ENDMDL
