MODEL 1
REMARK minimizedAffinity -5.93794918
REMARK minimizedRMSD -1
REMARK  3 active torsions:
REMARK  status: ('A' for Active; 'I' for Inactive)
REMARK    1  A    between atoms: C3'_2  and  C2'_3 
REMARK    2  A    between atoms: C2'_3  and  C1'_4 
REMARK    3  A    between atoms: C1'_4  and  C1_5 
ROOT
ATOM      1  C1  N4B d   1      -0.045   0.159   0.440  0.00  0.00    -0.075 A 
ATOM      2  C2  N4B d   1      -1.338  -0.219   0.863  0.00  0.00     0.002 A 
ATOM      3  C3  N4B d   1      -1.630  -0.281   2.204  0.00  0.00     0.002 A 
ATOM      4  C4  N4B d   1      -0.645   0.011   3.135  0.00  0.00    -0.004 A 
ATOM      5  C5  N4B d   1       0.594   0.400   2.717  0.00  0.00     0.002 A 
ATOM      6  C6  N4B d   1       0.901   0.470   1.373  0.00  0.00     0.002 A 
ENDROOT
BRANCH   1   7
ATOM      7  C1' N4B d   1       0.347   0.158  -1.013  0.00  0.00     0.057 C 
BRANCH   7   8
ATOM      8  C2' N4B d   1       0.617  -1.277  -1.457  0.00  0.00     0.009 C 
BRANCH   8   9
ATOM      9  C3' N4B d   1       0.877  -1.369  -2.951  0.00  0.00     0.004 C 
ATOM     10  C4' N4B d   1       1.677  -2.580  -3.328  0.00  0.00     0.003 C 
ENDBRANCH   8   9
ENDBRANCH   7   8
ENDBRANCH   1   7
TORSDOF 3
ENDMDL
