MODEL 1
REMARK minimizedAffinity -3.06477714
REMARK minimizedRMSD -1
REMARK  3 active torsions:
REMARK  status: ('A' for Active; 'I' for Inactive)
REMARK    1  A    between atoms: C3'_2  and  C2'_3 
REMARK    2  A    between atoms: C2'_3  and  C1'_4 
REMARK    3  A    between atoms: C1'_4  and  C1_5 
ROOT
ATOM      1  C1  N4B d   1       0.954   0.572   1.285  0.00  0.00    -0.075 A 
ATOM      2  C2  N4B d   1       0.399   0.172   2.520  0.00  0.00     0.002 A 
ATOM      3  C3  N4B d   1      -0.905  -0.257   2.580  0.00  0.00     0.002 A 
ATOM      4  C4  N4B d   1      -1.674  -0.278   1.426  0.00  0.00    -0.004 A 
ATOM      5  C5  N4B d   1      -1.122   0.086   0.233  0.00  0.00     0.002 A 
ATOM      6  C6  N4B d   1       0.188   0.516   0.157  0.00  0.00     0.002 A 
ENDROOT
BRANCH   1   7
ATOM      7  C1' N4B d   1       2.347   1.130   1.184  0.00  0.00     0.057 C 
BRANCH   7   8
ATOM      8  C2' N4B d   1       3.258   0.380   2.152  0.00  0.00     0.009 C 
BRANCH   8   9
ATOM      9  C3' N4B d   1       4.600   1.072   2.321  0.00  0.00     0.004 C 
ATOM     10  C4' N4B d   1       5.300   0.680   3.588  0.00  0.00     0.003 C 
ENDBRANCH   8   9
ENDBRANCH   7   8
ENDBRANCH   1   7
TORSDOF 3
ENDMDL
