MODEL 1
REMARK minimizedAffinity -0.751417279
REMARK minimizedRMSD -1
REMARK  3 active torsions:
REMARK  status: ('A' for Active; 'I' for Inactive)
REMARK    1  A    between atoms: C3'_2  and  C2'_3 
REMARK    2  A    between atoms: C2'_3  and  C1'_4 
REMARK    3  A    between atoms: C1'_4  and  C1_5 
ROOT
ATOM      1  C1  N4B d   1       0.693   0.094   0.190  0.00  0.00    -0.075 A 
ATOM      2  C2  N4B d   1       1.492   0.058   1.354  0.00  0.00     0.002 A 
ATOM      3  C3  N4B d   1       0.900   0.029   2.593  0.00  0.00     0.002 A 
ATOM      4  C4  N4B d   1      -0.483   0.054   2.693  0.00  0.00    -0.004 A 
ATOM      5  C5  N4B d   1      -1.248   0.063   1.563  0.00  0.00     0.002 A 
ATOM      6  C6  N4B d   1      -0.667   0.088   0.312  0.00  0.00     0.002 A 
ENDROOT
BRANCH   1   7
ATOM      7  C1' N4B d   1       1.295   0.213  -1.183  0.00  0.00     0.057 C 
BRANCH   7   8
ATOM      8  C2' N4B d   1       2.122  -1.034  -1.477  0.00  0.00     0.009 C 
BRANCH   8   9
ATOM      9  C3' N4B d   1       2.509  -1.127  -2.943  0.00  0.00     0.004 C 
ATOM     10  C4' N4B d   1       1.548  -1.951  -3.747  0.00  0.00     0.003 C 
ENDBRANCH   8   9
ENDBRANCH   7   8
ENDBRANCH   1   7
TORSDOF 3
ENDMDL
