MODEL 1
REMARK minimizedAffinity -4.01704836
REMARK minimizedRMSD -1
REMARK  3 active torsions:
REMARK  status: ('A' for Active; 'I' for Inactive)
REMARK    1  A    between atoms: C3'_2  and  C2'_3 
REMARK    2  A    between atoms: C2'_3  and  C1'_4 
REMARK    3  A    between atoms: C1'_4  and  C1_5 
ROOT
ATOM      1  C1  N4B d   1       0.194   0.365   0.340  0.00  0.00    -0.075 A 
ATOM      2  C2  N4B d   1       1.150   0.927   1.215  0.00  0.00     0.002 A 
ATOM      3  C3  N4B d   1       1.059   0.702   2.567  0.00  0.00     0.002 A 
ATOM      4  C4  N4B d   1       0.015  -0.063   3.066  0.00  0.00    -0.004 A 
ATOM      5  C5  N4B d   1      -0.889  -0.623   2.212  0.00  0.00     0.002 A 
ATOM      6  C6  N4B d   1      -0.807  -0.409   0.851  0.00  0.00     0.002 A 
ENDROOT
BRANCH   1   7
ATOM      7  C1' N4B d   1       0.203   0.654  -1.136  0.00  0.00     0.057 C 
BRANCH   7   8
ATOM      8  C2' N4B d   1       0.765  -0.554  -1.880  0.00  0.00     0.009 C 
BRANCH   8   9
ATOM      9  C3' N4B d   1       1.740  -0.146  -2.970  0.00  0.00     0.004 C 
ATOM     10  C4' N4B d   1       2.725  -1.227  -3.302  0.00  0.00     0.003 C 
ENDBRANCH   8   9
ENDBRANCH   7   8
ENDBRANCH   1   7
TORSDOF 3
ENDMDL
