MODEL 1
REMARK minimizedAffinity 11.2350512
REMARK minimizedRMSD -1
REMARK  0 active torsions:
REMARK  status: ('A' for Active; 'I' for Inactive)
ROOT
ATOM      1  C1  DEN d   1      -3.117   3.301   2.689  0.00  0.00     0.130 A 
ATOM      2  C2  DEN d   1      -4.561   3.274   2.908  0.00  0.00    -0.031 A 
ATOM      3  C3  DEN d   1      -5.024   1.884   2.725  0.00  0.00     0.027 A 
ATOM      4  C4  DEN d   1      -3.652  -0.219   2.132  0.00  0.00     0.027 A 
ATOM      5  C5  DEN d   1      -2.392  -0.691   1.840  0.00  0.00    -0.003 A 
ATOM      6  C6  DEN d   1      -1.300   0.133   1.777  0.00  0.00     0.001 A 
ATOM      7  C7  DEN d   1      -1.439   1.467   2.054  0.00  0.00     0.017 A 
ATOM      8  C8  DEN d   1      -2.708   1.952   2.343  0.00  0.00    -0.094 A 
ATOM      9  C9  DEN d   1      -3.798   1.101   2.414  0.00  0.00    -0.072 A 
ENDROOT
TORSDOF 0
ENDMDL
