MODEL 1
REMARK minimizedAffinity 9.62250996
REMARK minimizedRMSD -1
REMARK  0 active torsions:
REMARK  status: ('A' for Active; 'I' for Inactive)
ROOT
ATOM      1  C1  DEN d   1       4.558   2.861  -5.997  0.00  0.00     0.130 A 
ATOM      2  C2  DEN d   1       5.880   3.026  -5.400  0.00  0.00    -0.031 A 
ATOM      3  C3  DEN d   1       5.816   4.160  -4.456  0.00  0.00     0.027 A 
ATOM      4  C4  DEN d   1       3.808   5.665  -3.861  0.00  0.00     0.027 A 
ATOM      5  C5  DEN d   1       2.479   5.918  -4.120  0.00  0.00    -0.003 A 
ATOM      6  C6  DEN d   1       1.764   5.197  -5.040  0.00  0.00     0.001 A 
ATOM      7  C7  DEN d   1       2.364   4.158  -5.702  0.00  0.00     0.017 A 
ATOM      8  C8  DEN d   1       3.705   3.903  -5.452  0.00  0.00    -0.094 A 
ATOM      9  C9  DEN d   1       4.407   4.635  -4.509  0.00  0.00    -0.072 A 
ENDROOT
TORSDOF 0
ENDMDL
