MODEL 1
REMARK minimizedAffinity 18.4124527
REMARK minimizedRMSD -1
REMARK  0 active torsions:
REMARK  status: ('A' for Active; 'I' for Inactive)
ROOT
ATOM      1  C1  DEN d   1      -3.530   1.552   0.875  0.00  0.00     0.130 A 
ATOM      2  C2  DEN d   1      -2.264   1.901   1.514  0.00  0.00    -0.031 A 
ATOM      3  C3  DEN d   1      -1.524   0.650   1.776  0.00  0.00     0.027 A 
ATOM      4  C4  DEN d   1      -2.210  -1.780   1.253  0.00  0.00     0.027 A 
ATOM      5  C5  DEN d   1      -3.201  -2.578   0.725  0.00  0.00    -0.003 A 
ATOM      6  C6  DEN d   1      -4.375  -2.062   0.244  0.00  0.00     0.001 A 
ATOM      7  C7  DEN d   1      -4.570  -0.706   0.241  0.00  0.00     0.017 A 
ATOM      8  C8  DEN d   1      -3.579   0.104   0.779  0.00  0.00    -0.094 A 
ATOM      9  C9  DEN d   1      -2.393  -0.436   1.249  0.00  0.00    -0.072 A 
ENDROOT
TORSDOF 0
ENDMDL
