MODEL 1
REMARK minimizedAffinity 11.5358706
REMARK minimizedRMSD -1
REMARK  0 active torsions:
REMARK  status: ('A' for Active; 'I' for Inactive)
ROOT
ATOM      1  C1  DEN d   1      -2.253   0.285   2.135  0.00  0.00     0.130 A 
ATOM      2  C2  DEN d   1      -1.413   1.473   2.262  0.00  0.00    -0.031 A 
ATOM      3  C3  DEN d   1      -2.290   2.660   2.208  0.00  0.00     0.027 A 
ATOM      4  C4  DEN d   1      -4.854   2.772   1.945  0.00  0.00     0.027 A 
ATOM      5  C5  DEN d   1      -6.000   2.024   1.789  0.00  0.00    -0.003 A 
ATOM      6  C6  DEN d   1      -5.974   0.658   1.704  0.00  0.00     0.001 A 
ATOM      7  C7  DEN d   1      -4.782  -0.007   1.819  0.00  0.00     0.017 A 
ATOM      8  C8  DEN d   1      -3.621   0.740   1.970  0.00  0.00    -0.094 A 
ATOM      9  C9  DEN d   1      -3.670   2.120   2.066  0.00  0.00    -0.072 A 
ENDROOT
TORSDOF 0
ENDMDL
