MODEL 1
REMARK minimizedAffinity 14.7092295
REMARK minimizedRMSD -1
REMARK  0 active torsions:
REMARK  status: ('A' for Active; 'I' for Inactive)
ROOT
ATOM      1  C1  DEN d   1      -0.978   0.140   2.145  0.00  0.00     0.130 A 
ATOM      2  C2  DEN d   1       0.018   0.916   2.879  0.00  0.00    -0.031 A 
ATOM      3  C3  DEN d   1      -0.632   2.149   3.366  0.00  0.00     0.027 A 
ATOM      4  C4  DEN d   1      -3.073   2.925   3.062  0.00  0.00     0.027 A 
ATOM      5  C5  DEN d   1      -4.291   2.607   2.502  0.00  0.00    -0.003 A 
ATOM      6  C6  DEN d   1      -4.480   1.470   1.762  0.00  0.00     0.001 A 
ATOM      7  C7  DEN d   1      -3.445   0.587   1.599  0.00  0.00     0.017 A 
ATOM      8  C8  DEN d   1      -2.212   0.905   2.154  0.00  0.00    -0.094 A 
ATOM      9  C9  DEN d   1      -2.045   2.053   2.909  0.00  0.00    -0.072 A 
ENDROOT
TORSDOF 0
ENDMDL
