MODEL 1
REMARK minimizedAffinity 8.25817966
REMARK minimizedRMSD -1
REMARK  0 active torsions:
REMARK  status: ('A' for Active; 'I' for Inactive)
ROOT
ATOM      1  C1  DEN d   1      -5.302  -1.155  -2.357  0.00  0.00     0.130 A 
ATOM      2  C2  DEN d   1      -5.744  -2.038  -1.281  0.00  0.00    -0.031 A 
ATOM      3  C3  DEN d   1      -5.998  -3.372  -1.860  0.00  0.00     0.027 A 
ATOM      4  C4  DEN d   1      -5.746  -4.155  -4.305  0.00  0.00     0.027 A 
ATOM      5  C5  DEN d   1      -5.410  -3.760  -5.581  0.00  0.00    -0.003 A 
ATOM      6  C6  DEN d   1      -5.051  -2.471  -5.876  0.00  0.00     0.001 A 
ATOM      7  C7  DEN d   1      -4.975  -1.542  -4.873  0.00  0.00     0.017 A 
ATOM      8  C8  DEN d   1      -5.319  -1.931  -3.585  0.00  0.00    -0.094 A 
ATOM      9  C9  DEN d   1      -5.668  -3.241  -3.305  0.00  0.00    -0.072 A 
ENDROOT
TORSDOF 0
ENDMDL
