MODEL 1
REMARK minimizedAffinity 15.4591494
REMARK minimizedRMSD -1
REMARK  0 active torsions:
REMARK  status: ('A' for Active; 'I' for Inactive)
ROOT
ATOM      1  C1  DEN d   1       1.245   2.044  -0.503  0.00  0.00     0.130 A 
ATOM      2  C2  DEN d   1       1.606   1.850  -1.905  0.00  0.00    -0.031 A 
ATOM      3  C3  DEN d   1       2.909   1.156  -1.948  0.00  0.00     0.027 A 
ATOM      4  C4  DEN d   1       4.391   0.362   0.008  0.00  0.00     0.027 A 
ATOM      5  C5  DEN d   1       4.508   0.312   1.379  0.00  0.00    -0.003 A 
ATOM      6  C6  DEN d   1       3.570   0.862   2.212  0.00  0.00     0.001 A 
ATOM      7  C7  DEN d   1       2.450   1.446   1.682  0.00  0.00     0.017 A 
ATOM      8  C8  DEN d   1       2.328   1.506   0.300  0.00  0.00    -0.094 A 
ATOM      9  C9  DEN d   1       3.281   0.934  -0.525  0.00  0.00    -0.072 A 
ENDROOT
TORSDOF 0
ENDMDL
