MODEL 1
REMARK minimizedAffinity 7.97134829
REMARK minimizedRMSD -1
REMARK  0 active torsions:
REMARK  status: ('A' for Active; 'I' for Inactive)
ROOT
ATOM      1  C1  DEN d   1      -3.170   0.844   2.153  0.00  0.00     0.130 A 
ATOM      2  C2  DEN d   1      -2.199   1.469   1.259  0.00  0.00    -0.031 A 
ATOM      3  C3  DEN d   1      -0.868   0.909   1.568  0.00  0.00     0.027 A 
ATOM      4  C4  DEN d   1      -0.221  -0.858   3.332  0.00  0.00     0.027 A 
ATOM      5  C5  DEN d   1      -0.700  -1.671   4.335  0.00  0.00    -0.003 A 
ATOM      6  C6  DEN d   1      -2.020  -1.677   4.702  0.00  0.00     0.001 A 
ATOM      7  C7  DEN d   1      -2.915  -0.887   4.029  0.00  0.00     0.017 A 
ATOM      8  C8  DEN d   1      -2.438  -0.060   3.021  0.00  0.00    -0.094 A 
ATOM      9  C9  DEN d   1      -1.102  -0.077   2.657  0.00  0.00    -0.072 A 
ENDROOT
TORSDOF 0
ENDMDL
