MODEL 1
REMARK minimizedAffinity 11.6342487
REMARK minimizedRMSD -1
REMARK  0 active torsions:
REMARK  status: ('A' for Active; 'I' for Inactive)
ROOT
ATOM      1  C1  DEN d   1       0.137   3.617   3.443  0.00  0.00     0.130 A 
ATOM      2  C2  DEN d   1       1.252   2.705   3.686  0.00  0.00    -0.031 A 
ATOM      3  C3  DEN d   1       0.977   1.446   2.965  0.00  0.00     0.027 A 
ATOM      4  C4  DEN d   1      -1.054   0.824   1.501  0.00  0.00     0.027 A 
ATOM      5  C5  DEN d   1      -2.261   1.268   1.010  0.00  0.00    -0.003 A 
ATOM      6  C6  DEN d   1      -2.766   2.503   1.321  0.00  0.00     0.001 A 
ATOM      7  C7  DEN d   1      -2.039   3.355   2.109  0.00  0.00     0.017 A 
ATOM      8  C8  DEN d   1      -0.824   2.912   2.614  0.00  0.00    -0.094 A 
ATOM      9  C9  DEN d   1      -0.325   1.664   2.279  0.00  0.00    -0.072 A 
ENDROOT
TORSDOF 0
ENDMDL
