MODEL 1
REMARK minimizedAffinity 17.5006847
REMARK minimizedRMSD -1
REMARK  0 active torsions:
REMARK  status: ('A' for Active; 'I' for Inactive)
ROOT
ATOM      1  C1  DEN d   1      -5.999  -2.112   0.376  0.00  0.00     0.130 A 
ATOM      2  C2  DEN d   1      -5.828  -0.711   0.748  0.00  0.00    -0.031 A 
ATOM      3  C3  DEN d   1      -4.387  -0.469   0.965  0.00  0.00     0.027 A 
ATOM      4  C4  DEN d   1      -2.416  -2.119   0.757  0.00  0.00     0.027 A 
ATOM      5  C5  DEN d   1      -2.067  -3.422   0.477  0.00  0.00    -0.003 A 
ATOM      6  C6  DEN d   1      -3.000  -4.379   0.179  0.00  0.00     0.001 A 
ATOM      7  C7  DEN d   1      -4.325  -4.038   0.110  0.00  0.00     0.017 A 
ATOM      8  C8  DEN d   1      -4.685  -2.728   0.399  0.00  0.00    -0.094 A 
ATOM      9  C9  DEN d   1      -3.726  -1.772   0.685  0.00  0.00    -0.072 A 
ENDROOT
TORSDOF 0
ENDMDL
