MODEL 1
REMARK minimizedAffinity 9.76735592
REMARK minimizedRMSD -1
REMARK  0 active torsions:
REMARK  status: ('A' for Active; 'I' for Inactive)
ROOT
ATOM      1  C1  DEN d   1      -1.551   0.670   0.602  0.00  0.00     0.130 A 
ATOM      2  C2  DEN d   1      -2.918   0.815   0.109  0.00  0.00    -0.031 A 
ATOM      3  C3  DEN d   1      -3.455   2.091   0.623  0.00  0.00     0.027 A 
ATOM      4  C4  DEN d   1      -2.308   3.849   2.122  0.00  0.00     0.027 A 
ATOM      5  C5  DEN d   1      -1.153   4.160   2.804  0.00  0.00    -0.003 A 
ATOM      6  C6  DEN d   1      -0.070   3.321   2.828  0.00  0.00     0.001 A 
ATOM      7  C7  DEN d   1      -0.104   2.149   2.119  0.00  0.00     0.017 A 
ATOM      8  C8  DEN d   1      -1.268   1.825   1.435  0.00  0.00    -0.094 A 
ATOM      9  C9  DEN d   1      -2.347   2.692   1.413  0.00  0.00    -0.072 A 
ENDROOT
TORSDOF 0
ENDMDL
