MODEL 1
REMARK minimizedAffinity 13.1032639
REMARK minimizedRMSD -1
REMARK  0 active torsions:
REMARK  status: ('A' for Active; 'I' for Inactive)
ROOT
ATOM      1  C1  DEN d   1       2.663   1.173  -2.667  0.00  0.00     0.130 A 
ATOM      2  C2  DEN d   1       2.248  -0.129  -3.181  0.00  0.00    -0.031 A 
ATOM      3  C3  DEN d   1       2.698  -0.230  -4.584  0.00  0.00     0.027 A 
ATOM      4  C4  DEN d   1       3.995   1.492  -6.000  0.00  0.00     0.027 A 
ATOM      5  C5  DEN d   1       4.559   2.749  -6.000  0.00  0.00    -0.003 A 
ATOM      6  C6  DEN d   1       4.501   3.575  -4.909  0.00  0.00     0.001 A 
ATOM      7  C7  DEN d   1       3.905   3.136  -3.756  0.00  0.00     0.017 A 
ATOM      8  C8  DEN d   1       3.328   1.873  -3.751  0.00  0.00    -0.094 A 
ATOM      9  C9  DEN d   1       3.407   1.048  -4.860  0.00  0.00    -0.072 A 
ENDROOT
TORSDOF 0
ENDMDL
