MODEL 1
REMARK minimizedAffinity 1.49990821
REMARK minimizedRMSD -1
REMARK  1 active torsions:
REMARK  status: ('A' for Active; 'I' for Inactive)
REMARK    1  A    between atoms: N_2  and  C1_3 
ROOT
ATOM      1  C1  UNL d   1       3.829  -3.964  -4.476  0.00  0.00     0.143 A 
ATOM      2  C2  UNL d   1       5.184  -3.676  -4.674  0.00  0.00    -0.057 A 
ATOM      3  C3  UNL d   1       6.000  -4.517  -5.440  0.00  0.00     0.033 A 
ATOM      4  C4  UNL d   1       5.480  -5.680  -5.999  0.00  0.00    -0.042 A 
ATOM      5  C5  UNL d   1       4.142  -5.999  -5.794  0.00  0.00     0.033 A 
ATOM      6  C6  UNL d   1       3.331  -5.152  -5.034  0.00  0.00    -0.057 A 
ENDROOT
BRANCH   1   7
ATOM      7  N   UNL d   1       2.990  -3.220  -3.643  0.00  0.00    -0.732 N 
ATOM      8  C   UNL d   1       3.348  -1.874  -3.248  0.00  0.00     0.284 C 
ATOM      9  H3  UNL d   1       2.007  -3.336  -3.878  0.00  0.00     0.395 HD
ENDBRANCH   1   7
TORSDOF 1
ENDMDL
