MODEL 1
REMARK minimizedAffinity 2.48603845
REMARK minimizedRMSD -1
REMARK  1 active torsions:
REMARK  status: ('A' for Active; 'I' for Inactive)
REMARK    1  A    between atoms: N_2  and  C1_3 
ROOT
ATOM      1  C1  UNL d   1      -1.301   1.932   1.980  0.00  0.00     0.143 A 
ATOM      2  C2  UNL d   1      -1.278   2.496   3.260  0.00  0.00    -0.057 A 
ATOM      3  C3  UNL d   1      -0.247   3.356   3.656  0.00  0.00     0.033 A 
ATOM      4  C4  UNL d   1       0.799   3.646   2.786  0.00  0.00    -0.042 A 
ATOM      5  C5  UNL d   1       0.809   3.077   1.517  0.00  0.00     0.033 A 
ATOM      6  C6  UNL d   1      -0.227   2.224   1.125  0.00  0.00    -0.057 A 
ENDROOT
BRANCH   1   7
ATOM      7  N   UNL d   1      -2.246   0.992   1.561  0.00  0.00    -0.732 N 
ATOM      8  C   UNL d   1      -2.120  -0.399   1.939  0.00  0.00     0.284 C 
ATOM      9  H3  UNL d   1      -3.197   1.351   1.606  0.00  0.00     0.395 HD
ENDBRANCH   1   7
TORSDOF 1
ENDMDL
