MODEL 1
REMARK minimizedAffinity -0.0190374143
REMARK minimizedRMSD -1
REMARK  1 active torsions:
REMARK  status: ('A' for Active; 'I' for Inactive)
REMARK    1  A    between atoms: N_2  and  C1_3 
ROOT
ATOM      1  C1  UNL d   1       4.013  -5.671  -4.487  0.00  0.00     0.143 A 
ATOM      2  C2  UNL d   1       3.273  -4.910  -3.576  0.00  0.00    -0.057 A 
ATOM      3  C3  UNL d   1       1.954  -4.530  -3.850  0.00  0.00     0.033 A 
ATOM      4  C4  UNL d   1       1.359  -4.882  -5.056  0.00  0.00    -0.042 A 
ATOM      5  C5  UNL d   1       2.083  -5.618  -5.987  0.00  0.00     0.033 A 
ATOM      6  C6  UNL d   1       3.398  -6.000  -5.705  0.00  0.00    -0.057 A 
ENDROOT
BRANCH   1   7
ATOM      7  N   UNL d   1       5.361  -5.996  -4.315  0.00  0.00    -0.732 N 
ATOM      8  C   UNL d   1       6.000  -5.836  -3.027  0.00  0.00     0.284 C 
ATOM      9  H3  UNL d   1       5.620  -6.850  -4.804  0.00  0.00     0.395 HD
ENDBRANCH   1   7
TORSDOF 1
ENDMDL
