MODEL 1
REMARK minimizedAffinity 11.6124544
REMARK minimizedRMSD -1
REMARK  1 active torsions:
REMARK  status: ('A' for Active; 'I' for Inactive)
REMARK    1  A    between atoms: N_2  and  C1_3 
ROOT
ATOM      1  C1  UNL d   1      -1.034   2.278   2.910  0.00  0.00     0.143 A 
ATOM      2  C2  UNL d   1      -2.038   2.346   3.881  0.00  0.00    -0.057 A 
ATOM      3  C3  UNL d   1      -1.891   3.142   5.024  0.00  0.00     0.033 A 
ATOM      4  C4  UNL d   1      -0.720   3.865   5.229  0.00  0.00    -0.042 A 
ATOM      5  C5  UNL d   1       0.302   3.793   4.288  0.00  0.00     0.033 A 
ATOM      6  C6  UNL d   1       0.146   3.001   3.147  0.00  0.00    -0.057 A 
ENDROOT
BRANCH   1   7
ATOM      7  N   UNL d   1      -1.079   1.428   1.802  0.00  0.00    -0.732 N 
ATOM      8  C   UNL d   1      -0.384   0.159   1.817  0.00  0.00     0.284 C 
ATOM      9  H3  UNL d   1      -2.004   1.391   1.379  0.00  0.00     0.395 HD
ENDBRANCH   1   7
TORSDOF 1
ENDMDL
