MODEL 1
REMARK minimizedAffinity 3.14576125
REMARK minimizedRMSD -1
REMARK  1 active torsions:
REMARK  status: ('A' for Active; 'I' for Inactive)
REMARK    1  A    between atoms: N_2  and  C1_3 
ROOT
ATOM      1  C1  UNL d   1       0.200   2.244   1.730  0.00  0.00     0.143 A 
ATOM      2  C2  UNL d   1      -0.641   1.991   2.819  0.00  0.00    -0.057 A 
ATOM      3  C3  UNL d   1      -1.113   3.031   3.629  0.00  0.00     0.033 A 
ATOM      4  C4  UNL d   1      -0.727   4.344   3.380  0.00  0.00    -0.042 A 
ATOM      5  C5  UNL d   1       0.129   4.617   2.319  0.00  0.00     0.033 A 
ATOM      6  C6  UNL d   1       0.591   3.574   1.509  0.00  0.00    -0.057 A 
ENDROOT
BRANCH   1   7
ATOM      7  N   UNL d   1       0.782   1.244   0.947  0.00  0.00    -0.732 N 
ATOM      8  C   UNL d   1      -0.044   0.289   0.239  0.00  0.00     0.284 C 
ATOM      9  H3  UNL d   1       1.578   1.583   0.412  0.00  0.00     0.395 HD
ENDBRANCH   1   7
TORSDOF 1
ENDMDL
