MODEL 1
REMARK minimizedAffinity -3.22505546
REMARK minimizedRMSD -1
REMARK  1 active torsions:
REMARK  status: ('A' for Active; 'I' for Inactive)
REMARK    1  A    between atoms: N_2  and  C1_3 
ROOT
ATOM      1  C1  UNL d   1      -3.348  -1.043   3.102  0.00  0.00     0.143 A 
ATOM      2  C2  UNL d   1      -3.431  -0.010   2.161  0.00  0.00    -0.057 A 
ATOM      3  C3  UNL d   1      -4.598   0.752   2.020  0.00  0.00     0.033 A 
ATOM      4  C4  UNL d   1      -5.716   0.473   2.800  0.00  0.00    -0.042 A 
ATOM      5  C5  UNL d   1      -5.664  -0.565   3.724  0.00  0.00     0.033 A 
ATOM      6  C6  UNL d   1      -4.494  -1.317   3.864  0.00  0.00    -0.057 A 
ENDROOT
BRANCH   1   7
ATOM      7  N   UNL d   1      -2.251  -1.899   3.221  0.00  0.00    -0.732 N 
ATOM      8  C   UNL d   1      -1.431  -2.212   2.071  0.00  0.00     0.284 C 
ATOM      9  H3  UNL d   1      -1.724  -1.737   4.076  0.00  0.00     0.395 HD
ENDBRANCH   1   7
TORSDOF 1
ENDMDL
