MODEL 1
REMARK minimizedAffinity -2.16714644
REMARK minimizedRMSD -1
REMARK  1 active torsions:
REMARK  status: ('A' for Active; 'I' for Inactive)
REMARK    1  A    between atoms: N_2  and  C1_3 
ROOT
ATOM      1  C1  UNL d   1      -0.022   3.296   2.067  0.00  0.00     0.143 A 
ATOM      2  C2  UNL d   1       1.110   3.945   2.570  0.00  0.00    -0.057 A 
ATOM      3  C3  UNL d   1       2.392   3.648   2.090  0.00  0.00     0.033 A 
ATOM      4  C4  UNL d   1       2.566   2.671   1.115  0.00  0.00    -0.042 A 
ATOM      5  C5  UNL d   1       1.458   1.995   0.618  0.00  0.00     0.033 A 
ATOM      6  C6  UNL d   1       0.180   2.302   1.097  0.00  0.00    -0.057 A 
ENDROOT
BRANCH   1   7
ATOM      7  N   UNL d   1      -1.312   3.477   2.572  0.00  0.00    -0.732 N 
ATOM      8  C   UNL d   1      -1.519   3.780   3.972  0.00  0.00     0.284 C 
ATOM      9  H3  UNL d   1      -1.906   4.008   1.939  0.00  0.00     0.395 HD
ENDBRANCH   1   7
TORSDOF 1
ENDMDL
