MODEL 1
REMARK minimizedAffinity 3.2023356
REMARK minimizedRMSD -1
REMARK  1 active torsions:
REMARK  status: ('A' for Active; 'I' for Inactive)
REMARK    1  A    between atoms: N_2  and  C1_3 
ROOT
ATOM      1  C1  UNL d   1       0.997   3.950   3.243  0.00  0.00     0.143 A 
ATOM      2  C2  UNL d   1       0.438   3.707   1.984  0.00  0.00    -0.057 A 
ATOM      3  C3  UNL d   1      -0.949   3.634   1.806  0.00  0.00     0.033 A 
ATOM      4  C4  UNL d   1      -1.803   3.774   2.895  0.00  0.00    -0.042 A 
ATOM      5  C5  UNL d   1      -1.270   3.992   4.160  0.00  0.00     0.033 A 
ATOM      6  C6  UNL d   1       0.116   4.071   4.329  0.00  0.00    -0.057 A 
ENDROOT
BRANCH   1   7
ATOM      7  N   UNL d   1       2.370   3.936   3.501  0.00  0.00    -0.732 N 
ATOM      8  C   UNL d   1       3.312   3.582   2.461  0.00  0.00     0.284 C 
ATOM      9  H3  UNL d   1       2.664   4.720   4.079  0.00  0.00     0.395 HD
ENDBRANCH   1   7
TORSDOF 1
ENDMDL
