MODEL 1
REMARK minimizedAffinity 1.45326817
REMARK minimizedRMSD -1
REMARK  1 active torsions:
REMARK  status: ('A' for Active; 'I' for Inactive)
REMARK    1  A    between atoms: N_2  and  C1_3 
ROOT
ATOM      1  C1  UNL d   1      -3.188   0.424   2.496  0.00  0.00     0.143 A 
ATOM      2  C2  UNL d   1      -2.309  -0.291   3.317  0.00  0.00    -0.057 A 
ATOM      3  C3  UNL d   1      -2.779  -1.054   4.393  0.00  0.00     0.033 A 
ATOM      4  C4  UNL d   1      -4.139  -1.093   4.685  0.00  0.00    -0.042 A 
ATOM      5  C5  UNL d   1      -5.028  -0.370   3.897  0.00  0.00     0.033 A 
ATOM      6  C6  UNL d   1      -4.553   0.385   2.821  0.00  0.00    -0.057 A 
ENDROOT
BRANCH   1   7
ATOM      7  N   UNL d   1      -2.774   1.279   1.472  0.00  0.00    -0.732 N 
ATOM      8  C   UNL d   1      -1.493   1.090   0.827  0.00  0.00     0.284 C 
ATOM      9  H3  UNL d   1      -3.530   1.516   0.834  0.00  0.00     0.395 HD
ENDBRANCH   1   7
TORSDOF 1
ENDMDL
