MODEL 1
REMARK minimizedAffinity 1.03774822
REMARK minimizedRMSD -1
REMARK  1 active torsions:
REMARK  status: ('A' for Active; 'I' for Inactive)
REMARK    1  A    between atoms: N_2  and  C1_3 
ROOT
ATOM      1  C1  UNL d   1       0.358   2.299   1.807  0.00  0.00     0.143 A 
ATOM      2  C2  UNL d   1       1.006   1.442   0.910  0.00  0.00    -0.057 A 
ATOM      3  C3  UNL d   1       0.286   0.704  -0.038  0.00  0.00     0.033 A 
ATOM      4  C4  UNL d   1      -1.102   0.789  -0.086  0.00  0.00    -0.042 A 
ATOM      5  C5  UNL d   1      -1.768   1.615   0.812  0.00  0.00     0.033 A 
ATOM      6  C6  UNL d   1      -1.044   2.354   1.751  0.00  0.00    -0.057 A 
ENDROOT
BRANCH   1   7
ATOM      7  N   UNL d   1       1.009   2.983   2.836  0.00  0.00    -0.732 N 
ATOM      8  C   UNL d   1       0.291   3.932   3.659  0.00  0.00     0.284 C 
ATOM      9  H3  UNL d   1       1.651   2.387   3.353  0.00  0.00     0.395 HD
ENDBRANCH   1   7
TORSDOF 1
ENDMDL
