MODEL 1
REMARK minimizedAffinity -3.98638344
REMARK minimizedRMSD -1
REMARK  1 active torsions:
REMARK  status: ('A' for Active; 'I' for Inactive)
REMARK    1  A    between atoms: N_2  and  C1_3 
ROOT
ATOM      1  C1  UNL d   1       3.570   4.103  -5.316  0.00  0.00     0.143 A 
ATOM      2  C2  UNL d   1       3.327   3.417  -4.121  0.00  0.00    -0.057 A 
ATOM      3  C3  UNL d   1       4.309   2.609  -3.535  0.00  0.00     0.033 A 
ATOM      4  C4  UNL d   1       5.546   2.450  -4.151  0.00  0.00    -0.042 A 
ATOM      5  C5  UNL d   1       5.801   3.103  -5.352  0.00  0.00     0.033 A 
ATOM      6  C6  UNL d   1       4.819   3.914  -5.929  0.00  0.00    -0.057 A 
ENDROOT
BRANCH   1   7
ATOM      7  N   UNL d   1       2.601   4.842  -5.999  0.00  0.00    -0.732 N 
ATOM      8  C   UNL d   1       1.196   4.533  -5.848  0.00  0.00     0.284 C 
ATOM      9  H3  UNL d   1       2.809   5.838  -6.010  0.00  0.00     0.395 HD
ENDBRANCH   1   7
TORSDOF 1
ENDMDL
