MODEL 1
REMARK minimizedAffinity 0.665065169
REMARK minimizedRMSD -1
REMARK  1 active torsions:
REMARK  status: ('A' for Active; 'I' for Inactive)
REMARK    1  A    between atoms: N_2  and  C1_3 
ROOT
ATOM      1  C1  UNL d   1      -1.863  -0.548   2.131  0.00  0.00     0.143 A 
ATOM      2  C2  UNL d   1      -0.583  -0.687   1.585  0.00  0.00    -0.057 A 
ATOM      3  C3  UNL d   1      -0.105   0.204   0.616  0.00  0.00     0.033 A 
ATOM      4  C4  UNL d   1      -0.914   1.236   0.153  0.00  0.00    -0.042 A 
ATOM      5  C5  UNL d   1      -2.200   1.378   0.662  0.00  0.00     0.033 A 
ATOM      6  C6  UNL d   1      -2.669   0.490   1.635  0.00  0.00    -0.057 A 
ENDROOT
BRANCH   1   7
ATOM      7  N   UNL d   1      -2.431  -1.458   3.025  0.00  0.00    -0.732 N 
ATOM      8  C   UNL d   1      -3.541  -1.069   3.868  0.00  0.00     0.284 C 
ATOM      9  H3  UNL d   1      -2.519  -2.391   2.627  0.00  0.00     0.395 HD
ENDBRANCH   1   7
TORSDOF 1
ENDMDL
