MODEL 1
REMARK minimizedAffinity 5.38498735
REMARK minimizedRMSD -1
REMARK  1 active torsions:
REMARK  status: ('A' for Active; 'I' for Inactive)
REMARK    1  A    between atoms: N_2  and  C1_3 
ROOT
ATOM      1  C1  UNL d   1      -1.787  -3.966  -2.059  0.00  0.00     0.143 A 
ATOM      2  C2  UNL d   1      -1.124  -3.225  -1.076  0.00  0.00    -0.057 A 
ATOM      3  C3  UNL d   1       0.248  -2.962  -1.167  0.00  0.00     0.033 A 
ATOM      4  C4  UNL d   1       0.989  -3.462  -2.233  0.00  0.00    -0.042 A 
ATOM      5  C5  UNL d   1       0.355  -4.222  -3.210  0.00  0.00     0.033 A 
ATOM      6  C6  UNL d   1      -1.017  -4.475  -3.116  0.00  0.00    -0.057 A 
ENDROOT
BRANCH   1   7
ATOM      7  N   UNL d   1      -3.130  -4.345  -1.975  0.00  0.00    -0.732 N 
ATOM      8  C   UNL d   1      -3.684  -4.818  -0.725  0.00  0.00     0.284 C 
ATOM      9  H3  UNL d   1      -3.743  -3.719  -2.491  0.00  0.00     0.395 HD
ENDBRANCH   1   7
TORSDOF 1
ENDMDL
