MODEL 1
REMARK minimizedAffinity -4.48965549
REMARK minimizedRMSD -1
REMARK  0 active torsions:
REMARK  status: ('A' for Active; 'I' for Inactive)
ROOT
ATOM      1  C1  BNZ d   1      -0.592  -1.362   1.729  0.00  0.00     0.000 A 
ATOM      2  C2  BNZ d   1      -0.825  -0.318   0.874  0.00  0.00     0.000 A 
ATOM      3  C3  BNZ d   1       0.100   0.035  -0.068  0.00  0.00     0.000 A 
ATOM      4  C4  BNZ d   1       1.272  -0.629  -0.128  0.00  0.00     0.000 A 
ATOM      5  C5  BNZ d   1       1.527  -1.677   0.734  0.00  0.00     0.000 A 
ATOM      6  C6  BNZ d   1       0.577  -2.055   1.655  0.00  0.00     0.000 A 
ENDROOT
TORSDOF 0
ENDMDL
