MODEL 1
REMARK minimizedAffinity -5.59025526
REMARK minimizedRMSD -1
REMARK  0 active torsions:
REMARK  status: ('A' for Active; 'I' for Inactive)
ROOT
ATOM      1  C1  BNZ d   1      -0.107  -2.385   2.355  0.00  0.00     0.000 A 
ATOM      2  C2  BNZ d   1       1.060  -2.797   1.770  0.00  0.00     0.000 A 
ATOM      3  C3  BNZ d   1       1.606  -2.100   0.729  0.00  0.00     0.000 A 
ATOM      4  C4  BNZ d   1       0.963  -1.016   0.248  0.00  0.00     0.000 A 
ATOM      5  C5  BNZ d   1      -0.220  -0.593   0.822  0.00  0.00     0.000 A 
ATOM      6  C6  BNZ d   1      -0.745  -1.275   1.895  0.00  0.00     0.000 A 
ENDROOT
TORSDOF 0
ENDMDL
