MODEL 1
REMARK minimizedAffinity -4.19362593
REMARK minimizedRMSD -1
REMARK  0 active torsions:
REMARK  status: ('A' for Active; 'I' for Inactive)
ROOT
ATOM      1  C1  BNZ d   1       1.991  -1.416   0.105  0.00  0.00     0.000 A 
ATOM      2  C2  BNZ d   1       1.824  -0.207  -0.517  0.00  0.00     0.000 A 
ATOM      3  C3  BNZ d   1       0.667   0.504  -0.366  0.00  0.00     0.000 A 
ATOM      4  C4  BNZ d   1      -0.337  -0.012   0.373  0.00  0.00     0.000 A 
ATOM      5  C5  BNZ d   1      -0.187  -1.233   0.999  0.00  0.00     0.000 A 
ATOM      6  C6  BNZ d   1       0.994  -1.928   0.876  0.00  0.00     0.000 A 
ENDROOT
TORSDOF 0
ENDMDL
