MODEL 1
REMARK minimizedAffinity -4.26894855
REMARK minimizedRMSD -1
REMARK  0 active torsions:
REMARK  status: ('A' for Active; 'I' for Inactive)
ROOT
ATOM      1  C1  BNZ d   1       1.938  -0.960   0.012  0.00  0.00     0.000 A 
ATOM      2  C2  BNZ d   1       1.606   0.276  -0.475  0.00  0.00     0.000 A 
ATOM      3  C3  BNZ d   1       0.325   0.744  -0.382  0.00  0.00     0.000 A 
ATOM      4  C4  BNZ d   1      -0.629  -0.039   0.162  0.00  0.00     0.000 A 
ATOM      5  C5  BNZ d   1      -0.312  -1.291   0.649  0.00  0.00     0.000 A 
ATOM      6  C6  BNZ d   1       0.986  -1.743   0.589  0.00  0.00     0.000 A 
ENDROOT
TORSDOF 0
ENDMDL
