MODEL 1
REMARK minimizedAffinity -3.11345363
REMARK minimizedRMSD -1
REMARK  0 active torsions:
REMARK  status: ('A' for Active; 'I' for Inactive)
ROOT
ATOM      1  C1  BNZ d   1      -0.485  -1.790   1.558  0.00  0.00     0.000 A 
ATOM      2  C2  BNZ d   1       0.406  -2.547   2.271  0.00  0.00     0.000 A 
ATOM      3  C3  BNZ d   1       1.747  -2.478   2.013  0.00  0.00     0.000 A 
ATOM      4  C4  BNZ d   1       2.191  -1.684   1.018  0.00  0.00     0.000 A 
ATOM      5  C5  BNZ d   1       1.304  -0.921   0.284  0.00  0.00     0.000 A 
ATOM      6  C6  BNZ d   1      -0.041  -0.964   0.572  0.00  0.00     0.000 A 
ENDROOT
TORSDOF 0
ENDMDL
