MODEL 1
REMARK minimizedAffinity -4.07009411
REMARK minimizedRMSD -1
REMARK  0 active torsions:
REMARK  status: ('A' for Active; 'I' for Inactive)
ROOT
ATOM      1  C1  BNZ d   1       0.870  -1.203   0.434  0.00  0.00     0.000 A 
ATOM      2  C2  BNZ d   1       1.456  -2.133   1.251  0.00  0.00     0.000 A 
ATOM      3  C3  BNZ d   1       0.867  -2.500   2.429  0.00  0.00     0.000 A 
ATOM      4  C4  BNZ d   1      -0.286  -1.909   2.806  0.00  0.00     0.000 A 
ATOM      5  C5  BNZ d   1      -0.884  -0.964   1.997  0.00  0.00     0.000 A 
ATOM      6  C6  BNZ d   1      -0.308  -0.625   0.794  0.00  0.00     0.000 A 
ENDROOT
TORSDOF 0
ENDMDL
