MODEL 1
REMARK minimizedAffinity -3.53457737
REMARK minimizedRMSD -1
REMARK  0 active torsions:
REMARK  status: ('A' for Active; 'I' for Inactive)
ROOT
ATOM      1  C1  BNZ d   1      -1.453   2.466  -3.293  0.00  0.00     0.000 A 
ATOM      2  C2  BNZ d   1      -0.692   2.677  -2.174  0.00  0.00     0.000 A 
ATOM      3  C3  BNZ d   1      -0.800   1.853  -1.089  0.00  0.00     0.000 A 
ATOM      4  C4  BNZ d   1      -1.696   0.845  -1.108  0.00  0.00     0.000 A 
ATOM      5  C5  BNZ d   1      -2.477   0.625  -2.225  0.00  0.00     0.000 A 
ATOM      6  C6  BNZ d   1      -2.338   1.433  -3.330  0.00  0.00     0.000 A 
ENDROOT
TORSDOF 0
ENDMDL
