MODEL 1
REMARK minimizedAffinity -4.47677612
REMARK minimizedRMSD -1
REMARK  0 active torsions:
REMARK  status: ('A' for Active; 'I' for Inactive)
ROOT
ATOM      1  C1  BNZ d   1       0.696  -1.012   0.223  0.00  0.00     0.000 A 
ATOM      2  C2  BNZ d   1      -0.094  -1.074   1.340  0.00  0.00     0.000 A 
ATOM      3  C3  BNZ d   1      -0.057  -2.165   2.163  0.00  0.00     0.000 A 
ATOM      4  C4  BNZ d   1       0.740  -3.206   1.848  0.00  0.00     0.000 A 
ATOM      5  C5  BNZ d   1       1.536  -3.162   0.721  0.00  0.00     0.000 A 
ATOM      6  C6  BNZ d   1       1.524  -2.047  -0.084  0.00  0.00     0.000 A 
ENDROOT
TORSDOF 0
ENDMDL
