MODEL 1
REMARK minimizedAffinity -4.79333639
REMARK minimizedRMSD -1
REMARK  0 active torsions:
REMARK  status: ('A' for Active; 'I' for Inactive)
ROOT
ATOM      1  C1  BNZ d   1       1.126  -0.554  -0.066  0.00  0.00     0.000 A 
ATOM      2  C2  BNZ d   1       1.776  -1.651   0.435  0.00  0.00     0.000 A 
ATOM      3  C3  BNZ d   1       1.234  -2.381   1.455  0.00  0.00     0.000 A 
ATOM      4  C4  BNZ d   1       0.063  -1.992   2.000  0.00  0.00     0.000 A 
ATOM      5  C5  BNZ d   1      -0.600  -0.883   1.513  0.00  0.00     0.000 A 
ATOM      6  C6  BNZ d   1      -0.070  -0.173   0.460  0.00  0.00     0.000 A 
ENDROOT
TORSDOF 0
ENDMDL
