MODEL 1
REMARK minimizedAffinity -5.51697779
REMARK minimizedRMSD -1
REMARK  0 active torsions:
REMARK  status: ('A' for Active; 'I' for Inactive)
ROOT
ATOM      1  C1  BNZ d   1      -0.030  -0.532   0.759  0.00  0.00     0.000 A 
ATOM      2  C2  BNZ d   1      -0.620  -1.088   1.863  0.00  0.00     0.000 A 
ATOM      3  C3  BNZ d   1      -0.053  -2.159   2.495  0.00  0.00     0.000 A 
ATOM      4  C4  BNZ d   1       1.079  -2.698   1.999  0.00  0.00     0.000 A 
ATOM      5  C5  BNZ d   1       1.681  -2.154   0.882  0.00  0.00     0.000 A 
ATOM      6  C6  BNZ d   1       1.129  -1.052   0.271  0.00  0.00     0.000 A 
ENDROOT
TORSDOF 0
ENDMDL
