MODEL 1
REMARK minimizedAffinity -5.33367968
REMARK minimizedRMSD -1
REMARK  0 active torsions:
REMARK  status: ('A' for Active; 'I' for Inactive)
ROOT
ATOM      1  C1  BNZ d   1       1.269  -3.145   1.823  0.00  0.00     0.000 A 
ATOM      2  C2  BNZ d   1       1.655  -2.693   0.589  0.00  0.00     0.000 A 
ATOM      3  C3  BNZ d   1       1.036  -1.620   0.012  0.00  0.00     0.000 A 
ATOM      4  C4  BNZ d   1       0.006  -1.027   0.649  0.00  0.00     0.000 A 
ATOM      5  C5  BNZ d   1      -0.401  -1.477   1.889  0.00  0.00     0.000 A 
ATOM      6  C6  BNZ d   1       0.250  -2.532   2.485  0.00  0.00     0.000 A 
ENDROOT
TORSDOF 0
ENDMDL
