MODEL 1
REMARK minimizedAffinity -1.03279948
REMARK minimizedRMSD -1
REMARK  0 active torsions:
REMARK  status: ('A' for Active; 'I' for Inactive)
ROOT
ATOM      1  C1  BNZ d   1       0.092   0.960  -0.646  0.00  0.00     0.000 A 
ATOM      2  C2  BNZ d   1       1.280   0.281  -0.700  0.00  0.00     0.000 A 
ATOM      3  C3  BNZ d   1       1.477  -0.844   0.050  0.00  0.00     0.000 A 
ATOM      4  C4  BNZ d   1       0.504  -1.266   0.882  0.00  0.00     0.000 A 
ATOM      5  C5  BNZ d   1      -0.696  -0.587   0.955  0.00  0.00     0.000 A 
ATOM      6  C6  BNZ d   1      -0.906   0.523   0.170  0.00  0.00     0.000 A 
ENDROOT
TORSDOF 0
ENDMDL
