MODEL 1
REMARK minimizedAffinity -1.76019537
REMARK minimizedRMSD -1
REMARK  0 active torsions:
REMARK  status: ('A' for Active; 'I' for Inactive)
ROOT
ATOM      1  C1  BNZ d   1      -1.972   0.822  -0.650  0.00  0.00     0.000 A 
ATOM      2  C2  BNZ d   1      -3.002   0.870  -1.552  0.00  0.00     0.000 A 
ATOM      3  C3  BNZ d   1      -2.926   1.669  -2.659  0.00  0.00     0.000 A 
ATOM      4  C4  BNZ d   1      -1.840   2.448  -2.841  0.00  0.00     0.000 A 
ATOM      5  C5  BNZ d   1      -0.798   2.418  -1.936  0.00  0.00     0.000 A 
ATOM      6  C6  BNZ d   1      -0.861   1.583  -0.844  0.00  0.00     0.000 A 
ENDROOT
TORSDOF 0
ENDMDL
