MODEL 1
REMARK minimizedAffinity -5.50753164
REMARK minimizedRMSD -1
REMARK  1 active torsions:
REMARK  status: ('A' for Active; 'I' for Inactive)
REMARK    1  A    between atoms: N_2  and  C1_3 
ROOT
ATOM      1  C1  UNL d   1       0.304   0.017   0.093  0.00  0.00     0.143 A 
ATOM      2  C2  UNL d   1       1.069   0.825   0.941  0.00  0.00    -0.057 A 
ATOM      3  C3  UNL d   1       0.491   1.482   2.034  0.00  0.00     0.033 A 
ATOM      4  C4  UNL d   1      -0.872   1.365   2.282  0.00  0.00    -0.042 A 
ATOM      5  C5  UNL d   1      -1.657   0.588   1.437  0.00  0.00     0.033 A 
ATOM      6  C6  UNL d   1      -1.073  -0.071   0.351  0.00  0.00    -0.057 A 
ENDROOT
BRANCH   1   7
ATOM      7  N   UNL d   1       0.801  -0.583  -1.067  0.00  0.00    -0.732 N 
ATOM      8  C   UNL d   1       1.000   0.194  -2.272  0.00  0.00     0.284 C 
ATOM      9  H3  UNL d   1       1.548  -1.246  -0.872  0.00  0.00     0.395 HD
ENDBRANCH   1   7
TORSDOF 1
ENDMDL
