MODEL 1
REMARK minimizedAffinity -1.25470984
REMARK minimizedRMSD -1
REMARK  1 active torsions:
REMARK  status: ('A' for Active; 'I' for Inactive)
REMARK    1  A    between atoms: N_2  and  C1_3 
ROOT
ATOM      1  C1  UNL d   1      -0.123  -0.164   0.474  0.00  0.00     0.143 A 
ATOM      2  C2  UNL d   1      -1.230  -0.536   1.245  0.00  0.00    -0.057 A 
ATOM      3  C3  UNL d   1      -1.490   0.069   2.480  0.00  0.00     0.033 A 
ATOM      4  C4  UNL d   1      -0.629   1.039   2.982  0.00  0.00    -0.042 A 
ATOM      5  C5  UNL d   1       0.491   1.407   2.244  0.00  0.00     0.033 A 
ATOM      6  C6  UNL d   1       0.742   0.804   1.008  0.00  0.00    -0.057 A 
ENDROOT
BRANCH   1   7
ATOM      7  N   UNL d   1       0.244  -0.797  -0.716  0.00  0.00    -0.732 N 
ATOM      8  C   UNL d   1       0.415  -0.035  -1.934  0.00  0.00     0.284 C 
ATOM      9  H3  UNL d   1       0.951  -1.515  -0.572  0.00  0.00     0.395 HD
ENDBRANCH   1   7
TORSDOF 1
ENDMDL
