MODEL 1
REMARK minimizedAffinity -2.90000916
REMARK minimizedRMSD -1
REMARK  1 active torsions:
REMARK  status: ('A' for Active; 'I' for Inactive)
REMARK    1  A    between atoms: N_2  and  C1_3 
ROOT
ATOM      1  C1  UNL d   1      -0.364   0.099   0.426  0.00  0.00     0.143 A 
ATOM      2  C2  UNL d   1       0.237   1.352   0.593  0.00  0.00    -0.057 A 
ATOM      3  C3  UNL d   1      -0.101   2.182   1.669  0.00  0.00     0.033 A 
ATOM      4  C4  UNL d   1      -1.070   1.785   2.584  0.00  0.00    -0.042 A 
ATOM      5  C5  UNL d   1      -1.699   0.555   2.424  0.00  0.00     0.033 A 
ATOM      6  C6  UNL d   1      -1.352  -0.272   1.351  0.00  0.00    -0.057 A 
ENDROOT
BRANCH   1   7
ATOM      7  N   UNL d   1      -0.143  -0.729  -0.677  0.00  0.00    -0.732 N 
ATOM      8  C   UNL d   1       0.352  -0.182  -1.922  0.00  0.00     0.284 C 
ATOM      9  H3  UNL d   1       0.278  -1.618  -0.416  0.00  0.00     0.395 HD
ENDBRANCH   1   7
TORSDOF 1
ENDMDL
