MODEL 1
REMARK minimizedAffinity -4.23243475
REMARK minimizedRMSD -1
REMARK  1 active torsions:
REMARK  status: ('A' for Active; 'I' for Inactive)
REMARK    1  A    between atoms: N_2  and  C1_3 
ROOT
ATOM      1  C1  UNL d   1       0.093  -0.362  -0.871  0.00  0.00     0.143 A 
ATOM      2  C2  UNL d   1       1.035  -0.148   0.141  0.00  0.00    -0.057 A 
ATOM      3  C3  UNL d   1       0.670   0.422   1.366  0.00  0.00     0.033 A 
ATOM      4  C4  UNL d   1      -0.645   0.817   1.591  0.00  0.00    -0.042 A 
ATOM      5  C5  UNL d   1      -1.594   0.637   0.591  0.00  0.00     0.033 A 
ATOM      6  C6  UNL d   1      -1.224   0.061  -0.628  0.00  0.00    -0.057 A 
ENDROOT
BRANCH   1   7
ATOM      7  N   UNL d   1       0.413  -0.834  -2.146  0.00  0.00    -0.732 N 
ATOM      8  C   UNL d   1       0.866   0.076  -3.176  0.00  0.00     0.284 C 
ATOM      9  H3  UNL d   1       0.920  -1.715  -2.118  0.00  0.00     0.395 HD
ENDBRANCH   1   7
TORSDOF 1
ENDMDL
