MODEL 1
REMARK minimizedAffinity -3.05936646
REMARK minimizedRMSD -1
REMARK  1 active torsions:
REMARK  status: ('A' for Active; 'I' for Inactive)
REMARK    1  A    between atoms: N_2  and  C1_3 
ROOT
ATOM      1  C1  UNL d   1       0.878  -0.276  -0.844  0.00  0.00     0.143 A 
ATOM      2  C2  UNL d   1       1.883  -0.804  -0.027  0.00  0.00    -0.057 A 
ATOM      3  C3  UNL d   1       2.098  -0.315   1.268  0.00  0.00     0.033 A 
ATOM      4  C4  UNL d   1       1.328   0.734   1.758  0.00  0.00    -0.042 A 
ATOM      5  C5  UNL d   1       0.340   1.292   0.954  0.00  0.00     0.033 A 
ATOM      6  C6  UNL d   1       0.126   0.794  -0.335  0.00  0.00    -0.057 A 
ENDROOT
BRANCH   1   7
ATOM      7  N   UNL d   1       0.680  -0.652  -2.175  0.00  0.00    -0.732 N 
ATOM      8  C   UNL d   1       1.337   0.061  -3.248  0.00  0.00     0.284 C 
ATOM      9  H3  UNL d   1       0.665  -1.662  -2.294  0.00  0.00     0.395 HD
ENDBRANCH   1   7
TORSDOF 1
ENDMDL
