MODEL 1
REMARK minimizedAffinity -3.88939929
REMARK minimizedRMSD -1
REMARK  1 active torsions:
REMARK  status: ('A' for Active; 'I' for Inactive)
REMARK    1  A    between atoms: N_2  and  C1_3 
ROOT
ATOM      1  C1  UNL d   1       0.104  -0.195  -0.061  0.00  0.00     0.143 A 
ATOM      2  C2  UNL d   1       0.957   0.311   0.926  0.00  0.00    -0.057 A 
ATOM      3  C3  UNL d   1       0.461   1.059   2.001  0.00  0.00     0.033 A 
ATOM      4  C4  UNL d   1      -0.898   1.339   2.092  0.00  0.00    -0.042 A 
ATOM      5  C5  UNL d   1      -1.761   0.868   1.109  0.00  0.00     0.033 A 
ATOM      6  C6  UNL d   1      -1.261   0.116   0.042  0.00  0.00    -0.057 A 
ENDROOT
BRANCH   1   7
ATOM      7  N   UNL d   1       0.548  -0.861  -1.206  0.00  0.00    -0.732 N 
ATOM      8  C   UNL d   1       0.955  -0.118  -2.379  0.00  0.00     0.284 C 
ATOM      9  H3  UNL d   1       1.149  -1.653  -0.986  0.00  0.00     0.395 HD
ENDBRANCH   1   7
TORSDOF 1
ENDMDL
