MODEL 1
REMARK minimizedAffinity -2.86853433
REMARK minimizedRMSD -1
REMARK  0 active torsions:
REMARK  status: ('A' for Active; 'I' for Inactive)
ROOT
ATOM      1  C   UNL d   1       1.167  -0.288   2.790  0.00  0.00     0.077 C 
ATOM      2  C1  UNL d   1       0.239  -0.178   1.617  0.00  0.00    -0.074 A 
ATOM      3  C2  UNL d   1      -1.148  -0.168   1.796  0.00  0.00    -0.005 A 
ATOM      4  C3  UNL d   1      -1.998  -0.056   0.696  0.00  0.00     0.006 A 
ATOM      5  C4  UNL d   1      -1.471   0.049  -0.592  0.00  0.00    -0.005 A 
ATOM      6  C5  UNL d   1      -0.086   0.042  -0.790  0.00  0.00    -0.074 A 
ATOM      7  C6  UNL d   1       0.497   0.163  -2.166  0.00  0.00     0.077 C 
ATOM      8  C7  UNL d   1       0.762  -0.065   0.321  0.00  0.00    -0.001 A 
ENDROOT
TORSDOF 0
ENDMDL
