MODEL 1
REMARK minimizedAffinity -2.72205472
REMARK minimizedRMSD -1
REMARK  0 active torsions:
REMARK  status: ('A' for Active; 'I' for Inactive)
ROOT
ATOM      1  C   UNL d   1       2.030  -1.426   3.220  0.00  0.00     0.077 C 
ATOM      2  C1  UNL d   1       1.229  -1.009   2.023  0.00  0.00    -0.074 A 
ATOM      3  C2  UNL d   1       1.839  -0.824   0.778  0.00  0.00    -0.005 A 
ATOM      4  C3  UNL d   1       1.079  -0.446  -0.328  0.00  0.00     0.006 A 
ATOM      5  C4  UNL d   1      -0.296  -0.247  -0.202  0.00  0.00    -0.005 A 
ATOM      6  C5  UNL d   1      -0.924  -0.428   1.035  0.00  0.00    -0.074 A 
ATOM      7  C6  UNL d   1      -2.403  -0.228   1.186  0.00  0.00     0.077 C 
ATOM      8  C7  UNL d   1      -0.155  -0.815   2.141  0.00  0.00    -0.001 A 
ENDROOT
TORSDOF 0
ENDMDL
