MODEL 1
REMARK minimizedAffinity -5.04687738
REMARK minimizedRMSD -1
REMARK  0 active torsions:
REMARK  status: ('A' for Active; 'I' for Inactive)
ROOT
ATOM      1  C   UNL d   1       2.049  -0.518   2.902  0.00  0.00     0.077 C 
ATOM      2  C1  UNL d   1       1.013  -0.542   1.819  0.00  0.00    -0.074 A 
ATOM      3  C2  UNL d   1       1.383  -0.568   0.470  0.00  0.00    -0.005 A 
ATOM      4  C3  UNL d   1       0.407  -0.599  -0.526  0.00  0.00     0.006 A 
ATOM      5  C4  UNL d   1      -0.946  -0.604  -0.185  0.00  0.00    -0.005 A 
ATOM      6  C5  UNL d   1      -1.335  -0.579   1.158  0.00  0.00    -0.074 A 
ATOM      7  C6  UNL d   1      -2.785  -0.593   1.542  0.00  0.00     0.077 C 
ATOM      8  C7  UNL d   1      -0.349  -0.554   2.154  0.00  0.00    -0.001 A 
ENDROOT
TORSDOF 0
ENDMDL
