MODEL 1
REMARK minimizedAffinity -1.59124947
REMARK minimizedRMSD -1
REMARK  0 active torsions:
REMARK  status: ('A' for Active; 'I' for Inactive)
ROOT
ATOM      1  C   UNL d   1       1.895  -0.961   2.641  0.00  0.00     0.077 C 
ATOM      2  C1  UNL d   1       0.830  -0.653   1.631  0.00  0.00    -0.074 A 
ATOM      3  C2  UNL d   1      -0.479  -1.116   1.802  0.00  0.00    -0.005 A 
ATOM      4  C3  UNL d   1      -1.461  -0.814   0.859  0.00  0.00     0.006 A 
ATOM      5  C4  UNL d   1      -1.145  -0.048  -0.264  0.00  0.00    -0.005 A 
ATOM      6  C5  UNL d   1       0.158   0.424  -0.452  0.00  0.00    -0.074 A 
ATOM      7  C6  UNL d   1       0.512   1.257  -1.648  0.00  0.00     0.077 C 
ATOM      8  C7  UNL d   1       1.137   0.122   0.504  0.00  0.00    -0.001 A 
ENDROOT
TORSDOF 0
ENDMDL
