MODEL 1
REMARK minimizedAffinity -3.29371786
REMARK minimizedRMSD -1
REMARK  0 active torsions:
REMARK  status: ('A' for Active; 'I' for Inactive)
ROOT
ATOM      1  C   UNL d   1      -1.269   0.386  -0.775  0.00  0.00     0.077 C 
ATOM      2  C1  UNL d   1      -0.240   0.070   0.269  0.00  0.00    -0.074 A 
ATOM      3  C2  UNL d   1      -0.591  -0.023   1.620  0.00  0.00    -0.005 A 
ATOM      4  C3  UNL d   1       0.376  -0.327   2.578  0.00  0.00     0.006 A 
ATOM      5  C4  UNL d   1       1.701  -0.540   2.196  0.00  0.00    -0.005 A 
ATOM      6  C5  UNL d   1       2.071  -0.452   0.850  0.00  0.00    -0.074 A 
ATOM      7  C6  UNL d   1       3.489  -0.688   0.422  0.00  0.00     0.077 C 
ATOM      8  C7  UNL d   1       1.092  -0.153  -0.108  0.00  0.00    -0.001 A 
ENDROOT
TORSDOF 0
ENDMDL
