MODEL 1
REMARK minimizedAffinity -1.42387986
REMARK minimizedRMSD -1
REMARK  0 active torsions:
REMARK  status: ('A' for Active; 'I' for Inactive)
ROOT
ATOM      1  C   UNL d   1      -2.823   2.953  -2.638  0.00  0.00     0.077 C 
ATOM      2  C1  UNL d   1      -1.377   2.556  -2.682  0.00  0.00    -0.074 A 
ATOM      3  C2  UNL d   1      -0.443   3.322  -3.386  0.00  0.00    -0.005 A 
ATOM      4  C3  UNL d   1       0.900   2.946  -3.410  0.00  0.00     0.006 A 
ATOM      5  C4  UNL d   1       1.321   1.801  -2.731  0.00  0.00    -0.005 A 
ATOM      6  C5  UNL d   1       0.401   1.024  -2.021  0.00  0.00    -0.074 A 
ATOM      7  C6  UNL d   1       0.839  -0.203  -1.278  0.00  0.00     0.077 C 
ATOM      8  C7  UNL d   1      -0.945   1.413  -1.996  0.00  0.00    -0.001 A 
ENDROOT
TORSDOF 0
ENDMDL
