MODEL 1
REMARK minimizedAffinity 19.1843185
REMARK minimizedRMSD -1
REMARK  2 active torsions:
REMARK  status: ('A' for Active; 'I' for Inactive)
REMARK    1  A    between atoms: C2'_3  and  C1'_4 
REMARK    2  A    between atoms: C1'_4  and  C1_5 
ROOT
ATOM      1  C1  I4B d   1      -2.654   4.170  -3.066  0.00  0.00    -0.075 A 
ATOM      2  C2  I4B d   1      -3.515   3.188  -2.646  0.00  0.00     0.003 A 
ATOM      3  C3  I4B d   1      -4.510   3.477  -1.680  0.00  0.00     0.002 A 
ATOM      4  C4  I4B d   1      -4.574   4.741  -1.129  0.00  0.00    -0.004 A 
ATOM      5  C5  I4B d   1      -3.715   5.741  -1.573  0.00  0.00     0.002 A 
ATOM      6  C6  I4B d   1      -2.756   5.458  -2.557  0.00  0.00     0.003 A 
ENDROOT
BRANCH   1   7
ATOM      7  C1' I4B d   1      -1.594   3.821  -4.063  0.00  0.00     0.060 C 
BRANCH   7   8
ATOM      8  C2' I4B d   1      -1.965   4.464  -5.384  0.00  0.00    -0.013 C 
ATOM      9  C4' I4B d   1      -3.164   3.791  -5.999  0.00  0.00     0.013 C 
ATOM     10  C3' I4B d   1      -2.230   5.918  -5.132  0.00  0.00     0.013 C 
ENDBRANCH   7   8
ENDBRANCH   1   7
TORSDOF 2
ENDMDL
