MODEL 1
REMARK minimizedAffinity 19.2799988
REMARK minimizedRMSD -1
REMARK  2 active torsions:
REMARK  status: ('A' for Active; 'I' for Inactive)
REMARK    1  A    between atoms: C2'_3  and  C1'_4 
REMARK    2  A    between atoms: C1'_4  and  C1_5 
ROOT
ATOM      1  C1  I4B d   1       1.246  -1.339   2.127  0.00  0.00    -0.075 A 
ATOM      2  C2  I4B d   1       0.794  -0.466   3.085  0.00  0.00     0.003 A 
ATOM      3  C3  I4B d   1      -0.487  -0.641   3.661  0.00  0.00     0.002 A 
ATOM      4  C4  I4B d   1      -1.299  -1.664   3.216  0.00  0.00    -0.004 A 
ATOM      5  C5  I4B d   1      -0.830  -2.562   2.261  0.00  0.00     0.002 A 
ATOM      6  C6  I4B d   1       0.455  -2.406   1.721  0.00  0.00     0.003 A 
ENDROOT
BRANCH   1   7
ATOM      7  C1' I4B d   1       2.591  -1.106   1.516  0.00  0.00     0.060 C 
BRANCH   7   8
ATOM      8  C2' I4B d   1       3.068   0.267   1.946  0.00  0.00    -0.013 C 
ATOM      9  C4' I4B d   1       4.278   0.169   2.837  0.00  0.00     0.013 C 
ATOM     10  C3' I4B d   1       3.367   1.061   0.710  0.00  0.00     0.013 C 
ENDBRANCH   7   8
ENDBRANCH   1   7
TORSDOF 2
ENDMDL
