MODEL 1
REMARK minimizedAffinity 25.5331459
REMARK minimizedRMSD -1
REMARK  2 active torsions:
REMARK  status: ('A' for Active; 'I' for Inactive)
REMARK    1  A    between atoms: C2'_3  and  C1'_4 
REMARK    2  A    between atoms: C1'_4  and  C1_5 
ROOT
ATOM      1  C1  I4B d   1      -3.817   3.315  -1.643  0.00  0.00    -0.075 A 
ATOM      2  C2  I4B d   1      -3.528   4.646  -1.474  0.00  0.00     0.003 A 
ATOM      3  C3  I4B d   1      -4.363   5.461  -0.672  0.00  0.00     0.002 A 
ATOM      4  C4  I4B d   1      -5.497   4.919  -0.103  0.00  0.00    -0.004 A 
ATOM      5  C5  I4B d   1      -5.777   3.565  -0.256  0.00  0.00     0.002 A 
ATOM      6  C6  I4B d   1      -4.925   2.754  -1.021  0.00  0.00     0.003 A 
ENDROOT
BRANCH   1   7
ATOM      7  C1' I4B d   1      -2.932   2.491  -2.523  0.00  0.00     0.060 C 
BRANCH   7   8
ATOM      8  C2' I4B d   1      -1.643   3.258  -2.738  0.00  0.00    -0.013 C 
ATOM      9  C4' I4B d   1      -0.446   2.430  -2.350  0.00  0.00     0.013 C 
ATOM     10  C3' I4B d   1      -1.579   3.661  -4.180  0.00  0.00     0.013 C 
ENDBRANCH   7   8
ENDBRANCH   1   7
TORSDOF 2
ENDMDL
