MODEL 1
REMARK minimizedAffinity 14.5188923
REMARK minimizedRMSD -1
REMARK  2 active torsions:
REMARK  status: ('A' for Active; 'I' for Inactive)
REMARK    1  A    between atoms: C2'_3  and  C1'_4 
REMARK    2  A    between atoms: C1'_4  and  C1_5 
ROOT
ATOM      1  C1  I4B d   1       5.396  -1.209  -4.255  0.00  0.00    -0.075 A 
ATOM      2  C2  I4B d   1       4.956   0.089  -4.185  0.00  0.00     0.003 A 
ATOM      3  C3  I4B d   1       4.352   0.574  -3.000  0.00  0.00     0.002 A 
ATOM      4  C4  I4B d   1       4.164  -0.281  -1.933  0.00  0.00    -0.004 A 
ATOM      5  C5  I4B d   1       4.632  -1.591  -1.997  0.00  0.00     0.002 A 
ATOM      6  C6  I4B d   1       5.263  -2.055  -3.161  0.00  0.00     0.003 A 
ENDROOT
BRANCH   1   7
ATOM      7  C1' I4B d   1       5.999  -1.698  -5.533  0.00  0.00     0.060 C 
BRANCH   7   8
ATOM      8  C2' I4B d   1       5.197  -2.896  -6.000  0.00  0.00    -0.013 C 
ATOM      9  C4' I4B d   1       5.996  -4.167  -5.883  0.00  0.00     0.013 C 
ATOM     10  C3' I4B d   1       3.946  -2.965  -5.175  0.00  0.00     0.013 C 
ENDBRANCH   7   8
ENDBRANCH   1   7
TORSDOF 2
ENDMDL
