MODEL 1
REMARK minimizedAffinity 10.8769131
REMARK minimizedRMSD -1
REMARK  2 active torsions:
REMARK  status: ('A' for Active; 'I' for Inactive)
REMARK    1  A    between atoms: C2'_3  and  C1'_4 
REMARK    2  A    between atoms: C1'_4  and  C1_5 
ROOT
ATOM      1  C1  I4B d   1       1.819  -0.394   3.133  0.00  0.00    -0.075 A 
ATOM      2  C2  I4B d   1       0.545  -0.739   2.756  0.00  0.00     0.003 A 
ATOM      3  C3  I4B d   1      -0.506  -0.728   3.704  0.00  0.00     0.002 A 
ATOM      4  C4  I4B d   1      -0.231  -0.417   5.020  0.00  0.00    -0.004 A 
ATOM      5  C5  I4B d   1       1.056  -0.045   5.396  0.00  0.00     0.002 A 
ATOM      6  C6  I4B d   1       2.086  -0.021   4.444  0.00  0.00     0.003 A 
ENDROOT
BRANCH   1   7
ATOM      7  C1' I4B d   1       2.912  -0.448   2.113  0.00  0.00     0.060 C 
BRANCH   7   8
ATOM      8  C2' I4B d   1       4.042   0.441   2.592  0.00  0.00    -0.013 C 
ATOM      9  C4' I4B d   1       5.296  -0.357   2.838  0.00  0.00     0.013 C 
ATOM     10  C3' I4B d   1       4.269   1.500   1.556  0.00  0.00     0.013 C 
ENDBRANCH   7   8
ENDBRANCH   1   7
TORSDOF 2
ENDMDL
