MODEL 1
REMARK minimizedAffinity 9.51572609
REMARK minimizedRMSD -1
REMARK  0 active torsions:
REMARK  status: ('A' for Active; 'I' for Inactive)
ROOT
ATOM      1  C   UNL d   1      -0.409  -1.651   3.762  0.00  0.00    -0.002 A 
ATOM      2  C1  UNL d   1       0.460  -0.635   4.135  0.00  0.00     0.010 A 
ATOM      3  C2  UNL d   1       1.463  -0.204   3.265  0.00  0.00     0.041 A 
ATOM      4  C3  UNL d   1       1.579  -0.815   2.001  0.00  0.00    -0.075 A 
ATOM      5  S   UNL d   1       2.731  -0.450   0.772  0.00  0.00     0.015 SA
ATOM      6  C4  UNL d   1       2.097  -1.633  -0.278  0.00  0.00     0.022 A 
ATOM      7  C5  UNL d   1       1.032  -2.300   0.280  0.00  0.00     0.026 A 
ATOM      8  C6  UNL d   1       0.715  -1.839   1.602  0.00  0.00    -0.082 A 
ATOM      9  C7  UNL d   1      -0.291  -2.255   2.507  0.00  0.00     0.045 A 
ENDROOT
TORSDOF 0
ENDMDL
