MODEL 1
REMARK minimizedAffinity 2.08694029
REMARK minimizedRMSD -1
REMARK  0 active torsions:
REMARK  status: ('A' for Active; 'I' for Inactive)
ROOT
ATOM      1  C   UNL d   1       1.518  -3.646   1.104  0.00  0.00    -0.002 A 
ATOM      2  C1  UNL d   1       2.627  -3.166   1.788  0.00  0.00     0.010 A 
ATOM      3  C2  UNL d   1       2.507  -2.089   2.668  0.00  0.00     0.041 A 
ATOM      4  C3  UNL d   1       1.242  -1.498   2.854  0.00  0.00    -0.075 A 
ATOM      5  S   UNL d   1       0.856  -0.169   3.882  0.00  0.00     0.015 SA
ATOM      6  C4  UNL d   1      -0.789  -0.208   3.439  0.00  0.00     0.022 A 
ATOM      7  C5  UNL d   1      -1.055  -1.204   2.530  0.00  0.00     0.026 A 
ATOM      8  C6  UNL d   1       0.111  -1.964   2.178  0.00  0.00    -0.082 A 
ATOM      9  C7  UNL d   1       0.265  -3.057   1.291  0.00  0.00     0.045 A 
ENDROOT
TORSDOF 0
ENDMDL
