MODEL 1
REMARK minimizedAffinity 7.02296448
REMARK minimizedRMSD -1
REMARK  0 active torsions:
REMARK  status: ('A' for Active; 'I' for Inactive)
ROOT
ATOM      1  C   UNL d   1       2.709  -3.447   1.200  0.00  0.00    -0.002 A 
ATOM      2  C1  UNL d   1       2.136  -4.710   1.153  0.00  0.00     0.010 A 
ATOM      3  C2  UNL d   1       0.879  -4.942   1.715  0.00  0.00     0.041 A 
ATOM      4  C3  UNL d   1       0.200  -3.872   2.330  0.00  0.00    -0.075 A 
ATOM      5  S   UNL d   1      -1.350  -3.920   3.084  0.00  0.00     0.015 SA
ATOM      6  C4  UNL d   1      -1.289  -2.265   3.486  0.00  0.00     0.022 A 
ATOM      7  C5  UNL d   1      -0.122  -1.675   3.063  0.00  0.00     0.026 A 
ATOM      8  C6  UNL d   1       0.756  -2.591   2.389  0.00  0.00    -0.082 A 
ATOM      9  C7  UNL d   1       2.032  -2.388   1.811  0.00  0.00     0.045 A 
ENDROOT
TORSDOF 0
ENDMDL
