MODEL 1
REMARK minimizedAffinity 11.8037186
REMARK minimizedRMSD -1
REMARK  0 active torsions:
REMARK  status: ('A' for Active; 'I' for Inactive)
ROOT
ATOM      1  C   UNL d   1       4.658  -3.077   2.314  0.00  0.00    -0.002 A 
ATOM      2  C1  UNL d   1       5.006  -2.254   1.252  0.00  0.00     0.010 A 
ATOM      3  C2  UNL d   1       4.021  -1.650   0.469  0.00  0.00     0.041 A 
ATOM      4  C3  UNL d   1       2.666  -1.887   0.774  0.00  0.00    -0.075 A 
ATOM      5  S   UNL d   1       1.289  -1.254  -0.046  0.00  0.00     0.015 SA
ATOM      6  C4  UNL d   1       0.206  -2.060   0.993  0.00  0.00     0.022 A 
ATOM      7  C5  UNL d   1       0.862  -2.799   1.949  0.00  0.00     0.026 A 
ATOM      8  C6  UNL d   1       2.291  -2.711   1.839  0.00  0.00    -0.082 A 
ATOM      9  C7  UNL d   1       3.313  -3.310   2.614  0.00  0.00     0.045 A 
ENDROOT
TORSDOF 0
ENDMDL
