MODEL 1
REMARK minimizedAffinity 9.16555977
REMARK minimizedRMSD -1
REMARK  0 active torsions:
REMARK  status: ('A' for Active; 'I' for Inactive)
ROOT
ATOM      1  C   UNL d   1       2.728  -2.554   0.431  0.00  0.00    -0.002 A 
ATOM      2  C1  UNL d   1       2.555  -3.696   1.201  0.00  0.00     0.010 A 
ATOM      3  C2  UNL d   1       1.520  -3.773   2.134  0.00  0.00     0.041 A 
ATOM      4  C3  UNL d   1       0.651  -2.674   2.281  0.00  0.00    -0.075 A 
ATOM      5  S   UNL d   1      -0.687  -2.543   3.361  0.00  0.00     0.015 SA
ATOM      6  C4  UNL d   1      -1.061  -0.969   2.825  0.00  0.00     0.022 A 
ATOM      7  C5  UNL d   1      -0.197  -0.538   1.847  0.00  0.00     0.026 A 
ATOM      8  C6  UNL d   1       0.804  -1.513   1.517  0.00  0.00    -0.082 A 
ATOM      9  C7  UNL d   1       1.864  -1.465   0.580  0.00  0.00     0.045 A 
ENDROOT
TORSDOF 0
ENDMDL
