MODEL 1
REMARK minimizedAffinity 14.2655373
REMARK minimizedRMSD -1
REMARK  0 active torsions:
REMARK  status: ('A' for Active; 'I' for Inactive)
ROOT
ATOM      1  C   UNL d   1       2.878  -2.517   1.639  0.00  0.00    -0.002 A 
ATOM      2  C1  UNL d   1       1.808  -2.656   2.511  0.00  0.00     0.010 A 
ATOM      3  C2  UNL d   1       0.515  -2.319   2.108  0.00  0.00     0.041 A 
ATOM      4  C3  UNL d   1       0.312  -1.838   0.799  0.00  0.00    -0.075 A 
ATOM      5  S   UNL d   1      -1.184  -1.365   0.085  0.00  0.00     0.015 SA
ATOM      6  C4  UNL d   1      -0.438  -0.968  -1.395  0.00  0.00     0.022 A 
ATOM      7  C5  UNL d   1       0.919  -1.185  -1.363  0.00  0.00     0.026 A 
ATOM      8  C6  UNL d   1       1.374  -1.690  -0.098  0.00  0.00    -0.082 A 
ATOM      9  C7  UNL d   1       2.674  -2.039   0.341  0.00  0.00     0.045 A 
ENDROOT
TORSDOF 0
ENDMDL
