MODEL 1
REMARK minimizedAffinity 2.91696215
REMARK minimizedRMSD -1
REMARK  0 active torsions:
REMARK  status: ('A' for Active; 'I' for Inactive)
ROOT
ATOM      1  C   UNL d   1       2.378  -4.088   1.530  0.00  0.00    -0.002 A 
ATOM      2  C1  UNL d   1       1.582  -5.223   1.585  0.00  0.00     0.010 A 
ATOM      3  C2  UNL d   1       0.317  -5.176   2.173  0.00  0.00     0.041 A 
ATOM      4  C3  UNL d   1      -0.141  -3.956   2.709  0.00  0.00    -0.075 A 
ATOM      5  S   UNL d   1      -1.656  -3.661   3.476  0.00  0.00     0.015 SA
ATOM      6  C4  UNL d   1      -1.284  -2.021   3.748  0.00  0.00     0.022 A 
ATOM      7  C5  UNL d   1      -0.037  -1.689   3.273  0.00  0.00     0.026 A 
ATOM      8  C6  UNL d   1       0.642  -2.799   2.665  0.00  0.00    -0.082 A 
ATOM      9  C7  UNL d   1       1.921  -2.879   2.063  0.00  0.00     0.045 A 
ENDROOT
TORSDOF 0
ENDMDL
