MODEL 1
REMARK minimizedAffinity 7.62338257
REMARK minimizedRMSD -1
REMARK  0 active torsions:
REMARK  status: ('A' for Active; 'I' for Inactive)
ROOT
ATOM      1  C   UNL d   1       5.981  -1.044  -1.254  0.00  0.00    -0.002 A 
ATOM      2  C1  UNL d   1       5.976  -1.615   0.011  0.00  0.00     0.010 A 
ATOM      3  C2  UNL d   1       5.980  -0.811   1.153  0.00  0.00     0.041 A 
ATOM      4  C3  UNL d   1       5.987   0.590   1.000  0.00  0.00    -0.075 A 
ATOM      5  S   UNL d   1       5.992   1.772   2.255  0.00  0.00     0.015 SA
ATOM      6  C4  UNL d   1       6.000   3.062   1.142  0.00  0.00     0.022 A 
ATOM      7  C5  UNL d   1       6.000   2.620  -0.160  0.00  0.00     0.026 A 
ATOM      8  C6  UNL d   1       5.992   1.188  -0.263  0.00  0.00    -0.082 A 
ATOM      9  C7  UNL d   1       5.989   0.346  -1.401  0.00  0.00     0.045 A 
ENDROOT
TORSDOF 0
ENDMDL
