MODEL 1
REMARK minimizedAffinity 1.8721087
REMARK minimizedRMSD -1
REMARK  0 active torsions:
REMARK  status: ('A' for Active; 'I' for Inactive)
ROOT
ATOM      1  C   UNL d   1      -3.029   0.066   2.809  0.00  0.00    -0.002 A 
ATOM      2  C1  UNL d   1      -3.202  -0.406   1.515  0.00  0.00     0.010 A 
ATOM      3  C2  UNL d   1      -2.168  -1.077   0.860  0.00  0.00     0.041 A 
ATOM      4  C3  UNL d   1      -0.946  -1.269   1.533  0.00  0.00    -0.075 A 
ATOM      5  S   UNL d   1       0.460  -2.063   0.929  0.00  0.00     0.015 SA
ATOM      6  C4  UNL d   1       1.324  -1.794   2.374  0.00  0.00     0.022 A 
ATOM      7  C5  UNL d   1       0.573  -1.117   3.305  0.00  0.00     0.026 A 
ATOM      8  C6  UNL d   1      -0.747  -0.803   2.836  0.00  0.00    -0.082 A 
ATOM      9  C7  UNL d   1      -1.815  -0.126   3.473  0.00  0.00     0.045 A 
ENDROOT
TORSDOF 0
ENDMDL
