MODEL 1
REMARK minimizedAffinity 11.6531906
REMARK minimizedRMSD -1
REMARK  0 active torsions:
REMARK  status: ('A' for Active; 'I' for Inactive)
ROOT
ATOM      1  C   UNL d   1       3.614  -4.927   1.631  0.00  0.00    -0.002 A 
ATOM      2  C1  UNL d   1       3.846  -4.366   2.878  0.00  0.00     0.010 A 
ATOM      3  C2  UNL d   1       3.252  -3.153   3.233  0.00  0.00     0.041 A 
ATOM      4  C3  UNL d   1       2.411  -2.509   2.304  0.00  0.00    -0.075 A 
ATOM      5  S   UNL d   1       1.576  -1.016   2.520  0.00  0.00     0.015 SA
ATOM      6  C4  UNL d   1       0.890  -1.089   0.962  0.00  0.00     0.022 A 
ATOM      7  C5  UNL d   1       1.278  -2.218   0.279  0.00  0.00     0.026 A 
ATOM      8  C6  UNL d   1       2.161  -3.055   1.042  0.00  0.00    -0.082 A 
ATOM      9  C7  UNL d   1       2.779  -4.285   0.712  0.00  0.00     0.045 A 
ENDROOT
TORSDOF 0
ENDMDL
