MODEL 1
REMARK minimizedAffinity -3.16441369
REMARK minimizedRMSD -1
REMARK  0 active torsions:
REMARK  status: ('A' for Active; 'I' for Inactive)
ROOT
ATOM      1  C4' PXY d   1       2.623  -0.465  -0.634  0.00  0.00     0.077 C 
ATOM      2  C1' PXY d   1       1.721  -1.670   4.948  0.00  0.00     0.077 C 
ATOM      3  C1  PXY d   1       1.958  -1.341   3.487  0.00  0.00    -0.082 A 
ATOM      4  C2  PXY d   1       1.551  -2.185   2.552  0.00  0.00     0.003 A 
ATOM      5  C3  PXY d   1       1.786  -1.918   1.228  0.00  0.00     0.003 A 
ATOM      6  C4  PXY d   1       2.396  -0.751   0.853  0.00  0.00    -0.082 A 
ATOM      7  C5  PXY d   1       2.804   0.120   1.800  0.00  0.00     0.003 A 
ATOM      8  C6  PXY d   1       2.593  -0.189   3.141  0.00  0.00     0.003 A 
ENDROOT
TORSDOF 0
ENDMDL
