MODEL 1
REMARK minimizedAffinity -0.773635387
REMARK minimizedRMSD -1
REMARK  0 active torsions:
REMARK  status: ('A' for Active; 'I' for Inactive)
ROOT
ATOM      1  C4' PXY d   1      -2.525   2.157   1.291  0.00  0.00     0.077 C 
ATOM      2  C1' PXY d   1       1.614  -1.799   0.497  0.00  0.00     0.077 C 
ATOM      3  C1  PXY d   1       0.537  -0.753   0.708  0.00  0.00    -0.082 A 
ATOM      4  C2  PXY d   1      -0.694  -1.133   1.010  0.00  0.00     0.003 A 
ATOM      5  C3  PXY d   1      -1.687  -0.201   1.173  0.00  0.00     0.003 A 
ATOM      6  C4  PXY d   1      -1.404   1.136   1.079  0.00  0.00    -0.082 A 
ATOM      7  C5  PXY d   1      -0.148   1.531   0.782  0.00  0.00     0.003 A 
ATOM      8  C6  PXY d   1       0.836   0.568   0.580  0.00  0.00     0.003 A 
ENDROOT
TORSDOF 0
ENDMDL
