MODEL 1
REMARK minimizedAffinity -0.115047835
REMARK minimizedRMSD -1
REMARK  0 active torsions:
REMARK  status: ('A' for Active; 'I' for Inactive)
ROOT
ATOM      1  C4' PXY d   1      -1.423  -0.584  -1.656  0.00  0.00     0.077 C 
ATOM      2  C1' PXY d   1       2.977   0.217   2.007  0.00  0.00     0.077 C 
ATOM      3  C1  PXY d   1       1.822  -0.006   1.051  0.00  0.00    -0.082 A 
ATOM      4  C2  PXY d   1       1.702   0.762  -0.020  0.00  0.00     0.003 A 
ATOM      5  C3  PXY d   1       0.646   0.596  -0.879  0.00  0.00     0.003 A 
ATOM      6  C4  PXY d   1      -0.267  -0.402  -0.667  0.00  0.00    -0.082 A 
ATOM      7  C5  PXY d   1      -0.146  -1.196   0.417  0.00  0.00     0.003 A 
ATOM      8  C6  PXY d   1       0.910  -0.984   1.299  0.00  0.00     0.003 A 
ENDROOT
TORSDOF 0
ENDMDL
