MODEL 1
REMARK minimizedAffinity -1.2882061
REMARK minimizedRMSD -1
REMARK  0 active torsions:
REMARK  status: ('A' for Active; 'I' for Inactive)
ROOT
ATOM      1  C4' PXY d   1       3.381   2.174   3.450  0.00  0.00     0.077 C 
ATOM      2  C1' PXY d   1       0.033  -0.188  -0.627  0.00  0.00     0.077 C 
ATOM      3  C1  PXY d   1       0.915   0.419   0.445  0.00  0.00    -0.082 A 
ATOM      4  C2  PXY d   1       0.593   1.589   0.972  0.00  0.00     0.003 A 
ATOM      5  C3  PXY d   1       1.397   2.168   1.920  0.00  0.00     0.003 A 
ATOM      6  C4  PXY d   1       2.515   1.518   2.371  0.00  0.00    -0.082 A 
ATOM      7  C5  PXY d   1       2.845   0.319   1.846  0.00  0.00     0.003 A 
ATOM      8  C6  PXY d   1       2.037  -0.232   0.855  0.00  0.00     0.003 A 
ENDROOT
TORSDOF 0
ENDMDL
