MODEL 1
REMARK minimizedAffinity -1.78943348
REMARK minimizedRMSD -1
REMARK  0 active torsions:
REMARK  status: ('A' for Active; 'I' for Inactive)
ROOT
ATOM      1  C4' PXY d   1       1.488   0.140   0.946  0.00  0.00     0.077 C 
ATOM      2  C1' PXY d   1      -3.237  -0.512  -2.319  0.00  0.00     0.077 C 
ATOM      3  C1  PXY d   1      -2.005  -0.343  -1.452  0.00  0.00    -0.082 A 
ATOM      4  C2  PXY d   1      -0.963   0.323  -1.920  0.00  0.00     0.003 A 
ATOM      5  C3  PXY d   1       0.172   0.459  -1.162  0.00  0.00     0.003 A 
ATOM      6  C4  PXY d   1       0.219  -0.048   0.110  0.00  0.00    -0.082 A 
ATOM      7  C5  PXY d   1      -0.845  -0.719   0.599  0.00  0.00     0.003 A 
ATOM      8  C6  PXY d   1      -1.971  -0.881  -0.203  0.00  0.00     0.003 A 
ENDROOT
TORSDOF 0
ENDMDL
