MODEL 1
REMARK minimizedAffinity -4.56317568
REMARK minimizedRMSD -1
REMARK  0 active torsions:
REMARK  status: ('A' for Active; 'I' for Inactive)
ROOT
ATOM      1  C4' PXY d   1      -1.852   0.056  -0.967  0.00  0.00     0.077 C 
ATOM      2  C1' PXY d   1       3.400  -0.849   1.272  0.00  0.00     0.077 C 
ATOM      3  C1  PXY d   1       2.019  -0.624   0.688  0.00  0.00    -0.082 A 
ATOM      4  C2  PXY d   1       1.846   0.297  -0.246  0.00  0.00     0.003 A 
ATOM      5  C3  PXY d   1       0.599   0.536  -0.762  0.00  0.00     0.003 A 
ATOM      6  C4  PXY d   1      -0.474  -0.212  -0.356  0.00  0.00    -0.082 A 
ATOM      7  C5  PXY d   1      -0.304  -1.161   0.589  0.00  0.00     0.003 A 
ATOM      8  C6  PXY d   1       0.963  -1.359   1.130  0.00  0.00     0.003 A 
ENDROOT
TORSDOF 0
ENDMDL
