MODEL 1
REMARK minimizedAffinity -5.58463335
REMARK minimizedRMSD -1
REMARK  0 active torsions:
REMARK  status: ('A' for Active; 'I' for Inactive)
ROOT
ATOM      1  C4' PXY d   1      -1.583   2.338   0.859  0.00  0.00     0.077 C 
ATOM      2  C1' PXY d   1       3.361  -0.640   0.544  0.00  0.00     0.077 C 
ATOM      3  C1  PXY d   1       2.058   0.132   0.619  0.00  0.00    -0.082 A 
ATOM      4  C2  PXY d   1       2.081   1.428   0.885  0.00  0.00     0.003 A 
ATOM      5  C3  PXY d   1       0.911   2.135   0.988  0.00  0.00     0.003 A 
ATOM      6  C4  PXY d   1      -0.292   1.521   0.764  0.00  0.00    -0.082 A 
ATOM      7  C5  PXY d   1      -0.323   0.201   0.483  0.00  0.00     0.003 A 
ATOM      8  C6  PXY d   1       0.874  -0.508   0.423  0.00  0.00     0.003 A 
ENDROOT
TORSDOF 0
ENDMDL
