MODEL 1
REMARK minimizedAffinity -1.73394096
REMARK minimizedRMSD -1
REMARK  0 active torsions:
REMARK  status: ('A' for Active; 'I' for Inactive)
ROOT
ATOM      1  C4' PXY d   1      -2.283   3.581   1.097  0.00  0.00     0.077 C 
ATOM      2  C1' PXY d   1       1.212  -0.845  -0.173  0.00  0.00     0.077 C 
ATOM      3  C1  PXY d   1       0.306   0.323   0.165  0.00  0.00    -0.082 A 
ATOM      4  C2  PXY d   1      -0.986   0.113   0.359  0.00  0.00     0.003 A 
ATOM      5  C3  PXY d   1      -1.826   1.162   0.634  0.00  0.00     0.003 A 
ATOM      6  C4  PXY d   1      -1.329   2.431   0.764  0.00  0.00    -0.082 A 
ATOM      7  C5  PXY d   1      -0.010   2.651   0.578  0.00  0.00     0.003 A 
ATOM      8  C6  PXY d   1       0.818   1.579   0.259  0.00  0.00     0.003 A 
ENDROOT
TORSDOF 0
ENDMDL
