MODEL 1
REMARK minimizedAffinity -3.21031713
REMARK minimizedRMSD -1
REMARK  0 active torsions:
REMARK  status: ('A' for Active; 'I' for Inactive)
ROOT
ATOM      1  C4' PXY d   1      -2.278   1.902   1.030  0.00  0.00     0.077 C 
ATOM      2  C1' PXY d   1       2.945  -0.286  -0.132  0.00  0.00     0.077 C 
ATOM      3  C1  PXY d   1       1.569   0.278   0.165  0.00  0.00    -0.082 A 
ATOM      4  C2  PXY d   1       1.448   1.542   0.540  0.00  0.00     0.003 A 
ATOM      5  C3  PXY d   1       0.215   2.060   0.843  0.00  0.00     0.003 A 
ATOM      6  C4  PXY d   1      -0.911   1.292   0.711  0.00  0.00    -0.082 A 
ATOM      7  C5  PXY d   1      -0.796   0.005   0.319  0.00  0.00     0.003 A 
ATOM      8  C6  PXY d   1       0.468  -0.514   0.056  0.00  0.00     0.003 A 
ENDROOT
TORSDOF 0
ENDMDL
