MODEL 1
REMARK minimizedAffinity -0.698740065
REMARK minimizedRMSD -1
REMARK  0 active torsions:
REMARK  status: ('A' for Active; 'I' for Inactive)
ROOT
ATOM      1  C4' PXY d   1       3.004   2.238   3.003  0.00  0.00     0.077 C 
ATOM      2  C1' PXY d   1       0.835  -1.591  -0.745  0.00  0.00     0.077 C 
ATOM      3  C1  PXY d   1       1.399  -0.577   0.230  0.00  0.00    -0.082 A 
ATOM      4  C2  PXY d   1       2.411  -0.915   1.013  0.00  0.00     0.003 A 
ATOM      5  C3  PXY d   1       2.913  -0.021   1.924  0.00  0.00     0.003 A 
ATOM      6  C4  PXY d   1       2.409   1.250   1.996  0.00  0.00    -0.082 A 
ATOM      7  C5  PXY d   1       1.384   1.606   1.193  0.00  0.00     0.003 A 
ATOM      8  C6  PXY d   1       0.862   0.671   0.305  0.00  0.00     0.003 A 
ENDROOT
TORSDOF 0
ENDMDL
