MODEL 1
REMARK minimizedAffinity -2.71554661
REMARK minimizedRMSD -1
REMARK  0 active torsions:
REMARK  status: ('A' for Active; 'I' for Inactive)
ROOT
ATOM      1  C4' PXY d   1      -1.745   1.704   0.147  0.00  0.00     0.077 C 
ATOM      2  C1' PXY d   1       3.093  -1.418   0.651  0.00  0.00     0.077 C 
ATOM      3  C1  PXY d   1       1.818  -0.610   0.514  0.00  0.00    -0.082 A 
ATOM      4  C2  PXY d   1       1.889   0.703   0.369  0.00  0.00     0.003 A 
ATOM      5  C3  PXY d   1       0.744   1.453   0.276  0.00  0.00     0.003 A 
ATOM      6  C4  PXY d   1      -0.483   0.847   0.279  0.00  0.00    -0.082 A 
ATOM      7  C5  PXY d   1      -0.563  -0.494   0.416  0.00  0.00     0.003 A 
ATOM      8  C6  PXY d   1       0.609  -1.232   0.551  0.00  0.00     0.003 A 
ENDROOT
TORSDOF 0
ENDMDL
