MODEL 1
REMARK minimizedAffinity -5.43788481
REMARK minimizedRMSD -1
REMARK  0 active torsions:
REMARK  status: ('A' for Active; 'I' for Inactive)
ROOT
ATOM      1  C2' OXE d   1       0.613   1.118   0.529  0.00  0.00     0.078 C 
ATOM      2  C1' OXE d   1      -0.859  -1.075   1.480  0.00  0.00     0.078 C 
ATOM      3  C1  OXE d   1       0.645  -1.145   1.570  0.00  0.00    -0.078 A 
ATOM      4  C2  OXE d   1       1.359  -0.087   1.060  0.00  0.00    -0.078 A 
ATOM      5  C3  OXE d   1       2.746  -0.076   1.167  0.00  0.00     0.003 A 
ATOM      6  C4  OXE d   1       3.429  -1.199   1.650  0.00  0.00    -0.002 A 
ATOM      7  C5  OXE d   1       2.723  -2.303   2.139  0.00  0.00    -0.002 A 
ATOM      8  C6  OXE d   1       1.333  -2.275   2.145  0.00  0.00     0.003 A 
ENDROOT
TORSDOF 0
ENDMDL
