MODEL 1
REMARK minimizedAffinity 0.172065541
REMARK minimizedRMSD -1
REMARK  0 active torsions:
REMARK  status: ('A' for Active; 'I' for Inactive)
ROOT
ATOM      1  C2' OXE d   1       0.137  -3.005   0.122  0.00  0.00     0.078 C 
ATOM      2  C1' OXE d   1       2.394  -1.339   0.226  0.00  0.00     0.078 C 
ATOM      3  C1  OXE d   1       1.052  -0.725   0.534  0.00  0.00    -0.078 A 
ATOM      4  C2  OXE d   1      -0.052  -1.537   0.436  0.00  0.00    -0.078 A 
ATOM      5  C3  OXE d   1      -1.309  -1.034   0.763  0.00  0.00     0.003 A 
ATOM      6  C4  OXE d   1      -1.477   0.327   1.042  0.00  0.00    -0.002 A 
ATOM      7  C5  OXE d   1      -0.370   1.180   1.109  0.00  0.00    -0.002 A 
ATOM      8  C6  OXE d   1       0.903   0.662   0.900  0.00  0.00     0.003 A 
ENDROOT
TORSDOF 0
ENDMDL
