MODEL 1
REMARK minimizedAffinity -0.692632616
REMARK minimizedRMSD -1
REMARK  0 active torsions:
REMARK  status: ('A' for Active; 'I' for Inactive)
ROOT
ATOM      1  C2' OXE d   1       3.646  -0.848   1.065  0.00  0.00     0.078 C 
ATOM      2  C1' OXE d   1       2.612   1.621   1.910  0.00  0.00     0.078 C 
ATOM      3  C1  OXE d   1       1.664   0.650   1.254  0.00  0.00    -0.078 A 
ATOM      4  C2  OXE d   1       2.188  -0.537   0.801  0.00  0.00    -0.078 A 
ATOM      5  C3  OXE d   1       1.347  -1.492   0.237  0.00  0.00     0.003 A 
ATOM      6  C4  OXE d   1       0.002  -1.193  -0.012  0.00  0.00    -0.002 A 
ATOM      7  C5  OXE d   1      -0.544   0.026   0.405  0.00  0.00    -0.002 A 
ATOM      8  C6  OXE d   1       0.262   0.939   1.076  0.00  0.00     0.003 A 
ENDROOT
TORSDOF 0
ENDMDL
