MODEL 1
REMARK minimizedAffinity -5.38286257
REMARK minimizedRMSD -1
REMARK  0 active torsions:
REMARK  status: ('A' for Active; 'I' for Inactive)
ROOT
ATOM      1  C2' OXE d   1      -0.942  -1.747   1.308  0.00  0.00     0.078 C 
ATOM      2  C1' OXE d   1      -1.140   0.415  -0.472  0.00  0.00     0.078 C 
ATOM      3  C1  OXE d   1       0.240  -0.029  -0.055  0.00  0.00    -0.078 A 
ATOM      4  C2  OXE d   1       0.326  -1.057   0.852  0.00  0.00    -0.078 A 
ATOM      5  C3  OXE d   1       1.576  -1.541   1.228  0.00  0.00     0.003 A 
ATOM      6  C4  OXE d   1       2.743  -0.891   0.810  0.00  0.00    -0.002 A 
ATOM      7  C5  OXE d   1       2.676   0.184  -0.083  0.00  0.00    -0.002 A 
ATOM      8  C6  OXE d   1       1.437   0.599  -0.557  0.00  0.00     0.003 A 
ENDROOT
TORSDOF 0
ENDMDL
