MODEL 1
REMARK minimizedAffinity -4.73045349
REMARK minimizedRMSD -1
REMARK  0 active torsions:
REMARK  status: ('A' for Active; 'I' for Inactive)
ROOT
ATOM      1  C2' OXE d   1      -0.967   0.556  -0.673  0.00  0.00     0.078 C 
ATOM      2  C1' OXE d   1      -0.025   2.661   0.928  0.00  0.00     0.078 C 
ATOM      3  C1  OXE d   1       0.893   1.487   0.698  0.00  0.00    -0.078 A 
ATOM      4  C2  OXE d   1       0.407   0.441  -0.048  0.00  0.00    -0.078 A 
ATOM      5  C3  OXE d   1       1.232  -0.643  -0.336  0.00  0.00     0.003 A 
ATOM      6  C4  OXE d   1       2.497  -0.747   0.253  0.00  0.00    -0.002 A 
ATOM      7  C5  OXE d   1       2.997   0.290   1.049  0.00  0.00    -0.002 A 
ATOM      8  C6  OXE d   1       2.226   1.430   1.245  0.00  0.00     0.003 A 
ENDROOT
TORSDOF 0
ENDMDL
