MODEL 1
REMARK minimizedAffinity -2.89750242
REMARK minimizedRMSD -1
REMARK  0 active torsions:
REMARK  status: ('A' for Active; 'I' for Inactive)
ROOT
ATOM      1  C2' OXE d   1       1.427   1.371   0.402  0.00  0.00     0.078 C 
ATOM      2  C1' OXE d   1      -0.838  -0.256   0.078  0.00  0.00     0.078 C 
ATOM      3  C1  OXE d   1      -1.037   1.119   0.666  0.00  0.00    -0.078 A 
ATOM      4  C2  OXE d   1       0.083   1.890   0.864  0.00  0.00    -0.078 A 
ATOM      5  C3  OXE d   1      -0.051   3.187   1.353  0.00  0.00     0.003 A 
ATOM      6  C4  OXE d   1      -1.296   3.656   1.787  0.00  0.00    -0.002 A 
ATOM      7  C5  OXE d   1      -2.444   2.871   1.631  0.00  0.00    -0.002 A 
ATOM      8  C6  OXE d   1      -2.338   1.620   1.034  0.00  0.00     0.003 A 
ENDROOT
TORSDOF 0
ENDMDL
