MODEL 1
REMARK minimizedAffinity -4.77135801
REMARK minimizedRMSD -1
REMARK  0 active torsions:
REMARK  status: ('A' for Active; 'I' for Inactive)
ROOT
ATOM      1  C2' OXE d   1       1.466  -2.050   0.668  0.00  0.00     0.078 C 
ATOM      2  C1' OXE d   1      -0.907  -0.798  -0.158  0.00  0.00     0.078 C 
ATOM      3  C1  OXE d   1       0.233   0.082   0.291  0.00  0.00    -0.078 A 
ATOM      4  C2  OXE d   1       1.374  -0.541   0.737  0.00  0.00    -0.078 A 
ATOM      5  C3  OXE d   1       2.475   0.224   1.112  0.00  0.00     0.003 A 
ATOM      6  C4  OXE d   1       2.378   1.619   1.183  0.00  0.00    -0.002 A 
ATOM      7  C5  OXE d   1       1.212   2.272   0.770  0.00  0.00    -0.002 A 
ATOM      8  C6  OXE d   1       0.148   1.521   0.282  0.00  0.00     0.003 A 
ENDROOT
TORSDOF 0
ENDMDL
