MODEL 1
REMARK minimizedAffinity -4.05213356
REMARK minimizedRMSD -1
REMARK  0 active torsions:
REMARK  status: ('A' for Active; 'I' for Inactive)
ROOT
ATOM      1  C2' OXE d   1       0.871  -2.729   0.901  0.00  0.00     0.078 C 
ATOM      2  C1' OXE d   1       3.165  -1.121   0.722  0.00  0.00     0.078 C 
ATOM      3  C1  OXE d   1       1.824  -0.456   0.536  0.00  0.00    -0.078 A 
ATOM      4  C2  OXE d   1       0.710  -1.259   0.579  0.00  0.00    -0.078 A 
ATOM      5  C3  OXE d   1      -0.555  -0.688   0.469  0.00  0.00     0.003 A 
ATOM      6  C4  OXE d   1      -0.695   0.671   0.161  0.00  0.00    -0.002 A 
ATOM      7  C5  OXE d   1       0.429   1.499   0.073  0.00  0.00    -0.002 A 
ATOM      8  C6  OXE d   1       1.691   0.960   0.300  0.00  0.00     0.003 A 
ENDROOT
TORSDOF 0
ENDMDL
