MODEL 1
REMARK minimizedAffinity -2.20042801
REMARK minimizedRMSD -1
REMARK  0 active torsions:
REMARK  status: ('A' for Active; 'I' for Inactive)
ROOT
ATOM      1  C2' OXE d   1      -0.558   1.947   0.710  0.00  0.00     0.078 C 
ATOM      2  C1' OXE d   1      -1.283  -0.174  -0.980  0.00  0.00     0.078 C 
ATOM      3  C1  OXE d   1       0.103  -0.190  -0.386  0.00  0.00    -0.078 A 
ATOM      4  C2  OXE d   1       0.466   0.876   0.402  0.00  0.00    -0.078 A 
ATOM      5  C3  OXE d   1       1.714   0.884   1.019  0.00  0.00     0.003 A 
ATOM      6  C4  OXE d   1       2.658  -0.105   0.721  0.00  0.00    -0.002 A 
ATOM      7  C5  OXE d   1       2.324  -1.179  -0.111  0.00  0.00    -0.002 A 
ATOM      8  C6  OXE d   1       1.039  -1.258  -0.638  0.00  0.00     0.003 A 
ENDROOT
TORSDOF 0
ENDMDL
