MODEL 1
REMARK minimizedAffinity 9.46600723
REMARK minimizedRMSD -1
REMARK  1 active torsions:
REMARK  status: ('A' for Active; 'I' for Inactive)
REMARK    1  A    between atoms: C1_2  and  C2_3 
ROOT
ATOM      1  C2  UNL d   1       3.272   5.286  -5.661  0.00  0.00    -0.076 A 
ATOM      2  C3  UNL d   1       4.443   5.999  -5.974  0.00  0.00     0.004 A 
ATOM      3  C4  UNL d   1       5.701   5.482  -5.669  0.00  0.00    -0.003 A 
ATOM      4  C5  UNL d   1       5.809   4.244  -5.046  0.00  0.00     0.000 A 
ATOM      5  C6  UNL d   1       4.659   3.515  -4.745  0.00  0.00     0.000 A 
ATOM      6  C7  UNL d   1       3.384   4.014  -5.060  0.00  0.00    -0.073 A 
ATOM      7  C8  UNL d   1       2.177   3.188  -4.707  0.00  0.00     0.078 C 
ENDROOT
BRANCH   1   8
ATOM      8  C1  UNL d   1       1.935   5.909  -5.992  0.00  0.00     0.053 C 
ATOM      9  C   UNL d   1       1.016   5.992  -4.782  0.00  0.00     0.018 C 
ENDBRANCH   1   8
TORSDOF 1
ENDMDL
