MODEL 1
REMARK minimizedAffinity -2.86446619
REMARK minimizedRMSD -1
REMARK  1 active torsions:
REMARK  status: ('A' for Active; 'I' for Inactive)
REMARK    1  A    between atoms: C1_2  and  C2_3 
ROOT
ATOM      1  C2  UNL d   1      -1.676   5.978  -3.396  0.00  0.00    -0.076 A 
ATOM      2  C3  UNL d   1      -2.767   5.960  -2.510  0.00  0.00     0.004 A 
ATOM      3  C4  UNL d   1      -4.077   5.969  -2.986  0.00  0.00    -0.003 A 
ATOM      4  C5  UNL d   1      -4.317   5.996  -4.355  0.00  0.00     0.000 A 
ATOM      5  C6  UNL d   1      -3.246   5.997  -5.248  0.00  0.00     0.000 A 
ATOM      6  C7  UNL d   1      -1.920   5.971  -4.786  0.00  0.00    -0.073 A 
ATOM      7  C8  UNL d   1      -0.803   5.979  -5.794  0.00  0.00     0.078 C 
ENDROOT
BRANCH   1   8
ATOM      8  C1  UNL d   1      -0.277   5.994  -2.821  0.00  0.00     0.053 C 
ATOM      9  C   UNL d   1       0.028   4.754  -1.995  0.00  0.00     0.018 C 
ENDBRANCH   1   8
TORSDOF 1
ENDMDL
