MODEL 1
REMARK minimizedAffinity 5.39186716
REMARK minimizedRMSD -1
REMARK  1 active torsions:
REMARK  status: ('A' for Active; 'I' for Inactive)
REMARK    1  A    between atoms: C1_2  and  C2_3 
ROOT
ATOM      1  C2  UNL d   1       0.738   1.089   0.200  0.00  0.00    -0.076 A 
ATOM      2  C3  UNL d   1       0.774   2.453   0.537  0.00  0.00     0.004 A 
ATOM      3  C4  UNL d   1       1.374   3.385  -0.307  0.00  0.00    -0.003 A 
ATOM      4  C5  UNL d   1       1.948   2.968  -1.503  0.00  0.00     0.000 A 
ATOM      5  C6  UNL d   1       1.906   1.621  -1.862  0.00  0.00     0.000 A 
ATOM      6  C7  UNL d   1       1.291   0.671  -1.029  0.00  0.00    -0.073 A 
ATOM      7  C8  UNL d   1       1.280  -0.769  -1.463  0.00  0.00     0.078 C 
ENDROOT
BRANCH   1   8
ATOM      8  C1  UNL d   1       0.097   0.120   1.168  0.00  0.00     0.053 C 
ATOM      9  C   UNL d   1      -0.138   0.736   2.539  0.00  0.00     0.018 C 
ENDBRANCH   1   8
TORSDOF 1
ENDMDL
