MODEL 1
REMARK minimizedAffinity -1.90795517
REMARK minimizedRMSD -1
REMARK  1 active torsions:
REMARK  status: ('A' for Active; 'I' for Inactive)
REMARK    1  A    between atoms: C1_2  and  C2_3 
ROOT
ATOM      1  C2  UNL d   1      -0.251   5.763  -3.332  0.00  0.00    -0.076 A 
ATOM      2  C3  UNL d   1       1.118   5.719  -3.647  0.00  0.00     0.004 A 
ATOM      3  C4  UNL d   1       1.553   5.805  -4.968  0.00  0.00    -0.003 A 
ATOM      4  C5  UNL d   1       0.626   5.937  -5.996  0.00  0.00     0.000 A 
ATOM      5  C6  UNL d   1      -0.735   6.000  -5.700  0.00  0.00     0.000 A 
ATOM      6  C7  UNL d   1      -1.190   5.931  -4.372  0.00  0.00    -0.073 A 
ATOM      7  C8  UNL d   1      -2.670   5.998  -4.111  0.00  0.00     0.078 C 
ENDROOT
BRANCH   1   8
ATOM      8  C1  UNL d   1      -0.666   5.638  -1.883  0.00  0.00     0.053 C 
ATOM      9  C   UNL d   1      -0.010   4.454  -1.189  0.00  0.00     0.018 C 
ENDBRANCH   1   8
TORSDOF 1
ENDMDL
