MODEL 1
REMARK minimizedAffinity 2.93573785
REMARK minimizedRMSD -1
REMARK  1 active torsions:
REMARK  status: ('A' for Active; 'I' for Inactive)
REMARK    1  A    between atoms: C1_2  and  C2_3 
ROOT
ATOM      1  C2  UNL d   1      -0.588   5.938  -3.616  0.00  0.00    -0.076 A 
ATOM      2  C3  UNL d   1      -1.590   5.951  -4.602  0.00  0.00     0.004 A 
ATOM      3  C4  UNL d   1      -2.939   5.978  -4.253  0.00  0.00    -0.003 A 
ATOM      4  C5  UNL d   1      -3.308   5.992  -2.912  0.00  0.00     0.000 A 
ATOM      5  C6  UNL d   1      -2.327   5.998  -1.921  0.00  0.00     0.000 A 
ATOM      6  C7  UNL d   1      -0.962   5.988  -2.256  0.00  0.00    -0.073 A 
ATOM      7  C8  UNL d   1       0.053   5.988  -1.147  0.00  0.00     0.078 C 
ENDROOT
BRANCH   1   8
ATOM      8  C1  UNL d   1       0.858   5.882  -4.054  0.00  0.00     0.053 C 
ATOM      9  C   UNL d   1       1.015   5.991  -5.563  0.00  0.00     0.018 C 
ENDBRANCH   1   8
TORSDOF 1
ENDMDL
