MODEL 1
REMARK minimizedAffinity 1.38082123
REMARK minimizedRMSD -1
REMARK  1 active torsions:
REMARK  status: ('A' for Active; 'I' for Inactive)
REMARK    1  A    between atoms: C1_2  and  C2_3 
ROOT
ATOM      1  C2  UNL d   1      -0.051   5.886  -3.218  0.00  0.00    -0.076 A 
ATOM      2  C3  UNL d   1       1.275   5.998  -3.671  0.00  0.00     0.004 A 
ATOM      3  C4  UNL d   1       1.580   5.905  -5.028  0.00  0.00    -0.003 A 
ATOM      4  C5  UNL d   1       0.563   5.699  -5.954  0.00  0.00     0.000 A 
ATOM      5  C6  UNL d   1      -0.760   5.602  -5.524  0.00  0.00     0.000 A 
ATOM      6  C7  UNL d   1      -1.086   5.710  -4.161  0.00  0.00    -0.073 A 
ATOM      7  C8  UNL d   1      -2.529   5.593  -3.752  0.00  0.00     0.078 C 
ENDROOT
BRANCH   1   8
ATOM      8  C1  UNL d   1      -0.317   5.968  -1.732  0.00  0.00     0.053 C 
ATOM      9  C   UNL d   1       0.294   4.805  -0.965  0.00  0.00     0.018 C 
ENDBRANCH   1   8
TORSDOF 1
ENDMDL
