MODEL 1
REMARK minimizedAffinity 0.429056287
REMARK minimizedRMSD -1
REMARK  1 active torsions:
REMARK  status: ('A' for Active; 'I' for Inactive)
REMARK    1  A    between atoms: C1_2  and  C2_3 
ROOT
ATOM      1  C2  UNL d   1      -0.235   5.977  -4.165  0.00  0.00    -0.076 A 
ATOM      2  C3  UNL d   1       0.087   5.948  -5.533  0.00  0.00     0.004 A 
ATOM      3  C4  UNL d   1       1.414   5.953  -5.958  0.00  0.00    -0.003 A 
ATOM      4  C5  UNL d   1       2.442   5.987  -5.022  0.00  0.00     0.000 A 
ATOM      5  C6  UNL d   1       2.141   5.998  -3.660  0.00  0.00     0.000 A 
ATOM      6  C7  UNL d   1       0.809   5.977  -3.215  0.00  0.00    -0.073 A 
ATOM      7  C8  UNL d   1       0.542   5.996  -1.734  0.00  0.00     0.078 C 
ENDROOT
BRANCH   1   8
ATOM      8  C1  UNL d   1      -1.692   5.998  -3.764  0.00  0.00     0.053 C 
ATOM      9  C   UNL d   1      -2.625   5.793  -4.947  0.00  0.00     0.018 C 
ENDBRANCH   1   8
TORSDOF 1
ENDMDL
