MODEL 1
REMARK minimizedAffinity 2.83360696
REMARK minimizedRMSD -1
REMARK  1 active torsions:
REMARK  status: ('A' for Active; 'I' for Inactive)
REMARK    1  A    between atoms: C1_2  and  C2_3 
ROOT
ATOM      1  C2  UNL d   1      -2.146   5.947  -3.392  0.00  0.00    -0.076 A 
ATOM      2  C3  UNL d   1      -2.274   5.979  -4.792  0.00  0.00     0.004 A 
ATOM      3  C4  UNL d   1      -1.148   6.000  -5.614  0.00  0.00    -0.003 A 
ATOM      4  C5  UNL d   1       0.123   5.988  -5.050  0.00  0.00     0.000 A 
ATOM      5  C6  UNL d   1       0.268   5.939  -3.664  0.00  0.00     0.000 A 
ATOM      6  C7  UNL d   1      -0.856   5.901  -2.821  0.00  0.00    -0.073 A 
ATOM      7  C8  UNL d   1      -0.641   5.854  -1.333  0.00  0.00     0.078 C 
ENDROOT
BRANCH   1   8
ATOM      8  C1  UNL d   1      -3.402   5.953  -2.550  0.00  0.00     0.053 C 
ATOM      9  C   UNL d   1      -4.668   5.946  -3.393  0.00  0.00     0.018 C 
ENDBRANCH   1   8
TORSDOF 1
ENDMDL
