MODEL 1
REMARK minimizedAffinity 7.81902838
REMARK minimizedRMSD -1
REMARK  1 active torsions:
REMARK  status: ('A' for Active; 'I' for Inactive)
REMARK    1  A    between atoms: C1_2  and  C2_3 
ROOT
ATOM      1  C2  UNL d   1       0.262   1.572   2.161  0.00  0.00    -0.076 A 
ATOM      2  C3  UNL d   1       0.733   2.895   2.103  0.00  0.00     0.004 A 
ATOM      3  C4  UNL d   1       1.453   3.352   1.001  0.00  0.00    -0.003 A 
ATOM      4  C5  UNL d   1       1.712   2.494  -0.063  0.00  0.00     0.000 A 
ATOM      5  C6  UNL d   1       1.236   1.184  -0.030  0.00  0.00     0.000 A 
ATOM      6  C7  UNL d   1       0.496   0.711   1.067  0.00  0.00    -0.073 A 
ATOM      7  C8  UNL d   1       0.013  -0.713   1.053  0.00  0.00     0.078 C 
ENDROOT
BRANCH   1   8
ATOM      8  C1  UNL d   1      -0.489   1.124   3.395  0.00  0.00     0.053 C 
ATOM      9  C   UNL d   1       0.433   0.866   4.576  0.00  0.00     0.018 C 
ENDBRANCH   1   8
TORSDOF 1
ENDMDL
