MODEL 1
REMARK minimizedAffinity -1.00535035
REMARK minimizedRMSD -1
REMARK  1 active torsions:
REMARK  status: ('A' for Active; 'I' for Inactive)
REMARK    1  A    between atoms: C1_2  and  C2_3 
ROOT
ATOM      1  C2  UNL d   1      -1.387   5.973  -3.620  0.00  0.00    -0.076 A 
ATOM      2  C3  UNL d   1      -2.417   5.990  -4.576  0.00  0.00     0.004 A 
ATOM      3  C4  UNL d   1      -3.756   5.999  -4.187  0.00  0.00    -0.003 A 
ATOM      4  C5  UNL d   1      -4.086   5.992  -2.836  0.00  0.00     0.000 A 
ATOM      5  C6  UNL d   1      -3.076   5.993  -1.874  0.00  0.00     0.000 A 
ATOM      6  C7  UNL d   1      -1.721   6.000  -2.249  0.00  0.00    -0.073 A 
ATOM      7  C8  UNL d   1      -0.674   5.994  -1.170  0.00  0.00     0.078 C 
ENDROOT
BRANCH   1   8
ATOM      8  C1  UNL d   1       0.046   5.935  -4.101  0.00  0.00     0.053 C 
ATOM      9  C   UNL d   1       0.189   5.257  -5.455  0.00  0.00     0.018 C 
ENDBRANCH   1   8
TORSDOF 1
ENDMDL
