MODEL 1
REMARK minimizedAffinity -1.71000671
REMARK minimizedRMSD -1
REMARK  1 active torsions:
REMARK  status: ('A' for Active; 'I' for Inactive)
REMARK    1  A    between atoms: C1_2  and  C2_3 
ROOT
ATOM      1  C2  UNL d   1      -0.306   5.280  -4.666  0.00  0.00    -0.076 A 
ATOM      2  C3  UNL d   1       0.372   5.269  -5.897  0.00  0.00     0.004 A 
ATOM      3  C4  UNL d   1       1.717   5.626  -5.978  0.00  0.00    -0.003 A 
ATOM      4  C5  UNL d   1       2.406   5.998  -4.830  0.00  0.00     0.000 A 
ATOM      5  C6  UNL d   1       1.754   5.998  -3.597  0.00  0.00     0.000 A 
ATOM      6  C7  UNL d   1       0.402   5.626  -3.495  0.00  0.00    -0.073 A 
ATOM      7  C8  UNL d   1      -0.253   5.650  -2.141  0.00  0.00     0.078 C 
ENDROOT
BRANCH   1   8
ATOM      8  C1  UNL d   1      -1.772   4.910  -4.643  0.00  0.00     0.053 C 
ATOM      9  C   UNL d   1      -2.635   5.987  -4.003  0.00  0.00     0.018 C 
ENDBRANCH   1   8
TORSDOF 1
ENDMDL
