MODEL 1
REMARK minimizedAffinity 6.43892527
REMARK minimizedRMSD -1
REMARK  1 active torsions:
REMARK  status: ('A' for Active; 'I' for Inactive)
REMARK    1  A    between atoms: C1_2  and  C2_3 
ROOT
ATOM      1  C2  UNL d   1       1.751   1.778   0.003  0.00  0.00    -0.076 A 
ATOM      2  C3  UNL d   1       1.749   0.439   0.430  0.00  0.00     0.004 A 
ATOM      3  C4  UNL d   1       0.849  -0.003   1.398  0.00  0.00    -0.003 A 
ATOM      4  C5  UNL d   1      -0.065   0.886   1.953  0.00  0.00     0.000 A 
ATOM      5  C6  UNL d   1      -0.089   2.214   1.528  0.00  0.00     0.000 A 
ATOM      6  C7  UNL d   1       0.802   2.672   0.541  0.00  0.00    -0.073 A 
ATOM      7  C8  UNL d   1       0.736   4.116   0.125  0.00  0.00     0.078 C 
ENDROOT
BRANCH   1   8
ATOM      8  C1  UNL d   1       2.769   2.207  -1.030  0.00  0.00     0.053 C 
ATOM      9  C   UNL d   1       2.363   1.821  -2.444  0.00  0.00     0.018 C 
ENDBRANCH   1   8
TORSDOF 1
ENDMDL
