MODEL 1
REMARK minimizedAffinity 6.297153
REMARK minimizedRMSD -1
REMARK  1 active torsions:
REMARK  status: ('A' for Active; 'I' for Inactive)
REMARK    1  A    between atoms: C1_2  and  C2_3 
ROOT
ATOM      1  C2  UNL d   1       0.470   1.378   1.794  0.00  0.00    -0.076 A 
ATOM      2  C3  UNL d   1       0.827   2.725   1.610  0.00  0.00     0.004 A 
ATOM      3  C4  UNL d   1       1.241   3.194   0.365  0.00  0.00    -0.003 A 
ATOM      4  C5  UNL d   1       1.303   2.324  -0.718  0.00  0.00     0.000 A 
ATOM      5  C6  UNL d   1       0.936   0.988  -0.558  0.00  0.00     0.000 A 
ATOM      6  C7  UNL d   1       0.501   0.503   0.687  0.00  0.00    -0.073 A 
ATOM      7  C8  UNL d   1       0.122  -0.948   0.804  0.00  0.00     0.078 C 
ENDROOT
BRANCH   1   8
ATOM      8  C1  UNL d   1       0.055   0.920   3.174  0.00  0.00     0.053 C 
ATOM      9  C   UNL d   1      -1.452   0.964   3.374  0.00  0.00     0.018 C 
ENDBRANCH   1   8
TORSDOF 1
ENDMDL
