MODEL 1
REMARK minimizedAffinity -0.959743083
REMARK minimizedRMSD -1
REMARK  1 active torsions:
REMARK  status: ('A' for Active; 'I' for Inactive)
REMARK    1  A    between atoms: C1_2  and  C2_3 
ROOT
ATOM      1  C2  UNL d   1      -1.679   5.753  -3.413  0.00  0.00    -0.076 A 
ATOM      2  C3  UNL d   1      -0.725   5.656  -2.386  0.00  0.00     0.004 A 
ATOM      3  C4  UNL d   1      -1.101   5.737  -1.047  0.00  0.00    -0.003 A 
ATOM      4  C5  UNL d   1      -2.439   5.916  -0.712  0.00  0.00     0.000 A 
ATOM      5  C6  UNL d   1      -3.402   5.996  -1.718  0.00  0.00     0.000 A 
ATOM      6  C7  UNL d   1      -3.041   5.900  -3.073  0.00  0.00    -0.073 A 
ATOM      7  C8  UNL d   1      -4.120   6.000  -4.116  0.00  0.00     0.078 C 
ENDROOT
BRANCH   1   8
ATOM      8  C1  UNL d   1      -1.208   5.686  -4.849  0.00  0.00     0.053 C 
ATOM      9  C   UNL d   1       0.028   4.816  -5.016  0.00  0.00     0.018 C 
ENDBRANCH   1   8
TORSDOF 1
ENDMDL
