MODEL 1
REMARK minimizedAffinity 0.188303679
REMARK minimizedRMSD -1
REMARK  1 active torsions:
REMARK  status: ('A' for Active; 'I' for Inactive)
REMARK    1  A    between atoms: C1_2  and  C2_3 
ROOT
ATOM      1  C2  UNL d   1       0.365   1.224   1.127  0.00  0.00    -0.076 A 
ATOM      2  C3  UNL d   1       0.377  -0.007   0.450  0.00  0.00     0.004 A 
ATOM      3  C4  UNL d   1       1.063  -0.157  -0.755  0.00  0.00    -0.003 A 
ATOM      4  C5  UNL d   1       1.749   0.923  -1.300  0.00  0.00     0.000 A 
ATOM      5  C6  UNL d   1       1.763   2.147  -0.633  0.00  0.00     0.000 A 
ATOM      6  C7  UNL d   1       1.090   2.310   0.591  0.00  0.00    -0.073 A 
ATOM      7  C8  UNL d   1       1.133   3.654   1.265  0.00  0.00     0.078 C 
ENDROOT
BRANCH   1   8
ATOM      8  C1  UNL d   1      -0.418   1.334   2.416  0.00  0.00     0.053 C 
ATOM      9  C   UNL d   1       0.481   1.427   3.639  0.00  0.00     0.018 C 
ENDBRANCH   1   8
TORSDOF 1
ENDMDL
