MODEL 1
REMARK minimizedAffinity 0.192519471
REMARK minimizedRMSD -1
REMARK  1 active torsions:
REMARK  status: ('A' for Active; 'I' for Inactive)
REMARK    1  A    between atoms: C1_2  and  C2_3 
ROOT
ATOM      1  C2  UNL d   1       0.270   1.459   1.984  0.00  0.00    -0.076 A 
ATOM      2  C3  UNL d   1       0.594   2.825   1.903  0.00  0.00     0.004 A 
ATOM      3  C4  UNL d   1       1.024   3.391   0.704  0.00  0.00    -0.003 A 
ATOM      4  C5  UNL d   1       1.138   2.600  -0.434  0.00  0.00     0.000 A 
ATOM      5  C6  UNL d   1       0.804   1.247  -0.376  0.00  0.00     0.000 A 
ATOM      6  C7  UNL d   1       0.353   0.665   0.820  0.00  0.00    -0.073 A 
ATOM      7  C8  UNL d   1       0.013  -0.800   0.827  0.00  0.00     0.078 C 
ENDROOT
BRANCH   1   8
ATOM      8  C1  UNL d   1      -0.165   0.896   3.318  0.00  0.00     0.053 C 
ATOM      9  C   UNL d   1      -1.611   1.230   3.648  0.00  0.00     0.018 C 
ENDBRANCH   1   8
TORSDOF 1
ENDMDL
