MODEL 1
REMARK minimizedAffinity 5.72621346
REMARK minimizedRMSD -1
REMARK  1 active torsions:
REMARK  status: ('A' for Active; 'I' for Inactive)
REMARK    1  A    between atoms: C1_2  and  C2_3 
ROOT
ATOM      1  C2  UNL d   1       0.587   0.235   0.427  0.00  0.00    -0.076 A 
ATOM      2  C3  UNL d   1       0.807   0.412  -0.951  0.00  0.00     0.004 A 
ATOM      3  C4  UNL d   1       1.126   1.664  -1.471  0.00  0.00    -0.003 A 
ATOM      4  C5  UNL d   1       1.231   2.761  -0.623  0.00  0.00     0.000 A 
ATOM      5  C6  UNL d   1       1.035   2.601   0.748  0.00  0.00     0.000 A 
ATOM      6  C7  UNL d   1       0.728   1.341   1.291  0.00  0.00    -0.073 A 
ATOM      7  C8  UNL d   1       0.520   1.227   2.777  0.00  0.00     0.078 C 
ENDROOT
BRANCH   1   8
ATOM      8  C1  UNL d   1       0.217  -1.142   0.930  0.00  0.00     0.053 C 
ATOM      9  C   UNL d   1      -1.287  -1.351   1.004  0.00  0.00     0.018 C 
ENDBRANCH   1   8
TORSDOF 1
ENDMDL
