MODEL 1
REMARK minimizedAffinity 5.75993586
REMARK minimizedRMSD -1
REMARK  1 active torsions:
REMARK  status: ('A' for Active; 'I' for Inactive)
REMARK    1  A    between atoms: C1_2  and  C2_3 
ROOT
ATOM      1  C2  UNL d   1      -1.397   5.982  -3.763  0.00  0.00    -0.076 A 
ATOM      2  C3  UNL d   1      -2.475   5.998  -4.665  0.00  0.00     0.004 A 
ATOM      3  C4  UNL d   1      -3.793   5.996  -4.209  0.00  0.00    -0.003 A 
ATOM      4  C5  UNL d   1      -4.053   5.980  -2.843  0.00  0.00     0.000 A 
ATOM      5  C6  UNL d   1      -2.996   5.981  -1.934  0.00  0.00     0.000 A 
ATOM      6  C7  UNL d   1      -1.662   5.999  -2.377  0.00  0.00    -0.073 A 
ATOM      7  C8  UNL d   1      -0.561   5.994  -1.352  0.00  0.00     0.078 C 
ENDROOT
BRANCH   1   8
ATOM      8  C1  UNL d   1       0.010   5.957  -4.316  0.00  0.00     0.053 C 
ATOM      9  C   UNL d   1       0.039   5.992  -5.836  0.00  0.00     0.018 C 
ENDBRANCH   1   8
TORSDOF 1
ENDMDL
