MODEL 1
REMARK minimizedAffinity -2.90819311
REMARK minimizedRMSD -1
REMARK  0 active torsions:
REMARK  status: ('A' for Active; 'I' for Inactive)
ROOT
ATOM      1  C   UNL d   1       0.799  -0.609  -0.571  0.00  0.00     0.172 C 
ATOM      2  N   UNL d   1      -0.030   0.278   0.211  0.00  0.00    -0.070 N 
ATOM      3  C1  UNL d   1      -0.632   1.419  -0.247  0.00  0.00    -0.004 A 
ATOM      4  C2  UNL d   1      -1.331   1.978   0.801  0.00  0.00    -0.047 A 
ATOM      5  C3  UNL d   1      -1.140   1.145   1.929  0.00  0.00    -0.047 A 
ATOM      6  C4  UNL d   1      -0.331   0.100   1.536  0.00  0.00    -0.004 A 
ENDROOT
TORSDOF 0
ENDMDL
