MODEL 1
REMARK minimizedAffinity -3.40475583
REMARK minimizedRMSD -1
REMARK  0 active torsions:
REMARK  status: ('A' for Active; 'I' for Inactive)
ROOT
ATOM      1  C   UNL d   1       0.670  -0.704  -0.596  0.00  0.00     0.172 C 
ATOM      2  N   UNL d   1      -0.243   0.182   0.085  0.00  0.00    -0.070 N 
ATOM      3  C1  UNL d   1      -0.614   0.090   1.400  0.00  0.00    -0.004 A 
ATOM      4  C2  UNL d   1      -1.495   1.117   1.663  0.00  0.00    -0.047 A 
ATOM      5  C3  UNL d   1      -1.660   1.851   0.465  0.00  0.00    -0.047 A 
ATOM      6  C4  UNL d   1      -0.874   1.251  -0.496  0.00  0.00    -0.004 A 
ENDROOT
TORSDOF 0
ENDMDL
