MODEL 1
REMARK minimizedAffinity -3.50154376
REMARK minimizedRMSD -1
REMARK  0 active torsions:
REMARK  status: ('A' for Active; 'I' for Inactive)
ROOT
ATOM      1  C   UNL d   1       0.844  -0.682  -0.729  0.00  0.00     0.172 C 
ATOM      2  N   UNL d   1      -0.094   0.012   0.121  0.00  0.00    -0.070 N 
ATOM      3  C1  UNL d   1      -0.632  -0.476   1.282  0.00  0.00    -0.004 A 
ATOM      4  C2  UNL d   1      -1.476   0.486   1.792  0.00  0.00    -0.047 A 
ATOM      5  C3  UNL d   1      -1.446   1.590   0.907  0.00  0.00    -0.047 A 
ATOM      6  C4  UNL d   1      -0.582   1.270  -0.119  0.00  0.00    -0.004 A 
ENDROOT
TORSDOF 0
ENDMDL
