MODEL 1
REMARK minimizedAffinity -2.37730074
REMARK minimizedRMSD -1
REMARK  0 active torsions:
REMARK  status: ('A' for Active; 'I' for Inactive)
ROOT
ATOM      1  C   UNL d   1       0.497  -0.552  -0.983  0.00  0.00     0.172 C 
ATOM      2  N   UNL d   1      -0.279   0.328  -0.141  0.00  0.00    -0.070 N 
ATOM      3  C1  UNL d   1      -0.683   0.058   1.139  0.00  0.00    -0.004 A 
ATOM      4  C2  UNL d   1      -1.397   1.145   1.594  0.00  0.00    -0.047 A 
ATOM      5  C3  UNL d   1      -1.424   2.101   0.551  0.00  0.00    -0.047 A 
ATOM      6  C4  UNL d   1      -0.724   1.570  -0.511  0.00  0.00    -0.004 A 
ENDROOT
TORSDOF 0
ENDMDL
