MODEL 1
REMARK minimizedAffinity -3.25327277
REMARK minimizedRMSD -1
REMARK  0 active torsions:
REMARK  status: ('A' for Active; 'I' for Inactive)
ROOT
ATOM      1  C   UNL d   1       0.041  -0.484   1.457  0.00  0.00     0.172 C 
ATOM      2  N   UNL d   1      -0.325   0.684   0.690  0.00  0.00    -0.070 N 
ATOM      3  C1  UNL d   1      -1.287   1.596   1.035  0.00  0.00    -0.004 A 
ATOM      4  C2  UNL d   1      -1.332   2.555   0.047  0.00  0.00    -0.047 A 
ATOM      5  C3  UNL d   1      -0.365   2.208  -0.926  0.00  0.00    -0.047 A 
ATOM      6  C4  UNL d   1       0.243   1.045  -0.503  0.00  0.00    -0.004 A 
ENDROOT
TORSDOF 0
ENDMDL
