MODEL 1
REMARK minimizedAffinity -1.85734224
REMARK minimizedRMSD -1
REMARK  0 active torsions:
REMARK  status: ('A' for Active; 'I' for Inactive)
ROOT
ATOM      1  C   UNL d   1       0.381  -0.828  -0.081  0.00  0.00     0.172 C 
ATOM      2  N   UNL d   1      -0.188   0.500  -0.055  0.00  0.00    -0.070 N 
ATOM      3  C1  UNL d   1       0.212   1.554  -0.832  0.00  0.00    -0.004 A 
ATOM      4  C2  UNL d   1      -0.575   2.638  -0.508  0.00  0.00    -0.047 A 
ATOM      5  C3  UNL d   1      -1.479   2.221   0.498  0.00  0.00    -0.047 A 
ATOM      6  C4  UNL d   1      -1.216   0.893   0.760  0.00  0.00    -0.004 A 
ENDROOT
TORSDOF 0
ENDMDL
