MODEL 1
REMARK minimizedAffinity -2.57346678
REMARK minimizedRMSD -1
REMARK  0 active torsions:
REMARK  status: ('A' for Active; 'I' for Inactive)
ROOT
ATOM      1  C   UNL d   1      -1.982   1.627   1.200  0.00  0.00     0.172 C 
ATOM      2  N   UNL d   1      -0.920   0.832   0.629  0.00  0.00    -0.070 N 
ATOM      3  C1  UNL d   1      -0.331  -0.254   1.218  0.00  0.00    -0.004 A 
ATOM      4  C2  UNL d   1       0.632  -0.731   0.356  0.00  0.00    -0.047 A 
ATOM      5  C3  UNL d   1       0.622   0.098  -0.791  0.00  0.00    -0.047 A 
ATOM      6  C4  UNL d   1      -0.348   1.057  -0.596  0.00  0.00    -0.004 A 
ENDROOT
TORSDOF 0
ENDMDL
