MODEL 1
REMARK minimizedAffinity -1.75465477
REMARK minimizedRMSD -1
REMARK  0 active torsions:
REMARK  status: ('A' for Active; 'I' for Inactive)
ROOT
ATOM      1  C   UNL d   1       0.813  -1.883  -1.242  0.00  0.00     0.172 C 
ATOM      2  N   UNL d   1       0.306  -0.806  -0.424  0.00  0.00    -0.070 N 
ATOM      3  C1  UNL d   1      -0.027   0.446  -0.869  0.00  0.00    -0.004 A 
ATOM      4  C2  UNL d   1      -0.469   1.174   0.215  0.00  0.00    -0.047 A 
ATOM      5  C3  UNL d   1      -0.398   0.332   1.349  0.00  0.00    -0.047 A 
ATOM      6  C4  UNL d   1       0.085  -0.888   0.925  0.00  0.00    -0.004 A 
ENDROOT
TORSDOF 0
ENDMDL
