MODEL 1
REMARK minimizedAffinity -2.28831506
REMARK minimizedRMSD -1
REMARK  0 active torsions:
REMARK  status: ('A' for Active; 'I' for Inactive)
ROOT
ATOM      1  C   UNL d   1      -0.092   0.037  -1.041  0.00  0.00     0.172 C 
ATOM      2  N   UNL d   1       0.233  -1.295  -1.495  0.00  0.00    -0.070 N 
ATOM      3  C1  UNL d   1       1.050  -2.182  -0.847  0.00  0.00    -0.004 A 
ATOM      4  C2  UNL d   1       1.103  -3.335  -1.600  0.00  0.00    -0.047 A 
ATOM      5  C3  UNL d   1       0.291  -3.133  -2.741  0.00  0.00    -0.047 A 
ATOM      6  C4  UNL d   1      -0.235  -1.862  -2.651  0.00  0.00    -0.004 A 
ENDROOT
TORSDOF 0
ENDMDL
