MODEL 1
REMARK minimizedAffinity -1.44346905
REMARK minimizedRMSD -1
REMARK  0 active torsions:
REMARK  status: ('A' for Active; 'I' for Inactive)
ROOT
ATOM      1  C   UNL d   1       0.261  -0.458   0.132  0.00  0.00     0.172 C 
ATOM      2  N   UNL d   1      -0.751   0.427   0.660  0.00  0.00    -0.070 N 
ATOM      3  C1  UNL d   1      -0.664   1.130   1.832  0.00  0.00    -0.004 A 
ATOM      4  C2  UNL d   1      -1.828   1.854   1.977  0.00  0.00    -0.047 A 
ATOM      5  C3  UNL d   1      -2.642   1.576   0.854  0.00  0.00    -0.047 A 
ATOM      6  C4  UNL d   1      -1.951   0.690   0.055  0.00  0.00    -0.004 A 
ENDROOT
TORSDOF 0
ENDMDL
