MODEL 1
REMARK minimizedAffinity -4.02488136
REMARK minimizedRMSD -1
REMARK  0 active torsions:
REMARK  status: ('A' for Active; 'I' for Inactive)
ROOT
ATOM      1  C   UNL d   1       0.312  -0.338  -0.724  0.00  0.00     0.172 C 
ATOM      2  N   UNL d   1      -0.461   0.570   0.090  0.00  0.00    -0.070 N 
ATOM      3  C1  UNL d   1      -1.211   1.617  -0.375  0.00  0.00    -0.004 A 
ATOM      4  C2  UNL d   1      -1.792   2.235   0.711  0.00  0.00    -0.047 A 
ATOM      5  C3  UNL d   1      -1.376   1.535   1.869  0.00  0.00    -0.047 A 
ATOM      6  C4  UNL d   1      -0.553   0.509   1.455  0.00  0.00    -0.004 A 
ENDROOT
TORSDOF 0
ENDMDL
