MODEL 1
REMARK minimizedAffinity -0.634025455
REMARK minimizedRMSD -1
REMARK  0 active torsions:
REMARK  status: ('A' for Active; 'I' for Inactive)
ROOT
ATOM      1  C   UNL d   1      -0.838   2.271  -0.535  0.00  0.00     0.172 C 
ATOM      2  N   UNL d   1      -0.224   1.010  -0.189  0.00  0.00    -0.070 N 
ATOM      3  C1  UNL d   1      -0.528   0.249   0.908  0.00  0.00    -0.004 A 
ATOM      4  C2  UNL d   1       0.273  -0.872   0.878  0.00  0.00    -0.047 A 
ATOM      5  C3  UNL d   1       1.087  -0.781  -0.276  0.00  0.00    -0.047 A 
ATOM      6  C4  UNL d   1       0.759   0.394  -0.918  0.00  0.00    -0.004 A 
ENDROOT
TORSDOF 0
ENDMDL
