MODEL 1
REMARK minimizedAffinity -1.29040277
REMARK minimizedRMSD -1
REMARK  0 active torsions:
REMARK  status: ('A' for Active; 'I' for Inactive)
ROOT
ATOM      1  C   UNL d   1       0.305  -0.559  -0.424  0.00  0.00     0.172 C 
ATOM      2  N   UNL d   1      -0.243   0.756  -0.658  0.00  0.00    -0.070 N 
ATOM      3  C1  UNL d   1      -1.574   1.080  -0.645  0.00  0.00    -0.004 A 
ATOM      4  C2  UNL d   1      -1.682   2.428  -0.911  0.00  0.00    -0.047 A 
ATOM      5  C3  UNL d   1      -0.372   2.931  -1.091  0.00  0.00    -0.047 A 
ATOM      6  C4  UNL d   1       0.499   1.874  -0.929  0.00  0.00    -0.004 A 
ENDROOT
TORSDOF 0
ENDMDL
