MODEL 1
REMARK minimizedAffinity -2.64391088
REMARK minimizedRMSD -1
REMARK  0 active torsions:
REMARK  status: ('A' for Active; 'I' for Inactive)
ROOT
ATOM      1  C   UNL d   1       1.352  -1.216  -0.957  0.00  0.00     0.172 C 
ATOM      2  N   UNL d   1       0.490  -0.130  -0.552  0.00  0.00    -0.070 N 
ATOM      3  C1  UNL d   1      -0.401  -0.164   0.487  0.00  0.00    -0.004 A 
ATOM      4  C2  UNL d   1      -1.027   1.063   0.546  0.00  0.00    -0.047 A 
ATOM      5  C3  UNL d   1      -0.493   1.861  -0.494  0.00  0.00    -0.047 A 
ATOM      6  C4  UNL d   1       0.443   1.098  -1.158  0.00  0.00    -0.004 A 
ENDROOT
TORSDOF 0
ENDMDL
