MODEL 1
REMARK minimizedAffinity -0.942054331
REMARK minimizedRMSD -1
REMARK  0 active torsions:
REMARK  status: ('A' for Active; 'I' for Inactive)
ROOT
ATOM      1  C4' PXY d   1       0.382  -0.630  -1.756  0.00  0.00     0.077 C 
ATOM      2  C1' PXY d   1      -0.578   1.238   3.629  0.00  0.00     0.077 C 
ATOM      3  C1  PXY d   1      -0.335   0.738   2.219  0.00  0.00    -0.082 A 
ATOM      4  C2  PXY d   1       0.792   1.051   1.600  0.00  0.00     0.003 A 
ATOM      5  C3  PXY d   1       1.014   0.634   0.312  0.00  0.00     0.003 A 
ATOM      6  C4  PXY d   1       0.097  -0.155  -0.329  0.00  0.00    -0.082 A 
ATOM      7  C5  PXY d   1      -1.050  -0.488   0.300  0.00  0.00     0.003 A 
ATOM      8  C6  PXY d   1      -1.275  -0.020   1.592  0.00  0.00     0.003 A 
ENDROOT
TORSDOF 0
ENDMDL
