MODEL 1
REMARK minimizedAffinity -2.84116197
REMARK minimizedRMSD -1
REMARK  0 active torsions:
REMARK  status: ('A' for Active; 'I' for Inactive)
ROOT
ATOM      1  C4' PXY d   1      -1.765   0.714   2.658  0.00  0.00     0.077 C 
ATOM      2  C1' PXY d   1       1.203  -0.113  -2.232  0.00  0.00     0.077 C 
ATOM      3  C1  PXY d   1       0.435   0.110  -0.945  0.00  0.00    -0.082 A 
ATOM      4  C2  PXY d   1      -0.549  -0.712  -0.619  0.00  0.00     0.003 A 
ATOM      5  C3  PXY d   1      -1.275  -0.506   0.526  0.00  0.00     0.003 A 
ATOM      6  C4  PXY d   1      -0.956   0.521   1.373  0.00  0.00    -0.082 A 
ATOM      7  C5  PXY d   1       0.053   1.358   1.053  0.00  0.00     0.003 A 
ATOM      8  C6  PXY d   1       0.751   1.156  -0.134  0.00  0.00     0.003 A 
ENDROOT
TORSDOF 0
ENDMDL
