MODEL 1
REMARK minimizedAffinity -2.13792109
REMARK minimizedRMSD -1
REMARK  0 active torsions:
REMARK  status: ('A' for Active; 'I' for Inactive)
ROOT
ATOM      1  C4' PXY d   1       0.951  -1.091  -2.469  0.00  0.00     0.077 C 
ATOM      2  C1' PXY d   1       0.852   1.500   2.698  0.00  0.00     0.077 C 
ATOM      3  C1  PXY d   1       0.891   0.818   1.345  0.00  0.00    -0.082 A 
ATOM      4  C2  PXY d   1      -0.001   1.143   0.423  0.00  0.00     0.003 A 
ATOM      5  C3  PXY d   1       0.000   0.513  -0.795  0.00  0.00     0.003 A 
ATOM      6  C4  PXY d   1       0.956  -0.421  -1.092  0.00  0.00    -0.082 A 
ATOM      7  C5  PXY d   1       1.876  -0.751  -0.160  0.00  0.00     0.003 A 
ATOM      8  C6  PXY d   1       1.833  -0.129   1.085  0.00  0.00     0.003 A 
ENDROOT
TORSDOF 0
ENDMDL
