MODEL 1
REMARK minimizedAffinity -4.48534918
REMARK minimizedRMSD -1
REMARK  0 active torsions:
REMARK  status: ('A' for Active; 'I' for Inactive)
ROOT
ATOM      1  C4' PXY d   1       1.063   0.718  -2.826  0.00  0.00     0.077 C 
ATOM      2  C1' PXY d   1      -1.792   1.111   2.185  0.00  0.00     0.077 C 
ATOM      3  C1  PXY d   1      -1.034   1.001   0.877  0.00  0.00    -0.082 A 
ATOM      4  C2  PXY d   1      -1.237   1.898  -0.075  0.00  0.00     0.003 A 
ATOM      5  C3  PXY d   1      -0.584   1.795  -1.276  0.00  0.00     0.003 A 
ATOM      6  C4  PXY d   1       0.327   0.795  -1.486  0.00  0.00    -0.082 A 
ATOM      7  C5  PXY d   1       0.548  -0.118  -0.516  0.00  0.00     0.003 A 
ATOM      8  C6  PXY d   1      -0.156  -0.020   0.681  0.00  0.00     0.003 A 
ENDROOT
TORSDOF 0
ENDMDL
