MODEL 1
REMARK minimizedAffinity -6.13544703
REMARK minimizedRMSD -1
REMARK  0 active torsions:
REMARK  status: ('A' for Active; 'I' for Inactive)
ROOT
ATOM      1  C4' PXY d   1      -0.220  -0.697  -2.015  0.00  0.00     0.077 C 
ATOM      2  C1' PXY d   1      -1.101   1.360   3.314  0.00  0.00     0.077 C 
ATOM      3  C1  PXY d   1      -0.883   0.818   1.916  0.00  0.00    -0.082 A 
ATOM      4  C2  PXY d   1       0.308   0.354   1.572  0.00  0.00     0.003 A 
ATOM      5  C3  PXY d   1       0.532  -0.110   0.301  0.00  0.00     0.003 A 
ATOM      6  C4  PXY d   1      -0.489  -0.149  -0.611  0.00  0.00    -0.082 A 
ATOM      7  C5  PXY d   1      -1.709   0.312  -0.265  0.00  0.00     0.003 A 
ATOM      8  C6  PXY d   1      -1.905   0.817   1.017  0.00  0.00     0.003 A 
ENDROOT
TORSDOF 0
ENDMDL
