MODEL 1
REMARK minimizedAffinity -3.09939861
REMARK minimizedRMSD -1
REMARK  0 active torsions:
REMARK  status: ('A' for Active; 'I' for Inactive)
ROOT
ATOM      1  C4' PXY d   1       1.235   0.053  -2.566  0.00  0.00     0.077 C 
ATOM      2  C1' PXY d   1      -1.372   0.782   2.542  0.00  0.00     0.077 C 
ATOM      3  C1  PXY d   1      -0.678   0.585   1.209  0.00  0.00    -0.082 A 
ATOM      4  C2  PXY d   1      -0.953   1.398   0.202  0.00  0.00     0.003 A 
ATOM      5  C3  PXY d   1      -0.359   1.214  -1.020  0.00  0.00     0.003 A 
ATOM      6  C4  PXY d   1       0.566   0.221  -1.199  0.00  0.00    -0.082 A 
ATOM      7  C5  PXY d   1       0.860  -0.606  -0.173  0.00  0.00     0.003 A 
ATOM      8  C6  PXY d   1       0.215  -0.428   1.048  0.00  0.00     0.003 A 
ENDROOT
TORSDOF 0
ENDMDL
