MODEL 1
REMARK minimizedAffinity -4.23971367
REMARK minimizedRMSD -1
REMARK  0 active torsions:
REMARK  status: ('A' for Active; 'I' for Inactive)
ROOT
ATOM      1  C4' PXY d   1       0.451  -1.610  -1.877  0.00  0.00     0.077 C 
ATOM      2  C1' PXY d   1      -0.799   1.721   2.679  0.00  0.00     0.077 C 
ATOM      3  C1  PXY d   1      -0.459   0.851   1.485  0.00  0.00    -0.082 A 
ATOM      4  C2  PXY d   1      -1.407   0.527   0.620  0.00  0.00     0.003 A 
ATOM      5  C3  PXY d   1      -1.123  -0.285  -0.448  0.00  0.00     0.003 A 
ATOM      6  C4  PXY d   1       0.155  -0.726  -0.662  0.00  0.00    -0.082 A 
ATOM      7  C5  PXY d   1       1.130  -0.391   0.209  0.00  0.00     0.003 A 
ATOM      8  C6  PXY d   1       0.813   0.400   1.310  0.00  0.00     0.003 A 
ENDROOT
TORSDOF 0
ENDMDL
