MODEL 1
REMARK minimizedAffinity 0.585069656
REMARK minimizedRMSD -1
REMARK  0 active torsions:
REMARK  status: ('A' for Active; 'I' for Inactive)
ROOT
ATOM      1  C4' PXY d   1       0.412  -0.742  -2.255  0.00  0.00     0.077 C 
ATOM      2  C1' PXY d   1      -1.209   1.089   2.983  0.00  0.00     0.077 C 
ATOM      3  C1  PXY d   1      -0.772   0.611   1.612  0.00  0.00    -0.082 A 
ATOM      4  C2  PXY d   1      -1.620   0.667   0.598  0.00  0.00     0.003 A 
ATOM      5  C3  PXY d   1      -1.251   0.209  -0.641  0.00  0.00     0.003 A 
ATOM      6  C4  PXY d   1       0.016  -0.262  -0.856  0.00  0.00    -0.082 A 
ATOM      7  C5  PXY d   1       0.891  -0.312   0.171  0.00  0.00     0.003 A 
ATOM      8  C6  PXY d   1       0.484   0.119   1.430  0.00  0.00     0.003 A 
ENDROOT
TORSDOF 0
ENDMDL
