MODEL 1
REMARK minimizedAffinity 2.98520231
REMARK minimizedRMSD -1
REMARK  0 active torsions:
REMARK  status: ('A' for Active; 'I' for Inactive)
ROOT
ATOM      1  O1  BZF d   1       4.600   5.927  -2.422  0.00  0.00    -0.204 OA
ATOM      2  C2  BZF d   1       5.373   5.154  -1.577  0.00  0.00     0.174 A 
ATOM      3  C3  BZF d   1       6.000   4.177  -2.263  0.00  0.00    -0.012 A 
ATOM      4  C3A BZF d   1       5.666   4.406  -3.635  0.00  0.00    -0.107 A 
ATOM      5  C4  BZF d   1       6.000   3.777  -4.800  0.00  0.00     0.055 A 
ATOM      6  C5  BZF d   1       5.447   4.207  -5.965  0.00  0.00    -0.016 A 
ATOM      7  C6  BZF d   1       4.554   5.258  -6.000  0.00  0.00     0.022 A 
ATOM      8  C7  BZF d   1       4.196   5.916  -4.871  0.00  0.00     0.029 A 
ATOM      9  C7A BZF d   1       4.779   5.505  -3.697  0.00  0.00     0.058 A 
ENDROOT
TORSDOF 0
ENDMDL
