MODEL 1
REMARK minimizedAffinity 5.33952093
REMARK minimizedRMSD -1
REMARK  0 active torsions:
REMARK  status: ('A' for Active; 'I' for Inactive)
ROOT
ATOM      1  O1  BZF d   1       2.680  -2.412  -3.984  0.00  0.00    -0.204 OA
ATOM      2  C2  BZF d   1       3.206  -1.536  -3.055  0.00  0.00     0.174 A 
ATOM      3  C3  BZF d   1       2.287  -1.223  -2.119  0.00  0.00    -0.012 A 
ATOM      4  C3A BZF d   1       1.141  -2.019  -2.434  0.00  0.00    -0.107 A 
ATOM      5  C4  BZF d   1      -0.089  -2.164  -1.860  0.00  0.00     0.055 A 
ATOM      6  C5  BZF d   1      -1.007  -2.969  -2.457  0.00  0.00    -0.016 A 
ATOM      7  C6  BZF d   1      -0.729  -3.640  -3.630  0.00  0.00     0.022 A 
ATOM      8  C7  BZF d   1       0.479  -3.533  -4.234  0.00  0.00     0.029 A 
ATOM      9  C7A BZF d   1       1.419  -2.745  -3.616  0.00  0.00     0.058 A 
ENDROOT
TORSDOF 0
ENDMDL
