MODEL 1
REMARK minimizedAffinity 8.80338001
REMARK minimizedRMSD -1
REMARK  0 active torsions:
REMARK  status: ('A' for Active; 'I' for Inactive)
ROOT
ATOM      1  O1  BZF d   1       5.362  -4.253   6.000  0.00  0.00    -0.204 OA
ATOM      2  C2  BZF d   1       4.778  -5.504   5.998  0.00  0.00     0.174 A 
ATOM      3  C3  BZF d   1       3.567  -5.466   5.405  0.00  0.00    -0.012 A 
ATOM      4  C3A BZF d   1       3.423  -4.125   4.930  0.00  0.00    -0.107 A 
ATOM      5  C4  BZF d   1       2.439  -3.472   4.243  0.00  0.00     0.055 A 
ATOM      6  C5  BZF d   1       2.575  -2.143   3.997  0.00  0.00    -0.016 A 
ATOM      7  C6  BZF d   1       3.678  -1.434   4.427  0.00  0.00     0.022 A 
ATOM      8  C7  BZF d   1       4.682  -2.039   5.108  0.00  0.00     0.029 A 
ATOM      9  C7A BZF d   1       4.563  -3.389   5.329  0.00  0.00     0.058 A 
ENDROOT
TORSDOF 0
ENDMDL
