MODEL 1
REMARK minimizedAffinity 7.43254185
REMARK minimizedRMSD -1
REMARK  0 active torsions:
REMARK  status: ('A' for Active; 'I' for Inactive)
ROOT
ATOM      1  O1  BZF d   1       2.925  -1.476   2.464  0.00  0.00    -0.204 OA
ATOM      2  C2  BZF d   1       3.349  -2.509   1.651  0.00  0.00     0.174 A 
ATOM      3  C3  BZF d   1       4.113  -3.379   2.342  0.00  0.00    -0.012 A 
ATOM      4  C3A BZF d   1       4.094  -2.907   3.693  0.00  0.00    -0.107 A 
ATOM      5  C4  BZF d   1       4.656  -3.357   4.853  0.00  0.00     0.055 A 
ATOM      6  C5  BZF d   1       4.505  -2.625   5.988  0.00  0.00    -0.016 A 
ATOM      7  C6  BZF d   1       3.804  -1.436   5.997  0.00  0.00     0.022 A 
ATOM      8  C7  BZF d   1       3.225  -0.951   4.872  0.00  0.00     0.029 A 
ATOM      9  C7A BZF d   1       3.348  -1.706   3.731  0.00  0.00     0.058 A 
ENDROOT
TORSDOF 0
ENDMDL
