MODEL 1
REMARK minimizedAffinity -0.874201775
REMARK minimizedRMSD -1
REMARK  0 active torsions:
REMARK  status: ('A' for Active; 'I' for Inactive)
ROOT
ATOM      1  O1  BZF d   1       3.850  -4.860   5.301  0.00  0.00    -0.204 OA
ATOM      2  C2  BZF d   1       4.958  -5.580   5.705  0.00  0.00     0.174 A 
ATOM      3  C3  BZF d   1       5.987  -4.757   5.989  0.00  0.00    -0.012 A 
ATOM      4  C3A BZF d   1       5.463  -3.434   5.837  0.00  0.00    -0.107 A 
ATOM      5  C4  BZF d   1       5.999  -2.188   5.997  0.00  0.00     0.055 A 
ATOM      6  C5  BZF d   1       5.242  -1.100   5.697  0.00  0.00    -0.016 A 
ATOM      7  C6  BZF d   1       3.949  -1.221   5.231  0.00  0.00     0.022 A 
ATOM      8  C7  BZF d   1       3.373  -2.436   5.062  0.00  0.00     0.029 A 
ATOM      9  C7A BZF d   1       4.124  -3.536   5.395  0.00  0.00     0.058 A 
ENDROOT
TORSDOF 0
ENDMDL
