MODEL 1
REMARK minimizedAffinity 2.151196
REMARK minimizedRMSD -1
REMARK  0 active torsions:
REMARK  status: ('A' for Active; 'I' for Inactive)
ROOT
ATOM      1  O1  BZF d   1       4.586  -1.155   2.421  0.00  0.00    -0.204 OA
ATOM      2  C2  BZF d   1       5.178  -2.014   1.515  0.00  0.00     0.174 A 
ATOM      3  C3  BZF d   1       5.857  -2.989   2.153  0.00  0.00    -0.012 A 
ATOM      4  C3A BZF d   1       5.601  -2.776   3.545  0.00  0.00    -0.107 A 
ATOM      5  C4  BZF d   1       5.988  -3.428   4.681  0.00  0.00     0.055 A 
ATOM      6  C5  BZF d   1       5.626  -2.921   5.889  0.00  0.00    -0.016 A 
ATOM      7  C6  BZF d   1       4.884  -1.764   5.998  0.00  0.00     0.022 A 
ATOM      8  C7  BZF d   1       4.473  -1.084   4.899  0.00  0.00     0.029 A 
ATOM      9  C7A BZF d   1       4.809  -1.612   3.676  0.00  0.00     0.058 A 
ENDROOT
TORSDOF 0
ENDMDL
