MODEL 1
REMARK minimizedAffinity 1.57400763
REMARK minimizedRMSD -1
REMARK  0 active torsions:
REMARK  status: ('A' for Active; 'I' for Inactive)
ROOT
ATOM      1  O1  BZF d   1      -0.177  -2.639  -4.804  0.00  0.00    -0.204 OA
ATOM      2  C2  BZF d   1       0.671  -1.876  -4.025  0.00  0.00     0.174 A 
ATOM      3  C3  BZF d   1       1.003  -2.533  -2.895  0.00  0.00    -0.012 A 
ATOM      4  C3A BZF d   1       0.394  -3.822  -3.016  0.00  0.00    -0.107 A 
ATOM      5  C4  BZF d   1       0.375  -4.930  -2.218  0.00  0.00     0.055 A 
ATOM      6  C5  BZF d   1      -0.375  -6.000  -2.591  0.00  0.00    -0.016 A 
ATOM      7  C6  BZF d   1      -1.121  -5.994  -3.752  0.00  0.00     0.022 A 
ATOM      8  C7  BZF d   1      -1.129  -4.920  -4.578  0.00  0.00     0.029 A 
ATOM      9  C7A BZF d   1      -0.347  -3.850  -4.220  0.00  0.00     0.058 A 
ENDROOT
TORSDOF 0
ENDMDL
