MODEL 1
REMARK minimizedAffinity 4.54593182
REMARK minimizedRMSD -1
REMARK  0 active torsions:
REMARK  status: ('A' for Active; 'I' for Inactive)
ROOT
ATOM      1  O1  BZF d   1       3.947   5.997  -5.083  0.00  0.00    -0.204 OA
ATOM      2  C2  BZF d   1       4.795   5.393  -5.991  0.00  0.00     0.174 A 
ATOM      3  C3  BZF d   1       5.752   4.686  -5.355  0.00  0.00    -0.012 A 
ATOM      4  C3A BZF d   1       5.430   4.784  -3.964  0.00  0.00    -0.107 A 
ATOM      5  C4  BZF d   1       6.000   4.278  -2.831  0.00  0.00     0.055 A 
ATOM      6  C5  BZF d   1       5.482   4.621  -1.622  0.00  0.00    -0.016 A 
ATOM      7  C6  BZF d   1       4.400   5.470  -1.509  0.00  0.00     0.022 A 
ATOM      8  C7  BZF d   1       3.798   5.992  -2.605  0.00  0.00     0.029 A 
ATOM      9  C7A BZF d   1       4.298   5.621  -3.830  0.00  0.00     0.058 A 
ENDROOT
TORSDOF 0
ENDMDL
