MODEL 1
REMARK minimizedAffinity 6.31141472
REMARK minimizedRMSD -1
REMARK  0 active torsions:
REMARK  status: ('A' for Active; 'I' for Inactive)
ROOT
ATOM      1  O1  BZF d   1       5.997   3.963  -3.657  0.00  0.00    -0.204 OA
ATOM      2  C2  BZF d   1       5.851   4.167  -2.298  0.00  0.00     0.174 A 
ATOM      3  C3  BZF d   1       4.792   4.963  -2.045  0.00  0.00    -0.012 A 
ATOM      4  C3A BZF d   1       4.186   5.200  -3.319  0.00  0.00    -0.107 A 
ATOM      5  C4  BZF d   1       3.088   5.905  -3.720  0.00  0.00     0.055 A 
ATOM      6  C5  BZF d   1       2.810   5.998  -5.047  0.00  0.00    -0.016 A 
ATOM      7  C6  BZF d   1       3.612   5.404  -6.000  0.00  0.00     0.022 A 
ATOM      8  C7  BZF d   1       4.710   4.690  -5.650  0.00  0.00     0.029 A 
ATOM      9  C7A BZF d   1       4.974   4.566  -4.308  0.00  0.00     0.058 A 
ENDROOT
TORSDOF 0
ENDMDL
