MODEL 1
REMARK minimizedAffinity -0.886135638
REMARK minimizedRMSD -1
REMARK  0 active torsions:
REMARK  status: ('A' for Active; 'I' for Inactive)
ROOT
ATOM      1  O1  BZF d   1       5.987  -3.011   2.416  0.00  0.00    -0.204 OA
ATOM      2  C2  BZF d   1       5.378  -2.152   1.523  0.00  0.00     0.174 A 
ATOM      3  C3  BZF d   1       4.608  -1.253   2.171  0.00  0.00    -0.012 A 
ATOM      4  C3A BZF d   1       4.818  -1.513   3.562  0.00  0.00    -0.107 A 
ATOM      5  C4  BZF d   1       4.342  -0.940   4.707  0.00  0.00     0.055 A 
ATOM      6  C5  BZF d   1       4.685  -1.478   5.907  0.00  0.00    -0.016 A 
ATOM      7  C6  BZF d   1       5.498  -2.588   5.999  0.00  0.00     0.022 A 
ATOM      8  C7  BZF d   1       5.999  -3.188   4.892  0.00  0.00     0.029 A 
ATOM      9  C7A BZF d   1       5.681  -2.628   3.679  0.00  0.00     0.058 A 
ENDROOT
TORSDOF 0
ENDMDL
