MODEL 1
REMARK minimizedAffinity 4.91588259
REMARK minimizedRMSD -1
REMARK  0 active torsions:
REMARK  status: ('A' for Active; 'I' for Inactive)
ROOT
ATOM      1  O1  BZF d   1       2.522  -1.469  -1.656  0.00  0.00    -0.204 OA
ATOM      2  C2  BZF d   1       2.951  -1.547  -2.967  0.00  0.00     0.174 A 
ATOM      3  C3  BZF d   1       2.079  -2.252  -3.715  0.00  0.00    -0.012 A 
ATOM      4  C3A BZF d   1       0.993  -2.561  -2.836  0.00  0.00    -0.107 A 
ATOM      5  C4  BZF d   1      -0.186  -3.230  -3.000  0.00  0.00     0.055 A 
ATOM      6  C5  BZF d   1      -0.993  -3.420  -1.923  0.00  0.00    -0.016 A 
ATOM      7  C6  BZF d   1      -0.649  -2.960  -0.668  0.00  0.00     0.022 A 
ATOM      8  C7  BZF d   1       0.508  -2.286  -0.458  0.00  0.00     0.029 A 
ATOM      9  C7A BZF d   1       1.309  -2.064  -1.551  0.00  0.00     0.058 A 
ENDROOT
TORSDOF 0
ENDMDL
