MODEL 1
REMARK minimizedAffinity 6.75287962
REMARK minimizedRMSD -1
REMARK  0 active torsions:
REMARK  status: ('A' for Active; 'I' for Inactive)
ROOT
ATOM      1  O1  BZF d   1       4.104   5.994  -1.653  0.00  0.00    -0.204 OA
ATOM      2  C2  BZF d   1       5.128   5.815  -0.743  0.00  0.00     0.174 A 
ATOM      3  C3  BZF d   1       5.999   4.884  -1.180  0.00  0.00    -0.012 A 
ATOM      4  C3A BZF d   1       5.538   4.520  -2.485  0.00  0.00    -0.107 A 
ATOM      5  C4  BZF d   1       5.996   3.651  -3.434  0.00  0.00     0.055 A 
ATOM      6  C5  BZF d   1       5.274   3.476  -4.572  0.00  0.00    -0.016 A 
ATOM      7  C6  BZF d   1       4.089   4.149  -4.791  0.00  0.00     0.022 A 
ATOM      8  C7  BZF d   1       3.598   5.025  -3.881  0.00  0.00     0.029 A 
ATOM      9  C7A BZF d   1       4.342   5.229  -2.745  0.00  0.00     0.058 A 
ENDROOT
TORSDOF 0
ENDMDL
