MODEL 1
REMARK minimizedAffinity 2.61837053
REMARK minimizedRMSD -1
REMARK  0 active torsions:
REMARK  status: ('A' for Active; 'I' for Inactive)
ROOT
ATOM      1  O1  BZF d   1      -0.077  -1.523  -1.015  0.00  0.00    -0.204 OA
ATOM      2  C2  BZF d   1      -1.063  -2.060  -0.211  0.00  0.00     0.174 A 
ATOM      3  C3  BZF d   1      -1.726  -3.040  -0.857  0.00  0.00    -0.012 A 
ATOM      4  C3A BZF d   1      -1.057  -3.182  -2.114  0.00  0.00    -0.107 A 
ATOM      5  C4  BZF d   1      -1.240  -4.006  -3.188  0.00  0.00     0.055 A 
ATOM      6  C5  BZF d   1      -0.461  -3.840  -4.288  0.00  0.00    -0.016 A 
ATOM      7  C6  BZF d   1       0.508  -2.859  -4.351  0.00  0.00     0.022 A 
ATOM      8  C7  BZF d   1       0.730  -2.022  -3.308  0.00  0.00     0.029 A 
ATOM      9  C7A BZF d   1      -0.034  -2.208  -2.183  0.00  0.00     0.058 A 
ENDROOT
TORSDOF 0
ENDMDL
