MODEL 1
REMARK minimizedAffinity 7.83734465
REMARK minimizedRMSD -1
REMARK  0 active torsions:
REMARK  status: ('A' for Active; 'I' for Inactive)
ROOT
ATOM      1  O1  BZF d   1      -2.187  -3.266  -0.455  0.00  0.00    -0.204 OA
ATOM      2  C2  BZF d   1      -1.893  -2.613   0.726  0.00  0.00     0.174 A 
ATOM      3  C3  BZF d   1      -0.758  -1.894   0.605  0.00  0.00    -0.012 A 
ATOM      4  C3A BZF d   1      -0.366  -2.038  -0.764  0.00  0.00    -0.107 A 
ATOM      5  C4  BZF d   1       0.674  -1.545  -1.499  0.00  0.00     0.055 A 
ATOM      6  C5  BZF d   1       0.811  -1.936  -2.793  0.00  0.00    -0.016 A 
ATOM      7  C6  BZF d   1      -0.069  -2.820  -3.382  0.00  0.00     0.022 A 
ATOM      8  C7  BZF d   1      -1.119  -3.331  -2.694  0.00  0.00     0.029 A 
ATOM      9  C7A BZF d   1      -1.279  -2.913  -1.396  0.00  0.00     0.058 A 
ENDROOT
TORSDOF 0
ENDMDL
