MODEL 1
REMARK minimizedAffinity 3.47583818
REMARK minimizedRMSD -1
REMARK  0 active torsions:
REMARK  status: ('A' for Active; 'I' for Inactive)
ROOT
ATOM      1  O1  BZF d   1       5.998   3.766  -1.139  0.00  0.00    -0.204 OA
ATOM      2  C2  BZF d   1       5.995   4.990  -0.498  0.00  0.00     0.174 A 
ATOM      3  C3  BZF d   1       5.993   5.999  -1.392  0.00  0.00    -0.012 A 
ATOM      4  C3A BZF d   1       5.902   5.367  -2.673  0.00  0.00    -0.107 A 
ATOM      5  C4  BZF d   1       5.844   5.842  -3.952  0.00  0.00     0.055 A 
ATOM      6  C5  BZF d   1       5.834   4.958  -4.984  0.00  0.00    -0.016 A 
ATOM      7  C6  BZF d   1       5.887   3.595  -4.774  0.00  0.00     0.022 A 
ATOM      8  C7  BZF d   1       5.941   3.077  -3.523  0.00  0.00     0.029 A 
ATOM      9  C7A BZF d   1       5.917   3.967  -2.477  0.00  0.00     0.058 A 
ENDROOT
TORSDOF 0
ENDMDL
