MODEL 1
REMARK minimizedAffinity 1.5881058
REMARK minimizedRMSD -1
REMARK  0 active torsions:
REMARK  status: ('A' for Active; 'I' for Inactive)
ROOT
ATOM      1  O1  BZF d   1       1.323  -1.756  -2.215  0.00  0.00    -0.204 OA
ATOM      2  C2  BZF d   1       1.174  -2.441  -3.405  0.00  0.00     0.174 A 
ATOM      3  C3  BZF d   1       0.018  -3.134  -3.417  0.00  0.00    -0.012 A 
ATOM      4  C3A BZF d   1      -0.638  -2.793  -2.192  0.00  0.00    -0.107 A 
ATOM      5  C4  BZF d   1      -1.832  -3.152  -1.635  0.00  0.00     0.055 A 
ATOM      6  C5  BZF d   1      -2.143  -2.699  -0.392  0.00  0.00    -0.016 A 
ATOM      7  C6  BZF d   1      -1.283  -1.892   0.324  0.00  0.00     0.022 A 
ATOM      8  C7  BZF d   1      -0.089  -1.506  -0.189  0.00  0.00     0.029 A 
ATOM      9  C7A BZF d   1       0.214  -1.935  -1.458  0.00  0.00     0.058 A 
ENDROOT
TORSDOF 0
ENDMDL
