MODEL 1
REMARK minimizedAffinity -1.28879368
REMARK minimizedRMSD -1
REMARK  0 active torsions:
REMARK  status: ('A' for Active; 'I' for Inactive)
ROOT
ATOM      1  O1  BZF d   1       3.818   4.521  -5.231  0.00  0.00    -0.204 OA
ATOM      2  C2  BZF d   1       4.977   4.533  -5.982  0.00  0.00     0.174 A 
ATOM      3  C3  BZF d   1       5.999   5.058  -5.276  0.00  0.00    -0.012 A 
ATOM      4  C3A BZF d   1       5.466   5.310  -3.972  0.00  0.00    -0.107 A 
ATOM      5  C4  BZF d   1       6.000   5.813  -2.820  0.00  0.00     0.055 A 
ATOM      6  C5  BZF d   1       5.191   5.999  -1.744  0.00  0.00    -0.016 A 
ATOM      7  C6  BZF d   1       3.846   5.697  -1.785  0.00  0.00     0.022 A 
ATOM      8  C7  BZF d   1       3.272   5.190  -2.904  0.00  0.00     0.029 A 
ATOM      9  C7A BZF d   1       4.093   4.971  -3.983  0.00  0.00     0.058 A 
ENDROOT
TORSDOF 0
ENDMDL
