MODEL 1
REMARK minimizedAffinity 2.87014222
REMARK minimizedRMSD -1
REMARK  0 active torsions:
REMARK  status: ('A' for Active; 'I' for Inactive)
ROOT
ATOM      1  O1  BZF d   1       3.789  -1.914   5.286  0.00  0.00    -0.204 OA
ATOM      2  C2  BZF d   1       4.944  -1.645   5.994  0.00  0.00     0.174 A 
ATOM      3  C3  BZF d   1       5.998  -1.524   5.162  0.00  0.00    -0.012 A 
ATOM      4  C3A BZF d   1       5.453  -1.639   3.844  0.00  0.00    -0.107 A 
ATOM      5  C4  BZF d   1       6.000  -1.587   2.594  0.00  0.00     0.055 A 
ATOM      6  C5  BZF d   1       5.204  -1.809   1.515  0.00  0.00    -0.016 A 
ATOM      7  C6  BZF d   1       3.861  -2.093   1.650  0.00  0.00     0.022 A 
ATOM      8  C7  BZF d   1       3.272  -2.151   2.870  0.00  0.00     0.029 A 
ATOM      9  C7A BZF d   1       4.067  -1.893   3.960  0.00  0.00     0.058 A 
ENDROOT
TORSDOF 0
ENDMDL
