MODEL 1
REMARK minimizedAffinity -3.22624373
REMARK minimizedRMSD -1
REMARK  0 active torsions:
REMARK  status: ('A' for Active; 'I' for Inactive)
ROOT
ATOM      1  C   UNL d   1       0.693  -1.279   3.051  0.00  0.00     0.023 A 
ATOM      2  C1  UNL d   1       1.709  -0.888   2.179  0.00  0.00     0.003 A 
ATOM      3  C2  UNL d   1       1.397  -0.192   1.009  0.00  0.00     0.048 A 
ATOM      4  C3  UNL d   1       0.068   0.111   0.718  0.00  0.00     0.023 A 
ATOM      5  C4  UNL d   1      -0.952  -0.278   1.588  0.00  0.00     0.048 A 
ATOM      6  C5  UNL d   1      -0.636  -0.974   2.756  0.00  0.00     0.003 A 
ATOM      7  I   UNL d   1      -0.398   1.147  -1.022  0.00  0.00    -0.146 I 
ENDROOT
TORSDOF 0
ENDMDL
