MODEL 1
REMARK minimizedAffinity -2.32867026
REMARK minimizedRMSD -1
REMARK  0 active torsions:
REMARK  status: ('A' for Active; 'I' for Inactive)
ROOT
ATOM      1  C   UNL d   1       1.122  -0.078   0.603  0.00  0.00     0.023 A 
ATOM      2  C1  UNL d   1       0.588   0.258  -0.641  0.00  0.00     0.003 A 
ATOM      3  C2  UNL d   1      -0.715  -0.123  -0.969  0.00  0.00     0.048 A 
ATOM      4  C3  UNL d   1      -1.478  -0.839  -0.048  0.00  0.00     0.023 A 
ATOM      5  C4  UNL d   1      -0.948  -1.177   1.198  0.00  0.00     0.048 A 
ATOM      6  C5  UNL d   1       0.355  -0.795   1.521  0.00  0.00     0.003 A 
ATOM      7  I   UNL d   1      -3.417  -1.408  -0.534  0.00  0.00    -0.146 I 
ENDROOT
TORSDOF 0
ENDMDL
