MODEL 1
REMARK minimizedAffinity -2.84073019
REMARK minimizedRMSD -1
REMARK  0 active torsions:
REMARK  status: ('A' for Active; 'I' for Inactive)
ROOT
ATOM      1  C   UNL d   1       1.114   0.060   1.736  0.00  0.00     0.023 A 
ATOM      2  C1  UNL d   1       0.861   0.213   0.373  0.00  0.00     0.003 A 
ATOM      3  C2  UNL d   1      -0.381  -0.147  -0.153  0.00  0.00     0.048 A 
ATOM      4  C3  UNL d   1      -1.367  -0.657   0.691  0.00  0.00     0.023 A 
ATOM      5  C4  UNL d   1      -1.120  -0.811   2.056  0.00  0.00     0.048 A 
ATOM      6  C5  UNL d   1       0.124  -0.451   2.577  0.00  0.00     0.003 A 
ATOM      7  I   UNL d   1      -3.218  -1.193  -0.090  0.00  0.00    -0.146 I 
ENDROOT
TORSDOF 0
ENDMDL
