MODEL 1
REMARK minimizedAffinity -0.76984483
REMARK minimizedRMSD -1
REMARK  0 active torsions:
REMARK  status: ('A' for Active; 'I' for Inactive)
ROOT
ATOM      1  C   UNL d   1       1.294   3.066  -3.553  0.00  0.00     0.023 A 
ATOM      2  C1  UNL d   1       0.718   2.773  -2.317  0.00  0.00     0.003 A 
ATOM      3  C2  UNL d   1      -0.667   2.845  -2.156  0.00  0.00     0.048 A 
ATOM      4  C3  UNL d   1      -1.471   3.210  -3.236  0.00  0.00     0.023 A 
ATOM      5  C4  UNL d   1      -0.899   3.502  -4.475  0.00  0.00     0.048 A 
ATOM      6  C5  UNL d   1       0.487   3.430  -4.631  0.00  0.00     0.003 A 
ATOM      7  I   UNL d   1      -3.533   3.318  -2.999  0.00  0.00    -0.146 I 
ENDROOT
TORSDOF 0
ENDMDL
