MODEL 1
REMARK minimizedAffinity -0.379612386
REMARK minimizedRMSD -1
REMARK  0 active torsions:
REMARK  status: ('A' for Active; 'I' for Inactive)
ROOT
ATOM      1  C   UNL d   1      -0.056   0.237   0.218  0.00  0.00     0.023 A 
ATOM      2  C1  UNL d   1      -0.770  -0.018   1.389  0.00  0.00     0.003 A 
ATOM      3  C2  UNL d   1      -2.044  -0.586   1.322  0.00  0.00     0.048 A 
ATOM      4  C3  UNL d   1      -2.598  -0.897   0.080  0.00  0.00     0.023 A 
ATOM      5  C4  UNL d   1      -1.887  -0.644  -1.094  0.00  0.00     0.048 A 
ATOM      6  C5  UNL d   1      -0.614  -0.075  -1.022  0.00  0.00     0.003 A 
ATOM      7  I   UNL d   1      -4.494  -1.742  -0.023  0.00  0.00    -0.146 I 
ENDROOT
TORSDOF 0
ENDMDL
