MODEL 1
REMARK minimizedAffinity -0.500144541
REMARK minimizedRMSD -1
REMARK  0 active torsions:
REMARK  status: ('A' for Active; 'I' for Inactive)
ROOT
ATOM      1  C   UNL d   1       0.245   0.451   0.050  0.00  0.00     0.023 A 
ATOM      2  C1  UNL d   1      -1.101   0.178   0.290  0.00  0.00     0.003 A 
ATOM      3  C2  UNL d   1      -1.462  -0.805   1.214  0.00  0.00     0.048 A 
ATOM      4  C3  UNL d   1      -0.471  -1.510   1.895  0.00  0.00     0.023 A 
ATOM      5  C4  UNL d   1       0.878  -1.240   1.659  0.00  0.00     0.048 A 
ATOM      6  C5  UNL d   1       1.234  -0.257   0.734  0.00  0.00     0.003 A 
ATOM      7  I   UNL d   1      -1.005  -2.973   3.272  0.00  0.00    -0.146 I 
ENDROOT
TORSDOF 0
ENDMDL
