MODEL 1
REMARK minimizedAffinity -5.14202452
REMARK minimizedRMSD -1
REMARK  0 active torsions:
REMARK  status: ('A' for Active; 'I' for Inactive)
ROOT
ATOM      1  C   UNL d   1       1.069  -1.060   2.983  0.00  0.00     0.023 A 
ATOM      2  C1  UNL d   1       1.988  -1.114   1.935  0.00  0.00     0.003 A 
ATOM      3  C2  UNL d   1       1.597  -0.760   0.643  0.00  0.00     0.048 A 
ATOM      4  C3  UNL d   1       0.285  -0.351   0.405  0.00  0.00     0.023 A 
ATOM      5  C4  UNL d   1      -0.638  -0.295   1.451  0.00  0.00     0.048 A 
ATOM      6  C5  UNL d   1      -0.242  -0.651   2.741  0.00  0.00     0.003 A 
ATOM      7  I   UNL d   1      -0.300   0.177  -1.518  0.00  0.00    -0.146 I 
ENDROOT
TORSDOF 0
ENDMDL
