MODEL 1
REMARK minimizedAffinity 0.687384844
REMARK minimizedRMSD -1
REMARK  0 active torsions:
REMARK  status: ('A' for Active; 'I' for Inactive)
ROOT
ATOM      1  C   UNL d   1       2.692  -0.256   0.993  0.00  0.00     0.023 A 
ATOM      2  C1  UNL d   1       1.628  -0.782   0.259  0.00  0.00     0.003 A 
ATOM      3  C2  UNL d   1       0.696  -1.617   0.880  0.00  0.00     0.048 A 
ATOM      4  C3  UNL d   1       0.832  -1.919   2.234  0.00  0.00     0.023 A 
ATOM      5  C4  UNL d   1       1.894  -1.393   2.972  0.00  0.00     0.048 A 
ATOM      6  C5  UNL d   1       2.824  -0.561   2.348  0.00  0.00     0.003 A 
ATOM      7  I   UNL d   1      -0.555  -3.160   3.160  0.00  0.00    -0.146 I 
ENDROOT
TORSDOF 0
ENDMDL
