MODEL 1
REMARK minimizedAffinity -0.818016946
REMARK minimizedRMSD -1
REMARK  0 active torsions:
REMARK  status: ('A' for Active; 'I' for Inactive)
ROOT
ATOM      1  C   UNL d   1       1.726  -0.819   0.213  0.00  0.00     0.023 A 
ATOM      2  C1  UNL d   1       1.253  -1.002  -1.086  0.00  0.00     0.003 A 
ATOM      3  C2  UNL d   1       0.443  -0.031  -1.679  0.00  0.00     0.048 A 
ATOM      4  C3  UNL d   1       0.111   1.121  -0.967  0.00  0.00     0.023 A 
ATOM      5  C4  UNL d   1       0.584   1.309   0.333  0.00  0.00     0.048 A 
ATOM      6  C5  UNL d   1       1.392   0.335   0.922  0.00  0.00     0.003 A 
ATOM      7  I   UNL d   1      -1.094   2.568  -1.848  0.00  0.00    -0.146 I 
ENDROOT
TORSDOF 0
ENDMDL
