MODEL 1
REMARK minimizedAffinity 3.29999232
REMARK minimizedRMSD -1
REMARK  0 active torsions:
REMARK  status: ('A' for Active; 'I' for Inactive)
ROOT
ATOM      1  C   UNL d   1       1.998   3.863  -4.401  0.00  0.00     0.023 A 
ATOM      2  C1  UNL d   1       1.145   2.861  -4.865  0.00  0.00     0.003 A 
ATOM      3  C2  UNL d   1      -0.058   2.605  -4.204  0.00  0.00     0.048 A 
ATOM      4  C3  UNL d   1      -0.403   3.355  -3.081  0.00  0.00     0.023 A 
ATOM      5  C4  UNL d   1       0.447   4.360  -2.614  0.00  0.00     0.048 A 
ATOM      6  C5  UNL d   1       1.649   4.611  -3.277  0.00  0.00     0.003 A 
ATOM      7  I   UNL d   1      -2.193   2.977  -2.095  0.00  0.00    -0.146 I 
ENDROOT
TORSDOF 0
ENDMDL
