MODEL 1
REMARK minimizedAffinity -0.549256027
REMARK minimizedRMSD -1
REMARK  0 active torsions:
REMARK  status: ('A' for Active; 'I' for Inactive)
ROOT
ATOM      1  C   UNL d   1       1.629   0.306   1.009  0.00  0.00     0.023 A 
ATOM      2  C1  UNL d   1       1.311  -1.030   0.763  0.00  0.00     0.003 A 
ATOM      3  C2  UNL d   1       0.083  -1.362   0.188  0.00  0.00     0.048 A 
ATOM      4  C3  UNL d   1      -0.822  -0.353  -0.140  0.00  0.00     0.023 A 
ATOM      5  C4  UNL d   1      -0.508   0.985   0.103  0.00  0.00     0.048 A 
ATOM      6  C5  UNL d   1       0.721   1.312   0.679  0.00  0.00     0.003 A 
ATOM      7  I   UNL d   1      -2.651  -0.845  -0.996  0.00  0.00    -0.146 I 
ENDROOT
TORSDOF 0
ENDMDL
