MODEL 1
REMARK minimizedAffinity -3.28504705
REMARK minimizedRMSD -1
REMARK  2 active torsions:
REMARK  status: ('A' for Active; 'I' for Inactive)
REMARK    1  A    between atoms: C1_2  and  C2_3 
REMARK    2  A    between atoms: C2_3  and  C3_4 
ROOT
ATOM      1  C3  UNL d   1       1.871  -0.089   0.888  0.00  0.00    -0.075 A 
ATOM      2  C4  UNL d   1       2.106   1.292   0.810  0.00  0.00     0.002 A 
ATOM      3  C5  UNL d   1       1.126   2.150   0.312  0.00  0.00     0.002 A 
ATOM      4  C6  UNL d   1      -0.095   1.640  -0.124  0.00  0.00    -0.004 A 
ATOM      5  C7  UNL d   1      -0.333   0.269  -0.067  0.00  0.00     0.002 A 
ATOM      6  C8  UNL d   1       0.644  -0.592   0.436  0.00  0.00     0.002 A 
ENDROOT
BRANCH   1   7
ATOM      7  C2  UNL d   1       2.916  -1.020   1.454  0.00  0.00     0.056 C 
BRANCH   7   8
ATOM      8  C1  UNL d   1       4.015  -1.404   0.457  0.00  0.00     0.007 C 
ATOM      9  C   UNL d   1       3.472  -1.808  -0.907  0.00  0.00     0.009 C 
ENDBRANCH   7   8
ENDBRANCH   1   7
TORSDOF 2
ENDMDL
