MODEL 1
REMARK minimizedAffinity -4.19449568
REMARK minimizedRMSD -1
REMARK  2 active torsions:
REMARK  status: ('A' for Active; 'I' for Inactive)
REMARK    1  A    between atoms: C1_2  and  C2_3 
REMARK    2  A    between atoms: C2_3  and  C3_4 
ROOT
ATOM      1  C3  UNL d   1      -0.942   0.579   0.008  0.00  0.00    -0.075 A 
ATOM      2  C4  UNL d   1      -0.750  -0.673  -0.595  0.00  0.00     0.002 A 
ATOM      3  C5  UNL d   1       0.481  -1.322  -0.502  0.00  0.00     0.002 A 
ATOM      4  C6  UNL d   1       1.537  -0.726   0.183  0.00  0.00    -0.004 A 
ATOM      5  C7  UNL d   1       1.362   0.525   0.772  0.00  0.00     0.002 A 
ATOM      6  C8  UNL d   1       0.130   1.175   0.685  0.00  0.00     0.002 A 
ENDROOT
BRANCH   1   7
ATOM      7  C2  UNL d   1      -2.281   1.273  -0.064  0.00  0.00     0.056 C 
BRANCH   7   8
ATOM      8  C1  UNL d   1      -2.928   1.523   1.303  0.00  0.00     0.007 C 
ATOM      9  C   UNL d   1      -4.059   0.554   1.618  0.00  0.00     0.009 C 
ENDBRANCH   7   8
ENDBRANCH   1   7
TORSDOF 2
ENDMDL
