MODEL 1
REMARK minimizedAffinity -5.26704788
REMARK minimizedRMSD -1
REMARK  2 active torsions:
REMARK  status: ('A' for Active; 'I' for Inactive)
REMARK    1  A    between atoms: C1_2  and  C2_3 
REMARK    2  A    between atoms: C2_3  and  C3_4 
ROOT
ATOM      1  C3  UNL d   1       0.257  -0.103   0.399  0.00  0.00    -0.075 A 
ATOM      2  C4  UNL d   1       0.415  -1.049  -0.624  0.00  0.00     0.002 A 
ATOM      3  C5  UNL d   1       1.346  -2.080  -0.498  0.00  0.00     0.002 A 
ATOM      4  C6  UNL d   1       2.137  -2.172   0.645  0.00  0.00    -0.004 A 
ATOM      5  C7  UNL d   1       2.001  -1.228   1.660  0.00  0.00     0.002 A 
ATOM      6  C8  UNL d   1       1.066  -0.198   1.539  0.00  0.00     0.002 A 
ENDROOT
BRANCH   1   7
ATOM      7  C2  UNL d   1      -0.770   0.998   0.282  0.00  0.00     0.056 C 
BRANCH   7   8
ATOM      8  C1  UNL d   1      -2.135   0.645   0.884  0.00  0.00     0.007 C 
ATOM      9  C   UNL d   1      -2.499   1.502   2.088  0.00  0.00     0.009 C 
ENDBRANCH   7   8
ENDBRANCH   1   7
TORSDOF 2
ENDMDL
