MODEL 1
REMARK minimizedAffinity -3.19463015
REMARK minimizedRMSD -1
REMARK  2 active torsions:
REMARK  status: ('A' for Active; 'I' for Inactive)
REMARK    1  A    between atoms: C1_2  and  C2_3 
REMARK    2  A    between atoms: C2_3  and  C3_4 
ROOT
ATOM      1  C3  UNL d   1       0.709  -0.237   0.403  0.00  0.00    -0.075 A 
ATOM      2  C4  UNL d   1       1.572   0.839   0.658  0.00  0.00     0.002 A 
ATOM      3  C5  UNL d   1       1.289   2.108   0.153  0.00  0.00     0.002 A 
ATOM      4  C6  UNL d   1       0.149   2.315  -0.621  0.00  0.00    -0.004 A 
ATOM      5  C7  UNL d   1      -0.706   1.250  -0.894  0.00  0.00     0.002 A 
ATOM      6  C8  UNL d   1      -0.428  -0.020  -0.386  0.00  0.00     0.002 A 
ENDROOT
BRANCH   1   7
ATOM      7  C2  UNL d   1       0.994  -1.607   0.972  0.00  0.00     0.056 C 
BRANCH   7   8
ATOM      8  C1  UNL d   1       2.303  -2.229   0.474  0.00  0.00     0.007 C 
ATOM      9  C   UNL d   1       2.405  -2.277  -1.045  0.00  0.00     0.009 C 
ENDBRANCH   7   8
ENDBRANCH   1   7
TORSDOF 2
ENDMDL
