MODEL 1
REMARK minimizedAffinity -5.29640293
REMARK minimizedRMSD -1
REMARK  2 active torsions:
REMARK  status: ('A' for Active; 'I' for Inactive)
REMARK    1  A    between atoms: C1_2  and  C2_3 
REMARK    2  A    between atoms: C2_3  and  C3_4 
ROOT
ATOM      1  C3  UNL d   1       0.452   0.066   0.039  0.00  0.00    -0.075 A 
ATOM      2  C4  UNL d   1       1.296   0.337   1.126  0.00  0.00     0.002 A 
ATOM      3  C5  UNL d   1       2.285  -0.574   1.498  0.00  0.00     0.002 A 
ATOM      4  C6  UNL d   1       2.437  -1.768   0.796  0.00  0.00    -0.004 A 
ATOM      5  C7  UNL d   1       1.594  -2.054  -0.275  0.00  0.00     0.002 A 
ATOM      6  C8  UNL d   1       0.605  -1.143  -0.652  0.00  0.00     0.002 A 
ENDROOT
BRANCH   1   7
ATOM      7  C2  UNL d   1      -0.602   1.060  -0.388  0.00  0.00     0.056 C 
BRANCH   7   8
ATOM      8  C1  UNL d   1      -2.024   0.490  -0.412  0.00  0.00     0.007 C 
ATOM      9  C   UNL d   1      -2.950   1.142   0.606  0.00  0.00     0.009 C 
ENDBRANCH   7   8
ENDBRANCH   1   7
TORSDOF 2
ENDMDL
