MODEL 1
REMARK minimizedAffinity -3.83647251
REMARK minimizedRMSD -1
REMARK  2 active torsions:
REMARK  status: ('A' for Active; 'I' for Inactive)
REMARK    1  A    between atoms: C1_2  and  C2_3 
REMARK    2  A    between atoms: C2_3  and  C3_4 
ROOT
ATOM      1  C3  UNL d   1       1.417   0.395   0.268  0.00  0.00    -0.075 A 
ATOM      2  C4  UNL d   1       0.529  -0.674   0.076  0.00  0.00     0.002 A 
ATOM      3  C5  UNL d   1      -0.737  -0.454  -0.467  0.00  0.00     0.002 A 
ATOM      4  C6  UNL d   1      -1.135   0.834  -0.816  0.00  0.00    -0.004 A 
ATOM      5  C7  UNL d   1      -0.267   1.906  -0.615  0.00  0.00     0.002 A 
ATOM      6  C8  UNL d   1       1.002   1.689  -0.075  0.00  0.00     0.002 A 
ENDROOT
BRANCH   1   7
ATOM      7  C2  UNL d   1       2.799   0.160   0.828  0.00  0.00     0.056 C 
BRANCH   7   8
ATOM      8  C1  UNL d   1       3.385  -1.214   0.488  0.00  0.00     0.007 C 
ATOM      9  C   UNL d   1       3.565  -1.436  -1.008  0.00  0.00     0.009 C 
ENDBRANCH   7   8
ENDBRANCH   1   7
TORSDOF 2
ENDMDL
