MODEL 1
REMARK minimizedAffinity 1.95502603
REMARK minimizedRMSD -1
REMARK  0 active torsions:
REMARK  status: ('A' for Active; 'I' for Inactive)
ROOT
ATOM      1  C1  BNZ d   1       2.188   1.738  -1.103  0.00  0.00     0.000 A 
ATOM      2  C2  BNZ d   1       0.897   1.907  -1.526  0.00  0.00     0.000 A 
ATOM      3  C3  BNZ d   1       0.398   3.156  -1.770  0.00  0.00     0.000 A 
ATOM      4  C4  BNZ d   1       1.176   4.235  -1.551  0.00  0.00     0.000 A 
ATOM      5  C5  BNZ d   1       2.477   4.082  -1.115  0.00  0.00     0.000 A 
ATOM      6  C6  BNZ d   1       2.989   2.821  -0.908  0.00  0.00     0.000 A 
ENDROOT
TORSDOF 0
ENDMDL
