MODEL 1
REMARK minimizedAffinity 5.25056219
REMARK minimizedRMSD -1
REMARK  0 active torsions:
REMARK  status: ('A' for Active; 'I' for Inactive)
ROOT
ATOM      1  C1  BNZ d   1      -0.974   3.762  -4.815  0.00  0.00     0.000 A 
ATOM      2  C2  BNZ d   1      -1.978   2.980  -4.309  0.00  0.00     0.000 A 
ATOM      3  C3  BNZ d   1      -2.116   2.803  -2.961  0.00  0.00     0.000 A 
ATOM      4  C4  BNZ d   1      -1.227   3.375  -2.123  0.00  0.00     0.000 A 
ATOM      5  C5  BNZ d   1      -0.204   4.159  -2.618  0.00  0.00     0.000 A 
ATOM      6  C6  BNZ d   1      -0.091   4.366  -3.973  0.00  0.00     0.000 A 
ENDROOT
TORSDOF 0
ENDMDL
