MODEL 1
REMARK minimizedAffinity 4.73970842
REMARK minimizedRMSD -1
REMARK  0 active torsions:
REMARK  status: ('A' for Active; 'I' for Inactive)
ROOT
ATOM      1  C1  BNZ d   1      -1.534   2.999  -2.964  0.00  0.00     0.000 A 
ATOM      2  C2  BNZ d   1      -0.960   4.106  -3.530  0.00  0.00     0.000 A 
ATOM      3  C3  BNZ d   1       0.056   3.981  -4.436  0.00  0.00     0.000 A 
ATOM      4  C4  BNZ d   1       0.524   2.754  -4.743  0.00  0.00     0.000 A 
ATOM      5  C5  BNZ d   1      -0.038   1.629  -4.174  0.00  0.00     0.000 A 
ATOM      6  C6  BNZ d   1      -1.087   1.756  -3.292  0.00  0.00     0.000 A 
ENDROOT
TORSDOF 0
ENDMDL
