MODEL 1
REMARK minimizedAffinity -1.36834061
REMARK minimizedRMSD -1
REMARK  0 active torsions:
REMARK  status: ('A' for Active; 'I' for Inactive)
ROOT
ATOM      1  C1  BNZ d   1       0.349   0.115  -2.106  0.00  0.00     0.000 A 
ATOM      2  C2  BNZ d   1       0.731  -1.083  -1.562  0.00  0.00     0.000 A 
ATOM      3  C3  BNZ d   1       0.413  -1.398  -0.270  0.00  0.00     0.000 A 
ATOM      4  C4  BNZ d   1      -0.250  -0.501   0.487  0.00  0.00     0.000 A 
ATOM      5  C5  BNZ d   1      -0.633   0.715  -0.044  0.00  0.00     0.000 A 
ATOM      6  C6  BNZ d   1      -0.345   1.013  -1.356  0.00  0.00     0.000 A 
ENDROOT
TORSDOF 0
ENDMDL
