MODEL 1
REMARK minimizedAffinity 0.562852263
REMARK minimizedRMSD -1
REMARK  0 active torsions:
REMARK  status: ('A' for Active; 'I' for Inactive)
ROOT
ATOM      1  C1  BNZ d   1       3.947  -3.635  -4.806  0.00  0.00     0.000 A 
ATOM      2  C2  BNZ d   1       5.316  -3.655  -4.773  0.00  0.00     0.000 A 
ATOM      3  C3  BNZ d   1       5.999  -4.838  -4.731  0.00  0.00     0.000 A 
ATOM      4  C4  BNZ d   1       5.312  -5.998  -4.681  0.00  0.00     0.000 A 
ATOM      5  C5  BNZ d   1       3.932  -5.995  -4.704  0.00  0.00     0.000 A 
ATOM      6  C6  BNZ d   1       3.249  -4.803  -4.786  0.00  0.00     0.000 A 
ENDROOT
TORSDOF 0
ENDMDL
