MODEL 1
REMARK minimizedAffinity 8.12276649
REMARK minimizedRMSD -1
REMARK  0 active torsions:
REMARK  status: ('A' for Active; 'I' for Inactive)
ROOT
ATOM      1  C1  BNZ d   1       4.071  -0.141   2.910  0.00  0.00     0.000 A 
ATOM      2  C2  BNZ d   1       2.723  -0.322   2.749  0.00  0.00     0.000 A 
ATOM      3  C3  BNZ d   1       2.110  -0.002   1.570  0.00  0.00     0.000 A 
ATOM      4  C4  BNZ d   1       2.837   0.535   0.569  0.00  0.00     0.000 A 
ATOM      5  C5  BNZ d   1       4.195   0.732   0.720  0.00  0.00     0.000 A 
ATOM      6  C6  BNZ d   1       4.816   0.373   1.894  0.00  0.00     0.000 A 
ENDROOT
TORSDOF 0
ENDMDL
