MODEL 1
REMARK minimizedAffinity -4.23217344
REMARK minimizedRMSD -1
REMARK  0 active torsions:
REMARK  status: ('A' for Active; 'I' for Inactive)
ROOT
ATOM      1  C1  BNZ d   1      -0.278  -2.651   0.579  0.00  0.00     0.000 A 
ATOM      2  C2  BNZ d   1      -0.560  -1.320   0.732  0.00  0.00     0.000 A 
ATOM      3  C3  BNZ d   1       0.400  -0.372   0.516  0.00  0.00     0.000 A 
ATOM      4  C4  BNZ d   1       1.650  -0.757   0.186  0.00  0.00     0.000 A 
ATOM      5  C5  BNZ d   1       1.953  -2.096   0.037  0.00  0.00     0.000 A 
ATOM      6  C6  BNZ d   1       0.974  -3.045   0.218  0.00  0.00     0.000 A 
ENDROOT
TORSDOF 0
ENDMDL
