MODEL 1
REMARK minimizedAffinity 2.07459092
REMARK minimizedRMSD -1
REMARK  0 active torsions:
REMARK  status: ('A' for Active; 'I' for Inactive)
ROOT
ATOM      1  C1  BNZ d   1      -4.895  -5.130   1.229  0.00  0.00     0.000 A 
ATOM      2  C2  BNZ d   1      -5.796  -5.988   1.801  0.00  0.00     0.000 A 
ATOM      3  C3  BNZ d   1      -5.990  -5.999   3.154  0.00  0.00     0.000 A 
ATOM      4  C4  BNZ d   1      -5.257  -5.180   3.936  0.00  0.00     0.000 A 
ATOM      5  C5  BNZ d   1      -4.338  -4.316   3.375  0.00  0.00     0.000 A 
ATOM      6  C6  BNZ d   1      -4.172  -4.281   2.009  0.00  0.00     0.000 A 
ENDROOT
TORSDOF 0
ENDMDL
