MODEL 1
REMARK minimizedAffinity -0.401417971
REMARK minimizedRMSD -1
REMARK  0 active torsions:
REMARK  status: ('A' for Active; 'I' for Inactive)
ROOT
ATOM      1  C1  BNZ d   1       1.254   0.401   0.153  0.00  0.00     0.000 A 
ATOM      2  C2  BNZ d   1       0.076   1.094   0.239  0.00  0.00     0.000 A 
ATOM      3  C3  BNZ d   1      -1.076   0.586  -0.294  0.00  0.00     0.000 A 
ATOM      4  C4  BNZ d   1      -1.040  -0.594  -0.945  0.00  0.00     0.000 A 
ATOM      5  C5  BNZ d   1       0.141  -1.301  -1.048  0.00  0.00     0.000 A 
ATOM      6  C6  BNZ d   1       1.291  -0.804  -0.477  0.00  0.00     0.000 A 
ENDROOT
TORSDOF 0
ENDMDL
