MODEL 1
REMARK minimizedAffinity 5.34572268
REMARK minimizedRMSD -1
REMARK  0 active torsions:
REMARK  status: ('A' for Active; 'I' for Inactive)
ROOT
ATOM      1  C1  BNZ d   1      -1.888   1.517   0.707  0.00  0.00     0.000 A 
ATOM      2  C2  BNZ d   1      -3.222   1.207   0.712  0.00  0.00     0.000 A 
ATOM      3  C3  BNZ d   1      -4.100   1.882  -0.088  0.00  0.00     0.000 A 
ATOM      4  C4  BNZ d   1      -3.651   2.892  -0.861  0.00  0.00     0.000 A 
ATOM      5  C5  BNZ d   1      -2.310   3.222  -0.871  0.00  0.00     0.000 A 
ATOM      6  C6  BNZ d   1      -1.423   2.515  -0.093  0.00  0.00     0.000 A 
ENDROOT
TORSDOF 0
ENDMDL
