MODEL 1
REMARK minimizedAffinity 0.257102638
REMARK minimizedRMSD -1
REMARK  0 active torsions:
REMARK  status: ('A' for Active; 'I' for Inactive)
ROOT
ATOM      1  C1  BNZ d   1      -4.153  -4.121  -2.625  0.00  0.00     0.000 A 
ATOM      2  C2  BNZ d   1      -4.423  -4.129  -1.282  0.00  0.00     0.000 A 
ATOM      3  C3  BNZ d   1      -5.239  -5.082  -0.738  0.00  0.00     0.000 A 
ATOM      4  C4  BNZ d   1      -5.814  -6.000  -1.541  0.00  0.00     0.000 A 
ATOM      5  C5  BNZ d   1      -5.559  -5.999  -2.898  0.00  0.00     0.000 A 
ATOM      6  C6  BNZ d   1      -4.707  -5.063  -3.437  0.00  0.00     0.000 A 
ENDROOT
TORSDOF 0
ENDMDL
