MODEL 1
REMARK minimizedAffinity 6.73933649
REMARK minimizedRMSD -1
REMARK  0 active torsions:
REMARK  status: ('A' for Active; 'I' for Inactive)
ROOT
ATOM      1  C1  BNZ d   1       1.885   2.403  -0.746  0.00  0.00     0.000 A 
ATOM      2  C2  BNZ d   1       2.940   2.553  -1.606  0.00  0.00     0.000 A 
ATOM      3  C3  BNZ d   1       3.693   1.477  -1.985  0.00  0.00     0.000 A 
ATOM      4  C4  BNZ d   1       3.416   0.261  -1.473  0.00  0.00     0.000 A 
ATOM      5  C5  BNZ d   1       2.361   0.095  -0.597  0.00  0.00     0.000 A 
ATOM      6  C6  BNZ d   1       1.581   1.173  -0.248  0.00  0.00     0.000 A 
ENDROOT
TORSDOF 0
ENDMDL
