MODEL 1
REMARK minimizedAffinity 8.72119713
REMARK minimizedRMSD -1
REMARK  0 active torsions:
REMARK  status: ('A' for Active; 'I' for Inactive)
ROOT
ATOM      1  C1  BNZ d   1      -0.475   4.080  -4.312  0.00  0.00     0.000 A 
ATOM      2  C2  BNZ d   1      -1.489   3.166  -4.418  0.00  0.00     0.000 A 
ATOM      3  C3  BNZ d   1      -2.052   2.612  -3.302  0.00  0.00     0.000 A 
ATOM      4  C4  BNZ d   1      -1.575   2.943  -2.085  0.00  0.00     0.000 A 
ATOM      5  C5  BNZ d   1      -0.547   3.857  -1.962  0.00  0.00     0.000 A 
ATOM      6  C6  BNZ d   1      -0.009   4.441  -3.086  0.00  0.00     0.000 A 
ENDROOT
TORSDOF 0
ENDMDL
