MODEL 1
REMARK minimizedAffinity -3.79346204
REMARK minimizedRMSD -1
REMARK  0 active torsions:
REMARK  status: ('A' for Active; 'I' for Inactive)
ROOT
ATOM      1  C1  BNZ d   1       0.396  -3.034   0.250  0.00  0.00     0.000 A 
ATOM      2  C2  BNZ d   1      -0.931  -3.121   0.578  0.00  0.00     0.000 A 
ATOM      3  C3  BNZ d   1      -1.603  -2.038   1.072  0.00  0.00     0.000 A 
ATOM      4  C4  BNZ d   1      -0.938  -0.881   1.274  0.00  0.00     0.000 A 
ATOM      5  C5  BNZ d   1       0.402  -0.780   0.957  0.00  0.00     0.000 A 
ATOM      6  C6  BNZ d   1       1.065  -1.862   0.424  0.00  0.00     0.000 A 
ENDROOT
TORSDOF 0
ENDMDL
