MODEL 1
REMARK minimizedAffinity -0.856870234
REMARK minimizedRMSD -1
REMARK  0 active torsions:
REMARK  status: ('A' for Active; 'I' for Inactive)
ROOT
ATOM      1  C1  BNZ d   1      -4.647  -3.760  -2.784  0.00  0.00     0.000 A 
ATOM      2  C2  BNZ d   1      -4.130  -3.773  -1.516  0.00  0.00     0.000 A 
ATOM      3  C3  BNZ d   1      -4.193  -4.900  -0.746  0.00  0.00     0.000 A 
ATOM      4  C4  BNZ d   1      -4.806  -6.000  -1.229  0.00  0.00     0.000 A 
ATOM      5  C5  BNZ d   1      -5.340  -6.000  -2.502  0.00  0.00     0.000 A 
ATOM      6  C6  BNZ d   1      -5.241  -4.875  -3.288  0.00  0.00     0.000 A 
ENDROOT
TORSDOF 0
ENDMDL
