MODEL 1
REMARK minimizedAffinity 2.94943619
REMARK minimizedRMSD -1
REMARK  0 active torsions:
REMARK  status: ('A' for Active; 'I' for Inactive)
ROOT
ATOM      1  C1  BNZ d   1       2.627  -5.999  -3.458  0.00  0.00     0.000 A 
ATOM      2  C2  BNZ d   1       1.275  -5.993  -3.680  0.00  0.00     0.000 A 
ATOM      3  C3  BNZ d   1       0.775  -5.999  -4.953  0.00  0.00     0.000 A 
ATOM      4  C4  BNZ d   1       1.625  -5.970  -5.999  0.00  0.00     0.000 A 
ATOM      5  C5  BNZ d   1       2.990  -5.966  -5.791  0.00  0.00     0.000 A 
ATOM      6  C6  BNZ d   1       3.490  -6.000  -4.510  0.00  0.00     0.000 A 
ENDROOT
TORSDOF 0
ENDMDL
