MODEL 1
REMARK minimizedAffinity -4.91384411
REMARK minimizedRMSD -1
REMARK  0 active torsions:
REMARK  status: ('A' for Active; 'I' for Inactive)
ROOT
ATOM      1  C   UNL d   1      -0.157   3.324  -0.391  0.00  0.00     0.077 C 
ATOM      2  C1  UNL d   1       0.067   1.842  -0.348  0.00  0.00    -0.074 A 
ATOM      3  C2  UNL d   1      -0.081   1.059  -1.497  0.00  0.00    -0.005 A 
ATOM      4  C3  UNL d   1       0.140  -0.318  -1.444  0.00  0.00     0.006 A 
ATOM      5  C4  UNL d   1       0.511  -0.924  -0.243  0.00  0.00    -0.005 A 
ATOM      6  C5  UNL d   1       0.664  -0.157   0.917  0.00  0.00    -0.074 A 
ATOM      7  C6  UNL d   1       1.071  -0.791   2.213  0.00  0.00     0.077 C 
ATOM      8  C7  UNL d   1       0.447   1.226   0.853  0.00  0.00    -0.001 A 
ENDROOT
TORSDOF 0
ENDMDL
