MODEL 1
REMARK minimizedAffinity -1.56235147
REMARK minimizedRMSD -1
REMARK  0 active torsions:
REMARK  status: ('A' for Active; 'I' for Inactive)
ROOT
ATOM      1  C   UNL d   1       0.534  -1.741  -0.716  0.00  0.00     0.077 C 
ATOM      2  C1  UNL d   1       0.276  -0.359  -0.192  0.00  0.00    -0.074 A 
ATOM      3  C2  UNL d   1       0.363  -0.081   1.175  0.00  0.00    -0.005 A 
ATOM      4  C3  UNL d   1       0.130   1.211   1.647  0.00  0.00     0.006 A 
ATOM      5  C4  UNL d   1      -0.192   2.236   0.756  0.00  0.00    -0.005 A 
ATOM      6  C5  UNL d   1      -0.282   1.977  -0.615  0.00  0.00    -0.074 A 
ATOM      7  C6  UNL d   1      -0.617   3.070  -1.587  0.00  0.00     0.077 C 
ATOM      8  C7  UNL d   1      -0.040   0.678  -1.082  0.00  0.00    -0.001 A 
ENDROOT
TORSDOF 0
ENDMDL
