MODEL 1
REMARK minimizedAffinity -0.967217505
REMARK minimizedRMSD -1
REMARK  0 active torsions:
REMARK  status: ('A' for Active; 'I' for Inactive)
ROOT
ATOM      1  C   UNL d   1      -0.514   1.781  -1.836  0.00  0.00     0.077 C 
ATOM      2  C1  UNL d   1      -0.071   0.599  -1.027  0.00  0.00    -0.074 A 
ATOM      3  C2  UNL d   1       0.229   0.731   0.333  0.00  0.00    -0.005 A 
ATOM      4  C3  UNL d   1       0.632  -0.380   1.075  0.00  0.00     0.006 A 
ATOM      5  C4  UNL d   1       0.738  -1.631   0.466  0.00  0.00    -0.005 A 
ATOM      6  C5  UNL d   1       0.442  -1.782  -0.892  0.00  0.00    -0.074 A 
ATOM      7  C6  UNL d   1       0.541  -3.121  -1.559  0.00  0.00     0.077 C 
ATOM      8  C7  UNL d   1       0.031  -0.663  -1.629  0.00  0.00    -0.001 A 
ENDROOT
TORSDOF 0
ENDMDL
