MODEL 1
REMARK minimizedAffinity -2.52759862
REMARK minimizedRMSD -1
REMARK  0 active torsions:
REMARK  status: ('A' for Active; 'I' for Inactive)
ROOT
ATOM      1  C   UNL d   1       0.457  -1.724  -0.744  0.00  0.00     0.077 C 
ATOM      2  C1  UNL d   1       0.216  -0.446   0.002  0.00  0.00    -0.074 A 
ATOM      3  C2  UNL d   1       0.185  -0.424   1.400  0.00  0.00    -0.005 A 
ATOM      4  C3  UNL d   1      -0.031   0.774   2.080  0.00  0.00     0.006 A 
ATOM      5  C4  UNL d   1      -0.219   1.961   1.371  0.00  0.00    -0.005 A 
ATOM      6  C5  UNL d   1      -0.191   1.959  -0.027  0.00  0.00    -0.074 A 
ATOM      7  C6  UNL d   1      -0.381   3.227  -0.805  0.00  0.00     0.077 C 
ATOM      8  C7  UNL d   1       0.034   0.752  -0.704  0.00  0.00    -0.001 A 
ENDROOT
TORSDOF 0
ENDMDL
