MODEL 1
REMARK minimizedAffinity -5.10597181
REMARK minimizedRMSD -1
REMARK  0 active torsions:
REMARK  status: ('A' for Active; 'I' for Inactive)
ROOT
ATOM      1  C   UNL d   1      -1.137   2.983  -1.474  0.00  0.00     0.077 C 
ATOM      2  C1  UNL d   1      -0.738   1.994  -0.420  0.00  0.00    -0.074 A 
ATOM      3  C2  UNL d   1      -0.765   2.339   0.936  0.00  0.00    -0.005 A 
ATOM      4  C3  UNL d   1      -0.399   1.405   1.906  0.00  0.00     0.006 A 
ATOM      5  C4  UNL d   1      -0.005   0.120   1.531  0.00  0.00    -0.005 A 
ATOM      6  C5  UNL d   1       0.027  -0.242   0.181  0.00  0.00    -0.074 A 
ATOM      7  C6  UNL d   1       0.440  -1.622  -0.238  0.00  0.00     0.077 C 
ATOM      8  C7  UNL d   1      -0.348   0.699  -0.787  0.00  0.00    -0.001 A 
ENDROOT
TORSDOF 0
ENDMDL
