MODEL 1
REMARK minimizedAffinity -6.11759281
REMARK minimizedRMSD -1
REMARK  0 active torsions:
REMARK  status: ('A' for Active; 'I' for Inactive)
ROOT
ATOM      1  C   UNL d   1       0.411  -1.036  -0.635  0.00  0.00     0.077 C 
ATOM      2  C1  UNL d   1       0.149   0.273   0.048  0.00  0.00    -0.074 A 
ATOM      3  C2  UNL d   1       0.278   0.399   1.435  0.00  0.00    -0.005 A 
ATOM      4  C3  UNL d   1       0.040   1.625   2.056  0.00  0.00     0.006 A 
ATOM      5  C4  UNL d   1      -0.328   2.737   1.297  0.00  0.00    -0.005 A 
ATOM      6  C5  UNL d   1      -0.460   2.631  -0.092  0.00  0.00    -0.074 A 
ATOM      7  C6  UNL d   1      -0.845   3.818  -0.923  0.00  0.00     0.077 C 
ATOM      8  C7  UNL d   1      -0.213   1.397  -0.708  0.00  0.00    -0.001 A 
ENDROOT
TORSDOF 0
ENDMDL
