MODEL 1
REMARK minimizedAffinity -5.86571217
REMARK minimizedRMSD -1
REMARK  0 active torsions:
REMARK  status: ('A' for Active; 'I' for Inactive)
ROOT
ATOM      1  C   UNL d   1       1.015  -0.591   1.221  0.00  0.00     0.077 C 
ATOM      2  C1  UNL d   1       0.356   0.548   0.503  0.00  0.00    -0.074 A 
ATOM      3  C2  UNL d   1       0.355   0.614  -0.894  0.00  0.00    -0.005 A 
ATOM      4  C3  UNL d   1      -0.270   1.675  -1.549  0.00  0.00     0.006 A 
ATOM      5  C4  UNL d   1      -0.901   2.679  -0.814  0.00  0.00    -0.005 A 
ATOM      6  C5  UNL d   1      -0.912   2.630   0.584  0.00  0.00    -0.074 A 
ATOM      7  C6  UNL d   1      -1.595   3.696   1.388  0.00  0.00     0.077 C 
ATOM      8  C7  UNL d   1      -0.287   1.557   1.234  0.00  0.00    -0.001 A 
ENDROOT
TORSDOF 0
ENDMDL
