MODEL 1
REMARK minimizedAffinity 4.18839025
REMARK minimizedRMSD -1
REMARK  0 active torsions:
REMARK  status: ('A' for Active; 'I' for Inactive)
ROOT
ATOM      1  C   UNL d   1      -5.229   2.481  -1.971  0.00  0.00     0.077 C 
ATOM      2  C1  UNL d   1      -4.254   1.346  -2.081  0.00  0.00    -0.074 A 
ATOM      3  C2  UNL d   1      -4.597   0.165  -2.747  0.00  0.00    -0.005 A 
ATOM      4  C3  UNL d   1      -3.676  -0.877  -2.848  0.00  0.00     0.006 A 
ATOM      5  C4  UNL d   1      -2.405  -0.750  -2.286  0.00  0.00    -0.005 A 
ATOM      6  C5  UNL d   1      -2.044   0.424  -1.617  0.00  0.00    -0.074 A 
ATOM      7  C6  UNL d   1      -0.679   0.581  -1.016  0.00  0.00     0.077 C 
ATOM      8  C7  UNL d   1      -2.973   1.470  -1.525  0.00  0.00    -0.001 A 
ENDROOT
TORSDOF 0
ENDMDL
