MODEL 1
REMARK minimizedAffinity -2.07623672
REMARK minimizedRMSD -1
REMARK  0 active torsions:
REMARK  status: ('A' for Active; 'I' for Inactive)
ROOT
ATOM      1  C   UNL d   1       0.286   5.738   0.088  0.00  0.00     0.077 C 
ATOM      2  C1  UNL d   1       0.321   4.277   0.425  0.00  0.00    -0.074 A 
ATOM      3  C2  UNL d   1       0.578   3.847   1.731  0.00  0.00    -0.005 A 
ATOM      4  C3  UNL d   1       0.599   2.486   2.032  0.00  0.00     0.006 A 
ATOM      5  C4  UNL d   1       0.363   1.541   1.032  0.00  0.00    -0.005 A 
ATOM      6  C5  UNL d   1       0.104   1.953  -0.279  0.00  0.00    -0.074 A 
ATOM      7  C6  UNL d   1      -0.161   0.951  -1.364  0.00  0.00     0.077 C 
ATOM      8  C7  UNL d   1       0.078   3.323  -0.572  0.00  0.00    -0.001 A 
ENDROOT
TORSDOF 0
ENDMDL
