MODEL 1
REMARK minimizedAffinity 1.66500461
REMARK minimizedRMSD -1
REMARK  0 active torsions:
REMARK  status: ('A' for Active; 'I' for Inactive)
ROOT
ATOM      1  C   UNL d   1      -0.454  -3.858  -1.420  0.00  0.00     0.077 C 
ATOM      2  C1  UNL d   1      -0.200  -2.404  -1.153  0.00  0.00    -0.074 A 
ATOM      3  C2  UNL d   1      -0.417  -1.442  -2.145  0.00  0.00    -0.005 A 
ATOM      4  C3  UNL d   1      -0.186  -0.093  -1.879  0.00  0.00     0.006 A 
ATOM      5  C4  UNL d   1       0.264   0.309  -0.621  0.00  0.00    -0.005 A 
ATOM      6  C5  UNL d   1       0.486  -0.639   0.384  0.00  0.00    -0.074 A 
ATOM      7  C6  UNL d   1       0.959  -0.223   1.745  0.00  0.00     0.077 C 
ATOM      8  C7  UNL d   1       0.244  -1.992   0.112  0.00  0.00    -0.001 A 
ENDROOT
TORSDOF 0
ENDMDL
