MODEL 1
REMARK minimizedAffinity 5.87092018
REMARK minimizedRMSD -1
REMARK  0 active torsions:
REMARK  status: ('A' for Active; 'I' for Inactive)
ROOT
ATOM      1  C   UNL d   1       1.559  -1.254   2.568  0.00  0.00     0.077 C 
ATOM      2  C1  UNL d   1       0.930  -0.119   1.816  0.00  0.00    -0.074 A 
ATOM      3  C2  UNL d   1       0.591   1.073   2.465  0.00  0.00    -0.005 A 
ATOM      4  C3  UNL d   1       0.015   2.123   1.751  0.00  0.00     0.006 A 
ATOM      5  C4  UNL d   1      -0.228   1.993   0.383  0.00  0.00    -0.005 A 
ATOM      6  C5  UNL d   1       0.105   0.809  -0.283  0.00  0.00    -0.074 A 
ATOM      7  C6  UNL d   1      -0.141   0.656  -1.755  0.00  0.00     0.077 C 
ATOM      8  C7  UNL d   1       0.690  -0.240   0.440  0.00  0.00    -0.001 A 
ENDROOT
TORSDOF 0
ENDMDL
