MODEL 1
REMARK minimizedAffinity 4.4709115
REMARK minimizedRMSD -1
REMARK  1 active torsions:
REMARK  status: ('A' for Active; 'I' for Inactive)
REMARK    1  A    between atoms: C1_2  and  C2_3 
ROOT
ATOM      1  C2  UNL d   1       3.173  -1.139  -0.283  0.00  0.00    -0.073 A 
ATOM      2  C3  UNL d   1       4.429  -0.540  -0.435  0.00  0.00    -0.002 A 
ATOM      3  C4  UNL d   1       4.581   0.835  -0.255  0.00  0.00     0.004 A 
ATOM      4  C5  UNL d   1       3.482   1.624   0.085  0.00  0.00    -0.004 A 
ATOM      5  C6  UNL d   1       2.222   1.043   0.253  0.00  0.00    -0.075 A 
ATOM      6  C7  UNL d   1       1.029   1.878   0.616  0.00  0.00     0.076 C 
ATOM      7  C8  UNL d   1       2.077  -0.338   0.068  0.00  0.00     0.001 A 
ENDROOT
BRANCH   1   8
ATOM      8  C1  UNL d   1       3.006  -2.624  -0.470  0.00  0.00     0.053 C 
ATOM      9  C   UNL d   1       1.655  -2.974  -1.075  0.00  0.00     0.018 C 
ENDBRANCH   1   8
TORSDOF 1
ENDMDL
