MODEL 1
REMARK minimizedAffinity 3.43518043
REMARK minimizedRMSD -1
REMARK  1 active torsions:
REMARK  status: ('A' for Active; 'I' for Inactive)
REMARK    1  A    between atoms: C1_2  and  C2_3 
ROOT
ATOM      1  C2  UNL d   1      -2.410  -0.670   0.576  0.00  0.00    -0.073 A 
ATOM      2  C3  UNL d   1      -1.766  -0.836  -0.655  0.00  0.00    -0.002 A 
ATOM      3  C4  UNL d   1      -0.381  -0.694  -0.751  0.00  0.00     0.004 A 
ATOM      4  C5  UNL d   1       0.374  -0.392   0.382  0.00  0.00    -0.004 A 
ATOM      5  C6  UNL d   1      -0.250  -0.233   1.624  0.00  0.00    -0.075 A 
ATOM      6  C7  UNL d   1       0.547   0.095   2.852  0.00  0.00     0.076 C 
ATOM      7  C8  UNL d   1      -1.641  -0.375   1.711  0.00  0.00     0.001 A 
ENDROOT
BRANCH   1   8
ATOM      8  C1  UNL d   1      -3.904  -0.829   0.685  0.00  0.00     0.053 C 
ATOM      9  C   UNL d   1      -4.539   0.295   1.489  0.00  0.00     0.018 C 
ENDBRANCH   1   8
TORSDOF 1
ENDMDL
