MODEL 1
REMARK minimizedAffinity 8.60380459
REMARK minimizedRMSD -1
REMARK  1 active torsions:
REMARK  status: ('A' for Active; 'I' for Inactive)
REMARK    1  A    between atoms: C1_2  and  C2_3 
ROOT
ATOM      1  C2  UNL d   1      -0.807  -5.415   5.131  0.00  0.00    -0.073 A 
ATOM      2  C3  UNL d   1       0.183  -5.990   5.935  0.00  0.00    -0.002 A 
ATOM      3  C4  UNL d   1       1.466  -5.442   5.974  0.00  0.00     0.004 A 
ATOM      4  C5  UNL d   1       1.769  -4.311   5.216  0.00  0.00    -0.004 A 
ATOM      5  C6  UNL d   1       0.790  -3.715   4.415  0.00  0.00    -0.075 A 
ATOM      6  C7  UNL d   1       1.101  -2.499   3.592  0.00  0.00     0.076 C 
ATOM      7  C8  UNL d   1      -0.495  -4.273   4.379  0.00  0.00     0.001 A 
ENDROOT
BRANCH   1   8
ATOM      8  C1  UNL d   1      -2.195  -6.000   5.090  0.00  0.00     0.053 C 
ATOM      9  C   UNL d   1      -3.159  -5.244   5.991  0.00  0.00     0.018 C 
ENDBRANCH   1   8
TORSDOF 1
ENDMDL
