MODEL 1
REMARK minimizedAffinity 17.0783501
REMARK minimizedRMSD -1
REMARK  1 active torsions:
REMARK  status: ('A' for Active; 'I' for Inactive)
REMARK    1  A    between atoms: C1_2  and  C2_3 
ROOT
ATOM      1  C2  UNL d   1       3.088   3.534   4.599  0.00  0.00    -0.073 A 
ATOM      2  C3  UNL d   1       3.849   2.717   3.755  0.00  0.00    -0.002 A 
ATOM      3  C4  UNL d   1       5.220   2.933   3.614  0.00  0.00     0.004 A 
ATOM      4  C5  UNL d   1       5.845   3.962   4.318  0.00  0.00    -0.004 A 
ATOM      5  C6  UNL d   1       5.104   4.782   5.175  0.00  0.00    -0.075 A 
ATOM      6  C7  UNL d   1       5.761   5.894   5.937  0.00  0.00     0.076 C 
ATOM      7  C8  UNL d   1       3.727   4.560   5.309  0.00  0.00     0.001 A 
ENDROOT
BRANCH   1   8
ATOM      8  C1  UNL d   1       1.608   3.301   4.760  0.00  0.00     0.053 C 
ATOM      9  C   UNL d   1       0.853   4.592   5.033  0.00  0.00     0.018 C 
ENDBRANCH   1   8
TORSDOF 1
ENDMDL
