MODEL 1
REMARK minimizedAffinity 12.7626314
REMARK minimizedRMSD -1
REMARK  1 active torsions:
REMARK  status: ('A' for Active; 'I' for Inactive)
REMARK    1  A    between atoms: C1_2  and  C2_3 
ROOT
ATOM      1  C2  UNL d   1       0.985  -2.459  -1.226  0.00  0.00    -0.073 A 
ATOM      2  C3  UNL d   1      -0.339  -2.910  -1.277  0.00  0.00    -0.002 A 
ATOM      3  C4  UNL d   1      -1.381  -2.088  -0.848  0.00  0.00     0.004 A 
ATOM      4  C5  UNL d   1      -1.113  -0.806  -0.370  0.00  0.00    -0.004 A 
ATOM      5  C6  UNL d   1       0.202  -0.332  -0.322  0.00  0.00    -0.075 A 
ATOM      6  C7  UNL d   1       0.508   1.045   0.192  0.00  0.00     0.076 C 
ATOM      7  C8  UNL d   1       1.244  -1.164  -0.752  0.00  0.00     0.001 A 
ENDROOT
BRANCH   1   8
ATOM      8  C1  UNL d   1       2.113  -3.340  -1.694  0.00  0.00     0.053 C 
ATOM      9  C   UNL d   1       3.152  -2.563  -2.488  0.00  0.00     0.018 C 
ENDBRANCH   1   8
TORSDOF 1
ENDMDL
