MODEL 1
REMARK minimizedAffinity 0.449545413
REMARK minimizedRMSD -1
REMARK  1 active torsions:
REMARK  status: ('A' for Active; 'I' for Inactive)
REMARK    1  A    between atoms: N_2  and  C1_3 
ROOT
ATOM      1  C1  UNL d   1       0.474  -0.934   2.624  0.00  0.00     0.143 A 
ATOM      2  C2  UNL d   1      -0.881  -1.125   2.915  0.00  0.00    -0.057 A 
ATOM      3  C3  UNL d   1      -1.877  -0.413   2.237  0.00  0.00     0.033 A 
ATOM      4  C4  UNL d   1      -1.533   0.528   1.273  0.00  0.00    -0.042 A 
ATOM      5  C5  UNL d   1      -0.192   0.753   0.984  0.00  0.00     0.033 A 
ATOM      6  C6  UNL d   1       0.798   0.034   1.660  0.00  0.00    -0.057 A 
ENDROOT
BRANCH   1   7
ATOM      7  N   UNL d   1       1.515  -1.540   3.331  0.00  0.00    -0.732 N 
ATOM      8  C   UNL d   1       1.238  -2.375   4.480  0.00  0.00     0.284 C 
ATOM      9  H3  UNL d   1       2.242  -1.903   2.718  0.00  0.00     0.395 HD
ENDBRANCH   1   7
TORSDOF 1
ENDMDL
