MODEL 1
REMARK minimizedAffinity -0.723038554
REMARK minimizedRMSD -1
REMARK  1 active torsions:
REMARK  status: ('A' for Active; 'I' for Inactive)
REMARK    1  A    between atoms: N_2  and  C1_3 
ROOT
ATOM      1  C1  UNL d   1       0.478  -5.957  -3.533  0.00  0.00     0.143 A 
ATOM      2  C2  UNL d   1      -0.228  -5.749  -4.722  0.00  0.00    -0.057 A 
ATOM      3  C3  UNL d   1       0.437  -5.615  -5.947  0.00  0.00     0.033 A 
ATOM      4  C4  UNL d   1       1.826  -5.657  -6.000  0.00  0.00    -0.042 A 
ATOM      5  C5  UNL d   1       2.549  -5.838  -4.826  0.00  0.00     0.033 A 
ATOM      6  C6  UNL d   1       1.879  -5.978  -3.607  0.00  0.00    -0.057 A 
ENDROOT
BRANCH   1   7
ATOM      7  N   UNL d   1      -0.120  -6.000  -2.271  0.00  0.00    -0.732 N 
ATOM      8  C   UNL d   1      -1.037  -4.960  -1.854  0.00  0.00     0.284 C 
ATOM      9  H3  UNL d   1      -0.410  -6.939  -2.010  0.00  0.00     0.395 HD
ENDBRANCH   1   7
TORSDOF 1
ENDMDL
