MODEL 1
REMARK minimizedAffinity -2.56371474
REMARK minimizedRMSD -1
REMARK  1 active torsions:
REMARK  status: ('A' for Active; 'I' for Inactive)
REMARK    1  A    between atoms: N_2  and  C1_3 
ROOT
ATOM      1  C1  UNL d   1       1.572  -1.774   3.991  0.00  0.00     0.143 A 
ATOM      2  C2  UNL d   1       1.844  -0.967   2.880  0.00  0.00    -0.057 A 
ATOM      3  C3  UNL d   1       0.820  -0.534   2.030  0.00  0.00     0.033 A 
ATOM      4  C4  UNL d   1      -0.495  -0.926   2.259  0.00  0.00    -0.042 A 
ATOM      5  C5  UNL d   1      -0.785  -1.748   3.342  0.00  0.00     0.033 A 
ATOM      6  C6  UNL d   1       0.241  -2.172   4.192  0.00  0.00    -0.057 A 
ENDROOT
BRANCH   1   7
ATOM      7  N   UNL d   1       2.559  -2.318   4.817  0.00  0.00    -0.732 N 
ATOM      8  C   UNL d   1       3.005  -1.610   5.997  0.00  0.00     0.284 C 
ATOM      9  H3  UNL d   1       2.444  -3.320   4.952  0.00  0.00     0.395 HD
ENDBRANCH   1   7
TORSDOF 1
ENDMDL
