MODEL 1
REMARK minimizedAffinity 1.49052632
REMARK minimizedRMSD -1
REMARK  1 active torsions:
REMARK  status: ('A' for Active; 'I' for Inactive)
REMARK    1  A    between atoms: N_2  and  C1_3 
ROOT
ATOM      1  C1  UNL d   1       0.653  -1.418   3.201  0.00  0.00     0.143 A 
ATOM      2  C2  UNL d   1       1.588  -0.996   2.249  0.00  0.00    -0.057 A 
ATOM      3  C3  UNL d   1       1.204  -0.226   1.145  0.00  0.00     0.033 A 
ATOM      4  C4  UNL d   1      -0.132   0.114   0.957  0.00  0.00    -0.042 A 
ATOM      5  C5  UNL d   1      -1.082  -0.315   1.877  0.00  0.00     0.033 A 
ATOM      6  C6  UNL d   1      -0.692  -1.079   2.981  0.00  0.00    -0.057 A 
ENDROOT
BRANCH   1   7
ATOM      7  N   UNL d   1       0.957  -2.268   4.266  0.00  0.00    -0.732 N 
ATOM      8  C   UNL d   1       2.327  -2.459   4.690  0.00  0.00     0.284 C 
ATOM      9  H3  UNL d   1       0.293  -2.183   5.033  0.00  0.00     0.395 HD
ENDBRANCH   1   7
TORSDOF 1
ENDMDL
