MODEL 1
REMARK minimizedAffinity 2.1693058
REMARK minimizedRMSD -1
REMARK  1 active torsions:
REMARK  status: ('A' for Active; 'I' for Inactive)
REMARK    1  A    between atoms: N_2  and  C1_3 
ROOT
ATOM      1  C1  UNL d   1       0.712  -1.459   3.149  0.00  0.00     0.143 A 
ATOM      2  C2  UNL d   1      -0.669  -1.444   3.369  0.00  0.00    -0.057 A 
ATOM      3  C3  UNL d   1      -1.509  -0.581   2.655  0.00  0.00     0.033 A 
ATOM      4  C4  UNL d   1      -0.977   0.307   1.726  0.00  0.00    -0.042 A 
ATOM      5  C5  UNL d   1       0.397   0.327   1.508  0.00  0.00     0.033 A 
ATOM      6  C6  UNL d   1       1.229  -0.542   2.220  0.00  0.00    -0.057 A 
ENDROOT
BRANCH   1   7
ATOM      7  N   UNL d   1       1.611  -2.224   3.896  0.00  0.00    -0.732 N 
ATOM      8  C   UNL d   1       1.867  -1.911   5.286  0.00  0.00     0.284 C 
ATOM      9  H3  UNL d   1       1.528  -3.219   3.703  0.00  0.00     0.395 HD
ENDBRANCH   1   7
TORSDOF 1
ENDMDL
