MODEL 1
REMARK minimizedAffinity -2.56976366
REMARK minimizedRMSD -1
REMARK  0 active torsions:
REMARK  status: ('A' for Active; 'I' for Inactive)
ROOT
ATOM      1  N1  IND d   1       0.874  -1.142   0.660  0.00  0.00    -0.196 N 
ATOM      2  C2  IND d   1       0.864  -2.119  -0.296  0.00  0.00     0.054 A 
ATOM      3  C3  IND d   1       1.424  -3.253   0.184  0.00  0.00    -0.031 A 
ATOM      4  C4  IND d   1       2.329  -3.760   2.540  0.00  0.00     0.051 A 
ATOM      5  C5  IND d   1       2.585  -3.169   3.745  0.00  0.00    -0.031 A 
ATOM      6  C6  IND d   1       2.275  -1.847   3.990  0.00  0.00     0.015 A 
ATOM      7  C7  IND d   1       1.685  -1.066   3.038  0.00  0.00    -0.016 A 
ATOM      8  C8  IND d   1       1.429  -1.660   1.810  0.00  0.00    -0.047 A 
ATOM      9  C9  IND d   1       1.780  -2.989   1.542  0.00  0.00    -0.096 A 
ATOM     10  HN1 IND d   1       0.583  -0.340   0.561  0.00  0.00     0.298 HD
ENDROOT
TORSDOF 0
ENDMDL
