MODEL 1
REMARK minimizedAffinity 10.7374516
REMARK minimizedRMSD -1
REMARK  0 active torsions:
REMARK  status: ('A' for Active; 'I' for Inactive)
ROOT
ATOM      1  N1  IND d   1       0.053  -0.612   2.261  0.00  0.00    -0.196 N 
ATOM      2  C2  IND d   1       1.313  -1.067   2.533  0.00  0.00     0.054 A 
ATOM      3  C3  IND d   1       1.811  -1.737   1.469  0.00  0.00    -0.031 A 
ATOM      4  C4  IND d   1       0.773  -2.121  -0.854  0.00  0.00     0.051 A 
ATOM      5  C5  IND d   1      -0.378  -1.925  -1.566  0.00  0.00    -0.031 A 
ATOM      6  C6  IND d   1      -1.465  -1.266  -1.028  0.00  0.00     0.015 A 
ATOM      7  C7  IND d   1      -1.437  -0.766   0.243  0.00  0.00    -0.016 A 
ATOM      8  C8  IND d   1      -0.273  -0.969   0.971  0.00  0.00    -0.047 A 
ATOM      9  C9  IND d   1       0.818  -1.674   0.445  0.00  0.00    -0.096 A 
ATOM     10  HN1 IND d   1      -0.451  -0.177   2.804  0.00  0.00     0.298 HD
ENDROOT
TORSDOF 0
ENDMDL
