MODEL 1
REMARK minimizedAffinity 15.1394176
REMARK minimizedRMSD -1
REMARK  0 active torsions:
REMARK  status: ('A' for Active; 'I' for Inactive)
ROOT
ATOM      1  N1  IND d   1       1.497   0.209   4.105  0.00  0.00    -0.196 N 
ATOM      2  C2  IND d   1       1.796  -1.125   4.142  0.00  0.00     0.054 A 
ATOM      3  C3  IND d   1       2.622  -1.450   3.122  0.00  0.00    -0.031 A 
ATOM      4  C4  IND d   1       3.687   0.064   1.334  0.00  0.00     0.051 A 
ATOM      5  C5  IND d   1       3.684   1.349   0.869  0.00  0.00    -0.031 A 
ATOM      6  C6  IND d   1       2.938   2.341   1.473  0.00  0.00     0.015 A 
ATOM      7  C7  IND d   1       2.173   2.085   2.576  0.00  0.00    -0.016 A 
ATOM      8  C8  IND d   1       2.169   0.779   3.046  0.00  0.00    -0.047 A 
ATOM      9  C9  IND d   1       2.891  -0.240   2.412  0.00  0.00    -0.096 A 
ATOM     10  HN1 IND d   1       0.976   0.621   4.650  0.00  0.00     0.298 HD
ENDROOT
TORSDOF 0
ENDMDL
