MODEL 1
REMARK minimizedAffinity 9.55807686
REMARK minimizedRMSD -1
REMARK  0 active torsions:
REMARK  status: ('A' for Active; 'I' for Inactive)
ROOT
ATOM      1  N1  IND d   1       1.418  -1.110   4.151  0.00  0.00    -0.196 N 
ATOM      2  C2  IND d   1       2.101  -2.294   4.181  0.00  0.00     0.054 A 
ATOM      3  C3  IND d   1       3.084  -2.294   3.253  0.00  0.00    -0.031 A 
ATOM      4  C4  IND d   1       3.816  -0.421   1.645  0.00  0.00     0.051 A 
ATOM      5  C5  IND d   1       3.471   0.832   1.223  0.00  0.00    -0.031 A 
ATOM      6  C6  IND d   1       2.404   1.517   1.768  0.00  0.00     0.015 A 
ATOM      7  C7  IND d   1       1.646   0.976   2.768  0.00  0.00    -0.016 A 
ATOM      8  C8  IND d   1       1.989  -0.299   3.194  0.00  0.00    -0.047 A 
ATOM      9  C9  IND d   1       3.045  -1.016   2.616  0.00  0.00    -0.096 A 
ATOM     10  HN1 IND d   1       0.745  -0.906   4.645  0.00  0.00     0.298 HD
ENDROOT
TORSDOF 0
ENDMDL
