MODEL 1
REMARK minimizedAffinity 17.1832409
REMARK minimizedRMSD -1
REMARK  0 active torsions:
REMARK  status: ('A' for Active; 'I' for Inactive)
ROOT
ATOM      1  N1  IND d   1       1.999  -1.776   2.066  0.00  0.00    -0.196 N 
ATOM      2  C2  IND d   1       1.877  -0.566   2.691  0.00  0.00     0.054 A 
ATOM      3  C3  IND d   1       2.079  -0.701   4.020  0.00  0.00    -0.031 A 
ATOM      4  C4  IND d   1       2.722  -2.796   5.373  0.00  0.00     0.051 A 
ATOM      5  C5  IND d   1       2.912  -4.143   5.246  0.00  0.00    -0.031 A 
ATOM      6  C6  IND d   1       2.808  -4.783   4.028  0.00  0.00     0.015 A 
ATOM      7  C7  IND d   1       2.520  -4.094   2.884  0.00  0.00    -0.016 A 
ATOM      8  C8  IND d   1       2.319  -2.727   3.010  0.00  0.00    -0.047 A 
ATOM      9  C9  IND d   1       2.382  -2.079   4.250  0.00  0.00    -0.096 A 
ATOM     10  HN1 IND d   1       1.893  -1.919   1.224  0.00  0.00     0.298 HD
ENDROOT
TORSDOF 0
ENDMDL
