MODEL 1
REMARK minimizedAffinity -0.134707272
REMARK minimizedRMSD -1
REMARK  0 active torsions:
REMARK  status: ('A' for Active; 'I' for Inactive)
ROOT
ATOM      1  N1  IND d   1       1.295  -0.540   3.128  0.00  0.00    -0.196 N 
ATOM      2  C2  IND d   1       1.866  -0.547   1.886  0.00  0.00     0.054 A 
ATOM      3  C3  IND d   1       2.780  -1.538   1.794  0.00  0.00    -0.031 A 
ATOM      4  C4  IND d   1       3.428  -3.332   3.523  0.00  0.00     0.051 A 
ATOM      5  C5  IND d   1       3.205  -3.711   4.817  0.00  0.00    -0.031 A 
ATOM      6  C6  IND d   1       2.313  -3.041   5.630  0.00  0.00     0.015 A 
ATOM      7  C7  IND d   1       1.600  -1.968   5.173  0.00  0.00    -0.016 A 
ATOM      8  C8  IND d   1       1.830  -1.576   3.862  0.00  0.00    -0.047 A 
ATOM      9  C9  IND d   1       2.765  -2.226   3.046  0.00  0.00    -0.096 A 
ATOM     10  HN1 IND d   1       0.702   0.017   3.405  0.00  0.00     0.298 HD
ENDROOT
TORSDOF 0
ENDMDL
