MODEL 1
REMARK minimizedAffinity 14.6292219
REMARK minimizedRMSD -1
REMARK  0 active torsions:
REMARK  status: ('A' for Active; 'I' for Inactive)
ROOT
ATOM      1  N1  IND d   1       1.165  -0.720   2.190  0.00  0.00    -0.196 N 
ATOM      2  C2  IND d   1       2.076   0.250   1.878  0.00  0.00     0.054 A 
ATOM      3  C3  IND d   1       3.306  -0.101   2.317  0.00  0.00    -0.031 A 
ATOM      4  C4  IND d   1       4.071  -2.267   3.480  0.00  0.00     0.051 A 
ATOM      5  C5  IND d   1       3.591  -3.433   4.008  0.00  0.00    -0.031 A 
ATOM      6  C6  IND d   1       2.252  -3.762   3.954  0.00  0.00     0.015 A 
ATOM      7  C7  IND d   1       1.340  -2.939   3.356  0.00  0.00    -0.016 A 
ATOM      8  C8  IND d   1       1.822  -1.751   2.825  0.00  0.00    -0.047 A 
ATOM      9  C9  IND d   1       3.173  -1.392   2.915  0.00  0.00    -0.096 A 
ATOM     10  HN1 IND d   1       0.323  -0.691   2.018  0.00  0.00     0.298 HD
ENDROOT
TORSDOF 0
ENDMDL
