MODEL 1
REMARK minimizedAffinity 11.8482466
REMARK minimizedRMSD -1
REMARK  0 active torsions:
REMARK  status: ('A' for Active; 'I' for Inactive)
ROOT
ATOM      1  N1  IND d   1      -6.000  -0.557  -5.572  0.00  0.00    -0.196 N 
ATOM      2  C2  IND d   1      -5.987  -1.476  -4.560  0.00  0.00     0.054 A 
ATOM      3  C3  IND d   1      -5.947  -0.853  -3.360  0.00  0.00    -0.031 A 
ATOM      4  C4  IND d   1      -5.998   1.664  -2.821  0.00  0.00     0.051 A 
ATOM      5  C5  IND d   1      -5.973   2.893  -3.417  0.00  0.00    -0.031 A 
ATOM      6  C6  IND d   1      -5.959   3.039  -4.789  0.00  0.00     0.015 A 
ATOM      7  C7  IND d   1      -5.980   1.955  -5.620  0.00  0.00    -0.016 A 
ATOM      8  C8  IND d   1      -5.998   0.705  -5.019  0.00  0.00    -0.047 A 
ATOM      9  C9  IND d   1      -5.970   0.550  -3.627  0.00  0.00    -0.096 A 
ATOM     10  HN1 IND d   1      -6.008  -0.737  -6.413  0.00  0.00     0.298 HD
ENDROOT
TORSDOF 0
ENDMDL
