MODEL 1
REMARK minimizedAffinity 11.8564262
REMARK minimizedRMSD -1
REMARK  0 active torsions:
REMARK  status: ('A' for Active; 'I' for Inactive)
ROOT
ATOM      1  N1  IND d   1       1.396  -5.878   5.568  0.00  0.00    -0.196 N 
ATOM      2  C2  IND d   1       0.157  -5.422   5.923  0.00  0.00     0.054 A 
ATOM      3  C3  IND d   1       0.088  -4.081   5.768  0.00  0.00    -0.031 A 
ATOM      4  C4  IND d   1       1.853  -2.446   4.851  0.00  0.00     0.051 A 
ATOM      5  C5  IND d   1       3.152  -2.388   4.432  0.00  0.00    -0.031 A 
ATOM      6  C6  IND d   1       3.948  -3.514   4.365  0.00  0.00     0.015 A 
ATOM      7  C7  IND d   1       3.468  -4.746   4.707  0.00  0.00    -0.016 A 
ATOM      8  C8  IND d   1       2.151  -4.808   5.140  0.00  0.00    -0.047 A 
ATOM      9  C9  IND d   1       1.352  -3.663   5.250  0.00  0.00    -0.096 A 
ATOM     10  HN1 IND d   1       1.659  -6.696   5.606  0.00  0.00     0.298 HD
ENDROOT
TORSDOF 0
ENDMDL
