MODEL 1
REMARK minimizedAffinity 11.823103
REMARK minimizedRMSD -1
REMARK  0 active torsions:
REMARK  status: ('A' for Active; 'I' for Inactive)
ROOT
ATOM      1  N1  IND d   1       3.539   1.874   2.938  0.00  0.00    -0.196 N 
ATOM      2  C2  IND d   1       3.389   2.405   1.688  0.00  0.00     0.054 A 
ATOM      3  C3  IND d   1       2.756   1.528   0.877  0.00  0.00    -0.031 A 
ATOM      4  C4  IND d   1       1.788  -0.795   1.419  0.00  0.00     0.051 A 
ATOM      5  C5  IND d   1       1.712  -1.724   2.419  0.00  0.00    -0.031 A 
ATOM      6  C6  IND d   1       2.250  -1.495   3.669  0.00  0.00     0.015 A 
ATOM      7  C7  IND d   1       2.877  -0.319   3.970  0.00  0.00    -0.016 A 
ATOM      8  C8  IND d   1       2.962   0.624   2.956  0.00  0.00    -0.047 A 
ATOM      9  C9  IND d   1       2.455   0.380   1.673  0.00  0.00    -0.096 A 
ATOM     10  HN1 IND d   1       3.929   2.257   3.602  0.00  0.00     0.298 HD
ENDROOT
TORSDOF 0
ENDMDL
