MODEL 1
REMARK minimizedAffinity 10.7968836
REMARK minimizedRMSD -1
REMARK  0 active torsions:
REMARK  status: ('A' for Active; 'I' for Inactive)
ROOT
ATOM      1  N1  IND d   1       1.137  -1.390   3.064  0.00  0.00    -0.196 N 
ATOM      2  C2  IND d   1       1.783  -0.229   2.743  0.00  0.00     0.054 A 
ATOM      3  C3  IND d   1       3.040  -0.237   3.240  0.00  0.00    -0.031 A 
ATOM      4  C4  IND d   1       4.279  -2.094   4.524  0.00  0.00     0.051 A 
ATOM      5  C5  IND d   1       4.090  -3.325   5.085  0.00  0.00    -0.031 A 
ATOM      6  C6  IND d   1       2.884  -3.990   4.997  0.00  0.00     0.015 A 
ATOM      7  C7  IND d   1       1.820  -3.449   4.332  0.00  0.00    -0.016 A 
ATOM      8  C8  IND d   1       2.005  -2.196   3.767  0.00  0.00    -0.047 A 
ATOM      9  C9  IND d   1       3.214  -1.498   3.889  0.00  0.00    -0.096 A 
ATOM     10  HN1 IND d   1       0.324  -1.585   2.860  0.00  0.00     0.298 HD
ENDROOT
TORSDOF 0
ENDMDL
