MODEL 1
REMARK minimizedAffinity 6.57753277
REMARK minimizedRMSD -1
REMARK  1 active torsions:
REMARK  status: ('A' for Active; 'I' for Inactive)
REMARK    1  A    between atoms: C1_2  and  C2_3 
ROOT
ATOM      1  C2  UNL d   1      -0.293   0.962   2.593  0.00  0.00    -0.077 A 
ATOM      2  C3  UNL d   1      -0.430   0.309   1.361  0.00  0.00     0.002 A 
ATOM      3  C4  UNL d   1      -1.646   0.338   0.676  0.00  0.00     0.002 A 
ATOM      4  C5  UNL d   1      -2.734   1.022   1.215  0.00  0.00    -0.004 A 
ATOM      5  C6  UNL d   1      -2.609   1.674   2.441  0.00  0.00     0.002 A 
ATOM      6  C7  UNL d   1      -1.394   1.644   3.127  0.00  0.00     0.002 A 
ENDROOT
BRANCH   1   7
ATOM      7  C1  UNL d   1       1.032   0.973   3.309  0.00  0.00     0.055 C 
ATOM      8  C   UNL d   1       1.221   2.257   4.105  0.00  0.00     0.019 C 
ENDBRANCH   1   7
TORSDOF 1
ENDMDL
