MODEL 1
REMARK minimizedAffinity 2.91832805
REMARK minimizedRMSD -1
REMARK  1 active torsions:
REMARK  status: ('A' for Active; 'I' for Inactive)
REMARK    1  A    between atoms: C1_2  and  C2_3 
ROOT
ATOM      1  C2  UNL d   1      -1.843   1.359   2.896  0.00  0.00    -0.077 A 
ATOM      2  C3  UNL d   1      -2.512   1.170   1.679  0.00  0.00     0.002 A 
ATOM      3  C4  UNL d   1      -1.896   0.479   0.634  0.00  0.00     0.002 A 
ATOM      4  C5  UNL d   1      -0.611  -0.032   0.797  0.00  0.00    -0.004 A 
ATOM      5  C6  UNL d   1       0.064   0.152   2.003  0.00  0.00     0.002 A 
ATOM      6  C7  UNL d   1      -0.549   0.844   3.048  0.00  0.00     0.002 A 
ENDROOT
BRANCH   1   7
ATOM      7  C1  UNL d   1      -2.524   2.061   4.042  0.00  0.00     0.055 C 
ATOM      8  C   UNL d   1      -3.315   1.083   4.899  0.00  0.00     0.019 C 
ENDBRANCH   1   7
TORSDOF 1
ENDMDL
