MODEL 1
REMARK minimizedAffinity 0.118089698
REMARK minimizedRMSD -1
REMARK  1 active torsions:
REMARK  status: ('A' for Active; 'I' for Inactive)
REMARK    1  A    between atoms: C1_2  and  C2_3 
ROOT
ATOM      1  C2  UNL d   1       0.195   0.651   2.029  0.00  0.00    -0.077 A 
ATOM      2  C3  UNL d   1       1.130   1.562   1.517  0.00  0.00     0.002 A 
ATOM      3  C4  UNL d   1       2.480   1.216   1.434  0.00  0.00     0.002 A 
ATOM      4  C5  UNL d   1       2.906  -0.042   1.856  0.00  0.00    -0.004 A 
ATOM      5  C6  UNL d   1       1.984  -0.954   2.368  0.00  0.00     0.002 A 
ATOM      6  C7  UNL d   1       0.635  -0.609   2.454  0.00  0.00     0.002 A 
ENDROOT
BRANCH   1   7
ATOM      7  C1  UNL d   1      -1.269   1.005   2.074  0.00  0.00     0.055 C 
ATOM      8  C   UNL d   1      -1.925   0.822   0.713  0.00  0.00     0.019 C 
ENDBRANCH   1   7
TORSDOF 1
ENDMDL
