MODEL 1
REMARK minimizedAffinity 5.05845737
REMARK minimizedRMSD -1
REMARK  1 active torsions:
REMARK  status: ('A' for Active; 'I' for Inactive)
REMARK    1  A    between atoms: C1_2  and  C2_3 
ROOT
ATOM      1  C2  UNL d   1      -1.410   1.242   1.885  0.00  0.00    -0.077 A 
ATOM      2  C3  UNL d   1      -0.337   0.357   1.707  0.00  0.00     0.002 A 
ATOM      3  C4  UNL d   1       0.800   0.456   2.511  0.00  0.00     0.002 A 
ATOM      4  C5  UNL d   1       0.874   1.434   3.501  0.00  0.00    -0.004 A 
ATOM      5  C6  UNL d   1      -0.187   2.320   3.684  0.00  0.00     0.002 A 
ATOM      6  C7  UNL d   1      -1.324   2.224   2.880  0.00  0.00     0.002 A 
ENDROOT
BRANCH   1   7
ATOM      7  C1  UNL d   1      -2.657   1.106   1.052  0.00  0.00     0.055 C 
ATOM      8  C   UNL d   1      -2.392   0.307  -0.216  0.00  0.00     0.019 C 
ENDBRANCH   1   7
TORSDOF 1
ENDMDL
