MODEL 1
REMARK minimizedAffinity 2.30337596
REMARK minimizedRMSD -1
REMARK  1 active torsions:
REMARK  status: ('A' for Active; 'I' for Inactive)
REMARK    1  A    between atoms: C1_2  and  C2_3 
ROOT
ATOM      1  C2  UNL d   1      -1.799   0.907   2.501  0.00  0.00    -0.077 A 
ATOM      2  C3  UNL d   1      -0.978  -0.192   2.211  0.00  0.00     0.002 A 
ATOM      3  C4  UNL d   1       0.411  -0.079   2.297  0.00  0.00     0.002 A 
ATOM      4  C5  UNL d   1       0.991   1.129   2.677  0.00  0.00    -0.004 A 
ATOM      5  C6  UNL d   1       0.184   2.229   2.966  0.00  0.00     0.002 A 
ATOM      6  C7  UNL d   1      -1.205   2.118   2.880  0.00  0.00     0.002 A 
ENDROOT
BRANCH   1   7
ATOM      7  C1  UNL d   1      -3.298   0.773   2.457  0.00  0.00     0.055 C 
ATOM      8  C   UNL d   1      -3.884   0.636   3.855  0.00  0.00     0.019 C 
ENDBRANCH   1   7
TORSDOF 1
ENDMDL
