MODEL 1
REMARK minimizedAffinity 2.2310648
REMARK minimizedRMSD -1
REMARK  1 active torsions:
REMARK  status: ('A' for Active; 'I' for Inactive)
REMARK    1  A    between atoms: C1_2  and  C2_3 
ROOT
ATOM      1  C2  UNL d   1       2.375   1.173  -4.372  0.00  0.00    -0.077 A 
ATOM      2  C3  UNL d   1       1.681   0.181  -5.079  0.00  0.00     0.002 A 
ATOM      3  C4  UNL d   1       1.949  -1.170  -4.846  0.00  0.00     0.002 A 
ATOM      4  C5  UNL d   1       2.907  -1.540  -3.905  0.00  0.00    -0.004 A 
ATOM      5  C6  UNL d   1       3.604  -0.560  -3.199  0.00  0.00     0.002 A 
ATOM      6  C7  UNL d   1       3.339   0.790  -3.431  0.00  0.00     0.002 A 
ENDROOT
BRANCH   1   7
ATOM      7  C1  UNL d   1       2.053   2.629  -4.586  0.00  0.00     0.055 C 
ATOM      8  C   UNL d   1       2.424   3.078  -5.992  0.00  0.00     0.019 C 
ENDBRANCH   1   7
TORSDOF 1
ENDMDL
