MODEL 1
REMARK minimizedAffinity -0.0158176012
REMARK minimizedRMSD -1
REMARK  1 active torsions:
REMARK  status: ('A' for Active; 'I' for Inactive)
REMARK    1  A    between atoms: C1_2  and  C2_3 
ROOT
ATOM      1  C2  UNL d   1       1.978   0.223   2.117  0.00  0.00    -0.077 A 
ATOM      2  C3  UNL d   1       3.041  -0.328   2.848  0.00  0.00     0.002 A 
ATOM      3  C4  UNL d   1       4.361  -0.100   2.455  0.00  0.00     0.002 A 
ATOM      4  C5  UNL d   1       4.631   0.681   1.333  0.00  0.00    -0.004 A 
ATOM      5  C6  UNL d   1       3.581   1.231   0.599  0.00  0.00     0.002 A 
ATOM      6  C7  UNL d   1       2.261   1.004   0.989  0.00  0.00     0.002 A 
ENDROOT
BRANCH   1   7
ATOM      7  C1  UNL d   1       0.555   0.019   2.568  0.00  0.00     0.055 C 
ATOM      8  C   UNL d   1      -0.378   1.040   1.934  0.00  0.00     0.019 C 
ENDBRANCH   1   7
TORSDOF 1
ENDMDL
