MODEL 1
REMARK minimizedAffinity 3.24682188
REMARK minimizedRMSD -1
REMARK  1 active torsions:
REMARK  status: ('A' for Active; 'I' for Inactive)
REMARK    1  A    between atoms: C1_2  and  C2_3 
ROOT
ATOM      1  C2  UNL d   1       3.046   0.450  -4.237  0.00  0.00    -0.077 A 
ATOM      2  C3  UNL d   1       2.299   1.225  -3.339  0.00  0.00     0.002 A 
ATOM      3  C4  UNL d   1       1.871   2.505  -3.697  0.00  0.00     0.002 A 
ATOM      4  C5  UNL d   1       2.180   3.018  -4.955  0.00  0.00    -0.004 A 
ATOM      5  C6  UNL d   1       2.924   2.255  -5.855  0.00  0.00     0.002 A 
ATOM      6  C7  UNL d   1       3.354   0.977  -5.498  0.00  0.00     0.002 A 
ENDROOT
BRANCH   1   7
ATOM      7  C1  UNL d   1       3.466  -0.949  -3.871  0.00  0.00     0.055 C 
ATOM      8  C   UNL d   1       2.696  -1.987  -4.673  0.00  0.00     0.019 C 
ENDBRANCH   1   7
TORSDOF 1
ENDMDL
