MODEL 1
REMARK minimizedAffinity 6.28692436
REMARK minimizedRMSD -1
REMARK  1 active torsions:
REMARK  status: ('A' for Active; 'I' for Inactive)
REMARK    1  A    between atoms: C1_2  and  C2_3 
ROOT
ATOM      1  C2  UNL d   1       0.846   0.572   1.611  0.00  0.00    -0.077 A 
ATOM      2  C3  UNL d   1      -0.347   0.365   0.905  0.00  0.00     0.002 A 
ATOM      3  C4  UNL d   1      -1.530   0.978   1.322  0.00  0.00     0.002 A 
ATOM      4  C5  UNL d   1      -1.531   1.804   2.444  0.00  0.00    -0.004 A 
ATOM      5  C6  UNL d   1      -0.350   2.014   3.155  0.00  0.00     0.002 A 
ATOM      6  C7  UNL d   1       0.833   1.402   2.740  0.00  0.00     0.002 A 
ENDROOT
BRANCH   1   7
ATOM      7  C1  UNL d   1       2.134  -0.048   1.134  0.00  0.00     0.055 C 
ATOM      8  C   UNL d   1       2.775   0.785   0.034  0.00  0.00     0.019 C 
ENDBRANCH   1   7
TORSDOF 1
ENDMDL
