MODEL 1
REMARK minimizedAffinity 2.75061297
REMARK minimizedRMSD -1
REMARK  1 active torsions:
REMARK  status: ('A' for Active; 'I' for Inactive)
REMARK    1  A    between atoms: C1_2  and  C2_3 
ROOT
ATOM      1  C2  UNL d   1      -2.444   1.009   3.138  0.00  0.00    -0.077 A 
ATOM      2  C3  UNL d   1      -2.630   1.453   1.821  0.00  0.00     0.002 A 
ATOM      3  C4  UNL d   1      -1.638   1.250   0.860  0.00  0.00     0.002 A 
ATOM      4  C5  UNL d   1      -0.455   0.599   1.204  0.00  0.00    -0.004 A 
ATOM      5  C6  UNL d   1      -0.259   0.156   2.511  0.00  0.00     0.002 A 
ATOM      6  C7  UNL d   1      -1.249   0.359   3.474  0.00  0.00     0.002 A 
ENDROOT
BRANCH   1   7
ATOM      7  C1  UNL d   1      -3.533   1.183   4.164  0.00  0.00     0.055 C 
ATOM      8  C   UNL d   1      -3.551   0.027   5.153  0.00  0.00     0.019 C 
ENDBRANCH   1   7
TORSDOF 1
ENDMDL
