MODEL 1
REMARK minimizedAffinity 5.16346264
REMARK minimizedRMSD -1
REMARK  1 active torsions:
REMARK  status: ('A' for Active; 'I' for Inactive)
REMARK    1  A    between atoms: C1_2  and  C2_3 
ROOT
ATOM      1  C2  UNL d   1      -1.283   0.950   1.939  0.00  0.00    -0.077 A 
ATOM      2  C3  UNL d   1      -2.422   1.304   2.676  0.00  0.00     0.002 A 
ATOM      3  C4  UNL d   1      -2.294   1.978   3.892  0.00  0.00     0.002 A 
ATOM      4  C5  UNL d   1      -1.031   2.306   4.380  0.00  0.00    -0.004 A 
ATOM      5  C6  UNL d   1       0.107   1.957   3.655  0.00  0.00     0.002 A 
ATOM      6  C7  UNL d   1      -0.018   1.282   2.440  0.00  0.00     0.002 A 
ENDROOT
BRANCH   1   7
ATOM      7  C1  UNL d   1      -1.420   0.267   0.603  0.00  0.00     0.055 C 
ATOM      8  C   UNL d   1      -2.082  -1.096   0.744  0.00  0.00     0.019 C 
ENDBRANCH   1   7
TORSDOF 1
ENDMDL
