MODEL 1
REMARK minimizedAffinity 5.08518648
REMARK minimizedRMSD -1
REMARK  1 active torsions:
REMARK  status: ('A' for Active; 'I' for Inactive)
REMARK    1  A    between atoms: C1_2  and  C2_3 
ROOT
ATOM      1  C2  UNL d   1      -4.244   0.396   1.740  0.00  0.00    -0.077 A 
ATOM      2  C3  UNL d   1      -3.727   1.670   2.012  0.00  0.00     0.002 A 
ATOM      3  C4  UNL d   1      -2.470   2.040   1.530  0.00  0.00     0.002 A 
ATOM      4  C5  UNL d   1      -1.722   1.143   0.771  0.00  0.00    -0.004 A 
ATOM      5  C6  UNL d   1      -2.226  -0.127   0.497  0.00  0.00     0.002 A 
ATOM      6  C7  UNL d   1      -3.482  -0.499   0.978  0.00  0.00     0.002 A 
ENDROOT
BRANCH   1   7
ATOM      7  C1  UNL d   1      -5.621   0.012   2.217  0.00  0.00     0.055 C 
ATOM      8  C   UNL d   1      -5.993  -1.391   1.762  0.00  0.00     0.019 C 
ENDBRANCH   1   7
TORSDOF 1
ENDMDL
