MODEL 1
REMARK minimizedAffinity 1.16453898
REMARK minimizedRMSD -1
REMARK  1 active torsions:
REMARK  status: ('A' for Active; 'I' for Inactive)
REMARK    1  A    between atoms: C1_2  and  C2_3 
ROOT
ATOM      1  C2  UNL d   1      -1.109   0.768   1.992  0.00  0.00    -0.077 A 
ATOM      2  C3  UNL d   1      -0.008   1.636   1.993  0.00  0.00     0.002 A 
ATOM      3  C4  UNL d   1       1.292   1.127   1.980  0.00  0.00     0.002 A 
ATOM      4  C5  UNL d   1       1.504  -0.250   1.963  0.00  0.00    -0.004 A 
ATOM      5  C6  UNL d   1       0.415  -1.121   1.965  0.00  0.00     0.002 A 
ATOM      6  C7  UNL d   1      -0.885  -0.614   1.979  0.00  0.00     0.002 A 
ENDROOT
BRANCH   1   7
ATOM      7  C1  UNL d   1      -2.512   1.315   1.956  0.00  0.00     0.055 C 
ATOM      8  C   UNL d   1      -3.366   0.723   3.068  0.00  0.00     0.019 C 
ENDBRANCH   1   7
TORSDOF 1
ENDMDL
