MODEL 1
REMARK minimizedAffinity 2.38243842
REMARK minimizedRMSD -1
REMARK  1 active torsions:
REMARK  status: ('A' for Active; 'I' for Inactive)
REMARK    1  A    between atoms: C1_2  and  C2_3 
ROOT
ATOM      1  C2  UNL d   1      -2.840   1.645   2.420  0.00  0.00    -0.077 A 
ATOM      2  C3  UNL d   1      -2.762   0.863   1.259  0.00  0.00     0.002 A 
ATOM      3  C4  UNL d   1      -1.520   0.522   0.719  0.00  0.00     0.002 A 
ATOM      4  C5  UNL d   1      -0.348   0.954   1.336  0.00  0.00    -0.004 A 
ATOM      5  C6  UNL d   1      -0.415   1.734   2.490  0.00  0.00     0.002 A 
ATOM      6  C7  UNL d   1      -1.655   2.077   3.030  0.00  0.00     0.002 A 
ENDROOT
BRANCH   1   7
ATOM      7  C1  UNL d   1      -4.177   1.973   3.031  0.00  0.00     0.055 C 
ATOM      8  C   UNL d   1      -4.097   2.008   4.551  0.00  0.00     0.019 C 
ENDBRANCH   1   7
TORSDOF 1
ENDMDL
