MODEL 1
REMARK minimizedAffinity 8.18946075
REMARK minimizedRMSD -1
REMARK  1 active torsions:
REMARK  status: ('A' for Active; 'I' for Inactive)
REMARK    1  A    between atoms: C1_2  and  C2_3 
ROOT
ATOM      1  C2  UNL d   1      -4.675   1.579   3.616  0.00  0.00    -0.077 A 
ATOM      2  C3  UNL d   1      -5.419   0.391   3.618  0.00  0.00     0.002 A 
ATOM      3  C4  UNL d   1      -5.996  -0.079   4.799  0.00  0.00     0.002 A 
ATOM      4  C5  UNL d   1      -5.838   0.634   5.986  0.00  0.00    -0.004 A 
ATOM      5  C6  UNL d   1      -5.098   1.815   5.994  0.00  0.00     0.002 A 
ATOM      6  C7  UNL d   1      -4.519   2.286   4.815  0.00  0.00     0.002 A 
ENDROOT
BRANCH   1   7
ATOM      7  C1  UNL d   1      -4.093   2.113   2.333  0.00  0.00     0.055 C 
ATOM      8  C   UNL d   1      -2.598   1.845   2.250  0.00  0.00     0.019 C 
ENDBRANCH   1   7
TORSDOF 1
ENDMDL
