MODEL 1
REMARK minimizedAffinity 5.65435648
REMARK minimizedRMSD -1
REMARK  1 active torsions:
REMARK  status: ('A' for Active; 'I' for Inactive)
REMARK    1  A    between atoms: C1_2  and  C2_3 
ROOT
ATOM      1  C2  UNL d   1       0.029   0.291   1.756  0.00  0.00    -0.077 A 
ATOM      2  C3  UNL d   1      -0.936   0.058   0.766  0.00  0.00     0.002 A 
ATOM      3  C4  UNL d   1      -2.218   0.596   0.890  0.00  0.00     0.002 A 
ATOM      4  C5  UNL d   1      -2.545   1.374   1.999  0.00  0.00    -0.004 A 
ATOM      5  C6  UNL d   1      -1.593   1.609   2.989  0.00  0.00     0.002 A 
ATOM      6  C7  UNL d   1      -0.311   1.071   2.868  0.00  0.00     0.002 A 
ENDROOT
BRANCH   1   7
ATOM      7  C1  UNL d   1       1.428  -0.248   1.600  0.00  0.00     0.055 C 
ATOM      8  C   UNL d   1       2.267   0.644   0.697  0.00  0.00     0.019 C 
ENDBRANCH   1   7
TORSDOF 1
ENDMDL
