MODEL 1
REMARK minimizedAffinity 5.81568432
REMARK minimizedRMSD -1
REMARK  1 active torsions:
REMARK  status: ('A' for Active; 'I' for Inactive)
REMARK    1  A    between atoms: C1_2  and  C2_3 
ROOT
ATOM      1  C2  UNL d   1      -5.159   1.177   5.299  0.00  0.00    -0.077 A 
ATOM      2  C3  UNL d   1      -5.553   1.201   3.954  0.00  0.00     0.002 A 
ATOM      3  C4  UNL d   1      -5.969   0.029   3.319  0.00  0.00     0.002 A 
ATOM      4  C5  UNL d   1      -5.999  -1.174   4.022  0.00  0.00    -0.004 A 
ATOM      5  C6  UNL d   1      -5.607  -1.208   5.360  0.00  0.00     0.002 A 
ATOM      6  C7  UNL d   1      -5.189  -0.038   5.996  0.00  0.00     0.002 A 
ENDROOT
BRANCH   1   7
ATOM      7  C1  UNL d   1      -4.757   2.448   6.000  0.00  0.00     0.055 C 
ATOM      8  C   UNL d   1      -5.888   3.466   5.992  0.00  0.00     0.019 C 
ENDBRANCH   1   7
TORSDOF 1
ENDMDL
