MODEL 1
REMARK minimizedAffinity 1.96820951
REMARK minimizedRMSD -1
REMARK  1 active torsions:
REMARK  status: ('A' for Active; 'I' for Inactive)
REMARK    1  A    between atoms: C1_2  and  C2_3 
ROOT
ATOM      1  C2  UNL d   1      -0.777   1.195   2.158  0.00  0.00    -0.077 A 
ATOM      2  C3  UNL d   1      -0.648   0.386   1.020  0.00  0.00     0.002 A 
ATOM      3  C4  UNL d   1      -1.754   0.126   0.209  0.00  0.00     0.002 A 
ATOM      4  C5  UNL d   1      -2.995   0.674   0.525  0.00  0.00    -0.004 A 
ATOM      5  C6  UNL d   1      -3.134   1.478   1.656  0.00  0.00     0.002 A 
ATOM      6  C7  UNL d   1      -2.030   1.738   2.468  0.00  0.00     0.002 A 
ENDROOT
BRANCH   1   7
ATOM      7  C1  UNL d   1       0.426   1.516   3.007  0.00  0.00     0.055 C 
ATOM      8  C   UNL d   1       0.507   3.005   3.310  0.00  0.00     0.019 C 
ENDBRANCH   1   7
TORSDOF 1
ENDMDL
