MODEL 1
REMARK minimizedAffinity -3.17197585
REMARK minimizedRMSD -1
REMARK  1 active torsions:
REMARK  status: ('A' for Active; 'I' for Inactive)
REMARK    1  A    between atoms: C1_2  and  C2_3 
ROOT
ATOM      1  C2  UNL d   1       1.028  -0.576  -0.599  0.00  0.00    -0.076 A 
ATOM      2  C3  UNL d   1       1.997   0.056  -1.398  0.00  0.00     0.004 A 
ATOM      3  C4  UNL d   1       2.057   1.445  -1.490  0.00  0.00    -0.003 A 
ATOM      4  C5  UNL d   1       1.149   2.226  -0.783  0.00  0.00     0.000 A 
ATOM      5  C6  UNL d   1       0.192   1.617   0.028  0.00  0.00     0.000 A 
ATOM      6  C7  UNL d   1       0.129   0.218   0.145  0.00  0.00    -0.073 A 
ATOM      7  C8  UNL d   1      -0.927  -0.385   1.030  0.00  0.00     0.078 C 
ENDROOT
BRANCH   1   8
ATOM      8  C1  UNL d   1       0.994  -2.087  -0.560  0.00  0.00     0.053 C 
ATOM      9  C   UNL d   1       2.177  -2.715  -1.280  0.00  0.00     0.018 C 
ENDBRANCH   1   8
TORSDOF 1
ENDMDL
