MODEL 1
REMARK minimizedAffinity -5.89511299
REMARK minimizedRMSD -1
REMARK  1 active torsions:
REMARK  status: ('A' for Active; 'I' for Inactive)
REMARK    1  A    between atoms: C1_2  and  C2_3 
ROOT
ATOM      1  C2  UNL d   1       0.235  -0.666  -0.281  0.00  0.00    -0.076 A 
ATOM      2  C3  UNL d   1       0.507  -1.919  -0.857  0.00  0.00     0.004 A 
ATOM      3  C4  UNL d   1       1.324  -2.029  -1.981  0.00  0.00    -0.003 A 
ATOM      4  C5  UNL d   1       1.882  -0.888  -2.547  0.00  0.00     0.000 A 
ATOM      5  C6  UNL d   1       1.637   0.361  -1.978  0.00  0.00     0.000 A 
ATOM      6  C7  UNL d   1       0.829   0.488  -0.835  0.00  0.00    -0.073 A 
ATOM      7  C8  UNL d   1       0.593   1.861  -0.267  0.00  0.00     0.078 C 
ENDROOT
BRANCH   1   8
ATOM      8  C1  UNL d   1      -0.680  -0.605   0.921  0.00  0.00     0.053 C 
ATOM      9  C   UNL d   1      -0.678  -1.898   1.721  0.00  0.00     0.018 C 
ENDBRANCH   1   8
TORSDOF 1
ENDMDL
