MODEL 1
REMARK minimizedAffinity -3.15949678
REMARK minimizedRMSD -1
REMARK  1 active torsions:
REMARK  status: ('A' for Active; 'I' for Inactive)
REMARK    1  A    between atoms: C1_2  and  C2_3 
ROOT
ATOM      1  C2  UNL d   1      -0.031   0.132   0.444  0.00  0.00    -0.076 A 
ATOM      2  C3  UNL d   1       0.280   1.415  -0.039  0.00  0.00     0.004 A 
ATOM      3  C4  UNL d   1       1.285   1.600  -0.987  0.00  0.00    -0.003 A 
ATOM      4  C5  UNL d   1       1.994   0.505  -1.468  0.00  0.00     0.000 A 
ATOM      5  C6  UNL d   1       1.687  -0.777  -1.013  0.00  0.00     0.000 A 
ATOM      6  C7  UNL d   1       0.666  -0.983  -0.069  0.00  0.00    -0.073 A 
ATOM      7  C8  UNL d   1       0.381  -2.386   0.392  0.00  0.00     0.078 C 
ENDROOT
BRANCH   1   8
ATOM      8  C1  UNL d   1      -1.112  -0.004   1.493  0.00  0.00     0.053 C 
ATOM      9  C   UNL d   1      -2.475   0.439   0.985  0.00  0.00     0.018 C 
ENDBRANCH   1   8
TORSDOF 1
ENDMDL
