MODEL 1
REMARK minimizedAffinity 8.41376209
REMARK minimizedRMSD -1
REMARK  1 active torsions:
REMARK  status: ('A' for Active; 'I' for Inactive)
REMARK    1  A    between atoms: C1_2  and  C2_3 
ROOT
ATOM      1  C2  UNL d   1      -3.398   2.629   2.834  0.00  0.00    -0.076 A 
ATOM      2  C3  UNL d   1      -4.055   3.786   3.286  0.00  0.00     0.004 A 
ATOM      3  C4  UNL d   1      -3.636   4.445   4.441  0.00  0.00    -0.003 A 
ATOM      4  C5  UNL d   1      -2.551   3.957   5.161  0.00  0.00     0.000 A 
ATOM      5  C6  UNL d   1      -1.876   2.821   4.718  0.00  0.00     0.000 A 
ATOM      6  C7  UNL d   1      -2.276   2.154   3.547  0.00  0.00    -0.073 A 
ATOM      7  C8  UNL d   1      -1.515   0.929   3.118  0.00  0.00     0.078 C 
ENDROOT
BRANCH   1   8
ATOM      8  C1  UNL d   1      -3.914   1.941   1.590  0.00  0.00     0.053 C 
ATOM      9  C   UNL d   1      -4.179   0.460   1.811  0.00  0.00     0.018 C 
ENDBRANCH   1   8
TORSDOF 1
ENDMDL
