MODEL 1
REMARK minimizedAffinity -3.45968819
REMARK minimizedRMSD -1
REMARK  1 active torsions:
REMARK  status: ('A' for Active; 'I' for Inactive)
REMARK    1  A    between atoms: C1_2  and  C2_3 
ROOT
ATOM      1  C2  UNL d   1       0.210  -0.360   0.416  0.00  0.00    -0.076 A 
ATOM      2  C3  UNL d   1       0.323   1.041   0.426  0.00  0.00     0.004 A 
ATOM      3  C4  UNL d   1       1.032   1.711  -0.570  0.00  0.00    -0.003 A 
ATOM      4  C5  UNL d   1       1.637   0.990  -1.593  0.00  0.00     0.000 A 
ATOM      5  C6  UNL d   1       1.520  -0.399  -1.629  0.00  0.00     0.000 A 
ATOM      6  C7  UNL d   1       0.796  -1.088  -0.642  0.00  0.00    -0.073 A 
ATOM      7  C8  UNL d   1       0.707  -2.587  -0.726  0.00  0.00     0.078 C 
ENDROOT
BRANCH   1   8
ATOM      8  C1  UNL d   1      -0.547  -1.034   1.538  0.00  0.00     0.053 C 
ATOM      9  C   UNL d   1      -1.715  -0.197   2.038  0.00  0.00     0.018 C 
ENDBRANCH   1   8
TORSDOF 1
ENDMDL
