MODEL 1
REMARK minimizedAffinity -4.29831791
REMARK minimizedRMSD -1
REMARK  1 active torsions:
REMARK  status: ('A' for Active; 'I' for Inactive)
REMARK    1  A    between atoms: C1_2  and  C2_3 
ROOT
ATOM      1  C2  UNL d   1       1.218  -1.123  -0.622  0.00  0.00    -0.076 A 
ATOM      2  C3  UNL d   1       0.435  -1.630   0.430  0.00  0.00     0.004 A 
ATOM      3  C4  UNL d   1      -0.371  -0.788   1.194  0.00  0.00    -0.003 A 
ATOM      4  C5  UNL d   1      -0.408   0.574   0.919  0.00  0.00     0.000 A 
ATOM      5  C6  UNL d   1       0.348   1.092  -0.132  0.00  0.00     0.000 A 
ATOM      6  C7  UNL d   1       1.154   0.255  -0.923  0.00  0.00    -0.073 A 
ATOM      7  C8  UNL d   1       1.953   0.867  -2.040  0.00  0.00     0.078 C 
ENDROOT
BRANCH   1   8
ATOM      8  C1  UNL d   1       2.094  -2.079  -1.399  0.00  0.00     0.053 C 
ATOM      9  C   UNL d   1       1.834  -3.533  -1.036  0.00  0.00     0.018 C 
ENDBRANCH   1   8
TORSDOF 1
ENDMDL
