MODEL 1
REMARK minimizedAffinity -0.969474375
REMARK minimizedRMSD -1
REMARK  1 active torsions:
REMARK  status: ('A' for Active; 'I' for Inactive)
REMARK    1  A    between atoms: C1_2  and  C2_3 
ROOT
ATOM      1  C2  UNL d   1       0.886  -1.395  -0.783  0.00  0.00    -0.076 A 
ATOM      2  C3  UNL d   1       0.002  -1.891   0.191  0.00  0.00     0.004 A 
ATOM      3  C4  UNL d   1      -0.552  -1.048   1.154  0.00  0.00    -0.003 A 
ATOM      4  C5  UNL d   1      -0.230   0.305   1.157  0.00  0.00     0.000 A 
ATOM      5  C6  UNL d   1       0.632   0.817   0.188  0.00  0.00     0.000 A 
ATOM      6  C7  UNL d   1       1.185  -0.016  -0.799  0.00  0.00    -0.073 A 
ATOM      7  C8  UNL d   1       2.113   0.589  -1.817  0.00  0.00     0.078 C 
ENDROOT
BRANCH   1   8
ATOM      8  C1  UNL d   1       1.476  -2.362  -1.784  0.00  0.00     0.053 C 
ATOM      9  C   UNL d   1       2.895  -2.776  -1.428  0.00  0.00     0.018 C 
ENDBRANCH   1   8
TORSDOF 1
ENDMDL
