MODEL 1
REMARK minimizedAffinity 9.43436718
REMARK minimizedRMSD -1
REMARK  1 active torsions:
REMARK  status: ('A' for Active; 'I' for Inactive)
REMARK    1  A    between atoms: C1_2  and  C2_3 
ROOT
ATOM      1  C2  UNL d   1       1.812   2.513  -1.327  0.00  0.00    -0.076 A 
ATOM      2  C3  UNL d   1       0.963   2.178  -2.396  0.00  0.00     0.004 A 
ATOM      3  C4  UNL d   1       0.921   0.879  -2.899  0.00  0.00    -0.003 A 
ATOM      4  C5  UNL d   1       1.727  -0.107  -2.340  0.00  0.00     0.000 A 
ATOM      5  C6  UNL d   1       2.562   0.203  -1.267  0.00  0.00     0.000 A 
ATOM      6  C7  UNL d   1       2.605   1.505  -0.738  0.00  0.00    -0.073 A 
ATOM      7  C8  UNL d   1       3.528   1.785   0.416  0.00  0.00     0.078 C 
ENDROOT
BRANCH   1   8
ATOM      8  C1  UNL d   1       1.835   3.945  -0.842  0.00  0.00     0.053 C 
ATOM      9  C   UNL d   1       0.739   4.234   0.172  0.00  0.00     0.018 C 
ENDBRANCH   1   8
TORSDOF 1
ENDMDL
