MODEL 1
REMARK minimizedAffinity -2.25484991
REMARK minimizedRMSD -1
REMARK  1 active torsions:
REMARK  status: ('A' for Active; 'I' for Inactive)
REMARK    1  A    between atoms: C1_2  and  C2_3 
ROOT
ATOM      1  C2  UNL d   1      -0.130  -0.329   0.640  0.00  0.00    -0.076 A 
ATOM      2  C3  UNL d   1       0.245   0.865  -0.001  0.00  0.00     0.004 A 
ATOM      3  C4  UNL d   1       1.115   0.851  -1.090  0.00  0.00    -0.003 A 
ATOM      4  C5  UNL d   1       1.623  -0.356  -1.557  0.00  0.00     0.000 A 
ATOM      5  C6  UNL d   1       1.247  -1.551  -0.945  0.00  0.00     0.000 A 
ATOM      6  C7  UNL d   1       0.358  -1.557   0.144  0.00  0.00    -0.073 A 
ATOM      7  C8  UNL d   1      -0.008  -2.874   0.771  0.00  0.00     0.078 C 
ENDROOT
BRANCH   1   8
ATOM      8  C1  UNL d   1      -1.055  -0.250   1.833  0.00  0.00     0.053 C 
ATOM      9  C   UNL d   1      -2.493   0.049   1.437  0.00  0.00     0.018 C 
ENDBRANCH   1   8
TORSDOF 1
ENDMDL
