MODEL 1
REMARK minimizedAffinity 8.34312725
REMARK minimizedRMSD -1
REMARK  0 active torsions:
REMARK  status: ('A' for Active; 'I' for Inactive)
ROOT
ATOM      1  C   UNL d   1      -1.125   4.926  -3.026  0.00  0.00     0.023 A 
ATOM      2  C1  UNL d   1      -0.619   3.770  -2.430  0.00  0.00     0.003 A 
ATOM      3  C2  UNL d   1      -1.486   2.748  -2.039  0.00  0.00     0.048 A 
ATOM      4  C3  UNL d   1      -2.858   2.887  -2.249  0.00  0.00     0.023 A 
ATOM      5  C4  UNL d   1      -3.368   4.041  -2.846  0.00  0.00     0.048 A 
ATOM      6  C5  UNL d   1      -2.498   5.061  -3.234  0.00  0.00     0.003 A 
ATOM      7  I   UNL d   1      -4.151   1.366  -1.669  0.00  0.00    -0.146 I 
ENDROOT
TORSDOF 0
ENDMDL
