MODEL 1
REMARK minimizedAffinity 2.95755935
REMARK minimizedRMSD -1
REMARK  0 active torsions:
REMARK  status: ('A' for Active; 'I' for Inactive)
ROOT
ATOM      1  C   UNL d   1      -5.262  -1.488   4.127  0.00  0.00     0.023 A 
ATOM      2  C1  UNL d   1      -4.338  -1.993   3.213  0.00  0.00     0.003 A 
ATOM      3  C2  UNL d   1      -4.147  -1.355   1.985  0.00  0.00     0.048 A 
ATOM      4  C3  UNL d   1      -4.884  -0.212   1.679  0.00  0.00     0.023 A 
ATOM      5  C4  UNL d   1      -5.809   0.298   2.591  0.00  0.00     0.048 A 
ATOM      6  C5  UNL d   1      -5.997  -0.343   3.817  0.00  0.00     0.003 A 
ATOM      7  I   UNL d   1      -4.603   0.739  -0.148  0.00  0.00    -0.146 I 
ENDROOT
TORSDOF 0
ENDMDL
