MODEL 1
REMARK minimizedAffinity 2.9979744
REMARK minimizedRMSD -1
REMARK  0 active torsions:
REMARK  status: ('A' for Active; 'I' for Inactive)
ROOT
ATOM      1  C   UNL d   1      -5.441  -1.667   3.982  0.00  0.00     0.023 A 
ATOM      2  C1  UNL d   1      -4.467  -2.292   3.202  0.00  0.00     0.003 A 
ATOM      3  C2  UNL d   1      -4.038  -1.700   2.012  0.00  0.00     0.048 A 
ATOM      4  C3  UNL d   1      -4.586  -0.482   1.609  0.00  0.00     0.023 A 
ATOM      5  C4  UNL d   1      -5.559   0.147   2.386  0.00  0.00     0.048 A 
ATOM      6  C5  UNL d   1      -5.986  -0.449   3.575  0.00  0.00     0.003 A 
ATOM      7  I   UNL d   1      -3.949   0.401  -0.162  0.00  0.00    -0.146 I 
ENDROOT
TORSDOF 0
ENDMDL
