MODEL 1
REMARK minimizedAffinity 5.08371925
REMARK minimizedRMSD -1
REMARK  0 active torsions:
REMARK  status: ('A' for Active; 'I' for Inactive)
ROOT
ATOM      1  C   UNL d   1      -4.903   0.357   2.555  0.00  0.00     0.023 A 
ATOM      2  C1  UNL d   1      -4.426  -0.950   2.451  0.00  0.00     0.003 A 
ATOM      3  C2  UNL d   1      -4.734  -1.887   3.439  0.00  0.00     0.048 A 
ATOM      4  C3  UNL d   1      -5.520  -1.512   4.528  0.00  0.00     0.023 A 
ATOM      5  C4  UNL d   1      -6.000  -0.206   4.636  0.00  0.00     0.048 A 
ATOM      6  C5  UNL d   1      -5.689   0.729   3.646  0.00  0.00     0.003 A 
ATOM      7  I   UNL d   1      -5.979  -2.906   6.000  0.00  0.00    -0.146 I 
ENDROOT
TORSDOF 0
ENDMDL
