MODEL 1
REMARK minimizedAffinity -1.78893697
REMARK minimizedRMSD -1
REMARK  0 active torsions:
REMARK  status: ('A' for Active; 'I' for Inactive)
ROOT
ATOM      1  C   UNL d   1      -5.255  -3.762   5.759  0.00  0.00     0.023 A 
ATOM      2  C1  UNL d   1      -4.511  -3.967   4.596  0.00  0.00     0.003 A 
ATOM      3  C2  UNL d   1      -4.511  -3.002   3.587  0.00  0.00     0.048 A 
ATOM      4  C3  UNL d   1      -5.255  -1.834   3.747  0.00  0.00     0.023 A 
ATOM      5  C4  UNL d   1      -6.000  -1.624   4.909  0.00  0.00     0.048 A 
ATOM      6  C5  UNL d   1      -5.998  -2.592   5.915  0.00  0.00     0.003 A 
ATOM      7  I   UNL d   1      -5.256  -0.396   2.247  0.00  0.00    -0.146 I 
ENDROOT
TORSDOF 0
ENDMDL
