MODEL 1
REMARK minimizedAffinity 6.97215796
REMARK minimizedRMSD -1
REMARK  0 active torsions:
REMARK  status: ('A' for Active; 'I' for Inactive)
ROOT
ATOM      1  C   UNL d   1      -5.901  -4.306  -5.729  0.00  0.00     0.023 A 
ATOM      2  C1  UNL d   1      -5.609  -5.622  -5.369  0.00  0.00     0.003 A 
ATOM      3  C2  UNL d   1      -4.291  -5.999  -5.104  0.00  0.00     0.048 A 
ATOM      4  C3  UNL d   1      -3.269  -5.054  -5.199  0.00  0.00     0.023 A 
ATOM      5  C4  UNL d   1      -3.557  -3.736  -5.558  0.00  0.00     0.048 A 
ATOM      6  C5  UNL d   1      -4.876  -3.364  -5.823  0.00  0.00     0.003 A 
ATOM      7  I   UNL d   1      -1.307  -5.613  -4.805  0.00  0.00    -0.146 I 
ENDROOT
TORSDOF 0
ENDMDL
