MODEL 1
REMARK minimizedAffinity -2.14420748
REMARK minimizedRMSD -1
REMARK  0 active torsions:
REMARK  status: ('A' for Active; 'I' for Inactive)
ROOT
ATOM      1  C   UNL d   1      -1.026   1.441   2.132  0.00  0.00    -0.002 A 
ATOM      2  C1  UNL d   1      -0.753   2.628   1.468  0.00  0.00     0.010 A 
ATOM      3  C2  UNL d   1      -0.046   2.622   0.264  0.00  0.00     0.041 A 
ATOM      4  C3  UNL d   1       0.384   1.390  -0.267  0.00  0.00    -0.075 A 
ATOM      5  S   UNL d   1       1.264   1.139  -1.729  0.00  0.00     0.015 SA
ATOM      6  C4  UNL d   1       1.298  -0.550  -1.506  0.00  0.00     0.022 A 
ATOM      7  C5  UNL d   1       0.658  -0.930  -0.350  0.00  0.00     0.026 A 
ATOM      8  C6  UNL d   1       0.120   0.182   0.383  0.00  0.00    -0.082 A 
ATOM      9  C7  UNL d   1      -0.598   0.221   1.602  0.00  0.00     0.045 A 
ENDROOT
TORSDOF 0
ENDMDL
