MODEL 1
REMARK minimizedAffinity -2.37676263
REMARK minimizedRMSD -1
REMARK  0 active torsions:
REMARK  status: ('A' for Active; 'I' for Inactive)
ROOT
ATOM      1  C   UNL d   1      -1.070   0.604   2.512  0.00  0.00    -0.002 A 
ATOM      2  C1  UNL d   1      -1.374   1.771   1.826  0.00  0.00     0.010 A 
ATOM      3  C2  UNL d   1      -0.931   1.959   0.515  0.00  0.00     0.041 A 
ATOM      4  C3  UNL d   1      -0.173   0.944  -0.101  0.00  0.00    -0.075 A 
ATOM      5  S   UNL d   1       0.475   0.955  -1.699  0.00  0.00     0.015 SA
ATOM      6  C4  UNL d   1       1.169  -0.589  -1.508  0.00  0.00     0.022 A 
ATOM      7  C5  UNL d   1       0.923  -1.115  -0.262  0.00  0.00     0.026 A 
ATOM      8  C6  UNL d   1       0.145  -0.240   0.570  0.00  0.00    -0.082 A 
ATOM      9  C7  UNL d   1      -0.317  -0.401   1.898  0.00  0.00     0.045 A 
ENDROOT
TORSDOF 0
ENDMDL
