MODEL 1
REMARK minimizedAffinity 0.058713723
REMARK minimizedRMSD -1
REMARK  0 active torsions:
REMARK  status: ('A' for Active; 'I' for Inactive)
ROOT
ATOM      1  C   UNL d   1       1.395  -0.030  -1.614  0.00  0.00    -0.002 A 
ATOM      2  C1  UNL d   1       1.128   1.303  -1.894  0.00  0.00     0.010 A 
ATOM      3  C2  UNL d   1       0.306   2.054  -1.053  0.00  0.00     0.041 A 
ATOM      4  C3  UNL d   1      -0.248   1.439   0.087  0.00  0.00    -0.075 A 
ATOM      5  S   UNL d   1      -1.283   2.163   1.260  0.00  0.00     0.015 SA
ATOM      6  C4  UNL d   1      -1.394   0.721   2.161  0.00  0.00     0.022 A 
ATOM      7  C5  UNL d   1      -0.666  -0.299   1.595  0.00  0.00     0.026 A 
ATOM      8  C6  UNL d   1       0.007   0.098   0.390  0.00  0.00    -0.082 A 
ATOM      9  C7  UNL d   1       0.844  -0.637  -0.483  0.00  0.00     0.045 A 
ENDROOT
TORSDOF 0
ENDMDL
