MODEL 1
REMARK minimizedAffinity 1.88365793
REMARK minimizedRMSD -1
REMARK  0 active torsions:
REMARK  status: ('A' for Active; 'I' for Inactive)
ROOT
ATOM      1  C   UNL d   1      -0.320  -3.606  -2.182  0.00  0.00    -0.002 A 
ATOM      2  C1  UNL d   1       0.019  -2.774  -3.239  0.00  0.00     0.010 A 
ATOM      3  C2  UNL d   1       0.191  -1.403  -3.036  0.00  0.00     0.041 A 
ATOM      4  C3  UNL d   1       0.017  -0.878  -1.740  0.00  0.00    -0.075 A 
ATOM      5  S   UNL d   1       0.176   0.768  -1.256  0.00  0.00     0.015 SA
ATOM      6  C4  UNL d   1      -0.201   0.405   0.366  0.00  0.00     0.022 A 
ATOM      7  C5  UNL d   1      -0.446  -0.935   0.551  0.00  0.00     0.026 A 
ATOM      8  C6  UNL d   1      -0.324  -1.697  -0.660  0.00  0.00    -0.082 A 
ATOM      9  C7  UNL d   1      -0.492  -3.082  -0.898  0.00  0.00     0.045 A 
ENDROOT
TORSDOF 0
ENDMDL
