MODEL 1
REMARK minimizedAffinity -0.539184809
REMARK minimizedRMSD -1
REMARK  0 active torsions:
REMARK  status: ('A' for Active; 'I' for Inactive)
ROOT
ATOM      1  C   UNL d   1      -0.958   0.146   1.832  0.00  0.00    -0.002 A 
ATOM      2  C1  UNL d   1      -0.965   1.214   0.946  0.00  0.00     0.010 A 
ATOM      3  C2  UNL d   1      -0.536   1.047  -0.372  0.00  0.00     0.041 A 
ATOM      4  C3  UNL d   1      -0.097  -0.225  -0.789  0.00  0.00    -0.075 A 
ATOM      5  S   UNL d   1       0.472  -0.666  -2.356  0.00  0.00     0.015 SA
ATOM      6  C4  UNL d   1       0.736  -2.283  -1.886  0.00  0.00     0.022 A 
ATOM      7  C5  UNL d   1       0.404  -2.499  -0.570  0.00  0.00     0.026 A 
ATOM      8  C6  UNL d   1      -0.082  -1.317   0.084  0.00  0.00    -0.082 A 
ATOM      9  C7  UNL d   1      -0.523  -1.114   1.414  0.00  0.00     0.045 A 
ENDROOT
TORSDOF 0
ENDMDL
