MODEL 1
REMARK minimizedAffinity -1.67870688
REMARK minimizedRMSD -1
REMARK  0 active torsions:
REMARK  status: ('A' for Active; 'I' for Inactive)
ROOT
ATOM      1  C   UNL d   1      -1.571   0.214   2.076  0.00  0.00    -0.002 A 
ATOM      2  C1  UNL d   1      -0.835   1.344   1.751  0.00  0.00     0.010 A 
ATOM      3  C2  UNL d   1       0.072   1.320   0.689  0.00  0.00     0.041 A 
ATOM      4  C3  UNL d   1       0.227   0.130  -0.048  0.00  0.00    -0.075 A 
ATOM      5  S   UNL d   1       1.278  -0.133  -1.389  0.00  0.00     0.015 SA
ATOM      6  C4  UNL d   1       0.774  -1.752  -1.562  0.00  0.00     0.022 A 
ATOM      7  C5  UNL d   1      -0.172  -2.100  -0.628  0.00  0.00     0.026 A 
ATOM      8  C6  UNL d   1      -0.503  -1.022   0.260  0.00  0.00    -0.082 A 
ATOM      9  C7  UNL d   1      -1.415  -0.965   1.342  0.00  0.00     0.045 A 
ENDROOT
TORSDOF 0
ENDMDL
