MODEL 1
REMARK minimizedAffinity -1.05823517
REMARK minimizedRMSD -1
REMARK  0 active torsions:
REMARK  status: ('A' for Active; 'I' for Inactive)
ROOT
ATOM      1  C   UNL d   1       0.474  -2.969  -1.939  0.00  0.00    -0.002 A 
ATOM      2  C1  UNL d   1      -0.024  -1.985  -2.781  0.00  0.00     0.010 A 
ATOM      3  C2  UNL d   1      -0.412  -0.744  -2.273  0.00  0.00     0.041 A 
ATOM      4  C3  UNL d   1      -0.288  -0.505  -0.890  0.00  0.00    -0.075 A 
ATOM      5  S   UNL d   1      -0.698   0.940  -0.043  0.00  0.00     0.015 SA
ATOM      6  C4  UNL d   1      -0.222   0.285   1.456  0.00  0.00     0.022 A 
ATOM      7  C5  UNL d   1       0.242  -1.003   1.333  0.00  0.00     0.026 A 
ATOM      8  C6  UNL d   1       0.212  -1.480  -0.021  0.00  0.00    -0.082 A 
ATOM      9  C7  UNL d   1       0.595  -2.728  -0.567  0.00  0.00     0.045 A 
ENDROOT
TORSDOF 0
ENDMDL
