MODEL 1
REMARK minimizedAffinity 0.555428386
REMARK minimizedRMSD -1
REMARK  0 active torsions:
REMARK  status: ('A' for Active; 'I' for Inactive)
ROOT
ATOM      1  C   UNL d   1      -1.179   1.537   2.545  0.00  0.00    -0.002 A 
ATOM      2  C1  UNL d   1      -1.043   0.167   2.717  0.00  0.00     0.010 A 
ATOM      3  C2  UNL d   1      -0.510  -0.628   1.699  0.00  0.00     0.041 A 
ATOM      4  C3  UNL d   1      -0.111  -0.015   0.495  0.00  0.00    -0.075 A 
ATOM      5  S   UNL d   1       0.569  -0.788  -0.888  0.00  0.00     0.015 SA
ATOM      6  C4  UNL d   1       0.696   0.683  -1.740  0.00  0.00     0.022 A 
ATOM      7  C5  UNL d   1       0.235   1.747  -1.002  0.00  0.00     0.026 A 
ATOM      8  C6  UNL d   1      -0.237   1.363   0.299  0.00  0.00    -0.082 A 
ATOM      9  C7  UNL d   1      -0.781   2.141   1.349  0.00  0.00     0.045 A 
ENDROOT
TORSDOF 0
ENDMDL
