MODEL 1
REMARK minimizedAffinity 0.523264408
REMARK minimizedRMSD -1
REMARK  0 active torsions:
REMARK  status: ('A' for Active; 'I' for Inactive)
ROOT
ATOM      1  C   UNL d   1       0.246   0.553  -0.209  0.00  0.00    -0.002 A 
ATOM      2  C1  UNL d   1       0.548  -0.340   0.810  0.00  0.00     0.010 A 
ATOM      3  C2  UNL d   1       0.697  -1.702   0.541  0.00  0.00     0.041 A 
ATOM      4  C3  UNL d   1       0.538  -2.156  -0.783  0.00  0.00    -0.075 A 
ATOM      5  S   UNL d   1       0.675  -3.779  -1.348  0.00  0.00     0.015 SA
ATOM      6  C4  UNL d   1       0.338  -3.326  -2.956  0.00  0.00     0.022 A 
ATOM      7  C5  UNL d   1       0.123  -1.974  -3.077  0.00  0.00     0.026 A 
ATOM      8  C6  UNL d   1       0.235  -1.277  -1.826  0.00  0.00    -0.082 A 
ATOM      9  C7  UNL d   1       0.089   0.098  -1.521  0.00  0.00     0.045 A 
ENDROOT
TORSDOF 0
ENDMDL
