MODEL 1
REMARK minimizedAffinity -2.75570726
REMARK minimizedRMSD -1
REMARK  0 active torsions:
REMARK  status: ('A' for Active; 'I' for Inactive)
ROOT
ATOM      1  C   UNL d   1      -0.467  -1.152   2.436  0.00  0.00    -0.002 A 
ATOM      2  C1  UNL d   1      -1.228   0.004   2.538  0.00  0.00     0.010 A 
ATOM      3  C2  UNL d   1      -1.127   1.008   1.573  0.00  0.00     0.041 A 
ATOM      4  C3  UNL d   1      -0.242   0.828   0.492  0.00  0.00    -0.075 A 
ATOM      5  S   UNL d   1       0.045   1.922  -0.809  0.00  0.00     0.015 SA
ATOM      6  C4  UNL d   1       1.184   0.880  -1.532  0.00  0.00     0.022 A 
ATOM      7  C5  UNL d   1       1.353  -0.279  -0.812  0.00  0.00     0.026 A 
ATOM      8  C6  UNL d   1       0.533  -0.328   0.366  0.00  0.00    -0.082 A 
ATOM      9  C7  UNL d   1       0.409  -1.327   1.362  0.00  0.00     0.045 A 
ENDROOT
TORSDOF 0
ENDMDL
