MODEL 1
REMARK minimizedAffinity 1.18708491
REMARK minimizedRMSD -1
REMARK  0 active torsions:
REMARK  status: ('A' for Active; 'I' for Inactive)
ROOT
ATOM      1  C   UNL d   1      -0.754   0.774   2.386  0.00  0.00    -0.002 A 
ATOM      2  C1  UNL d   1      -0.741   1.842   1.500  0.00  0.00     0.010 A 
ATOM      3  C2  UNL d   1      -0.402   1.649   0.159  0.00  0.00     0.041 A 
ATOM      4  C3  UNL d   1      -0.074   0.351  -0.280  0.00  0.00    -0.075 A 
ATOM      5  S   UNL d   1       0.371  -0.124  -1.877  0.00  0.00     0.015 SA
ATOM      6  C4  UNL d   1       0.555  -1.756  -1.420  0.00  0.00     0.022 A 
ATOM      7  C5  UNL d   1       0.287  -1.951  -0.086  0.00  0.00     0.026 A 
ATOM      8  C6  UNL d   1      -0.081  -0.740   0.593  0.00  0.00    -0.082 A 
ATOM      9  C7  UNL d   1      -0.428  -0.512   1.946  0.00  0.00     0.045 A 
ENDROOT
TORSDOF 0
ENDMDL
