MODEL 1
REMARK minimizedAffinity -2.55151057
REMARK minimizedRMSD -1
REMARK  0 active torsions:
REMARK  status: ('A' for Active; 'I' for Inactive)
ROOT
ATOM      1  C2' OXE d   1      -0.037  -2.045  -2.666  0.00  0.00     0.078 C 
ATOM      2  C1' OXE d   1       0.001   0.651  -1.885  0.00  0.00     0.078 C 
ATOM      3  C1  OXE d   1       1.154   0.143  -2.713  0.00  0.00    -0.078 A 
ATOM      4  C2  OXE d   1       1.151  -1.189  -3.051  0.00  0.00    -0.078 A 
ATOM      5  C3  OXE d   1       2.163  -1.698  -3.859  0.00  0.00     0.003 A 
ATOM      6  C4  OXE d   1       3.263  -0.903  -4.203  0.00  0.00    -0.002 A 
ATOM      7  C5  OXE d   1       3.306   0.446  -3.835  0.00  0.00    -0.002 A 
ATOM      8  C6  OXE d   1       2.242   0.994  -3.128  0.00  0.00     0.003 A 
ENDROOT
TORSDOF 0
ENDMDL
