MODEL 1
REMARK minimizedAffinity -2.35913515
REMARK minimizedRMSD -1
REMARK  0 active torsions:
REMARK  status: ('A' for Active; 'I' for Inactive)
ROOT
ATOM      1  C2' OXE d   1      -1.063   1.361  -1.792  0.00  0.00     0.078 C 
ATOM      2  C1' OXE d   1       0.978  -0.189  -2.938  0.00  0.00     0.078 C 
ATOM      3  C1  OXE d   1       0.939  -0.077  -1.435  0.00  0.00    -0.078 A 
ATOM      4  C2  OXE d   1      -0.035   0.721  -0.885  0.00  0.00    -0.078 A 
ATOM      5  C3  OXE d   1      -0.149   0.815   0.499  0.00  0.00     0.003 A 
ATOM      6  C4  OXE d   1       0.812   0.229   1.331  0.00  0.00    -0.002 A 
ATOM      7  C5  OXE d   1       1.836  -0.556   0.790  0.00  0.00    -0.002 A 
ATOM      8  C6  OXE d   1       1.889  -0.753  -0.586  0.00  0.00     0.003 A 
ENDROOT
TORSDOF 0
ENDMDL
