MODEL 1
REMARK minimizedAffinity -6.32869196
REMARK minimizedRMSD -1
REMARK  0 active torsions:
REMARK  status: ('A' for Active; 'I' for Inactive)
ROOT
ATOM      1  C2' OXE d   1       1.478   0.375   1.092  0.00  0.00     0.078 C 
ATOM      2  C1' OXE d   1      -0.557   0.373  -0.842  0.00  0.00     0.078 C 
ATOM      3  C1  OXE d   1      -0.956   0.184   0.600  0.00  0.00    -0.078 A 
ATOM      4  C2  OXE d   1       0.050   0.139   1.534  0.00  0.00    -0.078 A 
ATOM      5  C3  OXE d   1      -0.267   0.022   2.885  0.00  0.00     0.003 A 
ATOM      6  C4  OXE d   1      -1.589  -0.206   3.285  0.00  0.00    -0.002 A 
ATOM      7  C5  OXE d   1      -2.626  -0.205   2.345  0.00  0.00    -0.002 A 
ATOM      8  C6  OXE d   1      -2.332   0.031   1.007  0.00  0.00     0.003 A 
ENDROOT
TORSDOF 0
ENDMDL
