MODEL 1
REMARK minimizedAffinity -4.77363348
REMARK minimizedRMSD -1
REMARK  0 active torsions:
REMARK  status: ('A' for Active; 'I' for Inactive)
ROOT
ATOM      1  C2' OXE d   1       1.340   0.575   0.470  0.00  0.00     0.078 C 
ATOM      2  C1' OXE d   1      -0.839   0.092  -1.232  0.00  0.00     0.078 C 
ATOM      3  C1  OXE d   1      -1.062  -0.048   0.254  0.00  0.00    -0.078 A 
ATOM      4  C2  OXE d   1       0.022   0.145   1.076  0.00  0.00    -0.078 A 
ATOM      5  C3  OXE d   1      -0.141   0.082   2.457  0.00  0.00     0.003 A 
ATOM      6  C4  OXE d   1      -1.362  -0.327   3.009  0.00  0.00    -0.002 A 
ATOM      7  C5  OXE d   1      -2.468  -0.566   2.187  0.00  0.00    -0.002 A 
ATOM      8  C6  OXE d   1      -2.347  -0.390   0.813  0.00  0.00     0.003 A 
ENDROOT
TORSDOF 0
ENDMDL
