MODEL 1
REMARK minimizedAffinity -3.0403657
REMARK minimizedRMSD -1
REMARK  0 active torsions:
REMARK  status: ('A' for Active; 'I' for Inactive)
ROOT
ATOM      1  C2' OXE d   1       1.690   3.525  -5.378  0.00  0.00     0.078 C 
ATOM      2  C1' OXE d   1       2.825   1.435  -3.888  0.00  0.00     0.078 C 
ATOM      3  C1  OXE d   1       3.760   2.379  -4.601  0.00  0.00    -0.078 A 
ATOM      4  C2  OXE d   1       3.195   3.371  -5.366  0.00  0.00    -0.078 A 
ATOM      5  C3  OXE d   1       4.012   4.303  -6.000  0.00  0.00     0.003 A 
ATOM      6  C4  OXE d   1       5.404   4.147  -5.992  0.00  0.00    -0.002 A 
ATOM      7  C5  OXE d   1       5.999   3.120  -5.252  0.00  0.00    -0.002 A 
ATOM      8  C6  OXE d   1       5.195   2.255  -4.518  0.00  0.00     0.003 A 
ENDROOT
TORSDOF 0
ENDMDL
