MODEL 1
REMARK minimizedAffinity -3.63284016
REMARK minimizedRMSD -1
REMARK  0 active torsions:
REMARK  status: ('A' for Active; 'I' for Inactive)
ROOT
ATOM      1  C2' OXE d   1      -1.122  -0.253   3.184  0.00  0.00     0.078 C 
ATOM      2  C1' OXE d   1      -2.736  -0.141   0.890  0.00  0.00     0.078 C 
ATOM      3  C1  OXE d   1      -1.259   0.116   0.724  0.00  0.00    -0.078 A 
ATOM      4  C2  OXE d   1      -0.484   0.105   1.859  0.00  0.00    -0.078 A 
ATOM      5  C3  OXE d   1       0.892   0.282   1.755  0.00  0.00     0.003 A 
ATOM      6  C4  OXE d   1       1.473   0.622   0.527  0.00  0.00    -0.002 A 
ATOM      7  C5  OXE d   1       0.695   0.677  -0.635  0.00  0.00    -0.002 A 
ATOM      8  C6  OXE d   1      -0.662   0.386  -0.561  0.00  0.00     0.003 A 
ENDROOT
TORSDOF 0
ENDMDL
