MODEL 1
REMARK minimizedAffinity -2.57389641
REMARK minimizedRMSD -1
REMARK  0 active torsions:
REMARK  status: ('A' for Active; 'I' for Inactive)
ROOT
ATOM      1  C2' OXE d   1      -0.741  -0.653   2.692  0.00  0.00     0.078 C 
ATOM      2  C1' OXE d   1      -2.777  -0.476   0.768  0.00  0.00     0.078 C 
ATOM      3  C1  OXE d   1      -1.381  -0.081   0.354  0.00  0.00    -0.078 A 
ATOM      4  C2  OXE d   1      -0.400  -0.126   1.315  0.00  0.00    -0.078 A 
ATOM      5  C3  OXE d   1       0.915   0.176   0.972  0.00  0.00     0.003 A 
ATOM      6  C4  OXE d   1       1.220   0.672  -0.301  0.00  0.00    -0.002 A 
ATOM      7  C5  OXE d   1       0.228   0.764  -1.283  0.00  0.00    -0.002 A 
ATOM      8  C6  OXE d   1      -1.066   0.352  -0.985  0.00  0.00     0.003 A 
ENDROOT
TORSDOF 0
ENDMDL
