MODEL 1
REMARK minimizedAffinity -2.72381783
REMARK minimizedRMSD -1
REMARK  0 active torsions:
REMARK  status: ('A' for Active; 'I' for Inactive)
ROOT
ATOM      1  C2' OXE d   1      -2.570  -0.455   0.413  0.00  0.00     0.078 C 
ATOM      2  C1' OXE d   1      -0.970  -0.808   2.692  0.00  0.00     0.078 C 
ATOM      3  C1  OXE d   1      -0.329  -0.196   1.471  0.00  0.00    -0.078 A 
ATOM      4  C2  OXE d   1      -1.108  -0.070   0.345  0.00  0.00    -0.078 A 
ATOM      5  C3  OXE d   1      -0.582   0.537  -0.792  0.00  0.00     0.003 A 
ATOM      6  C4  OXE d   1       0.774   0.880  -0.849  0.00  0.00    -0.002 A 
ATOM      7  C5  OXE d   1       1.594   0.724   0.273  0.00  0.00    -0.002 A 
ATOM      8  C6  OXE d   1       1.049   0.228   1.452  0.00  0.00     0.003 A 
ENDROOT
TORSDOF 0
ENDMDL
