MODEL 1
REMARK minimizedAffinity -1.01965678
REMARK minimizedRMSD -1
REMARK  0 active torsions:
REMARK  status: ('A' for Active; 'I' for Inactive)
ROOT
ATOM      1  C2' OXE d   1      -0.017   0.632  -1.601  0.00  0.00     0.078 C 
ATOM      2  C1' OXE d   1      -2.292   0.140  -0.032  0.00  0.00     0.078 C 
ATOM      3  C1  OXE d   1      -0.950   0.143   0.657  0.00  0.00    -0.078 A 
ATOM      4  C2  OXE d   1       0.162   0.338  -0.127  0.00  0.00    -0.078 A 
ATOM      5  C3  OXE d   1       1.420   0.404   0.466  0.00  0.00     0.003 A 
ATOM      6  C4  OXE d   1       1.577   0.121   1.828  0.00  0.00    -0.002 A 
ATOM      7  C5  OXE d   1       0.461  -0.120   2.637  0.00  0.00    -0.002 A 
ATOM      8  C6  OXE d   1      -0.810  -0.070   2.076  0.00  0.00     0.003 A 
ENDROOT
TORSDOF 0
ENDMDL
