MODEL 1
REMARK minimizedAffinity -4.62521505
REMARK minimizedRMSD -1
REMARK  0 active torsions:
REMARK  status: ('A' for Active; 'I' for Inactive)
ROOT
ATOM      1  C2' OXE d   1       2.013   0.742   0.849  0.00  0.00     0.078 C 
ATOM      2  C1' OXE d   1       0.539   0.667  -1.539  0.00  0.00     0.078 C 
ATOM      3  C1  OXE d   1      -0.221   0.571  -0.240  0.00  0.00    -0.078 A 
ATOM      4  C2  OXE d   1       0.512   0.562   0.923  0.00  0.00    -0.078 A 
ATOM      5  C3  OXE d   1      -0.143   0.530   2.151  0.00  0.00     0.003 A 
ATOM      6  C4  OXE d   1      -1.531   0.353   2.210  0.00  0.00    -0.002 A 
ATOM      7  C5  OXE d   1      -2.293   0.320   1.037  0.00  0.00    -0.002 A 
ATOM      8  C6  OXE d   1      -1.659   0.470  -0.192  0.00  0.00     0.003 A 
ENDROOT
TORSDOF 0
ENDMDL
