MODEL 1
REMARK minimizedAffinity -4.74957991
REMARK minimizedRMSD -1
REMARK  0 active torsions:
REMARK  status: ('A' for Active; 'I' for Inactive)
ROOT
ATOM      1  C2' OXE d   1       0.503   0.322  -0.297  0.00  0.00     0.078 C 
ATOM      2  C1' OXE d   1       1.990  -0.966   1.705  0.00  0.00     0.078 C 
ATOM      3  C1  OXE d   1       0.581  -0.543   2.038  0.00  0.00    -0.078 A 
ATOM      4  C2  OXE d   1      -0.123   0.129   1.067  0.00  0.00    -0.078 A 
ATOM      5  C3  OXE d   1      -1.446   0.494   1.302  0.00  0.00     0.003 A 
ATOM      6  C4  OXE d   1      -2.014   0.320   2.570  0.00  0.00    -0.002 A 
ATOM      7  C5  OXE d   1      -1.301  -0.326   3.585  0.00  0.00    -0.002 A 
ATOM      8  C6  OXE d   1      -0.020  -0.800   3.323  0.00  0.00     0.003 A 
ENDROOT
TORSDOF 0
ENDMDL
