MODEL 1
REMARK minimizedAffinity -3.20938706
REMARK minimizedRMSD -1
REMARK  0 active torsions:
REMARK  status: ('A' for Active; 'I' for Inactive)
ROOT
ATOM      1  C2' OXE d   1      -0.880   1.418  -2.055  0.00  0.00     0.078 C 
ATOM      2  C1' OXE d   1       0.918   0.511  -0.099  0.00  0.00     0.078 C 
ATOM      3  C1  OXE d   1       0.972  -0.138  -1.459  0.00  0.00    -0.078 A 
ATOM      4  C2  OXE d   1       0.057   0.279  -2.396  0.00  0.00    -0.078 A 
ATOM      5  C3  OXE d   1       0.098  -0.248  -3.683  0.00  0.00     0.003 A 
ATOM      6  C4  OXE d   1       0.961  -1.308  -3.988  0.00  0.00    -0.002 A 
ATOM      7  C5  OXE d   1       1.874  -1.776  -3.036  0.00  0.00    -0.002 A 
ATOM      8  C6  OXE d   1       1.921  -1.174  -1.784  0.00  0.00     0.003 A 
ENDROOT
TORSDOF 0
ENDMDL
