MODEL 1
REMARK minimizedAffinity -4.49221802
REMARK minimizedRMSD -1
REMARK  0 active torsions:
REMARK  status: ('A' for Active; 'I' for Inactive)
ROOT
ATOM      1  C2' OXE d   1       1.857   1.172   0.471  0.00  0.00     0.078 C 
ATOM      2  C1' OXE d   1      -0.454   0.566  -1.003  0.00  0.00     0.078 C 
ATOM      3  C1  OXE d   1      -0.366   0.050   0.411  0.00  0.00    -0.078 A 
ATOM      4  C2  OXE d   1       0.788   0.312   1.110  0.00  0.00    -0.078 A 
ATOM      5  C3  OXE d   1       0.898  -0.094   2.437  0.00  0.00     0.003 A 
ATOM      6  C4  OXE d   1      -0.091  -0.898   3.016  0.00  0.00    -0.002 A 
ATOM      7  C5  OXE d   1      -1.257  -1.210   2.309  0.00  0.00    -0.002 A 
ATOM      8  C6  OXE d   1      -1.429  -0.709   1.024  0.00  0.00     0.003 A 
ENDROOT
TORSDOF 0
ENDMDL
