MODEL 1
REMARK minimizedAffinity -5.43390703
REMARK minimizedRMSD -1
REMARK  0 active torsions:
REMARK  status: ('A' for Active; 'I' for Inactive)
ROOT
ATOM      1  C2' OXE d   1      -2.817  -0.076   0.287  0.00  0.00     0.078 C 
ATOM      2  C1' OXE d   1      -0.322   0.317  -0.939  0.00  0.00     0.078 C 
ATOM      3  C1  OXE d   1      -0.345   0.090   0.552  0.00  0.00    -0.078 A 
ATOM      4  C2  OXE d   1      -1.574  -0.055   1.150  0.00  0.00    -0.078 A 
ATOM      5  C3  OXE d   1      -1.649  -0.321   2.514  0.00  0.00     0.003 A 
ATOM      6  C4  OXE d   1      -0.495  -0.290   3.307  0.00  0.00    -0.002 A 
ATOM      7  C5  OXE d   1       0.763  -0.104   2.723  0.00  0.00    -0.002 A 
ATOM      8  C6  OXE d   1       0.859   0.044   1.344  0.00  0.00     0.003 A 
ENDROOT
TORSDOF 0
ENDMDL
