MODEL 1
REMARK minimizedAffinity -3.4653542
REMARK minimizedRMSD -1
REMARK  0 active torsions:
REMARK  status: ('A' for Active; 'I' for Inactive)
ROOT
ATOM      1  C2' OXE d   1      -0.640  -0.524   2.881  0.00  0.00     0.078 C 
ATOM      2  C1' OXE d   1      -2.690  -0.208   0.990  0.00  0.00     0.078 C 
ATOM      3  C1  OXE d   1      -1.268  -0.003   0.528  0.00  0.00    -0.078 A 
ATOM      4  C2  OXE d   1      -0.275  -0.114   1.471  0.00  0.00    -0.078 A 
ATOM      5  C3  OXE d   1       1.057   0.011   1.087  0.00  0.00     0.003 A 
ATOM      6  C4  OXE d   1       1.385   0.401  -0.217  0.00  0.00    -0.002 A 
ATOM      7  C5  OXE d   1       0.386   0.557  -1.184  0.00  0.00    -0.002 A 
ATOM      8  C6  OXE d   1      -0.940   0.318  -0.839  0.00  0.00     0.003 A 
ENDROOT
TORSDOF 0
ENDMDL
