MODEL 1
REMARK minimizedAffinity -5.52675152
REMARK minimizedRMSD -1
REMARK  0 active torsions:
REMARK  status: ('A' for Active; 'I' for Inactive)
ROOT
ATOM      1  C2' OXE d   1      -1.230  -0.853   2.719  0.00  0.00     0.078 C 
ATOM      2  C1' OXE d   1      -3.467  -0.064   1.218  0.00  0.00     0.078 C 
ATOM      3  C1  OXE d   1      -2.106   0.094   0.588  0.00  0.00    -0.078 A 
ATOM      4  C2  OXE d   1      -1.014  -0.251   1.348  0.00  0.00    -0.078 A 
ATOM      5  C3  OXE d   1       0.262  -0.176   0.795  0.00  0.00     0.003 A 
ATOM      6  C4  OXE d   1       0.454   0.392  -0.470  0.00  0.00    -0.002 A 
ATOM      7  C5  OXE d   1      -0.642   0.786  -1.245  0.00  0.00    -0.002 A 
ATOM      8  C6  OXE d   1      -1.928   0.605  -0.749  0.00  0.00     0.003 A 
ENDROOT
TORSDOF 0
ENDMDL
