MODEL 1
REMARK minimizedAffinity -5.28629446
REMARK minimizedRMSD -1
REMARK  0 active torsions:
REMARK  status: ('A' for Active; 'I' for Inactive)
ROOT
ATOM      1  C2' OXE d   1       1.477  -0.005   0.725  0.00  0.00     0.078 C 
ATOM      2  C1' OXE d   1      -0.666   0.171  -1.080  0.00  0.00     0.078 C 
ATOM      3  C1  OXE d   1      -0.990   0.078   0.390  0.00  0.00    -0.078 A 
ATOM      4  C2  OXE d   1       0.063  -0.055   1.263  0.00  0.00    -0.078 A 
ATOM      5  C3  OXE d   1      -0.177  -0.090   2.633  0.00  0.00     0.003 A 
ATOM      6  C4  OXE d   1      -1.488  -0.145   3.122  0.00  0.00    -0.002 A 
ATOM      7  C5  OXE d   1      -2.576  -0.051   2.248  0.00  0.00    -0.002 A 
ATOM      8  C6  OXE d   1      -2.344   0.103   0.885  0.00  0.00     0.003 A 
ENDROOT
TORSDOF 0
ENDMDL
