MODEL 1
REMARK minimizedAffinity -2.81046009
REMARK minimizedRMSD -1
REMARK  0 active torsions:
REMARK  status: ('A' for Active; 'I' for Inactive)
ROOT
ATOM      1  C2' OXE d   1       0.025  -0.336  -1.092  0.00  0.00     0.078 C 
ATOM      2  C1' OXE d   1       1.912   0.854   0.611  0.00  0.00     0.078 C 
ATOM      3  C1  OXE d   1       0.601   0.412   1.213  0.00  0.00    -0.078 A 
ATOM      4  C2  OXE d   1      -0.334  -0.127   0.363  0.00  0.00    -0.078 A 
ATOM      5  C3  OXE d   1      -1.539  -0.601   0.875  0.00  0.00     0.003 A 
ATOM      6  C4  OXE d   1      -1.867  -0.395   2.220  0.00  0.00    -0.002 A 
ATOM      7  C5  OXE d   1      -0.944   0.188   3.095  0.00  0.00    -0.002 A 
ATOM      8  C6  OXE d   1       0.309   0.557   2.617  0.00  0.00     0.003 A 
ENDROOT
TORSDOF 0
ENDMDL
