MODEL 1
REMARK minimizedAffinity -3.93614697
REMARK minimizedRMSD -1
REMARK  0 active torsions:
REMARK  status: ('A' for Active; 'I' for Inactive)
ROOT
ATOM      1  C2' OXE d   1       1.688   0.217   1.134  0.00  0.00     0.078 C 
ATOM      2  C1' OXE d   1      -0.290  -0.082  -0.834  0.00  0.00     0.078 C 
ATOM      3  C1  OXE d   1      -0.718  -0.159   0.611  0.00  0.00    -0.078 A 
ATOM      4  C2  OXE d   1       0.264  -0.058   1.566  0.00  0.00    -0.078 A 
ATOM      5  C3  OXE d   1      -0.082  -0.067   2.915  0.00  0.00     0.003 A 
ATOM      6  C4  OXE d   1      -1.400  -0.333   3.306  0.00  0.00    -0.002 A 
ATOM      7  C5  OXE d   1      -2.409  -0.478   2.348  0.00  0.00    -0.002 A 
ATOM      8  C6  OXE d   1      -2.093  -0.352   1.000  0.00  0.00     0.003 A 
ENDROOT
TORSDOF 0
ENDMDL
