MODEL 1
REMARK minimizedAffinity -4.75702286
REMARK minimizedRMSD -1
REMARK  0 active torsions:
REMARK  status: ('A' for Active; 'I' for Inactive)
ROOT
ATOM      1  C2' OXE d   1      -1.096  -0.419   3.319  0.00  0.00     0.078 C 
ATOM      2  C1' OXE d   1      -3.149   0.314   1.551  0.00  0.00     0.078 C 
ATOM      3  C1  OXE d   1      -1.754   0.179   0.992  0.00  0.00    -0.078 A 
ATOM      4  C2  OXE d   1      -0.748  -0.135   1.874  0.00  0.00    -0.078 A 
ATOM      5  C3  OXE d   1       0.548  -0.325   1.401  0.00  0.00     0.003 A 
ATOM      6  C4  OXE d   1       0.862  -0.050   0.065  0.00  0.00    -0.002 A 
ATOM      7  C5  OXE d   1      -0.141   0.309  -0.841  0.00  0.00    -0.002 A 
ATOM      8  C6  OXE d   1      -1.458   0.386  -0.404  0.00  0.00     0.003 A 
ENDROOT
TORSDOF 0
ENDMDL
