MODEL 1
REMARK minimizedAffinity -2.94228148
REMARK minimizedRMSD -1
REMARK  2 active torsions:
REMARK  status: ('A' for Active; 'I' for Inactive)
REMARK    1  A    between atoms: C1_2  and  C2_3 
REMARK    2  A    between atoms: C2_3  and  C3_4 
ROOT
ATOM      1  C3  UNL d   1       0.456  -0.059  -0.392  0.00  0.00    -0.075 A 
ATOM      2  C4  UNL d   1       0.847  -1.019  -1.337  0.00  0.00     0.002 A 
ATOM      3  C5  UNL d   1       0.777  -2.379  -1.036  0.00  0.00     0.002 A 
ATOM      4  C6  UNL d   1       0.324  -2.796   0.214  0.00  0.00    -0.004 A 
ATOM      5  C7  UNL d   1      -0.051  -1.851   1.166  0.00  0.00     0.002 A 
ATOM      6  C8  UNL d   1       0.014  -0.489   0.866  0.00  0.00     0.002 A 
ENDROOT
BRANCH   1   7
ATOM      7  C2  UNL d   1       0.502   1.414  -0.722  0.00  0.00     0.056 C 
BRANCH   7   8
ATOM      8  C1  UNL d   1       0.087   1.744  -2.160  0.00  0.00     0.007 C 
ATOM      9  C   UNL d   1       1.259   2.138  -3.048  0.00  0.00     0.009 C 
ENDBRANCH   7   8
ENDBRANCH   1   7
TORSDOF 2
ENDMDL
