MODEL 1
REMARK minimizedAffinity -2.66555381
REMARK minimizedRMSD -1
REMARK  2 active torsions:
REMARK  status: ('A' for Active; 'I' for Inactive)
REMARK    1  A    between atoms: C1_2  and  C2_3 
REMARK    2  A    between atoms: C2_3  and  C3_4 
ROOT
ATOM      1  C3  UNL d   1       0.583   0.771  -0.229  0.00  0.00    -0.075 A 
ATOM      2  C4  UNL d   1       1.335   0.108   0.753  0.00  0.00     0.002 A 
ATOM      3  C5  UNL d   1       1.198  -1.267   0.941  0.00  0.00     0.002 A 
ATOM      4  C6  UNL d   1       0.303  -1.995   0.161  0.00  0.00    -0.004 A 
ATOM      5  C7  UNL d   1      -0.462  -1.345  -0.806  0.00  0.00     0.002 A 
ATOM      6  C8  UNL d   1      -0.323   0.031  -1.000  0.00  0.00     0.002 A 
ENDROOT
BRANCH   1   7
ATOM      7  C2  UNL d   1       0.748   2.254  -0.458  0.00  0.00     0.056 C 
BRANCH   7   8
ATOM      8  C1  UNL d   1       1.785   2.608  -1.529  0.00  0.00     0.007 C 
ATOM      9  C   UNL d   1       1.207   2.636  -2.938  0.00  0.00     0.009 C 
ENDBRANCH   7   8
ENDBRANCH   1   7
TORSDOF 2
ENDMDL
