MODEL 1
REMARK minimizedAffinity -2.96087742
REMARK minimizedRMSD -1
REMARK  2 active torsions:
REMARK  status: ('A' for Active; 'I' for Inactive)
REMARK    1  A    between atoms: C1_2  and  C2_3 
REMARK    2  A    between atoms: C2_3  and  C3_4 
ROOT
ATOM      1  C3  UNL d   1       0.232  -0.188   0.248  0.00  0.00    -0.075 A 
ATOM      2  C4  UNL d   1      -0.943  -0.086   1.007  0.00  0.00     0.002 A 
ATOM      3  C5  UNL d   1      -1.470  -1.205   1.651  0.00  0.00     0.002 A 
ATOM      4  C6  UNL d   1      -0.837  -2.441   1.537  0.00  0.00    -0.004 A 
ATOM      5  C7  UNL d   1       0.322  -2.558   0.772  0.00  0.00     0.002 A 
ATOM      6  C8  UNL d   1       0.854  -1.438   0.130  0.00  0.00     0.002 A 
ENDROOT
BRANCH   1   7
ATOM      7  C2  UNL d   1       0.824   1.026  -0.427  0.00  0.00     0.056 C 
BRANCH   7   8
ATOM      8  C1  UNL d   1       0.204   1.345  -1.792  0.00  0.00     0.007 C 
ATOM      9  C   UNL d   1       1.127   2.150  -2.697  0.00  0.00     0.009 C 
ENDBRANCH   7   8
ENDBRANCH   1   7
TORSDOF 2
ENDMDL
