MODEL 1
REMARK minimizedAffinity -2.05435848
REMARK minimizedRMSD -1
REMARK  2 active torsions:
REMARK  status: ('A' for Active; 'I' for Inactive)
REMARK    1  A    between atoms: C1_2  and  C2_3 
REMARK    2  A    between atoms: C2_3  and  C3_4 
ROOT
ATOM      1  C3  UNL d   1      -1.255  -1.330   1.450  0.00  0.00    -0.075 A 
ATOM      2  C4  UNL d   1      -0.617  -0.414   0.601  0.00  0.00     0.002 A 
ATOM      3  C5  UNL d   1       0.168  -0.862  -0.462  0.00  0.00     0.002 A 
ATOM      4  C6  UNL d   1       0.333  -2.227  -0.683  0.00  0.00    -0.004 A 
ATOM      5  C7  UNL d   1      -0.282  -3.146   0.164  0.00  0.00     0.002 A 
ATOM      6  C8  UNL d   1      -1.072  -2.701   1.226  0.00  0.00     0.002 A 
ENDROOT
BRANCH   1   7
ATOM      7  C2  UNL d   1      -2.129  -0.852   2.585  0.00  0.00     0.056 C 
BRANCH   7   8
ATOM      8  C1  UNL d   1      -2.570   0.610   2.459  0.00  0.00     0.007 C 
ATOM      9  C   UNL d   1      -4.002   0.764   1.965  0.00  0.00     0.009 C 
ENDBRANCH   7   8
ENDBRANCH   1   7
TORSDOF 2
ENDMDL
