MODEL 1
REMARK minimizedAffinity -2.18119812
REMARK minimizedRMSD -1
REMARK  2 active torsions:
REMARK  status: ('A' for Active; 'I' for Inactive)
REMARK    1  A    between atoms: C1_2  and  C2_3 
REMARK    2  A    between atoms: C2_3  and  C3_4 
ROOT
ATOM      1  C3  UNL d   1       0.481   0.612  -0.791  0.00  0.00    -0.075 A 
ATOM      2  C4  UNL d   1       0.907   0.467   0.538  0.00  0.00     0.002 A 
ATOM      3  C5  UNL d   1       0.949  -0.793   1.135  0.00  0.00     0.002 A 
ATOM      4  C6  UNL d   1       0.557  -1.921   0.417  0.00  0.00    -0.004 A 
ATOM      5  C7  UNL d   1       0.116  -1.787  -0.898  0.00  0.00     0.002 A 
ATOM      6  C8  UNL d   1       0.078  -0.528  -1.499  0.00  0.00     0.002 A 
ENDROOT
BRANCH   1   7
ATOM      7  C2  UNL d   1       0.462   1.969  -1.452  0.00  0.00     0.056 C 
BRANCH   7   8
ATOM      8  C1  UNL d   1       1.690   2.257  -2.322  0.00  0.00     0.007 C 
ATOM      9  C   UNL d   1       1.526   1.796  -3.764  0.00  0.00     0.009 C 
ENDBRANCH   7   8
ENDBRANCH   1   7
TORSDOF 2
ENDMDL
