MODEL 1
REMARK minimizedAffinity -0.551301062
REMARK minimizedRMSD -1
REMARK  2 active torsions:
REMARK  status: ('A' for Active; 'I' for Inactive)
REMARK    1  A    between atoms: C1_2  and  C2_3 
REMARK    2  A    between atoms: C2_3  and  C3_4 
ROOT
ATOM      1  C3  UNL d   1      -1.504  -0.795   0.305  0.00  0.00    -0.075 A 
ATOM      2  C4  UNL d   1      -0.218  -0.830  -0.255  0.00  0.00     0.002 A 
ATOM      3  C5  UNL d   1       0.609   0.292  -0.199  0.00  0.00     0.002 A 
ATOM      4  C6  UNL d   1       0.160   1.464   0.405  0.00  0.00    -0.004 A 
ATOM      5  C7  UNL d   1      -1.121   1.515   0.949  0.00  0.00     0.002 A 
ATOM      6  C8  UNL d   1      -1.950   0.393   0.899  0.00  0.00     0.002 A 
ENDROOT
BRANCH   1   7
ATOM      7  C2  UNL d   1      -2.394  -2.014   0.274  0.00  0.00     0.056 C 
BRANCH   7   8
ATOM      8  C1  UNL d   1      -2.106  -3.024   1.390  0.00  0.00     0.007 C 
ATOM      9  C   UNL d   1      -0.878  -2.670   2.218  0.00  0.00     0.009 C 
ENDBRANCH   7   8
ENDBRANCH   1   7
TORSDOF 2
ENDMDL
