MODEL 1
REMARK minimizedAffinity -4.16998196
REMARK minimizedRMSD -1
REMARK  2 active torsions:
REMARK  status: ('A' for Active; 'I' for Inactive)
REMARK    1  A    between atoms: C1_2  and  C2_3 
REMARK    2  A    between atoms: C2_3  and  C3_4 
ROOT
ATOM      1  C3  UNL d   1      -0.146   0.580   0.309  0.00  0.00    -0.075 A 
ATOM      2  C4  UNL d   1      -1.405   0.871   0.854  0.00  0.00     0.002 A 
ATOM      3  C5  UNL d   1      -2.141  -0.119   1.503  0.00  0.00     0.002 A 
ATOM      4  C6  UNL d   1      -1.635  -1.413   1.607  0.00  0.00    -0.004 A 
ATOM      5  C7  UNL d   1      -0.393  -1.718   1.055  0.00  0.00     0.002 A 
ATOM      6  C8  UNL d   1       0.348  -0.728   0.408  0.00  0.00     0.002 A 
ENDROOT
BRANCH   1   7
ATOM      7  C2  UNL d   1       0.670   1.655  -0.370  0.00  0.00     0.056 C 
BRANCH   7   8
ATOM      8  C1  UNL d   1       0.186   2.008  -1.780  0.00  0.00     0.007 C 
ATOM      9  C   UNL d   1       1.319   2.382  -2.727  0.00  0.00     0.009 C 
ENDBRANCH   7   8
ENDBRANCH   1   7
TORSDOF 2
ENDMDL
