MODEL 1
REMARK minimizedAffinity -5.58219385
REMARK minimizedRMSD -1
REMARK  2 active torsions:
REMARK  status: ('A' for Active; 'I' for Inactive)
REMARK    1  A    between atoms: C1_2  and  C2_3 
REMARK    2  A    between atoms: C2_3  and  C3_4 
ROOT
ATOM      1  C3  UNL d   1       0.155   0.210   0.155  0.00  0.00    -0.075 A 
ATOM      2  C4  UNL d   1      -1.002   0.424   0.917  0.00  0.00     0.002 A 
ATOM      3  C5  UNL d   1      -1.572  -0.618   1.649  0.00  0.00     0.002 A 
ATOM      4  C6  UNL d   1      -1.000  -1.888   1.619  0.00  0.00    -0.004 A 
ATOM      5  C7  UNL d   1       0.140  -2.116   0.852  0.00  0.00     0.002 A 
ATOM      6  C8  UNL d   1       0.715  -1.074   0.123  0.00  0.00     0.002 A 
ENDROOT
BRANCH   1   7
ATOM      7  C2  UNL d   1       0.793   1.341  -0.615  0.00  0.00     0.056 C 
BRANCH   7   8
ATOM      8  C1  UNL d   1       0.136   1.622  -1.970  0.00  0.00     0.007 C 
ATOM      9  C   UNL d   1       1.115   2.134  -3.019  0.00  0.00     0.009 C 
ENDBRANCH   7   8
ENDBRANCH   1   7
TORSDOF 2
ENDMDL
