MODEL 1
REMARK minimizedAffinity -5.17797327
REMARK minimizedRMSD -1
REMARK  2 active torsions:
REMARK  status: ('A' for Active; 'I' for Inactive)
REMARK    1  A    between atoms: C1_2  and  C2_3 
REMARK    2  A    between atoms: C2_3  and  C3_4 
ROOT
ATOM      1  C3  UNL d   1       0.618  -0.684  -0.230  0.00  0.00    -0.075 A 
ATOM      2  C4  UNL d   1       0.682  -1.156  -1.549  0.00  0.00     0.002 A 
ATOM      3  C5  UNL d   1       0.813  -0.265  -2.614  0.00  0.00     0.002 A 
ATOM      4  C6  UNL d   1       0.871   1.106  -2.377  0.00  0.00    -0.004 A 
ATOM      5  C7  UNL d   1       0.792   1.587  -1.072  0.00  0.00     0.002 A 
ATOM      6  C8  UNL d   1       0.665   0.698  -0.003  0.00  0.00     0.002 A 
ENDROOT
BRANCH   1   7
ATOM      7  C2  UNL d   1       0.506  -1.645   0.930  0.00  0.00     0.056 C 
BRANCH   7   8
ATOM      8  C1  UNL d   1      -0.910  -2.184   1.159  0.00  0.00     0.007 C 
ATOM      9  C   UNL d   1      -1.610  -1.545   2.350  0.00  0.00     0.009 C 
ENDBRANCH   7   8
ENDBRANCH   1   7
TORSDOF 2
ENDMDL
