MODEL 1
REMARK minimizedAffinity -3.49221373
REMARK minimizedRMSD -1
REMARK  2 active torsions:
REMARK  status: ('A' for Active; 'I' for Inactive)
REMARK    1  A    between atoms: C1_2  and  C2_3 
REMARK    2  A    between atoms: C2_3  and  C3_4 
ROOT
ATOM      1  C3  UNL d   1       0.267   0.057  -0.277  0.00  0.00    -0.075 A 
ATOM      2  C4  UNL d   1      -0.705  -0.256   0.685  0.00  0.00     0.002 A 
ATOM      3  C5  UNL d   1      -0.744  -1.524   1.265  0.00  0.00     0.002 A 
ATOM      4  C6  UNL d   1       0.178  -2.496   0.885  0.00  0.00    -0.004 A 
ATOM      5  C7  UNL d   1       1.138  -2.201  -0.081  0.00  0.00     0.002 A 
ATOM      6  C8  UNL d   1       1.182  -0.932  -0.660  0.00  0.00     0.002 A 
ENDROOT
BRANCH   1   7
ATOM      7  C2  UNL d   1       0.333   1.437  -0.887  0.00  0.00     0.056 C 
BRANCH   7   8
ATOM      8  C1  UNL d   1       1.564   1.670  -1.769  0.00  0.00     0.007 C 
ATOM      9  C   UNL d   1       1.217   1.901  -3.234  0.00  0.00     0.009 C 
ENDBRANCH   7   8
ENDBRANCH   1   7
TORSDOF 2
ENDMDL
