MODEL 1
REMARK minimizedAffinity -3.28389382
REMARK minimizedRMSD -1
REMARK  1 active torsions:
REMARK  status: ('A' for Active; 'I' for Inactive)
REMARK    1  A    between atoms: C1_2  and  C2_3 
ROOT
ATOM      1  C2  UNL d   1      -0.118   0.621  -0.170  0.00  0.00    -0.081 A 
ATOM      2  C3  UNL d   1      -0.537  -0.439   0.644  0.00  0.00     0.006 A 
ATOM      3  C4  UNL d   1      -0.715  -1.716   0.107  0.00  0.00     0.002 A 
ATOM      4  C5  UNL d   1      -0.471  -1.957  -1.249  0.00  0.00    -0.080 A 
ATOM      5  C6  UNL d   1      -0.629  -3.330  -1.831  0.00  0.00     0.076 C 
ATOM      6  C7  UNL d   1      -0.069  -0.894  -2.066  0.00  0.00     0.002 A 
ATOM      7  C8  UNL d   1       0.109   0.383  -1.530  0.00  0.00     0.006 A 
ENDROOT
BRANCH   1   8
ATOM      8  C1  UNL d   1       0.138   1.985   0.419  0.00  0.00     0.054 C 
ATOM      9  C   UNL d   1       1.629   2.249   0.576  0.00  0.00     0.018 C 
ENDBRANCH   1   8
TORSDOF 1
ENDMDL
