MODEL 1
REMARK minimizedAffinity -0.536835611
REMARK minimizedRMSD -1
REMARK  1 active torsions:
REMARK  status: ('A' for Active; 'I' for Inactive)
REMARK    1  A    between atoms: C1_2  and  C2_3 
ROOT
ATOM      1  C2  UNL d   1      -0.735  -1.656   0.185  0.00  0.00    -0.081 A 
ATOM      2  C3  UNL d   1      -0.679  -0.896   1.359  0.00  0.00     0.006 A 
ATOM      3  C4  UNL d   1      -0.333   0.457   1.312  0.00  0.00     0.002 A 
ATOM      4  C5  UNL d   1      -0.045   1.073   0.089  0.00  0.00    -0.080 A 
ATOM      5  C6  UNL d   1       0.298   2.532   0.021  0.00  0.00     0.076 C 
ATOM      6  C7  UNL d   1      -0.084   0.310  -1.082  0.00  0.00     0.002 A 
ATOM      7  C8  UNL d   1      -0.429  -1.043  -1.035  0.00  0.00     0.006 A 
ENDROOT
BRANCH   1   8
ATOM      8  C1  UNL d   1      -1.170  -3.098   0.225  0.00  0.00     0.054 C 
ATOM      9  C   UNL d   1      -0.656  -3.866  -0.985  0.00  0.00     0.018 C 
ENDBRANCH   1   8
TORSDOF 1
ENDMDL
