MODEL 1
REMARK minimizedAffinity -5.24693537
REMARK minimizedRMSD -1
REMARK  1 active torsions:
REMARK  status: ('A' for Active; 'I' for Inactive)
REMARK    1  A    between atoms: C1_2  and  C2_3 
ROOT
ATOM      1  C2  UNL d   1      -0.424  -0.545   0.608  0.00  0.00    -0.081 A 
ATOM      2  C3  UNL d   1       0.628  -0.357   1.512  0.00  0.00     0.006 A 
ATOM      3  C4  UNL d   1       1.456   0.764   1.412  0.00  0.00     0.002 A 
ATOM      4  C5  UNL d   1       1.241   1.718   0.412  0.00  0.00    -0.080 A 
ATOM      5  C6  UNL d   1       2.103   2.941   0.312  0.00  0.00     0.076 C 
ATOM      6  C7  UNL d   1       0.200   1.522  -0.503  0.00  0.00     0.002 A 
ATOM      7  C8  UNL d   1      -0.627   0.401  -0.403  0.00  0.00     0.006 A 
ENDROOT
BRANCH   1   8
ATOM      8  C1  UNL d   1      -1.359  -1.719   0.752  0.00  0.00     0.054 C 
ATOM      9  C   UNL d   1      -0.804  -2.956   0.060  0.00  0.00     0.018 C 
ENDBRANCH   1   8
TORSDOF 1
ENDMDL
