MODEL 1
REMARK minimizedAffinity -4.46917868
REMARK minimizedRMSD -1
REMARK  1 active torsions:
REMARK  status: ('A' for Active; 'I' for Inactive)
REMARK    1  A    between atoms: C1_2  and  C2_3 
ROOT
ATOM      1  C2  UNL d   1       0.559  -1.382  -1.123  0.00  0.00    -0.081 A 
ATOM      2  C3  UNL d   1       0.778  -1.097   0.230  0.00  0.00     0.006 A 
ATOM      3  C4  UNL d   1       0.787   0.225   0.682  0.00  0.00     0.002 A 
ATOM      4  C5  UNL d   1       0.570   1.282  -0.209  0.00  0.00    -0.080 A 
ATOM      5  C6  UNL d   1       0.548   2.703   0.269  0.00  0.00     0.076 C 
ATOM      6  C7  UNL d   1       0.369   0.997  -1.564  0.00  0.00     0.002 A 
ATOM      7  C8  UNL d   1       0.360  -0.324  -2.017  0.00  0.00     0.006 A 
ENDROOT
BRANCH   1   8
ATOM      8  C1  UNL d   1       0.484  -2.809  -1.603  0.00  0.00     0.054 C 
ATOM      9  C   UNL d   1      -0.242  -3.693  -0.599  0.00  0.00     0.018 C 
ENDBRANCH   1   8
TORSDOF 1
ENDMDL
