MODEL 1
REMARK minimizedAffinity -4.57855129
REMARK minimizedRMSD -1
REMARK  1 active torsions:
REMARK  status: ('A' for Active; 'I' for Inactive)
REMARK    1  A    between atoms: C1_2  and  C2_3 
ROOT
ATOM      1  C2  UNL d   1      -0.463  -1.074   0.491  0.00  0.00    -0.081 A 
ATOM      2  C3  UNL d   1      -0.137  -0.307   1.616  0.00  0.00     0.006 A 
ATOM      3  C4  UNL d   1       0.403   0.973   1.469  0.00  0.00     0.002 A 
ATOM      4  C5  UNL d   1       0.617   1.510   0.195  0.00  0.00    -0.080 A 
ATOM      5  C6  UNL d   1       1.167   2.895   0.022  0.00  0.00     0.076 C 
ATOM      6  C7  UNL d   1       0.307   0.737  -0.929  0.00  0.00     0.002 A 
ATOM      7  C8  UNL d   1      -0.232  -0.543  -0.782  0.00  0.00     0.006 A 
ENDROOT
BRANCH   1   8
ATOM      8  C1  UNL d   1      -1.105  -2.429   0.647  0.00  0.00     0.054 C 
ATOM      9  C   UNL d   1      -0.441  -3.463  -0.251  0.00  0.00     0.018 C 
ENDBRANCH   1   8
TORSDOF 1
ENDMDL
