MODEL 1
REMARK minimizedAffinity -4.45319176
REMARK minimizedRMSD -1
REMARK  1 active torsions:
REMARK  status: ('A' for Active; 'I' for Inactive)
REMARK    1  A    between atoms: C1_2  and  C2_3 
ROOT
ATOM      1  C2  UNL d   1      -0.449   0.549  -0.480  0.00  0.00    -0.081 A 
ATOM      2  C3  UNL d   1      -0.901  -0.035   0.710  0.00  0.00     0.006 A 
ATOM      3  C4  UNL d   1      -0.827  -1.417   0.892  0.00  0.00     0.002 A 
ATOM      4  C5  UNL d   1      -0.292  -2.238  -0.107  0.00  0.00    -0.080 A 
ATOM      5  C6  UNL d   1      -0.179  -3.721   0.089  0.00  0.00     0.076 C 
ATOM      6  C7  UNL d   1       0.144  -1.656  -1.302  0.00  0.00     0.002 A 
ATOM      7  C8  UNL d   1       0.069  -0.274  -1.486  0.00  0.00     0.006 A 
ENDROOT
BRANCH   1   8
ATOM      8  C1  UNL d   1      -0.468   2.047  -0.654  0.00  0.00     0.054 C 
ATOM      9  C   UNL d   1       0.590   2.718   0.210  0.00  0.00     0.018 C 
ENDBRANCH   1   8
TORSDOF 1
ENDMDL
