MODEL 1
REMARK minimizedAffinity -4.64006472
REMARK minimizedRMSD -1
REMARK  1 active torsions:
REMARK  status: ('A' for Active; 'I' for Inactive)
REMARK    1  A    between atoms: C1_2  and  C2_3 
ROOT
ATOM      1  C2  UNL d   1      -0.522  -0.577   0.841  0.00  0.00    -0.081 A 
ATOM      2  C3  UNL d   1       0.726  -0.450   1.463  0.00  0.00     0.006 A 
ATOM      3  C4  UNL d   1       1.554   0.637   1.173  0.00  0.00     0.002 A 
ATOM      4  C5  UNL d   1       1.146   1.618   0.264  0.00  0.00    -0.080 A 
ATOM      5  C6  UNL d   1       2.012   2.806  -0.033  0.00  0.00     0.076 C 
ATOM      6  C7  UNL d   1      -0.094   1.483  -0.371  0.00  0.00     0.002 A 
ATOM      7  C8  UNL d   1      -0.922   0.396  -0.082  0.00  0.00     0.006 A 
ENDROOT
BRANCH   1   8
ATOM      8  C1  UNL d   1      -1.446  -1.713   1.199  0.00  0.00     0.054 C 
ATOM      9  C   UNL d   1      -1.053  -2.994   0.477  0.00  0.00     0.018 C 
ENDBRANCH   1   8
TORSDOF 1
ENDMDL
