MODEL 1
REMARK minimizedAffinity -1.26555598
REMARK minimizedRMSD -1
REMARK  1 active torsions:
REMARK  status: ('A' for Active; 'I' for Inactive)
REMARK    1  A    between atoms: C1_2  and  C2_3 
ROOT
ATOM      1  C2  UNL d   1       0.123   1.201   0.306  0.00  0.00    -0.081 A 
ATOM      2  C3  UNL d   1      -0.351   0.747   1.543  0.00  0.00     0.006 A 
ATOM      3  C4  UNL d   1      -0.930  -0.519   1.659  0.00  0.00     0.002 A 
ATOM      4  C5  UNL d   1      -1.037  -1.355   0.543  0.00  0.00    -0.080 A 
ATOM      5  C6  UNL d   1      -1.628  -2.729   0.660  0.00  0.00     0.076 C 
ATOM      6  C7  UNL d   1      -0.579  -0.896  -0.697  0.00  0.00     0.002 A 
ATOM      7  C8  UNL d   1      -0.001   0.370  -0.813  0.00  0.00     0.006 A 
ENDROOT
BRANCH   1   8
ATOM      8  C1  UNL d   1       0.806   2.539   0.191  0.00  0.00     0.054 C 
ATOM      9  C   UNL d   1       2.002   2.633   1.127  0.00  0.00     0.018 C 
ENDBRANCH   1   8
TORSDOF 1
ENDMDL
