MODEL 1
REMARK minimizedAffinity -4.17149067
REMARK minimizedRMSD -1
REMARK  1 active torsions:
REMARK  status: ('A' for Active; 'I' for Inactive)
REMARK    1  A    between atoms: C1_2  and  C2_3 
ROOT
ATOM      1  C2  UNL d   1       0.742   1.418   0.226  0.00  0.00    -0.081 A 
ATOM      2  C3  UNL d   1       0.813   0.771   1.466  0.00  0.00     0.006 A 
ATOM      3  C4  UNL d   1       0.126  -0.426   1.681  0.00  0.00     0.002 A 
ATOM      4  C5  UNL d   1      -0.636  -1.000   0.658  0.00  0.00    -0.080 A 
ATOM      5  C6  UNL d   1      -1.354  -2.300   0.865  0.00  0.00     0.076 C 
ATOM      6  C7  UNL d   1      -0.721  -0.345  -0.575  0.00  0.00     0.002 A 
ATOM      7  C8  UNL d   1      -0.035   0.853  -0.790  0.00  0.00     0.006 A 
ENDROOT
BRANCH   1   8
ATOM      8  C1  UNL d   1       1.534   2.675  -0.029  0.00  0.00     0.054 C 
ATOM      9  C   UNL d   1       1.057   3.818   0.855  0.00  0.00     0.018 C 
ENDBRANCH   1   8
TORSDOF 1
ENDMDL
