MODEL 1
REMARK minimizedAffinity 1.75603127
REMARK minimizedRMSD -1
REMARK  0 active torsions:
REMARK  status: ('A' for Active; 'I' for Inactive)
ROOT
ATOM      1  C2' OXE d   1       2.581   2.340  -5.747  0.00  0.00     0.078 C 
ATOM      2  C1' OXE d   1       2.484   0.051  -4.125  0.00  0.00     0.078 C 
ATOM      3  C1  OXE d   1       1.653   1.241  -3.714  0.00  0.00    -0.078 A 
ATOM      4  C2  OXE d   1       1.743   2.373  -4.488  0.00  0.00    -0.078 A 
ATOM      5  C3  OXE d   1       0.955   3.480  -4.184  0.00  0.00     0.003 A 
ATOM      6  C4  OXE d   1       0.190   3.505  -3.012  0.00  0.00    -0.002 A 
ATOM      7  C5  OXE d   1       0.115   2.377  -2.188  0.00  0.00    -0.002 A 
ATOM      8  C6  OXE d   1       0.806   1.225  -2.547  0.00  0.00     0.003 A 
ENDROOT
TORSDOF 0
ENDMDL
