MODEL 1
REMARK minimizedAffinity -1.22494972
REMARK minimizedRMSD -1
REMARK  0 active torsions:
REMARK  status: ('A' for Active; 'I' for Inactive)
ROOT
ATOM      1  C2' OXE d   1      -0.065   0.043   2.659  0.00  0.00     0.078 C 
ATOM      2  C1' OXE d   1       1.923   1.382   1.199  0.00  0.00     0.078 C 
ATOM      3  C1  OXE d   1       0.927   0.551   0.431  0.00  0.00    -0.078 A 
ATOM      4  C2  OXE d   1      -0.014  -0.139   1.157  0.00  0.00    -0.078 A 
ATOM      5  C3  OXE d   1      -0.991  -0.877   0.495  0.00  0.00     0.003 A 
ATOM      6  C4  OXE d   1      -0.930  -1.048  -0.894  0.00  0.00    -0.002 A 
ATOM      7  C5  OXE d   1       0.044  -0.387  -1.649  0.00  0.00    -0.002 A 
ATOM      8  C6  OXE d   1       0.952   0.448  -1.007  0.00  0.00     0.003 A 
ENDROOT
TORSDOF 0
ENDMDL
