MODEL 1
REMARK minimizedAffinity -0.393740624
REMARK minimizedRMSD -1
REMARK  0 active torsions:
REMARK  status: ('A' for Active; 'I' for Inactive)
ROOT
ATOM      1  C2' OXE d   1      -1.129  -0.823   2.089  0.00  0.00     0.078 C 
ATOM      2  C1' OXE d   1      -3.143   0.209   0.429  0.00  0.00     0.078 C 
ATOM      3  C1  OXE d   1      -1.728   0.220  -0.092  0.00  0.00    -0.078 A 
ATOM      4  C2  OXE d   1      -0.743  -0.245   0.745  0.00  0.00    -0.078 A 
ATOM      5  C3  OXE d   1       0.573  -0.308   0.294  0.00  0.00     0.003 A 
ATOM      6  C4  OXE d   1       0.924   0.239  -0.946  0.00  0.00    -0.002 A 
ATOM      7  C5  OXE d   1      -0.059   0.753  -1.799  0.00  0.00    -0.002 A 
ATOM      8  C6  OXE d   1      -1.392   0.712  -1.405  0.00  0.00     0.003 A 
ENDROOT
TORSDOF 0
ENDMDL
