MODEL 1
REMARK minimizedAffinity -2.06294918
REMARK minimizedRMSD -1
REMARK  0 active torsions:
REMARK  status: ('A' for Active; 'I' for Inactive)
ROOT
ATOM      1  C2' OXE d   1      -3.063  -0.306   1.047  0.00  0.00     0.078 C 
ATOM      2  C1' OXE d   1      -1.121  -0.659   3.043  0.00  0.00     0.078 C 
ATOM      3  C1  OXE d   1      -0.654  -0.222   1.677  0.00  0.00    -0.078 A 
ATOM      4  C2  OXE d   1      -1.606  -0.096   0.694  0.00  0.00    -0.078 A 
ATOM      5  C3  OXE d   1      -1.237   0.357  -0.569  0.00  0.00     0.003 A 
ATOM      6  C4  OXE d   1       0.114   0.539  -0.890  0.00  0.00    -0.002 A 
ATOM      7  C5  OXE d   1       1.103   0.378   0.086  0.00  0.00    -0.002 A 
ATOM      8  C6  OXE d   1       0.733   0.041   1.383  0.00  0.00     0.003 A 
ENDROOT
TORSDOF 0
ENDMDL
