MODEL 1
REMARK minimizedAffinity -1.65896451
REMARK minimizedRMSD -1
REMARK  0 active torsions:
REMARK  status: ('A' for Active; 'I' for Inactive)
ROOT
ATOM      1  C2' OXE d   1       0.887   0.461  -0.156  0.00  0.00     0.078 C 
ATOM      2  C1' OXE d   1      -1.246   0.807  -1.947  0.00  0.00     0.078 C 
ATOM      3  C1  OXE d   1      -0.086  -0.048  -2.392  0.00  0.00    -0.078 A 
ATOM      4  C2  OXE d   1       0.974  -0.174  -1.527  0.00  0.00    -0.078 A 
ATOM      5  C3  OXE d   1       2.046  -0.996  -1.865  0.00  0.00     0.003 A 
ATOM      6  C4  OXE d   1       2.123  -1.571  -3.139  0.00  0.00    -0.002 A 
ATOM      7  C5  OXE d   1       1.072  -1.424  -4.050  0.00  0.00    -0.002 A 
ATOM      8  C6  OXE d   1      -0.056  -0.702  -3.677  0.00  0.00     0.003 A 
ENDROOT
TORSDOF 0
ENDMDL
