MODEL 1
REMARK minimizedAffinity -2.99563026
REMARK minimizedRMSD -1
REMARK  0 active torsions:
REMARK  status: ('A' for Active; 'I' for Inactive)
ROOT
ATOM      1  C2' OXE d   1      -0.829   0.726  -1.241  0.00  0.00     0.078 C 
ATOM      2  C1' OXE d   1      -2.783  -0.373   0.449  0.00  0.00     0.078 C 
ATOM      3  C1  OXE d   1      -1.373  -0.271   0.976  0.00  0.00    -0.078 A 
ATOM      4  C2  OXE d   1      -0.415   0.225   0.126  0.00  0.00    -0.078 A 
ATOM      5  C3  OXE d   1       0.891   0.391   0.580  0.00  0.00     0.003 A 
ATOM      6  C4  OXE d   1       1.268  -0.084   1.842  0.00  0.00    -0.002 A 
ATOM      7  C5  OXE d   1       0.315  -0.629   2.709  0.00  0.00    -0.002 A 
ATOM      8  C6  OXE d   1      -1.015  -0.691   2.309  0.00  0.00     0.003 A 
ENDROOT
TORSDOF 0
ENDMDL
