MODEL 1
REMARK minimizedAffinity -3.55706239
REMARK minimizedRMSD -1
REMARK  0 active torsions:
REMARK  status: ('A' for Active; 'I' for Inactive)
ROOT
ATOM      1  C2' OXE d   1      -1.006  -0.994   2.989  0.00  0.00     0.078 C 
ATOM      2  C1' OXE d   1      -2.778  -0.772   0.824  0.00  0.00     0.078 C 
ATOM      3  C1  OXE d   1      -1.361  -0.293   0.625  0.00  0.00    -0.078 A 
ATOM      4  C2  OXE d   1      -0.514  -0.363   1.705  0.00  0.00    -0.078 A 
ATOM      5  C3  OXE d   1       0.818   0.015   1.561  0.00  0.00     0.003 A 
ATOM      6  C4  OXE d   1       1.263   0.607   0.372  0.00  0.00    -0.002 A 
ATOM      7  C5  OXE d   1       0.405   0.723  -0.727  0.00  0.00    -0.002 A 
ATOM      8  C6  OXE d   1      -0.895   0.240  -0.631  0.00  0.00     0.003 A 
ENDROOT
TORSDOF 0
ENDMDL
