MODEL 1
REMARK minimizedAffinity 2.55215168
REMARK minimizedRMSD -1
REMARK  0 active torsions:
REMARK  status: ('A' for Active; 'I' for Inactive)
ROOT
ATOM      1  C2' OXE d   1       1.129  -0.829  -2.709  0.00  0.00     0.078 C 
ATOM      2  C1' OXE d   1       0.216   1.633  -1.717  0.00  0.00     0.078 C 
ATOM      3  C1  OXE d   1      -0.159   0.385  -0.956  0.00  0.00    -0.078 A 
ATOM      4  C2  OXE d   1       0.253  -0.819  -1.474  0.00  0.00    -0.078 A 
ATOM      5  C3  OXE d   1      -0.018  -1.996  -0.783  0.00  0.00     0.003 A 
ATOM      6  C4  OXE d   1      -0.837  -1.979   0.352  0.00  0.00    -0.002 A 
ATOM      7  C5  OXE d   1      -1.301  -0.767   0.875  0.00  0.00    -0.002 A 
ATOM      8  C6  OXE d   1      -0.936   0.425   0.258  0.00  0.00     0.003 A 
ENDROOT
TORSDOF 0
ENDMDL
