MODEL 1
REMARK minimizedAffinity -3.86850166
REMARK minimizedRMSD -1
REMARK  0 active torsions:
REMARK  status: ('A' for Active; 'I' for Inactive)
ROOT
ATOM      1  C2' OXE d   1      -0.655  -0.860   0.656  0.00  0.00     0.078 C 
ATOM      2  C1' OXE d   1       1.109   1.244   0.069  0.00  0.00     0.078 C 
ATOM      3  C1  OXE d   1       0.921   0.172  -0.974  0.00  0.00    -0.078 A 
ATOM      4  C2  OXE d   1       0.093  -0.878  -0.660  0.00  0.00    -0.078 A 
ATOM      5  C3  OXE d   1      -0.158  -1.867  -1.608  0.00  0.00     0.003 A 
ATOM      6  C4  OXE d   1       0.545  -1.882  -2.819  0.00  0.00    -0.002 A 
ATOM      7  C5  OXE d   1       1.424  -0.843  -3.142  0.00  0.00    -0.002 A 
ATOM      8  C6  OXE d   1       1.591   0.211  -2.251  0.00  0.00     0.003 A 
ENDROOT
TORSDOF 0
ENDMDL
