MODEL 1
REMARK minimizedAffinity -3.85150242
REMARK minimizedRMSD -1
REMARK  0 active torsions:
REMARK  status: ('A' for Active; 'I' for Inactive)
ROOT
ATOM      1  C2' OXE d   1      -3.067  -0.799   0.724  0.00  0.00     0.078 C 
ATOM      2  C1' OXE d   1      -1.172  -1.015   2.784  0.00  0.00     0.078 C 
ATOM      3  C1  OXE d   1      -0.766  -0.284   1.528  0.00  0.00    -0.078 A 
ATOM      4  C2  OXE d   1      -1.684  -0.224   0.507  0.00  0.00    -0.078 A 
ATOM      5  C3  OXE d   1      -1.381   0.485  -0.652  0.00  0.00     0.003 A 
ATOM      6  C4  OXE d   1      -0.096   1.005  -0.849  0.00  0.00    -0.002 A 
ATOM      7  C5  OXE d   1       0.867   0.920   0.163  0.00  0.00    -0.002 A 
ATOM      8  C6  OXE d   1       0.535   0.317   1.371  0.00  0.00     0.003 A 
ENDROOT
TORSDOF 0
ENDMDL
