MODEL 1
REMARK minimizedAffinity -4.53161812
REMARK minimizedRMSD -1
REMARK  0 active torsions:
REMARK  status: ('A' for Active; 'I' for Inactive)
ROOT
ATOM      1  C2' OXE d   1      -2.538  -1.049   0.406  0.00  0.00     0.078 C 
ATOM      2  C1' OXE d   1      -0.583  -1.250   2.412  0.00  0.00     0.078 C 
ATOM      3  C1  OXE d   1      -0.268  -0.403   1.204  0.00  0.00    -0.078 A 
ATOM      4  C2  OXE d   1      -1.211  -0.348   0.206  0.00  0.00    -0.078 A 
ATOM      5  C3  OXE d   1      -0.994   0.462  -0.904  0.00  0.00     0.003 A 
ATOM      6  C4  OXE d   1       0.240   1.099  -1.086  0.00  0.00    -0.002 A 
ATOM      7  C5  OXE d   1       1.230   1.024  -0.100  0.00  0.00    -0.002 A 
ATOM      8  C6  OXE d   1       0.976   0.313   1.068  0.00  0.00     0.003 A 
ENDROOT
TORSDOF 0
ENDMDL
