MODEL 1
REMARK minimizedAffinity -0.436641216
REMARK minimizedRMSD -1
REMARK  0 active torsions:
REMARK  status: ('A' for Active; 'I' for Inactive)
ROOT
ATOM      1  C2' OXE d   1       1.181  -0.110  -0.022  0.00  0.00     0.078 C 
ATOM      2  C1' OXE d   1      -1.175   0.162  -1.523  0.00  0.00     0.078 C 
ATOM      3  C1  OXE d   1       0.008  -0.498  -2.185  0.00  0.00    -0.078 A 
ATOM      4  C2  OXE d   1       1.172  -0.585  -1.459  0.00  0.00    -0.078 A 
ATOM      5  C3  OXE d   1       2.277  -1.233  -2.003  0.00  0.00     0.003 A 
ATOM      6  C4  OXE d   1       2.263  -1.661  -3.336  0.00  0.00    -0.002 A 
ATOM      7  C5  OXE d   1       1.100  -1.546  -4.106  0.00  0.00    -0.002 A 
ATOM      8  C6  OXE d   1      -0.046  -1.007  -3.533  0.00  0.00     0.003 A 
ENDROOT
TORSDOF 0
ENDMDL
