MODEL 1
REMARK minimizedAffinity -5.47058296
REMARK minimizedRMSD -1
REMARK  0 active torsions:
REMARK  status: ('A' for Active; 'I' for Inactive)
ROOT
ATOM      1  C2' OXE d   1       1.445   1.206   1.070  0.00  0.00     0.078 C 
ATOM      2  C1' OXE d   1      -0.107  -0.287  -0.731  0.00  0.00     0.078 C 
ATOM      3  C1  OXE d   1      -0.493  -0.322   0.726  0.00  0.00    -0.078 A 
ATOM      4  C2  OXE d   1       0.300   0.374   1.607  0.00  0.00    -0.078 A 
ATOM      5  C3  OXE d   1      -0.043   0.420   2.955  0.00  0.00     0.003 A 
ATOM      6  C4  OXE d   1      -1.097  -0.360   3.445  0.00  0.00    -0.002 A 
ATOM      7  C5  OXE d   1      -1.893  -1.108   2.571  0.00  0.00    -0.002 A 
ATOM      8  C6  OXE d   1      -1.631  -1.066   1.206  0.00  0.00     0.003 A 
ENDROOT
TORSDOF 0
ENDMDL
