MODEL 1
REMARK minimizedAffinity -5.82305717
REMARK minimizedRMSD -1
REMARK  0 active torsions:
REMARK  status: ('A' for Active; 'I' for Inactive)
ROOT
ATOM      1  C2' OXE d   1      -0.622   0.739  -1.206  0.00  0.00     0.078 C 
ATOM      2  C1' OXE d   1      -2.685  -0.174   0.465  0.00  0.00     0.078 C 
ATOM      3  C1  OXE d   1      -1.276  -0.216   1.000  0.00  0.00    -0.078 A 
ATOM      4  C2  OXE d   1      -0.268   0.189   0.159  0.00  0.00    -0.078 A 
ATOM      5  C3  OXE d   1       1.045   0.222   0.621  0.00  0.00     0.003 A 
ATOM      6  C4  OXE d   1       1.366  -0.298   1.881  0.00  0.00    -0.002 A 
ATOM      7  C5  OXE d   1       0.359  -0.752   2.739  0.00  0.00    -0.002 A 
ATOM      8  C6  OXE d   1      -0.969  -0.679   2.331  0.00  0.00     0.003 A 
ENDROOT
TORSDOF 0
ENDMDL
