MODEL 1
REMARK minimizedAffinity -5.32375765
REMARK minimizedRMSD -1
REMARK  0 active torsions:
REMARK  status: ('A' for Active; 'I' for Inactive)
ROOT
ATOM      1  C2' OXE d   1       2.025   0.736   1.046  0.00  0.00     0.078 C 
ATOM      2  C1' OXE d   1       0.010   0.432  -0.884  0.00  0.00     0.078 C 
ATOM      3  C1  OXE d   1      -0.326   0.083   0.545  0.00  0.00    -0.078 A 
ATOM      4  C2  OXE d   1       0.680   0.190   1.475  0.00  0.00    -0.078 A 
ATOM      5  C3  OXE d   1       0.410  -0.067   2.816  0.00  0.00     0.003 A 
ATOM      6  C4  OXE d   1      -0.834  -0.581   3.202  0.00  0.00    -0.002 A 
ATOM      7  C5  OXE d   1      -1.860  -0.736   2.264  0.00  0.00    -0.002 A 
ATOM      8  C6  OXE d   1      -1.636  -0.369   0.941  0.00  0.00     0.003 A 
ENDROOT
TORSDOF 0
ENDMDL
