MODEL 1
REMARK minimizedAffinity -4.5092597
REMARK minimizedRMSD -1
REMARK  0 active torsions:
REMARK  status: ('A' for Active; 'I' for Inactive)
ROOT
ATOM      1  C2' OXE d   1      -2.628  -0.056   0.958  0.00  0.00     0.078 C 
ATOM      2  C1' OXE d   1      -0.735  -0.666   2.939  0.00  0.00     0.078 C 
ATOM      3  C1  OXE d   1      -0.235  -0.437   1.535  0.00  0.00    -0.078 A 
ATOM      4  C2  OXE d   1      -1.173  -0.185   0.563  0.00  0.00    -0.078 A 
ATOM      5  C3  OXE d   1      -0.761   0.087  -0.739  0.00  0.00     0.003 A 
ATOM      6  C4  OXE d   1       0.586  -0.044  -1.098  0.00  0.00    -0.002 A 
ATOM      7  C5  OXE d   1       1.553  -0.339  -0.131  0.00  0.00    -0.002 A 
ATOM      8  C6  OXE d   1       1.165  -0.496   1.195  0.00  0.00     0.003 A 
ENDROOT
TORSDOF 0
ENDMDL
