MODEL 1
REMARK minimizedAffinity -4.26955223
REMARK minimizedRMSD -1
REMARK  0 active torsions:
REMARK  status: ('A' for Active; 'I' for Inactive)
ROOT
ATOM      1  C2' OXE d   1      -2.581  -0.074   1.031  0.00  0.00     0.078 C 
ATOM      2  C1' OXE d   1      -0.869  -0.446   3.225  0.00  0.00     0.078 C 
ATOM      3  C1  OXE d   1      -0.244  -0.116   1.893  0.00  0.00    -0.078 A 
ATOM      4  C2  OXE d   1      -1.086   0.019   0.815  0.00  0.00    -0.078 A 
ATOM      5  C3  OXE d   1      -0.566   0.377  -0.426  0.00  0.00     0.003 A 
ATOM      6  C4  OXE d   1       0.819   0.450  -0.619  0.00  0.00    -0.002 A 
ATOM      7  C5  OXE d   1       1.696   0.278   0.456  0.00  0.00    -0.002 A 
ATOM      8  C6  OXE d   1       1.180   0.037   1.725  0.00  0.00     0.003 A 
ENDROOT
TORSDOF 0
ENDMDL
