MODEL 1
REMARK minimizedAffinity -4.06503057
REMARK minimizedRMSD -1
REMARK  0 active torsions:
REMARK  status: ('A' for Active; 'I' for Inactive)
ROOT
ATOM      1  C2' OXE d   1      -0.188  -0.067   3.098  0.00  0.00     0.078 C 
ATOM      2  C1' OXE d   1       2.016   0.066   1.365  0.00  0.00     0.078 C 
ATOM      3  C1  OXE d   1       0.641   0.218   0.766  0.00  0.00    -0.078 A 
ATOM      4  C2  OXE d   1      -0.435   0.105   1.615  0.00  0.00    -0.078 A 
ATOM      5  C3  OXE d   1      -1.723   0.292   1.123  0.00  0.00     0.003 A 
ATOM      6  C4  OXE d   1      -1.943   0.441  -0.252  0.00  0.00    -0.002 A 
ATOM      7  C5  OXE d   1      -0.864   0.519  -1.139  0.00  0.00    -0.002 A 
ATOM      8  C6  OXE d   1       0.433   0.452  -0.642  0.00  0.00     0.003 A 
ENDROOT
TORSDOF 0
ENDMDL
