MODEL 1
REMARK minimizedAffinity 6.37030363
REMARK minimizedRMSD -1
REMARK  1 active torsions:
REMARK  status: ('A' for Active; 'I' for Inactive)
REMARK    1  A    between atoms: C3_4  and  O_7 
ROOT
ATOM      1  C   UNL d   1       4.084   0.648  -5.583  0.00  0.00    -0.033 A 
ATOM      2  C1  UNL d   1       3.285   1.780  -5.413  0.00  0.00     0.039 A 
ATOM      3  C2  UNL d   1       3.842   3.054  -5.534  0.00  0.00    -0.080 A 
ATOM      4  C3  UNL d   1       5.197   3.183  -5.825  0.00  0.00     0.150 A 
ATOM      5  C4  UNL d   1       5.998   2.059  -6.000  0.00  0.00    -0.007 A 
ATOM      6  C5  UNL d   1       5.440   0.787  -5.878  0.00  0.00     0.039 A 
ENDROOT
BRANCH   4   7
ATOM      7  O   UNL d   1       5.786   4.406  -5.948  0.00  0.00    -0.526 OA
ATOM      8  H5  UNL d   1       5.117   5.089  -5.773  0.00  0.00     0.418 HD
ENDBRANCH   4   7
TORSDOF 1
ENDMDL
