MODEL 1
REMARK minimizedAffinity 1.65191376
REMARK minimizedRMSD -1
REMARK  1 active torsions:
REMARK  status: ('A' for Active; 'I' for Inactive)
REMARK    1  A    between atoms: C3_4  and  O_7 
ROOT
ATOM      1  C   UNL d   1       0.667   0.363   2.666  0.00  0.00    -0.033 A 
ATOM      2  C1  UNL d   1       1.624   0.283   3.681  0.00  0.00     0.039 A 
ATOM      3  C2  UNL d   1       1.972  -0.957   4.218  0.00  0.00    -0.080 A 
ATOM      4  C3  UNL d   1       1.359  -2.109   3.733  0.00  0.00     0.150 A 
ATOM      5  C4  UNL d   1       0.408  -2.037   2.720  0.00  0.00    -0.007 A 
ATOM      6  C5  UNL d   1       0.061  -0.798   2.185  0.00  0.00     0.039 A 
ENDROOT
BRANCH   4   7
ATOM      7  O   UNL d   1       1.663  -3.341   4.230  0.00  0.00    -0.526 OA
ATOM      8  H5  UNL d   1       2.313  -3.234   4.944  0.00  0.00     0.418 HD
ENDBRANCH   4   7
TORSDOF 1
ENDMDL
