MODEL 1
REMARK minimizedAffinity 5.13273954
REMARK minimizedRMSD -1
REMARK  1 active torsions:
REMARK  status: ('A' for Active; 'I' for Inactive)
REMARK    1  A    between atoms: C3_4  and  O_7 
ROOT
ATOM      1  C   UNL d   1      -0.076   0.131  -4.154  0.00  0.00    -0.033 A 
ATOM      2  C1  UNL d   1      -0.512  -0.791  -3.201  0.00  0.00     0.039 A 
ATOM      3  C2  UNL d   1      -1.086  -1.998  -3.605  0.00  0.00    -0.080 A 
ATOM      4  C3  UNL d   1      -1.216  -2.271  -4.964  0.00  0.00     0.150 A 
ATOM      5  C4  UNL d   1      -0.780  -1.358  -5.919  0.00  0.00    -0.007 A 
ATOM      6  C5  UNL d   1      -0.208  -0.153  -5.514  0.00  0.00     0.039 A 
ENDROOT
BRANCH   4   7
ATOM      7  O   UNL d   1      -1.774  -3.433  -5.407  0.00  0.00    -0.526 OA
ATOM      8  H5  UNL d   1      -2.055  -3.953  -4.635  0.00  0.00     0.418 HD
ENDBRANCH   4   7
TORSDOF 1
ENDMDL
