MODEL 1
REMARK minimizedAffinity 6.65853405
REMARK minimizedRMSD -1
REMARK  1 active torsions:
REMARK  status: ('A' for Active; 'I' for Inactive)
REMARK    1  A    between atoms: C3_4  and  O_7 
ROOT
ATOM      1  C   UNL d   1       5.430   2.907   3.917  0.00  0.00    -0.033 A 
ATOM      2  C1  UNL d   1       5.568   4.227   4.352  0.00  0.00     0.039 A 
ATOM      3  C2  UNL d   1       5.125   5.279   3.548  0.00  0.00    -0.080 A 
ATOM      4  C3  UNL d   1       4.546   4.998   2.313  0.00  0.00     0.150 A 
ATOM      5  C4  UNL d   1       4.402   3.686   1.875  0.00  0.00    -0.007 A 
ATOM      6  C5  UNL d   1       4.846   2.637   2.679  0.00  0.00     0.039 A 
ENDROOT
BRANCH   4   7
ATOM      7  O   UNL d   1       4.102   5.992   1.492  0.00  0.00    -0.526 OA
ATOM      8  H5  UNL d   1       4.293   6.847   1.912  0.00  0.00     0.418 HD
ENDBRANCH   4   7
TORSDOF 1
ENDMDL
