MODEL 1
REMARK minimizedAffinity 6.15288067
REMARK minimizedRMSD -1
REMARK  1 active torsions:
REMARK  status: ('A' for Active; 'I' for Inactive)
REMARK    1  A    between atoms: C3_4  and  O_7 
ROOT
ATOM      1  C   UNL d   1      -4.999   5.972  -2.839  0.00  0.00    -0.033 A 
ATOM      2  C1  UNL d   1      -5.169   5.972  -1.454  0.00  0.00     0.039 A 
ATOM      3  C2  UNL d   1      -4.056   5.982  -0.611  0.00  0.00    -0.080 A 
ATOM      4  C3  UNL d   1      -2.779   5.994  -1.167  0.00  0.00     0.150 A 
ATOM      5  C4  UNL d   1      -2.602   5.998  -2.546  0.00  0.00    -0.007 A 
ATOM      6  C5  UNL d   1      -3.715   5.987  -3.386  0.00  0.00     0.039 A 
ENDROOT
BRANCH   4   7
ATOM      7  O   UNL d   1      -1.662   5.999  -0.385  0.00  0.00    -0.526 OA
ATOM      8  H5  UNL d   1      -1.938   5.966   0.546  0.00  0.00     0.418 HD
ENDBRANCH   4   7
TORSDOF 1
ENDMDL
