MODEL 1
REMARK minimizedAffinity 8.19609165
REMARK minimizedRMSD -1
REMARK  1 active torsions:
REMARK  status: ('A' for Active; 'I' for Inactive)
REMARK    1  A    between atoms: C3_4  and  O_7 
ROOT
ATOM      1  C   UNL d   1       2.878  -1.738   4.685  0.00  0.00    -0.033 A 
ATOM      2  C1  UNL d   1       1.851  -2.627   4.360  0.00  0.00     0.039 A 
ATOM      3  C2  UNL d   1       0.796  -2.210   3.545  0.00  0.00    -0.080 A 
ATOM      4  C3  UNL d   1       0.781  -0.905   3.062  0.00  0.00     0.150 A 
ATOM      5  C4  UNL d   1       1.802  -0.015   3.378  0.00  0.00    -0.007 A 
ATOM      6  C5  UNL d   1       2.854  -0.433   4.193  0.00  0.00     0.039 A 
ENDROOT
BRANCH   4   7
ATOM      7  O   UNL d   1      -0.230  -0.451   2.268  0.00  0.00    -0.526 OA
ATOM      8  H5  UNL d   1      -0.879  -1.166   2.157  0.00  0.00     0.418 HD
ENDBRANCH   4   7
TORSDOF 1
ENDMDL
