MODEL 1
REMARK minimizedAffinity 13.2541466
REMARK minimizedRMSD -1
REMARK  1 active torsions:
REMARK  status: ('A' for Active; 'I' for Inactive)
REMARK    1  A    between atoms: C3_4  and  O_7 
ROOT
ATOM      1  C   UNL d   1      -1.334  -1.511  -4.124  0.00  0.00    -0.033 A 
ATOM      2  C1  UNL d   1      -0.607  -1.368  -5.307  0.00  0.00     0.039 A 
ATOM      3  C2  UNL d   1       0.684  -0.838  -5.276  0.00  0.00    -0.080 A 
ATOM      4  C3  UNL d   1       1.236  -0.457  -4.056  0.00  0.00     0.150 A 
ATOM      5  C4  UNL d   1       0.519  -0.600  -2.873  0.00  0.00    -0.007 A 
ATOM      6  C5  UNL d   1      -0.770  -1.129  -2.906  0.00  0.00     0.039 A 
ENDROOT
BRANCH   4   7
ATOM      7  O   UNL d   1       2.491   0.070  -3.975  0.00  0.00    -0.526 OA
ATOM      8  H5  UNL d   1       2.855   0.137  -4.874  0.00  0.00     0.418 HD
ENDBRANCH   4   7
TORSDOF 1
ENDMDL
