MODEL 1
REMARK minimizedAffinity 11.6460247
REMARK minimizedRMSD -1
REMARK  1 active torsions:
REMARK  status: ('A' for Active; 'I' for Inactive)
REMARK    1  A    between atoms: C3_4  and  O_7 
ROOT
ATOM      1  C   UNL d   1       5.855  -4.831   5.677  0.00  0.00    -0.033 A 
ATOM      2  C1  UNL d   1       4.898  -5.755   5.254  0.00  0.00     0.039 A 
ATOM      3  C2  UNL d   1       3.639  -5.317   4.837  0.00  0.00    -0.080 A 
ATOM      4  C3  UNL d   1       3.352  -3.955   4.847  0.00  0.00     0.150 A 
ATOM      5  C4  UNL d   1       4.302  -3.029   5.264  0.00  0.00    -0.007 A 
ATOM      6  C5  UNL d   1       5.558  -3.468   5.681  0.00  0.00     0.039 A 
ENDROOT
BRANCH   4   7
ATOM      7  O   UNL d   1       2.136  -3.480   4.453  0.00  0.00    -0.526 OA
ATOM      8  H5  UNL d   1       1.572  -4.235   4.219  0.00  0.00     0.418 HD
ENDBRANCH   4   7
TORSDOF 1
ENDMDL
