MODEL 1
REMARK minimizedAffinity 5.77693605
REMARK minimizedRMSD -1
REMARK  1 active torsions:
REMARK  status: ('A' for Active; 'I' for Inactive)
REMARK    1  A    between atoms: C3_4  and  O_7 
ROOT
ATOM      1  C   UNL d   1       1.270  -2.991   3.237  0.00  0.00    -0.033 A 
ATOM      2  C1  UNL d   1      -0.120  -2.862   3.279  0.00  0.00     0.039 A 
ATOM      3  C2  UNL d   1      -0.863  -3.597   4.204  0.00  0.00    -0.080 A 
ATOM      4  C3  UNL d   1      -0.206  -4.454   5.082  0.00  0.00     0.150 A 
ATOM      5  C4  UNL d   1       1.179  -4.584   5.049  0.00  0.00    -0.007 A 
ATOM      6  C5  UNL d   1       1.919  -3.850   4.124  0.00  0.00     0.039 A 
ENDROOT
BRANCH   4   7
ATOM      7  O   UNL d   1      -0.889  -5.196   6.000  0.00  0.00    -0.526 OA
ATOM      8  H5  UNL d   1      -1.839  -5.025   5.887  0.00  0.00     0.418 HD
ENDBRANCH   4   7
TORSDOF 1
ENDMDL
