MODEL 1
REMARK minimizedAffinity 9.46638012
REMARK minimizedRMSD -1
REMARK  1 active torsions:
REMARK  status: ('A' for Active; 'I' for Inactive)
REMARK    1  A    between atoms: C3_4  and  O_7 
ROOT
ATOM      1  C   UNL d   1      -5.995   5.333  -0.011  0.00  0.00    -0.033 A 
ATOM      2  C1  UNL d   1      -5.997   5.228  -1.404  0.00  0.00     0.039 A 
ATOM      3  C2  UNL d   1      -5.997   3.970  -2.011  0.00  0.00    -0.080 A 
ATOM      4  C3  UNL d   1      -5.997   2.828  -1.216  0.00  0.00     0.150 A 
ATOM      5  C4  UNL d   1      -5.998   2.925   0.172  0.00  0.00    -0.007 A 
ATOM      6  C5  UNL d   1      -5.997   4.181   0.776  0.00  0.00     0.039 A 
ENDROOT
BRANCH   4   7
ATOM      7  O   UNL d   1      -5.992   1.579  -1.762  0.00  0.00    -0.526 OA
ATOM      8  H5  UNL d   1      -5.962   1.667  -2.730  0.00  0.00     0.418 HD
ENDBRANCH   4   7
TORSDOF 1
ENDMDL
