MODEL 1
REMARK minimizedAffinity -2.5222559
REMARK minimizedRMSD -1
REMARK  0 active torsions:
REMARK  status: ('A' for Active; 'I' for Inactive)
ROOT
ATOM      1  N1  IND d   1      -1.270  -0.940   2.441  0.00  0.00    -0.196 N 
ATOM      2  C2  IND d   1      -1.989  -0.587   1.333  0.00  0.00     0.054 A 
ATOM      3  C3  IND d   1      -1.159  -0.303   0.304  0.00  0.00    -0.031 A 
ATOM      4  C4  IND d   1       1.409  -0.448   0.187  0.00  0.00     0.051 A 
ATOM      5  C5  IND d   1       2.510  -0.687   0.959  0.00  0.00    -0.031 A 
ATOM      6  C6  IND d   1       2.406  -1.033   2.291  0.00  0.00     0.015 A 
ATOM      7  C7  IND d   1       1.190  -1.164   2.900  0.00  0.00    -0.016 A 
ATOM      8  C8  IND d   1       0.070  -0.914   2.121  0.00  0.00    -0.047 A 
ATOM      9  C9  IND d   1       0.170  -0.522   0.780  0.00  0.00    -0.096 A 
ATOM     10  HN1 IND d   1      -1.599  -1.143   3.209  0.00  0.00     0.298 HD
ENDROOT
TORSDOF 0
ENDMDL
