MODEL 1
REMARK minimizedAffinity 1.84120607
REMARK minimizedRMSD -1
REMARK  0 active torsions:
REMARK  status: ('A' for Active; 'I' for Inactive)
ROOT
ATOM      1  N1  IND d   1       2.817   5.944   2.043  0.00  0.00    -0.196 N 
ATOM      2  C2  IND d   1       4.182   5.938   2.119  0.00  0.00     0.054 A 
ATOM      3  C3  IND d   1       4.581   5.967   3.410  0.00  0.00    -0.031 A 
ATOM      4  C4  IND d   1       3.166   5.925   5.561  0.00  0.00     0.051 A 
ATOM      5  C5  IND d   1       1.872   5.966   6.000  0.00  0.00    -0.031 A 
ATOM      6  C6  IND d   1       0.806   6.000   5.125  0.00  0.00     0.015 A 
ATOM      7  C7  IND d   1       0.994   5.982   3.772  0.00  0.00    -0.016 A 
ATOM      8  C8  IND d   1       2.306   5.948   3.322  0.00  0.00    -0.047 A 
ATOM      9  C9  IND d   1       3.393   5.957   4.205  0.00  0.00    -0.096 A 
ATOM     10  HN1 IND d   1       2.355   5.946   1.317  0.00  0.00     0.298 HD
ENDROOT
TORSDOF 0
ENDMDL
