MODEL 1
REMARK minimizedAffinity -2.30822825
REMARK minimizedRMSD -1
REMARK  0 active torsions:
REMARK  status: ('A' for Active; 'I' for Inactive)
ROOT
ATOM      1  N1  IND d   1       0.817   2.795  -1.873  0.00  0.00    -0.196 N 
ATOM      2  C2  IND d   1      -0.187   3.533  -2.433  0.00  0.00     0.054 A 
ATOM      3  C3  IND d   1      -1.345   2.835  -2.426  0.00  0.00    -0.031 A 
ATOM      4  C4  IND d   1      -1.842   0.504  -1.453  0.00  0.00     0.051 A 
ATOM      5  C5  IND d   1      -1.234  -0.573  -0.872  0.00  0.00    -0.031 A 
ATOM      6  C6  IND d   1       0.116  -0.582  -0.587  0.00  0.00     0.015 A 
ATOM      7  C7  IND d   1       0.910   0.496  -0.863  0.00  0.00    -0.016 A 
ATOM      8  C8  IND d   1       0.296   1.589  -1.459  0.00  0.00    -0.047 A 
ATOM      9  C9  IND d   1      -1.065   1.587  -1.789  0.00  0.00    -0.096 A 
ATOM     10  HN1 IND d   1       1.637   3.042  -1.792  0.00  0.00     0.298 HD
ENDROOT
TORSDOF 0
ENDMDL
