MODEL 1
REMARK minimizedAffinity -0.858604372
REMARK minimizedRMSD -1
REMARK  0 active torsions:
REMARK  status: ('A' for Active; 'I' for Inactive)
ROOT
ATOM      1  N1  IND d   1       2.113  -1.900  -0.420  0.00  0.00    -0.196 N 
ATOM      2  C2  IND d   1       2.725  -2.699   0.505  0.00  0.00     0.054 A 
ATOM      3  C3  IND d   1       2.112  -2.585   1.705  0.00  0.00    -0.031 A 
ATOM      4  C4  IND d   1       0.025  -1.225   2.352  0.00  0.00     0.051 A 
ATOM      5  C5  IND d   1      -0.862  -0.311   1.856  0.00  0.00    -0.031 A 
ATOM      6  C6  IND d   1      -0.803   0.127   0.549  0.00  0.00     0.015 A 
ATOM      7  C7  IND d   1       0.143  -0.343  -0.318  0.00  0.00    -0.016 A 
ATOM      8  C8  IND d   1       1.049  -1.267   0.184  0.00  0.00    -0.047 A 
ATOM      9  C9  IND d   1       1.020  -1.683   1.521  0.00  0.00    -0.096 A 
ATOM     10  HN1 IND d   1       2.352  -1.808  -1.240  0.00  0.00     0.298 HD
ENDROOT
TORSDOF 0
ENDMDL
