MODEL 1
REMARK minimizedAffinity -5.84830475
REMARK minimizedRMSD -1
REMARK  0 active torsions:
REMARK  status: ('A' for Active; 'I' for Inactive)
ROOT
ATOM      1  N1  IND d   1       0.310  -0.562  -0.997  0.00  0.00    -0.196 N 
ATOM      2  C2  IND d   1      -0.850   0.046  -0.605  0.00  0.00     0.054 A 
ATOM      3  C3  IND d   1      -0.975  -0.001   0.740  0.00  0.00    -0.031 A 
ATOM      4  C4  IND d   1       0.651  -0.938   2.502  0.00  0.00     0.051 A 
ATOM      5  C5  IND d   1       1.827  -1.624   2.626  0.00  0.00    -0.031 A 
ATOM      6  C6  IND d   1       2.573  -1.997   1.527  0.00  0.00     0.015 A 
ATOM      7  C7  IND d   1       2.175  -1.686   0.258  0.00  0.00    -0.016 A 
ATOM      8  C8  IND d   1       0.979  -0.995   0.127  0.00  0.00    -0.047 A 
ATOM      9  C9  IND d   1       0.196  -0.651   1.237  0.00  0.00    -0.096 A 
ATOM     10  HN1 IND d   1       0.577  -0.658  -1.808  0.00  0.00     0.298 HD
ENDROOT
TORSDOF 0
ENDMDL
