MODEL 1
REMARK minimizedAffinity -4.54374075
REMARK minimizedRMSD -1
REMARK  0 active torsions:
REMARK  status: ('A' for Active; 'I' for Inactive)
ROOT
ATOM      1  N1  IND d   1       1.986  -2.115  -0.045  0.00  0.00    -0.196 N 
ATOM      2  C2  IND d   1       2.544  -2.656   1.079  0.00  0.00     0.054 A 
ATOM      3  C3  IND d   1       1.913  -2.200   2.184  0.00  0.00    -0.031 A 
ATOM      4  C4  IND d   1      -0.125  -0.639   2.377  0.00  0.00     0.051 A 
ATOM      5  C5  IND d   1      -0.960   0.139   1.626  0.00  0.00    -0.031 A 
ATOM      6  C6  IND d   1      -0.856   0.206   0.252  0.00  0.00     0.015 A 
ATOM      7  C7  IND d   1       0.085  -0.516  -0.427  0.00  0.00    -0.016 A 
ATOM      8  C8  IND d   1       0.939  -1.302   0.333  0.00  0.00    -0.047 A 
ATOM      9  C9  IND d   1       0.866  -1.341   1.731  0.00  0.00    -0.096 A 
ATOM     10  HN1 IND d   1       2.245  -2.257  -0.853  0.00  0.00     0.298 HD
ENDROOT
TORSDOF 0
ENDMDL
