MODEL 1
REMARK minimizedAffinity -2.20682287
REMARK minimizedRMSD -1
REMARK  0 active torsions:
REMARK  status: ('A' for Active; 'I' for Inactive)
ROOT
ATOM      1  N1  IND d   1      -0.647  -0.139   1.887  0.00  0.00    -0.196 N 
ATOM      2  C2  IND d   1       0.002  -0.607   2.995  0.00  0.00     0.054 A 
ATOM      3  C3  IND d   1       1.110  -1.294   2.636  0.00  0.00    -0.031 A 
ATOM      4  C4  IND d   1       2.103  -1.688   0.294  0.00  0.00     0.051 A 
ATOM      5  C5  IND d   1       1.847  -1.485  -1.033  0.00  0.00    -0.031 A 
ATOM      6  C6  IND d   1       0.724  -0.807  -1.463  0.00  0.00     0.015 A 
ATOM      7  C7  IND d   1      -0.181  -0.294  -0.578  0.00  0.00    -0.016 A 
ATOM      8  C8  IND d   1       0.072  -0.505   0.770  0.00  0.00    -0.047 A 
ATOM      9  C9  IND d   1       1.188  -1.229   1.211  0.00  0.00    -0.096 A 
ATOM     10  HN1 IND d   1      -1.381   0.308   1.887  0.00  0.00     0.298 HD
ENDROOT
TORSDOF 0
ENDMDL
