MODEL 1
REMARK minimizedAffinity -0.442295611
REMARK minimizedRMSD -1
REMARK  0 active torsions:
REMARK  status: ('A' for Active; 'I' for Inactive)
ROOT
ATOM      1  N1  IND d   1      -0.959  -1.159   0.332  0.00  0.00    -0.196 N 
ATOM      2  C2  IND d   1      -1.798  -1.240   1.408  0.00  0.00     0.054 A 
ATOM      3  C3  IND d   1      -1.090  -1.212   2.559  0.00  0.00    -0.031 A 
ATOM      4  C4  IND d   1       1.445  -0.933   2.914  0.00  0.00     0.051 A 
ATOM      5  C5  IND d   1       2.626  -0.856   2.231  0.00  0.00    -0.031 A 
ATOM      6  C6  IND d   1       2.673  -0.874   0.852  0.00  0.00     0.015 A 
ATOM      7  C7  IND d   1       1.535  -0.958   0.101  0.00  0.00    -0.016 A 
ATOM      8  C8  IND d   1       0.334  -1.044   0.792  0.00  0.00    -0.047 A 
ATOM      9  C9  IND d   1       0.283  -1.069   2.191  0.00  0.00    -0.096 A 
ATOM     10  HN1 IND d   1      -1.199  -1.177  -0.494  0.00  0.00     0.298 HD
ENDROOT
TORSDOF 0
ENDMDL
