MODEL 1
REMARK minimizedAffinity -5.59296179
REMARK minimizedRMSD -1
REMARK  0 active torsions:
REMARK  status: ('A' for Active; 'I' for Inactive)
ROOT
ATOM      1  N1  IND d   1      -1.249  -1.264   0.093  0.00  0.00    -0.196 N 
ATOM      2  C2  IND d   1      -0.874  -1.013  -1.198  0.00  0.00     0.054 A 
ATOM      3  C3  IND d   1       0.410  -0.591  -1.241  0.00  0.00    -0.031 A 
ATOM      4  C4  IND d   1       2.113  -0.337   0.672  0.00  0.00     0.051 A 
ATOM      5  C5  IND d   1       2.226  -0.414   2.032  0.00  0.00    -0.031 A 
ATOM      6  C6  IND d   1       1.165  -0.788   2.831  0.00  0.00     0.015 A 
ATOM      7  C7  IND d   1      -0.050  -1.112   2.296  0.00  0.00    -0.016 A 
ATOM      8  C8  IND d   1      -0.170  -1.028   0.916  0.00  0.00    -0.047 A 
ATOM      9  C9  IND d   1       0.891  -0.608   0.104  0.00  0.00    -0.096 A 
ATOM     10  HN1 IND d   1      -2.027  -1.526   0.347  0.00  0.00     0.298 HD
ENDROOT
TORSDOF 0
ENDMDL
