MODEL 1
REMARK minimizedAffinity -5.24767923
REMARK minimizedRMSD -1
REMARK  0 active torsions:
REMARK  status: ('A' for Active; 'I' for Inactive)
ROOT
ATOM      1  C4' PXY d   1      -1.123   0.375   2.125  0.00  0.00     0.077 C 
ATOM      2  C1' PXY d   1       1.875  -0.000  -2.803  0.00  0.00     0.077 C 
ATOM      3  C1  PXY d   1       1.099   0.104  -1.504  0.00  0.00    -0.082 A 
ATOM      4  C2  PXY d   1       0.078  -0.709  -1.286  0.00  0.00     0.003 A 
ATOM      5  C3  PXY d   1      -0.655  -0.607  -0.131  0.00  0.00     0.003 A 
ATOM      6  C4  PXY d   1      -0.306   0.300   0.833  0.00  0.00    -0.082 A 
ATOM      7  C5  PXY d   1       0.742   1.125   0.623  0.00  0.00     0.003 A 
ATOM      8  C6  PXY d   1       1.447   1.034  -0.574  0.00  0.00     0.003 A 
ENDROOT
TORSDOF 0
ENDMDL
