MODEL 1
REMARK minimizedAffinity -2.06311893
REMARK minimizedRMSD -1
REMARK  0 active torsions:
REMARK  status: ('A' for Active; 'I' for Inactive)
ROOT
ATOM      1  C4' PXY d   1      -4.371  -0.166   1.311  0.00  0.00     0.077 C 
ATOM      2  C1' PXY d   1      -2.513   3.059   5.734  0.00  0.00     0.077 C 
ATOM      3  C1  PXY d   1      -3.010   2.208   4.582  0.00  0.00    -0.082 A 
ATOM      4  C2  PXY d   1      -2.188   1.906   3.590  0.00  0.00     0.003 A 
ATOM      5  C3  PXY d   1      -2.629   1.164   2.525  0.00  0.00     0.003 A 
ATOM      6  C4  PXY d   1      -3.911   0.683   2.500  0.00  0.00    -0.082 A 
ATOM      7  C5  PXY d   1      -4.752   0.978   3.513  0.00  0.00     0.003 A 
ATOM      8  C6  PXY d   1      -4.297   1.766   4.565  0.00  0.00     0.003 A 
ENDROOT
TORSDOF 0
ENDMDL
