MODEL 1
REMARK minimizedAffinity -4.24607897
REMARK minimizedRMSD -1
REMARK  0 active torsions:
REMARK  status: ('A' for Active; 'I' for Inactive)
ROOT
ATOM      1  C4' PXY d   1       1.467  -3.031  -1.935  0.00  0.00     0.077 C 
ATOM      2  C1' PXY d   1       0.951   2.588  -0.679  0.00  0.00     0.077 C 
ATOM      3  C1  PXY d   1       1.089   1.117  -1.021  0.00  0.00    -0.082 A 
ATOM      4  C2  PXY d   1       0.490   0.211  -0.265  0.00  0.00     0.003 A 
ATOM      5  C3  PXY d   1       0.630  -1.125  -0.541  0.00  0.00     0.003 A 
ATOM      6  C4  PXY d   1       1.348  -1.535  -1.633  0.00  0.00    -0.082 A 
ATOM      7  C5  PXY d   1       1.953  -0.616  -2.415  0.00  0.00     0.003 A 
ATOM      8  C6  PXY d   1       1.832   0.733  -2.094  0.00  0.00     0.003 A 
ENDROOT
TORSDOF 0
ENDMDL
