MODEL 1
REMARK minimizedAffinity -3.81516528
REMARK minimizedRMSD -1
REMARK  0 active torsions:
REMARK  status: ('A' for Active; 'I' for Inactive)
ROOT
ATOM      1  C4' PXY d   1      -2.500   4.112   5.662  0.00  0.00     0.077 C 
ATOM      2  C1' PXY d   1      -3.894   0.458   1.405  0.00  0.00     0.077 C 
ATOM      3  C1  PXY d   1      -3.534   1.426   2.515  0.00  0.00    -0.082 A 
ATOM      4  C2  PXY d   1      -2.528   1.145   3.327  0.00  0.00     0.003 A 
ATOM      5  C3  PXY d   1      -2.209   1.994   4.355  0.00  0.00     0.003 A 
ATOM      6  C4  PXY d   1      -2.893   3.168   4.522  0.00  0.00    -0.082 A 
ATOM      7  C5  PXY d   1      -3.914   3.467   3.691  0.00  0.00     0.003 A 
ATOM      8  C6  PXY d   1      -4.248   2.572   2.678  0.00  0.00     0.003 A 
ENDROOT
TORSDOF 0
ENDMDL
