MODEL 1
REMARK minimizedAffinity -4.95027781
REMARK minimizedRMSD -1
REMARK  0 active torsions:
REMARK  status: ('A' for Active; 'I' for Inactive)
ROOT
ATOM      1  C4' PXY d   1      -1.103  -0.058   1.723  0.00  0.00     0.077 C 
ATOM      2  C1' PXY d   1       2.295  -1.210  -2.810  0.00  0.00     0.077 C 
ATOM      3  C1  PXY d   1       1.410  -0.897  -1.619  0.00  0.00    -0.082 A 
ATOM      4  C2  PXY d   1       0.816  -1.883  -0.968  0.00  0.00     0.003 A 
ATOM      5  C3  PXY d   1      -0.012  -1.615   0.091  0.00  0.00     0.003 A 
ATOM      6  C4  PXY d   1      -0.193  -0.328   0.521  0.00  0.00    -0.082 A 
ATOM      7  C5  PXY d   1       0.418   0.683  -0.131  0.00  0.00     0.003 A 
ATOM      8  C6  PXY d   1       1.222   0.394  -1.230  0.00  0.00     0.003 A 
ENDROOT
TORSDOF 0
ENDMDL
