MODEL 1
REMARK minimizedAffinity -5.70154953
REMARK minimizedRMSD -1
REMARK  0 active torsions:
REMARK  status: ('A' for Active; 'I' for Inactive)
ROOT
ATOM      1  C4' PXY d   1      -1.374   0.104   1.419  0.00  0.00     0.077 C 
ATOM      2  C1' PXY d   1       2.190  -1.102  -2.969  0.00  0.00     0.077 C 
ATOM      3  C1  PXY d   1       1.262  -0.775  -1.816  0.00  0.00    -0.082 A 
ATOM      4  C2  PXY d   1       0.641  -1.753  -1.178  0.00  0.00     0.003 A 
ATOM      5  C3  PXY d   1      -0.227  -1.473  -0.154  0.00  0.00     0.003 A 
ATOM      6  C4  PXY d   1      -0.420  -0.180   0.256  0.00  0.00    -0.082 A 
ATOM      7  C5  PXY d   1       0.218   0.823  -0.384  0.00  0.00     0.003 A 
ATOM      8  C6  PXY d   1       1.063   0.520  -1.448  0.00  0.00     0.003 A 
ENDROOT
TORSDOF 0
ENDMDL
