MODEL 1
REMARK minimizedAffinity -5.1093111
REMARK minimizedRMSD -1
REMARK  0 active torsions:
REMARK  status: ('A' for Active; 'I' for Inactive)
ROOT
ATOM      1  C4' PXY d   1      -1.189  -0.266   1.735  0.00  0.00     0.077 C 
ATOM      2  C1' PXY d   1       1.938  -0.381  -3.125  0.00  0.00     0.077 C 
ATOM      3  C1  PXY d   1       1.110  -0.360  -1.855  0.00  0.00    -0.082 A 
ATOM      4  C2  PXY d   1       1.107   0.723  -1.094  0.00  0.00     0.003 A 
ATOM      5  C3  PXY d   1       0.389   0.747   0.074  0.00  0.00     0.003 A 
ATOM      6  C4  PXY d   1      -0.376  -0.328   0.440  0.00  0.00    -0.082 A 
ATOM      7  C5  PXY d   1      -0.386  -1.432  -0.337  0.00  0.00     0.003 A 
ATOM      8  C6  PXY d   1       0.382  -1.452  -1.497  0.00  0.00     0.003 A 
ENDROOT
TORSDOF 0
ENDMDL
