MODEL 1
REMARK minimizedAffinity -4.45994377
REMARK minimizedRMSD -1
REMARK  0 active torsions:
REMARK  status: ('A' for Active; 'I' for Inactive)
ROOT
ATOM      1  C4' PXY d   1       1.256  -2.901  -2.175  0.00  0.00     0.077 C 
ATOM      2  C1' PXY d   1       0.970   2.611  -0.457  0.00  0.00     0.077 C 
ATOM      3  C1  PXY d   1       1.052   1.169  -0.918  0.00  0.00    -0.082 A 
ATOM      4  C2  PXY d   1       0.149   0.297  -0.501  0.00  0.00     0.003 A 
ATOM      5  C3  PXY d   1       0.226  -1.018  -0.882  0.00  0.00     0.003 A 
ATOM      6  C4  PXY d   1       1.207  -1.433  -1.742  0.00  0.00    -0.082 A 
ATOM      7  C5  PXY d   1       2.126  -0.547  -2.181  0.00  0.00     0.003 A 
ATOM      8  C6  PXY d   1       2.054   0.775  -1.749  0.00  0.00     0.003 A 
ENDROOT
TORSDOF 0
ENDMDL
