MODEL 1
REMARK minimizedAffinity -4.38661671
REMARK minimizedRMSD -1
REMARK  0 active torsions:
REMARK  status: ('A' for Active; 'I' for Inactive)
ROOT
ATOM      1  C4' PXY d   1       1.196   0.350  -3.098  0.00  0.00     0.077 C 
ATOM      2  C1' PXY d   1      -0.263  -1.075   2.310  0.00  0.00     0.077 C 
ATOM      3  C1  PXY d   1       0.116  -0.689   0.894  0.00  0.00    -0.082 A 
ATOM      4  C2  PXY d   1       0.148  -1.615  -0.050  0.00  0.00     0.003 A 
ATOM      5  C3  PXY d   1       0.519  -1.290  -1.329  0.00  0.00     0.003 A 
ATOM      6  C4  PXY d   1       0.810   0.007  -1.657  0.00  0.00    -0.082 A 
ATOM      7  C5  PXY d   1       0.769   0.960  -0.702  0.00  0.00     0.003 A 
ATOM      8  C6  PXY d   1       0.430   0.602   0.600  0.00  0.00     0.003 A 
ENDROOT
TORSDOF 0
ENDMDL
