MODEL 1
REMARK minimizedAffinity -2.92459822
REMARK minimizedRMSD -1
REMARK  0 active torsions:
REMARK  status: ('A' for Active; 'I' for Inactive)
ROOT
ATOM      1  C4' PXY d   1      -1.126   0.244   2.253  0.00  0.00     0.077 C 
ATOM      2  C1' PXY d   1       2.091   0.504  -2.543  0.00  0.00     0.077 C 
ATOM      3  C1  PXY d   1       1.241   0.425  -1.290  0.00  0.00    -0.082 A 
ATOM      4  C2  PXY d   1       1.018   1.520  -0.581  0.00  0.00     0.003 A 
ATOM      5  C3  PXY d   1       0.279   1.461   0.572  0.00  0.00     0.003 A 
ATOM      6  C4  PXY d   1      -0.282   0.278   0.976  0.00  0.00    -0.082 A 
ATOM      7  C5  PXY d   1      -0.067  -0.841   0.252  0.00  0.00     0.003 A 
ATOM      8  C6  PXY d   1       0.720  -0.767  -0.893  0.00  0.00     0.003 A 
ENDROOT
TORSDOF 0
ENDMDL
