MODEL 1
REMARK minimizedAffinity 1.10308564
REMARK minimizedRMSD -1
REMARK  0 active torsions:
REMARK  status: ('A' for Active; 'I' for Inactive)
ROOT
ATOM      1  C4' PXY d   1       2.342  -0.093  -2.641  0.00  0.00     0.077 C 
ATOM      2  C1' PXY d   1      -1.783  -0.057   1.409  0.00  0.00     0.077 C 
ATOM      3  C1  PXY d   1      -0.702  -0.079   0.347  0.00  0.00    -0.082 A 
ATOM      4  C2  PXY d   1       0.139   0.938   0.247  0.00  0.00     0.003 A 
ATOM      5  C3  PXY d   1       1.102   0.948  -0.728  0.00  0.00     0.003 A 
ATOM      6  C4  PXY d   1       1.241  -0.117  -1.577  0.00  0.00    -0.082 A 
ATOM      7  C5  PXY d   1       0.394  -1.163  -1.475  0.00  0.00     0.003 A 
ATOM      8  C6  PXY d   1      -0.604  -1.136  -0.504  0.00  0.00     0.003 A 
ENDROOT
TORSDOF 0
ENDMDL
