MODEL 1
REMARK minimizedAffinity -3.28608799
REMARK minimizedRMSD -1
REMARK  0 active torsions:
REMARK  status: ('A' for Active; 'I' for Inactive)
ROOT
ATOM      1  C4' PXY d   1       2.670   0.731  -2.015  0.00  0.00     0.077 C 
ATOM      2  C1' PXY d   1      -1.789  -0.160   1.554  0.00  0.00     0.077 C 
ATOM      3  C1  PXY d   1      -0.620   0.061   0.615  0.00  0.00    -0.082 A 
ATOM      4  C2  PXY d   1       0.221   1.058   0.839  0.00  0.00     0.003 A 
ATOM      5  C3  PXY d   1       1.264   1.292  -0.018  0.00  0.00     0.003 A 
ATOM      6  C4  PXY d   1       1.481   0.464  -1.087  0.00  0.00    -0.082 A 
ATOM      7  C5  PXY d   1       0.635  -0.562  -1.317  0.00  0.00     0.003 A 
ATOM      8  C6  PXY d   1      -0.443  -0.757  -0.458  0.00  0.00     0.003 A 
ENDROOT
TORSDOF 0
ENDMDL
