MODEL 1
REMARK minimizedAffinity -5.07673597
REMARK minimizedRMSD -1
REMARK  0 active torsions:
REMARK  status: ('A' for Active; 'I' for Inactive)
ROOT
ATOM      1  C4' PXY d   1      -1.467  -0.771   2.362  0.00  0.00     0.077 C 
ATOM      2  C1' PXY d   1       1.395   0.086  -2.587  0.00  0.00     0.077 C 
ATOM      3  C1  PXY d   1       0.646  -0.152  -1.291  0.00  0.00    -0.082 A 
ATOM      4  C2  PXY d   1      -0.199   0.764  -0.846  0.00  0.00     0.003 A 
ATOM      5  C3  PXY d   1      -0.861   0.580   0.341  0.00  0.00     0.003 A 
ATOM      6  C4  PXY d   1      -0.696  -0.578   1.053  0.00  0.00    -0.082 A 
ATOM      7  C5  PXY d   1       0.156  -1.522   0.601  0.00  0.00     0.003 A 
ATOM      8  C6  PXY d   1       0.850  -1.297  -0.585  0.00  0.00     0.003 A 
ENDROOT
TORSDOF 0
ENDMDL
