MODEL 1
REMARK minimizedAffinity -4.92346001
REMARK minimizedRMSD -1
REMARK  0 active torsions:
REMARK  status: ('A' for Active; 'I' for Inactive)
ROOT
ATOM      1  C4' PXY d   1       1.900  -0.358  -3.218  0.00  0.00     0.077 C 
ATOM      2  C1' PXY d   1      -1.335   0.633   1.470  0.00  0.00     0.077 C 
ATOM      3  C1  PXY d   1      -0.489   0.385   0.237  0.00  0.00    -0.082 A 
ATOM      4  C2  PXY d   1      -0.348  -0.847  -0.223  0.00  0.00     0.003 A 
ATOM      5  C3  PXY d   1       0.440  -1.093  -1.318  0.00  0.00     0.003 A 
ATOM      6  C4  PXY d   1       1.047  -0.060  -1.981  0.00  0.00    -0.082 A 
ATOM      7  C5  PXY d   1       0.899   1.201  -1.524  0.00  0.00     0.003 A 
ATOM      8  C6  PXY d   1       0.129   1.425  -0.387  0.00  0.00     0.003 A 
ENDROOT
TORSDOF 0
ENDMDL
