MODEL 1
REMARK minimizedAffinity -2.80113506
REMARK minimizedRMSD -1
REMARK  0 active torsions:
REMARK  status: ('A' for Active; 'I' for Inactive)
ROOT
ATOM      1  C4' PXY d   1      -1.803   0.634   2.259  0.00  0.00     0.077 C 
ATOM      2  C1' PXY d   1       2.374   0.486  -1.735  0.00  0.00     0.077 C 
ATOM      3  C1  PXY d   1       1.272   0.516  -0.694  0.00  0.00    -0.082 A 
ATOM      4  C2  PXY d   1       1.129   1.582   0.076  0.00  0.00     0.003 A 
ATOM      5  C3  PXY d   1       0.158   1.613   1.044  0.00  0.00     0.003 A 
ATOM      6  C4  PXY d   1      -0.710   0.564   1.188  0.00  0.00    -0.082 A 
ATOM      7  C5  PXY d   1      -0.578  -0.523   0.399  0.00  0.00     0.003 A 
ATOM      8  C6  PXY d   1       0.441  -0.552  -0.550  0.00  0.00     0.003 A 
ENDROOT
TORSDOF 0
ENDMDL
