MODEL 1
REMARK minimizedAffinity -3.3772018
REMARK minimizedRMSD -1
REMARK  0 active torsions:
REMARK  status: ('A' for Active; 'I' for Inactive)
ROOT
ATOM      1  C4' PXY d   1      -2.839   0.687   1.916  0.00  0.00     0.077 C 
ATOM      2  C1' PXY d   1       1.960   0.991  -1.293  0.00  0.00     0.077 C 
ATOM      3  C1  PXY d   1       0.707   0.901  -0.445  0.00  0.00    -0.082 A 
ATOM      4  C2  PXY d   1      -0.436   1.374  -0.915  0.00  0.00     0.003 A 
ATOM      5  C3  PXY d   1      -1.573   1.330  -0.148  0.00  0.00     0.003 A 
ATOM      6  C4  PXY d   1      -1.551   0.748   1.091  0.00  0.00    -0.082 A 
ATOM      7  C5  PXY d   1      -0.391   0.254   1.573  0.00  0.00     0.003 A 
ATOM      8  C6  PXY d   1       0.761   0.345   0.796  0.00  0.00     0.003 A 
ENDROOT
TORSDOF 0
ENDMDL
