MODEL 1
REMARK minimizedAffinity -1.29452932
REMARK minimizedRMSD -1
REMARK  0 active torsions:
REMARK  status: ('A' for Active; 'I' for Inactive)
ROOT
ATOM      1  C4' PXY d   1      -1.637   4.086   5.503  0.00  0.00     0.077 C 
ATOM      2  C1' PXY d   1      -3.760   0.417   1.573  0.00  0.00     0.077 C 
ATOM      3  C1  PXY d   1      -3.195   1.370   2.608  0.00  0.00    -0.082 A 
ATOM      4  C2  PXY d   1      -3.943   2.362   3.061  0.00  0.00     0.003 A 
ATOM      5  C3  PXY d   1      -3.437   3.252   3.972  0.00  0.00     0.003 A 
ATOM      6  C4  PXY d   1      -2.169   3.094   4.465  0.00  0.00    -0.082 A 
ATOM      7  C5  PXY d   1      -1.403   2.077   4.016  0.00  0.00     0.003 A 
ATOM      8  C6  PXY d   1      -1.922   1.209   3.059  0.00  0.00     0.003 A 
ENDROOT
TORSDOF 0
ENDMDL
