MODEL 1
REMARK minimizedAffinity -2.68448997
REMARK minimizedRMSD -1
REMARK  0 active torsions:
REMARK  status: ('A' for Active; 'I' for Inactive)
ROOT
ATOM      1  C4' PXY d   1       2.340  -0.096  -2.842  0.00  0.00     0.077 C 
ATOM      2  C1' PXY d   1      -1.385  -0.162   1.578  0.00  0.00     0.077 C 
ATOM      3  C1  PXY d   1      -0.406  -0.157   0.421  0.00  0.00    -0.082 A 
ATOM      4  C2  PXY d   1       0.201   0.968   0.082  0.00  0.00     0.003 A 
ATOM      5  C3  PXY d   1       1.065   0.997  -0.982  0.00  0.00     0.003 A 
ATOM      6  C4  PXY d   1       1.351  -0.149  -1.674  0.00  0.00    -0.082 A 
ATOM      7  C5  PXY d   1       0.744  -1.304  -1.328  0.00  0.00     0.003 A 
ATOM      8  C6  PXY d   1      -0.161  -1.304  -0.270  0.00  0.00     0.003 A 
ENDROOT
TORSDOF 0
ENDMDL
