MODEL 1
REMARK minimizedAffinity -5.41859198
REMARK minimizedRMSD -1
REMARK  0 active torsions:
REMARK  status: ('A' for Active; 'I' for Inactive)
ROOT
ATOM      1  C4' PXY d   1       2.351  -0.217  -2.954  0.00  0.00     0.077 C 
ATOM      2  C1' PXY d   1      -0.997  -0.589   1.744  0.00  0.00     0.077 C 
ATOM      3  C1  PXY d   1      -0.117  -0.504   0.512  0.00  0.00    -0.082 A 
ATOM      4  C2  PXY d   1       0.502   0.630   0.227  0.00  0.00     0.003 A 
ATOM      5  C3  PXY d   1       1.275   0.733  -0.900  0.00  0.00     0.003 A 
ATOM      6  C4  PXY d   1       1.460  -0.351  -1.716  0.00  0.00    -0.082 A 
ATOM      7  C5  PXY d   1       0.841  -1.515  -1.426  0.00  0.00     0.003 A 
ATOM      8  C6  PXY d   1       0.027  -1.587  -0.300  0.00  0.00     0.003 A 
ENDROOT
TORSDOF 0
ENDMDL
