MODEL 1
REMARK minimizedAffinity -4.59861708
REMARK minimizedRMSD -1
REMARK  0 active torsions:
REMARK  status: ('A' for Active; 'I' for Inactive)
ROOT
ATOM      1  C4' PXY d   1       1.975  -0.705  -3.212  0.00  0.00     0.077 C 
ATOM      2  C1' PXY d   1      -0.694   0.228   1.830  0.00  0.00     0.077 C 
ATOM      3  C1  PXY d   1       0.005  -0.029   0.510  0.00  0.00    -0.082 A 
ATOM      4  C2  PXY d   1       0.767   0.913  -0.022  0.00  0.00     0.003 A 
ATOM      5  C3  PXY d   1       1.381   0.708  -1.230  0.00  0.00     0.003 A 
ATOM      6  C4  PXY d   1       1.257  -0.493  -1.876  0.00  0.00    -0.082 A 
ATOM      7  C5  PXY d   1       0.491  -1.463  -1.335  0.00  0.00     0.003 A 
ATOM      8  C6  PXY d   1      -0.158  -1.221  -0.127  0.00  0.00     0.003 A 
ENDROOT
TORSDOF 0
ENDMDL
