MODEL 1
REMARK minimizedAffinity -2.91314793
REMARK minimizedRMSD -1
REMARK  1 active torsions:
REMARK  status: ('A' for Active; 'I' for Inactive)
REMARK    1  A    between atoms: C3_4  and  O_7 
ROOT
ATOM      1  C   UNL d   1       3.124   3.169   1.438  0.00  0.00    -0.033 A 
ATOM      2  C1  UNL d   1       3.425   2.787   0.129  0.00  0.00     0.039 A 
ATOM      3  C2  UNL d   1       2.863   1.628  -0.409  0.00  0.00    -0.080 A 
ATOM      4  C3  UNL d   1       2.001   0.861   0.370  0.00  0.00     0.150 A 
ATOM      5  C4  UNL d   1       1.693   1.238   1.673  0.00  0.00    -0.007 A 
ATOM      6  C5  UNL d   1       2.256   2.395   2.209  0.00  0.00     0.039 A 
ENDROOT
BRANCH   4   7
ATOM      7  O   UNL d   1       1.431  -0.280  -0.111  0.00  0.00    -0.526 OA
ATOM      8  H5  UNL d   1       1.757  -0.430  -1.014  0.00  0.00     0.418 HD
ENDBRANCH   4   7
TORSDOF 1
ENDMDL
