MODEL 1
REMARK minimizedAffinity -1.22319591
REMARK minimizedRMSD -1
REMARK  1 active torsions:
REMARK  status: ('A' for Active; 'I' for Inactive)
REMARK    1  A    between atoms: C3_4  and  O_7 
ROOT
ATOM      1  C   UNL d   1      -2.292  -0.755  -1.344  0.00  0.00    -0.033 A 
ATOM      2  C1  UNL d   1      -1.821   0.465  -1.833  0.00  0.00     0.039 A 
ATOM      3  C2  UNL d   1      -0.621   0.994  -1.354  0.00  0.00    -0.080 A 
ATOM      4  C3  UNL d   1       0.097   0.295  -0.388  0.00  0.00     0.150 A 
ATOM      5  C4  UNL d   1      -0.364  -0.923   0.101  0.00  0.00    -0.007 A 
ATOM      6  C5  UNL d   1      -1.563  -1.450  -0.378  0.00  0.00     0.039 A 
ENDROOT
BRANCH   4   7
ATOM      7  O   UNL d   1       1.271   0.774   0.114  0.00  0.00    -0.526 OA
ATOM      8  H5  UNL d   1       1.450   1.638  -0.295  0.00  0.00     0.418 HD
ENDBRANCH   4   7
TORSDOF 1
ENDMDL
