MODEL 1
REMARK minimizedAffinity -3.56871271
REMARK minimizedRMSD -1
REMARK  1 active torsions:
REMARK  status: ('A' for Active; 'I' for Inactive)
REMARK    1  A    between atoms: C3_4  and  O_7 
ROOT
ATOM      1  C   UNL d   1       2.958   1.395   1.509  0.00  0.00    -0.033 A 
ATOM      2  C1  UNL d   1       3.016   0.201   0.788  0.00  0.00     0.039 A 
ATOM      3  C2  UNL d   1       1.892  -0.254   0.095  0.00  0.00    -0.080 A 
ATOM      4  C3  UNL d   1       0.719   0.495   0.130  0.00  0.00     0.150 A 
ATOM      5  C4  UNL d   1       0.655   1.687   0.843  0.00  0.00    -0.007 A 
ATOM      6  C5  UNL d   1       1.778   2.139   1.536  0.00  0.00     0.039 A 
ENDROOT
BRANCH   4   7
ATOM      7  O   UNL d   1      -0.405   0.089  -0.526  0.00  0.00    -0.526 OA
ATOM      8  H5  UNL d   1      -0.222  -0.765  -0.951  0.00  0.00     0.418 HD
ENDBRANCH   4   7
TORSDOF 1
ENDMDL
