MODEL 1
REMARK minimizedAffinity -2.87182617
REMARK minimizedRMSD -1
REMARK  1 active torsions:
REMARK  status: ('A' for Active; 'I' for Inactive)
REMARK    1  A    between atoms: C3_4  and  O_7 
ROOT
ATOM      1  C   UNL d   1       1.121  -0.131   0.171  0.00  0.00    -0.033 A 
ATOM      2  C1  UNL d   1       0.827   0.752  -0.869  0.00  0.00     0.039 A 
ATOM      3  C2  UNL d   1      -0.431   0.728  -1.473  0.00  0.00    -0.080 A 
ATOM      4  C3  UNL d   1      -1.386  -0.181  -1.027  0.00  0.00     0.150 A 
ATOM      5  C4  UNL d   1      -1.101  -1.062   0.012  0.00  0.00    -0.007 A 
ATOM      6  C5  UNL d   1       0.157  -1.037   0.613  0.00  0.00     0.039 A 
ENDROOT
BRANCH   4   7
ATOM      7  O   UNL d   1      -2.627  -0.245  -1.588  0.00  0.00    -0.526 OA
ATOM      8  H5  UNL d   1      -2.671   0.401  -2.312  0.00  0.00     0.418 HD
ENDBRANCH   4   7
TORSDOF 1
ENDMDL
