MODEL 1
REMARK minimizedAffinity -2.29483485
REMARK minimizedRMSD -1
REMARK  1 active torsions:
REMARK  status: ('A' for Active; 'I' for Inactive)
REMARK    1  A    between atoms: C3_4  and  O_7 
ROOT
ATOM      1  C   UNL d   1       2.964   1.687   1.288  0.00  0.00    -0.033 A 
ATOM      2  C1  UNL d   1       1.874   2.535   1.084  0.00  0.00     0.039 A 
ATOM      3  C2  UNL d   1       0.728   2.060   0.444  0.00  0.00    -0.080 A 
ATOM      4  C3  UNL d   1       0.684   0.737   0.014  0.00  0.00     0.150 A 
ATOM      5  C4  UNL d   1       1.766  -0.115   0.216  0.00  0.00    -0.007 A 
ATOM      6  C5  UNL d   1       2.910   0.362   0.855  0.00  0.00     0.039 A 
ENDROOT
BRANCH   4   7
ATOM      7  O   UNL d   1      -0.411   0.229  -0.620  0.00  0.00    -0.526 OA
ATOM      8  H5  UNL d   1      -1.067   0.939  -0.716  0.00  0.00     0.418 HD
ENDBRANCH   4   7
TORSDOF 1
ENDMDL
