MODEL 1
REMARK minimizedAffinity -3.24085617
REMARK minimizedRMSD -1
REMARK  1 active torsions:
REMARK  status: ('A' for Active; 'I' for Inactive)
REMARK    1  A    between atoms: C3_4  and  O_7 
ROOT
ATOM      1  C   UNL d   1       3.048   1.478  -0.323  0.00  0.00    -0.033 A 
ATOM      2  C1  UNL d   1       1.792   1.025   0.086  0.00  0.00     0.039 A 
ATOM      3  C2  UNL d   1       1.084   1.720   1.068  0.00  0.00    -0.080 A 
ATOM      4  C3  UNL d   1       1.641   2.865   1.631  0.00  0.00     0.150 A 
ATOM      5  C4  UNL d   1       2.890   3.323   1.226  0.00  0.00    -0.007 A 
ATOM      6  C5  UNL d   1       3.597   2.627   0.246  0.00  0.00     0.039 A 
ENDROOT
BRANCH   4   7
ATOM      7  O   UNL d   1       0.990   3.574   2.597  0.00  0.00    -0.526 OA
ATOM      8  H5  UNL d   1       0.152   3.124   2.797  0.00  0.00     0.418 HD
ENDBRANCH   4   7
TORSDOF 1
ENDMDL
