MODEL 1
REMARK minimizedAffinity -1.34054637
REMARK minimizedRMSD -1
REMARK  1 active torsions:
REMARK  status: ('A' for Active; 'I' for Inactive)
REMARK    1  A    between atoms: C3_4  and  O_7 
ROOT
ATOM      1  C   UNL d   1      -0.355  -1.026  -0.390  0.00  0.00    -0.033 A 
ATOM      2  C1  UNL d   1       0.630  -1.384   0.534  0.00  0.00     0.039 A 
ATOM      3  C2  UNL d   1       1.621  -0.467   0.890  0.00  0.00    -0.080 A 
ATOM      4  C3  UNL d   1       1.617   0.801   0.317  0.00  0.00     0.150 A 
ATOM      5  C4  UNL d   1       0.637   1.166  -0.601  0.00  0.00    -0.007 A 
ATOM      6  C5  UNL d   1      -0.352   0.249  -0.956  0.00  0.00     0.039 A 
ENDROOT
BRANCH   4   7
ATOM      7  O   UNL d   1       2.567   1.728   0.630  0.00  0.00    -0.526 OA
ATOM      8  H5  UNL d   1       3.194   1.326   1.254  0.00  0.00     0.418 HD
ENDBRANCH   4   7
TORSDOF 1
ENDMDL
