MODEL 1
REMARK minimizedAffinity -2.55537558
REMARK minimizedRMSD -1
REMARK  1 active torsions:
REMARK  status: ('A' for Active; 'I' for Inactive)
REMARK    1  A    between atoms: C3_4  and  O_7 
ROOT
ATOM      1  C   UNL d   1      -2.491  -1.164  -1.039  0.00  0.00    -0.033 A 
ATOM      2  C1  UNL d   1      -1.595  -1.828  -0.199  0.00  0.00     0.039 A 
ATOM      3  C2  UNL d   1      -0.454  -1.172   0.266  0.00  0.00    -0.080 A 
ATOM      4  C3  UNL d   1      -0.222   0.147  -0.115  0.00  0.00     0.150 A 
ATOM      5  C4  UNL d   1      -1.113   0.816  -0.947  0.00  0.00    -0.007 A 
ATOM      6  C5  UNL d   1      -2.251   0.158  -1.412  0.00  0.00     0.039 A 
ENDROOT
BRANCH   4   7
ATOM      7  O   UNL d   1       0.881   0.828   0.310  0.00  0.00    -0.526 OA
ATOM      8  H5  UNL d   1       1.420   0.231   0.855  0.00  0.00     0.418 HD
ENDBRANCH   4   7
TORSDOF 1
ENDMDL
