MODEL 1
REMARK minimizedAffinity -1.53557241
REMARK minimizedRMSD -1
REMARK  1 active torsions:
REMARK  status: ('A' for Active; 'I' for Inactive)
REMARK    1  A    between atoms: C3_4  and  O_7 
ROOT
ATOM      1  C   UNL d   1       2.683   0.727   0.898  0.00  0.00    -0.033 A 
ATOM      2  C1  UNL d   1       1.830  -0.376   0.974  0.00  0.00     0.039 A 
ATOM      3  C2  UNL d   1       0.711  -0.454   0.143  0.00  0.00    -0.080 A 
ATOM      4  C3  UNL d   1       0.457   0.576  -0.759  0.00  0.00     0.150 A 
ATOM      5  C4  UNL d   1       1.304   1.676  -0.843  0.00  0.00    -0.007 A 
ATOM      6  C5  UNL d   1       2.421   1.752  -0.011  0.00  0.00     0.039 A 
ENDROOT
BRANCH   4   7
ATOM      7  O   UNL d   1      -0.626   0.547  -1.587  0.00  0.00    -0.526 OA
ATOM      8  H5  UNL d   1      -1.136  -0.258  -1.398  0.00  0.00     0.418 HD
ENDBRANCH   4   7
TORSDOF 1
ENDMDL
