MODEL 1
REMARK minimizedAffinity -0.787877381
REMARK minimizedRMSD -1
REMARK  1 active torsions:
REMARK  status: ('A' for Active; 'I' for Inactive)
REMARK    1  A    between atoms: C3_4  and  O_7 
ROOT
ATOM      1  C   UNL d   1      -1.378   0.107  -1.793  0.00  0.00    -0.033 A 
ATOM      2  C1  UNL d   1      -2.031  -1.116  -1.627  0.00  0.00     0.039 A 
ATOM      3  C2  UNL d   1      -1.660  -1.972  -0.588  0.00  0.00    -0.080 A 
ATOM      4  C3  UNL d   1      -0.636  -1.594   0.277  0.00  0.00     0.150 A 
ATOM      5  C4  UNL d   1       0.016  -0.376   0.119  0.00  0.00    -0.007 A 
ATOM      6  C5  UNL d   1      -0.355   0.478  -0.919  0.00  0.00     0.039 A 
ENDROOT
BRANCH   4   7
ATOM      7  O   UNL d   1      -0.236  -2.398   1.302  0.00  0.00    -0.526 OA
ATOM      8  H5  UNL d   1      -0.756  -3.219   1.271  0.00  0.00     0.418 HD
ENDBRANCH   4   7
TORSDOF 1
ENDMDL
