MODEL 1
REMARK minimizedAffinity -1.97902989
REMARK minimizedRMSD -1
REMARK  1 active torsions:
REMARK  status: ('A' for Active; 'I' for Inactive)
REMARK    1  A    between atoms: C3_4  and  O_7 
ROOT
ATOM      1  C   UNL d   1      -2.282  -1.709   0.653  0.00  0.00    -0.033 A 
ATOM      2  C1  UNL d   1      -3.424  -0.997   0.281  0.00  0.00     0.039 A 
ATOM      3  C2  UNL d   1      -3.376  -0.110  -0.796  0.00  0.00    -0.080 A 
ATOM      4  C3  UNL d   1      -2.183   0.055  -1.492  0.00  0.00     0.150 A 
ATOM      5  C4  UNL d   1      -1.042  -0.653  -1.130  0.00  0.00    -0.007 A 
ATOM      6  C5  UNL d   1      -1.091  -1.538  -0.054  0.00  0.00     0.039 A 
ENDROOT
BRANCH   4   7
ATOM      7  O   UNL d   1      -2.086   0.914  -2.547  0.00  0.00    -0.526 OA
ATOM      8  H5  UNL d   1      -2.944   1.355  -2.664  0.00  0.00     0.418 HD
ENDBRANCH   4   7
TORSDOF 1
ENDMDL
