MODEL 1
REMARK minimizedAffinity -3.27595472
REMARK minimizedRMSD -1
REMARK  1 active torsions:
REMARK  status: ('A' for Active; 'I' for Inactive)
REMARK    1  A    between atoms: C3_4  and  O_7 
ROOT
ATOM      1  C   UNL d   1       1.210   0.421   0.228  0.00  0.00    -0.033 A 
ATOM      2  C1  UNL d   1       0.805   1.105  -0.921  0.00  0.00     0.039 A 
ATOM      3  C2  UNL d   1      -0.409   0.787  -1.532  0.00  0.00    -0.080 A 
ATOM      4  C3  UNL d   1      -1.209  -0.213  -0.986  0.00  0.00     0.150 A 
ATOM      5  C4  UNL d   1      -0.813  -0.895   0.160  0.00  0.00    -0.007 A 
ATOM      6  C5  UNL d   1       0.400  -0.578   0.769  0.00  0.00     0.039 A 
ENDROOT
BRANCH   4   7
ATOM      7  O   UNL d   1      -2.400  -0.561  -1.551  0.00  0.00    -0.526 OA
ATOM      8  H5  UNL d   1      -2.529  -0.026  -2.352  0.00  0.00     0.418 HD
ENDBRANCH   4   7
TORSDOF 1
ENDMDL
