MODEL 1
REMARK minimizedAffinity -1.33465683
REMARK minimizedRMSD -1
REMARK  1 active torsions:
REMARK  status: ('A' for Active; 'I' for Inactive)
REMARK    1  A    between atoms: C3_4  and  O_7 
ROOT
ATOM      1  C   UNL d   1       0.502   0.532  -0.648  0.00  0.00    -0.033 A 
ATOM      2  C1  UNL d   1      -0.439   0.557  -1.680  0.00  0.00     0.039 A 
ATOM      3  C2  UNL d   1      -1.631  -0.159  -1.557  0.00  0.00    -0.080 A 
ATOM      4  C3  UNL d   1      -1.872  -0.892  -0.398  0.00  0.00     0.150 A 
ATOM      5  C4  UNL d   1      -0.941  -0.918   0.635  0.00  0.00    -0.007 A 
ATOM      6  C5  UNL d   1       0.249  -0.203   0.510  0.00  0.00     0.039 A 
ENDROOT
BRANCH   4   7
ATOM      7  O   UNL d   1      -3.019  -1.610  -0.235  0.00  0.00    -0.526 OA
ATOM      8  H5  UNL d   1      -3.555  -1.522  -1.041  0.00  0.00     0.418 HD
ENDBRANCH   4   7
TORSDOF 1
ENDMDL
