MODEL 1
REMARK minimizedAffinity 1.96324873
REMARK minimizedRMSD -1
REMARK  0 active torsions:
REMARK  status: ('A' for Active; 'I' for Inactive)
ROOT
ATOM      1  C   UNL d   1       5.995  -2.960   5.418  0.00  0.00     0.023 A 
ATOM      2  C1  UNL d   1       5.999  -2.200   4.249  0.00  0.00     0.003 A 
ATOM      3  C2  UNL d   1       4.793  -1.818   3.658  0.00  0.00     0.048 A 
ATOM      4  C3  UNL d   1       3.586  -2.199   4.243  0.00  0.00     0.023 A 
ATOM      5  C4  UNL d   1       3.576  -2.959   5.413  0.00  0.00     0.048 A 
ATOM      6  C5  UNL d   1       4.785  -3.339   6.000  0.00  0.00     0.003 A 
ATOM      7  I   UNL d   1       1.789  -1.632   3.366  0.00  0.00    -0.146 I 
ENDROOT
TORSDOF 0
ENDMDL
