MODEL 1
REMARK minimizedAffinity 4.49373055
REMARK minimizedRMSD -1
REMARK  0 active torsions:
REMARK  status: ('A' for Active; 'I' for Inactive)
ROOT
ATOM      1  C   UNL d   1       1.496  -2.023   4.153  0.00  0.00     0.023 A 
ATOM      2  C1  UNL d   1       2.576  -1.562   3.400  0.00  0.00     0.003 A 
ATOM      3  C2  UNL d   1       3.868  -1.609   3.929  0.00  0.00     0.048 A 
ATOM      4  C3  UNL d   1       4.072  -2.118   5.211  0.00  0.00     0.023 A 
ATOM      5  C4  UNL d   1       2.995  -2.582   5.967  0.00  0.00     0.048 A 
ATOM      6  C5  UNL d   1       1.705  -2.532   5.435  0.00  0.00     0.003 A 
ATOM      7  I   UNL d   1       5.994  -2.189   6.000  0.00  0.00    -0.146 I 
ENDROOT
TORSDOF 0
ENDMDL
