MODEL 1
REMARK minimizedAffinity 8.17993736
REMARK minimizedRMSD -1
REMARK  0 active torsions:
REMARK  status: ('A' for Active; 'I' for Inactive)
ROOT
ATOM      1  C   UNL d   1       1.866  -1.502   3.024  0.00  0.00     0.023 A 
ATOM      2  C1  UNL d   1       1.521  -1.722   1.691  0.00  0.00     0.003 A 
ATOM      3  C2  UNL d   1       1.874  -2.919   1.065  0.00  0.00     0.048 A 
ATOM      4  C3  UNL d   1       2.571  -3.893   1.779  0.00  0.00     0.023 A 
ATOM      5  C4  UNL d   1       2.918  -3.678   3.114  0.00  0.00     0.048 A 
ATOM      6  C5  UNL d   1       2.564  -2.479   3.735  0.00  0.00     0.003 A 
ATOM      7  I   UNL d   1       3.097  -5.676   0.850  0.00  0.00    -0.146 I 
ENDROOT
TORSDOF 0
ENDMDL
