MODEL 1
REMARK minimizedAffinity -2.45274282
REMARK minimizedRMSD -1
REMARK  0 active torsions:
REMARK  status: ('A' for Active; 'I' for Inactive)
ROOT
ATOM      1  C   UNL d   1      -3.509   4.138  -3.219  0.00  0.00     0.023 A 
ATOM      2  C1  UNL d   1      -2.884   3.173  -4.009  0.00  0.00     0.003 A 
ATOM      3  C2  UNL d   1      -2.517   1.945  -3.454  0.00  0.00     0.048 A 
ATOM      4  C3  UNL d   1      -2.780   1.688  -2.109  0.00  0.00     0.023 A 
ATOM      5  C4  UNL d   1      -3.407   2.651  -1.315  0.00  0.00     0.048 A 
ATOM      6  C5  UNL d   1      -3.771   3.877  -1.874  0.00  0.00     0.003 A 
ATOM      7  I   UNL d   1      -2.236  -0.138  -1.281  0.00  0.00    -0.146 I 
ENDROOT
TORSDOF 0
ENDMDL
