MODEL 1
REMARK minimizedAffinity 1.02090895
REMARK minimizedRMSD -1
REMARK  0 active torsions:
REMARK  status: ('A' for Active; 'I' for Inactive)
ROOT
ATOM      1  C   UNL d   1      -3.358   6.000  -4.694  0.00  0.00     0.023 A 
ATOM      2  C1  UNL d   1      -3.027   4.849  -5.410  0.00  0.00     0.003 A 
ATOM      3  C2  UNL d   1      -2.742   3.662  -4.733  0.00  0.00     0.048 A 
ATOM      4  C3  UNL d   1      -2.790   3.632  -3.339  0.00  0.00     0.023 A 
ATOM      5  C4  UNL d   1      -3.121   4.781  -2.619  0.00  0.00     0.048 A 
ATOM      6  C5  UNL d   1      -3.404   5.966  -3.300  0.00  0.00     0.003 A 
ATOM      7  I   UNL d   1      -2.366   1.866  -2.329  0.00  0.00    -0.146 I 
ENDROOT
TORSDOF 0
ENDMDL
