MODEL 1
REMARK minimizedAffinity 3.7395792
REMARK minimizedRMSD -1
REMARK  0 active torsions:
REMARK  status: ('A' for Active; 'I' for Inactive)
ROOT
ATOM      1  C   UNL d   1      -3.931   1.920  -0.757  0.00  0.00     0.023 A 
ATOM      2  C1  UNL d   1      -5.037   2.627  -1.231  0.00  0.00     0.003 A 
ATOM      3  C2  UNL d   1      -4.876   3.592  -2.227  0.00  0.00     0.048 A 
ATOM      4  C3  UNL d   1      -3.606   3.845  -2.746  0.00  0.00     0.023 A 
ATOM      5  C4  UNL d   1      -2.497   3.140  -2.276  0.00  0.00     0.048 A 
ATOM      6  C5  UNL d   1      -2.663   2.177  -1.279  0.00  0.00     0.003 A 
ATOM      7  I   UNL d   1      -3.364   5.281  -4.229  0.00  0.00    -0.146 I 
ENDROOT
TORSDOF 0
ENDMDL
