MODEL 1
REMARK minimizedAffinity 4.19134283
REMARK minimizedRMSD -1
REMARK  0 active torsions:
REMARK  status: ('A' for Active; 'I' for Inactive)
ROOT
ATOM      1  C   UNL d   1       0.041  -1.608   0.690  0.00  0.00     0.023 A 
ATOM      2  C1  UNL d   1      -0.925  -1.281  -0.261  0.00  0.00     0.003 A 
ATOM      3  C2  UNL d   1      -0.599  -1.286  -1.619  0.00  0.00     0.048 A 
ATOM      4  C3  UNL d   1       0.695  -1.620  -2.018  0.00  0.00     0.023 A 
ATOM      5  C4  UNL d   1       1.665  -1.949  -1.070  0.00  0.00     0.048 A 
ATOM      6  C5  UNL d   1       1.334  -1.941   0.287  0.00  0.00     0.003 A 
ATOM      7  I   UNL d   1       1.182  -1.629  -4.039  0.00  0.00    -0.146 I 
ENDROOT
TORSDOF 0
ENDMDL
