MODEL 1
REMARK minimizedAffinity -1.76003909
REMARK minimizedRMSD -1
REMARK  0 active torsions:
REMARK  status: ('A' for Active; 'I' for Inactive)
ROOT
ATOM      1  C   UNL d   1      -2.295   1.524  -1.360  0.00  0.00     0.023 A 
ATOM      2  C1  UNL d   1      -1.964   1.095  -2.646  0.00  0.00     0.003 A 
ATOM      3  C2  UNL d   1      -2.021   1.988  -3.718  0.00  0.00     0.048 A 
ATOM      4  C3  UNL d   1      -2.408   3.309  -3.497  0.00  0.00     0.023 A 
ATOM      5  C4  UNL d   1      -2.739   3.744  -2.213  0.00  0.00     0.048 A 
ATOM      6  C5  UNL d   1      -2.682   2.847  -1.144  0.00  0.00     0.003 A 
ATOM      7  I   UNL d   1      -2.492   4.640  -5.092  0.00  0.00    -0.146 I 
ENDROOT
TORSDOF 0
ENDMDL
