MODEL 1
REMARK minimizedAffinity -3.09306598
REMARK minimizedRMSD -1
REMARK  0 active torsions:
REMARK  status: ('A' for Active; 'I' for Inactive)
ROOT
ATOM      1  C   UNL d   1      -2.474   3.934  -3.387  0.00  0.00     0.023 A 
ATOM      2  C1  UNL d   1      -1.440   3.801  -2.459  0.00  0.00     0.003 A 
ATOM      3  C2  UNL d   1      -1.185   2.562  -1.869  0.00  0.00     0.048 A 
ATOM      4  C3  UNL d   1      -1.967   1.459  -2.211  0.00  0.00     0.023 A 
ATOM      5  C4  UNL d   1      -3.002   1.587  -3.139  0.00  0.00     0.048 A 
ATOM      6  C5  UNL d   1      -3.254   2.828  -3.726  0.00  0.00     0.003 A 
ATOM      7  I   UNL d   1      -1.589  -0.387  -1.334  0.00  0.00    -0.146 I 
ENDROOT
TORSDOF 0
ENDMDL
