MODEL 1
REMARK minimizedAffinity 3.95584106
REMARK minimizedRMSD -1
REMARK  1 active torsions:
REMARK  status: ('A' for Active; 'I' for Inactive)
REMARK    1  A    between atoms: C1_2  and  C2_3 
ROOT
ATOM      1  C2  UNL d   1       0.301   1.429   2.227  0.00  0.00    -0.077 A 
ATOM      2  C3  UNL d   1       0.596   0.310   3.018  0.00  0.00     0.002 A 
ATOM      3  C4  UNL d   1       0.607  -0.969   2.457  0.00  0.00     0.002 A 
ATOM      4  C5  UNL d   1       0.328  -1.139   1.103  0.00  0.00    -0.004 A 
ATOM      5  C6  UNL d   1       0.030  -0.033   0.308  0.00  0.00     0.002 A 
ATOM      6  C7  UNL d   1       0.018   1.246   0.868  0.00  0.00     0.002 A 
ENDROOT
BRANCH   1   7
ATOM      7  C1  UNL d   1       0.337   2.814   2.820  0.00  0.00     0.055 C 
ATOM      8  C   UNL d   1       1.757   3.222   3.185  0.00  0.00     0.019 C 
ENDBRANCH   1   7
TORSDOF 1
ENDMDL
