MODEL 1
REMARK minimizedAffinity -0.883716226
REMARK minimizedRMSD -1
REMARK  1 active torsions:
REMARK  status: ('A' for Active; 'I' for Inactive)
REMARK    1  A    between atoms: C1_2  and  C2_3 
ROOT
ATOM      1  C2  UNL d   1       0.753   2.264   0.971  0.00  0.00    -0.077 A 
ATOM      2  C3  UNL d   1       0.399   3.183  -0.027  0.00  0.00     0.002 A 
ATOM      3  C4  UNL d   1       0.785   4.521   0.076  0.00  0.00     0.002 A 
ATOM      4  C5  UNL d   1       1.529   4.951   1.172  0.00  0.00    -0.004 A 
ATOM      5  C6  UNL d   1       1.884   4.045   2.171  0.00  0.00     0.002 A 
ATOM      6  C7  UNL d   1       1.498   2.708   2.070  0.00  0.00     0.002 A 
ENDROOT
BRANCH   1   7
ATOM      7  C1  UNL d   1       0.380   0.811   0.837  0.00  0.00     0.055 C 
ATOM      8  C   UNL d   1       1.454  -0.092   1.425  0.00  0.00     0.019 C 
ENDBRANCH   1   7
TORSDOF 1
ENDMDL
