MODEL 1
REMARK minimizedAffinity -0.852356195
REMARK minimizedRMSD -1
REMARK  1 active torsions:
REMARK  status: ('A' for Active; 'I' for Inactive)
REMARK    1  A    between atoms: C1_2  and  C2_3 
ROOT
ATOM      1  C2  UNL d   1       0.431   0.211   0.014  0.00  0.00    -0.077 A 
ATOM      2  C3  UNL d   1      -0.065   1.522   0.002  0.00  0.00     0.002 A 
ATOM      3  C4  UNL d   1      -0.157   2.253   1.188  0.00  0.00     0.002 A 
ATOM      4  C5  UNL d   1       0.249   1.683   2.393  0.00  0.00    -0.004 A 
ATOM      5  C6  UNL d   1       0.741   0.379   2.416  0.00  0.00     0.002 A 
ATOM      6  C7  UNL d   1       0.833  -0.354   1.231  0.00  0.00     0.002 A 
ENDROOT
BRANCH   1   7
ATOM      7  C1  UNL d   1       0.577  -0.562  -1.271  0.00  0.00     0.055 C 
ATOM      8  C   UNL d   1      -0.638  -0.379  -2.168  0.00  0.00     0.019 C 
ENDBRANCH   1   7
TORSDOF 1
ENDMDL
