MODEL 1
REMARK minimizedAffinity -3.89505124
REMARK minimizedRMSD -1
REMARK  1 active torsions:
REMARK  status: ('A' for Active; 'I' for Inactive)
REMARK    1  A    between atoms: C1_2  and  C2_3 
ROOT
ATOM      1  C2  UNL d   1       0.217   3.150   0.887  0.00  0.00    -0.077 A 
ATOM      2  C3  UNL d   1       0.414   2.252  -0.171  0.00  0.00     0.002 A 
ATOM      3  C4  UNL d   1       0.509   0.881   0.076  0.00  0.00     0.002 A 
ATOM      4  C5  UNL d   1       0.405   0.396   1.378  0.00  0.00    -0.004 A 
ATOM      5  C6  UNL d   1       0.212   1.282   2.437  0.00  0.00     0.002 A 
ATOM      6  C7  UNL d   1       0.117   2.653   2.193  0.00  0.00     0.002 A 
ENDROOT
BRANCH   1   7
ATOM      7  C1  UNL d   1       0.065   4.625   0.618  0.00  0.00     0.055 C 
ATOM      8  C   UNL d   1       1.044   5.097  -0.447  0.00  0.00     0.019 C 
ENDBRANCH   1   7
TORSDOF 1
ENDMDL
