MODEL 1
REMARK minimizedAffinity -3.86015606
REMARK minimizedRMSD -1
REMARK  1 active torsions:
REMARK  status: ('A' for Active; 'I' for Inactive)
REMARK    1  A    between atoms: C1_2  and  C2_3 
ROOT
ATOM      1  C2  UNL d   1       0.390   2.631   0.711  0.00  0.00    -0.077 A 
ATOM      2  C3  UNL d   1       0.527   2.653   2.106  0.00  0.00     0.002 A 
ATOM      3  C4  UNL d   1       0.699   1.464   2.818  0.00  0.00     0.002 A 
ATOM      4  C5  UNL d   1       0.740   0.246   2.143  0.00  0.00    -0.004 A 
ATOM      5  C6  UNL d   1       0.603   0.213   0.756  0.00  0.00     0.002 A 
ATOM      6  C7  UNL d   1       0.430   1.400   0.043  0.00  0.00     0.002 A 
ENDROOT
BRANCH   1   7
ATOM      7  C1  UNL d   1       0.254   3.916  -0.063  0.00  0.00     0.055 C 
ATOM      8  C   UNL d   1       1.604   4.591  -0.258  0.00  0.00     0.019 C 
ENDBRANCH   1   7
TORSDOF 1
ENDMDL
