MODEL 1
REMARK minimizedAffinity -0.321465164
REMARK minimizedRMSD -1
REMARK  3 active torsions:
REMARK  status: ('A' for Active; 'I' for Inactive)
REMARK    1  A    between atoms: C3'_2  and  C2'_3 
REMARK    2  A    between atoms: C2'_3  and  C1'_4 
REMARK    3  A    between atoms: C1'_4  and  C1_5 
ROOT
ATOM      1  C1  N4B d   1       0.073   0.480   0.689  0.00  0.00    -0.075 A 
ATOM      2  C2  N4B d   1       0.257  -0.773   0.064  0.00  0.00     0.002 A 
ATOM      3  C3  N4B d   1       1.173  -0.906  -0.951  0.00  0.00     0.002 A 
ATOM      4  C4  N4B d   1       1.900   0.199  -1.368  0.00  0.00    -0.004 A 
ATOM      5  C5  N4B d   1       1.735   1.400  -0.741  0.00  0.00     0.002 A 
ATOM      6  C6  N4B d   1       0.820   1.547   0.282  0.00  0.00     0.002 A 
ENDROOT
BRANCH   1   7
ATOM      7  C1' N4B d   1      -0.977   0.694   1.744  0.00  0.00     0.057 C 
BRANCH   7   8
ATOM      8  C2' N4B d   1      -2.352   0.731   1.083  0.00  0.00     0.009 C 
BRANCH   8   9
ATOM      9  C3' N4B d   1      -3.365   1.494   1.919  0.00  0.00     0.004 C 
ATOM     10  C4' N4B d   1      -4.781   1.112   1.607  0.00  0.00     0.003 C 
ENDBRANCH   8   9
ENDBRANCH   7   8
ENDBRANCH   1   7
TORSDOF 3
ENDMDL
