MODEL 1
REMARK minimizedAffinity -0.173206419
REMARK minimizedRMSD -1
REMARK  3 active torsions:
REMARK  status: ('A' for Active; 'I' for Inactive)
REMARK    1  A    between atoms: C3'_2  and  C2'_3 
REMARK    2  A    between atoms: C2'_3  and  C1'_4 
REMARK    3  A    between atoms: C1'_4  and  C1_5 
ROOT
ATOM      1  C1  N4B d   1      -0.151   0.250   0.930  0.00  0.00    -0.075 A 
ATOM      2  C2  N4B d   1       0.590   1.427   1.178  0.00  0.00     0.002 A 
ATOM      3  C3  N4B d   1       1.536   1.845   0.275  0.00  0.00     0.002 A 
ATOM      4  C4  N4B d   1       1.772   1.096  -0.868  0.00  0.00    -0.004 A 
ATOM      5  C5  N4B d   1       1.034  -0.025  -1.112  0.00  0.00     0.002 A 
ATOM      6  C6  N4B d   1       0.077  -0.455  -0.216  0.00  0.00     0.002 A 
ENDROOT
BRANCH   1   7
ATOM      7  C1' N4B d   1      -1.136  -0.293   1.929  0.00  0.00     0.057 C 
BRANCH   7   8
ATOM      8  C2' N4B d   1      -2.241   0.735   2.152  0.00  0.00     0.009 C 
BRANCH   8   9
ATOM      9  C3' N4B d   1      -3.551   0.308   1.511  0.00  0.00     0.004 C 
ATOM     10  C4' N4B d   1      -4.536   1.434   1.398  0.00  0.00     0.003 C 
ENDBRANCH   8   9
ENDBRANCH   7   8
ENDBRANCH   1   7
TORSDOF 3
ENDMDL
