MODEL 1
REMARK minimizedAffinity -3.63112068
REMARK minimizedRMSD -1
REMARK  3 active torsions:
REMARK  status: ('A' for Active; 'I' for Inactive)
REMARK    1  A    between atoms: C3'_2  and  C2'_3 
REMARK    2  A    between atoms: C2'_3  and  C1'_4 
REMARK    3  A    between atoms: C1'_4  and  C1_5 
ROOT
ATOM      1  C1  N4B d   1      -3.843  -1.250  -5.924  0.00  0.00    -0.075 A 
ATOM      2  C2  N4B d   1      -5.239  -1.449  -5.989  0.00  0.00     0.002 A 
ATOM      3  C3  N4B d   1      -5.751  -2.723  -5.997  0.00  0.00     0.002 A 
ATOM      4  C4  N4B d   1      -4.889  -3.809  -5.961  0.00  0.00    -0.004 A 
ATOM      5  C5  N4B d   1      -3.543  -3.608  -5.873  0.00  0.00     0.002 A 
ATOM      6  C6  N4B d   1      -3.015  -2.333  -5.860  0.00  0.00     0.002 A 
ENDROOT
BRANCH   1   7
ATOM      7  C1' N4B d   1      -3.232   0.123  -5.999  0.00  0.00     0.057 C 
BRANCH   7   8
ATOM      8  C2' N4B d   1      -4.343   1.168  -5.963  0.00  0.00     0.009 C 
BRANCH   8   9
ATOM      9  C3' N4B d   1      -3.792   2.582  -5.909  0.00  0.00     0.004 C 
ATOM     10  C4' N4B d   1      -4.868   3.622  -5.807  0.00  0.00     0.003 C 
ENDBRANCH   8   9
ENDBRANCH   7   8
ENDBRANCH   1   7
TORSDOF 3
ENDMDL
