MODEL 1
REMARK minimizedAffinity 6.66816235
REMARK minimizedRMSD -1
REMARK  3 active torsions:
REMARK  status: ('A' for Active; 'I' for Inactive)
REMARK    1  A    between atoms: C3'_2  and  C2'_3 
REMARK    2  A    between atoms: C2'_3  and  C1'_4 
REMARK    3  A    between atoms: C1'_4  and  C1_5 
ROOT
ATOM      1  C1  N4B d   1       1.162   1.173  -0.939  0.00  0.00    -0.075 A 
ATOM      2  C2  N4B d   1       1.042   1.006  -2.336  0.00  0.00     0.002 A 
ATOM      3  C3  N4B d   1       0.703  -0.220  -2.853  0.00  0.00     0.002 A 
ATOM      4  C4  N4B d   1       0.498  -1.293  -1.999  0.00  0.00    -0.004 A 
ATOM      5  C5  N4B d   1       0.591  -1.116  -0.649  0.00  0.00     0.002 A 
ATOM      6  C6  N4B d   1       0.927   0.111  -0.115  0.00  0.00     0.002 A 
ENDROOT
BRANCH   1   7
ATOM      7  C1' N4B d   1       1.614   2.473  -0.331  0.00  0.00     0.057 C 
BRANCH   7   8
ATOM      8  C2' N4B d   1       1.601   2.346   1.190  0.00  0.00     0.009 C 
BRANCH   8   9
ATOM      9  C3' N4B d   1       2.817   2.998   1.825  0.00  0.00     0.004 C 
ATOM     10  C4' N4B d   1       2.522   4.361   2.378  0.00  0.00     0.003 C 
ENDBRANCH   8   9
ENDBRANCH   7   8
ENDBRANCH   1   7
TORSDOF 3
ENDMDL
