MODEL 1
REMARK minimizedAffinity -3.35310626
REMARK minimizedRMSD -1
REMARK  3 active torsions:
REMARK  status: ('A' for Active; 'I' for Inactive)
REMARK    1  A    between atoms: C3'_2  and  C2'_3 
REMARK    2  A    between atoms: C2'_3  and  C1'_4 
REMARK    3  A    between atoms: C1'_4  and  C1_5 
ROOT
ATOM      1  C1  N4B d   1      -3.821   2.655  -5.968  0.00  0.00    -0.075 A 
ATOM      2  C2  N4B d   1      -5.226   2.792  -5.918  0.00  0.00     0.002 A 
ATOM      3  C3  N4B d   1      -5.793   4.043  -5.892  0.00  0.00     0.002 A 
ATOM      4  C4  N4B d   1      -4.978   5.165  -5.894  0.00  0.00    -0.004 A 
ATOM      5  C5  N4B d   1      -3.623   5.024  -5.967  0.00  0.00     0.002 A 
ATOM      6  C6  N4B d   1      -3.040   3.773  -5.999  0.00  0.00     0.002 A 
ENDROOT
BRANCH   1   7
ATOM      7  C1' N4B d   1      -3.153   1.308  -5.912  0.00  0.00     0.057 C 
BRANCH   7   8
ATOM      8  C2' N4B d   1      -4.216   0.217  -5.999  0.00  0.00     0.009 C 
BRANCH   8   9
ATOM      9  C3' N4B d   1      -3.608  -1.174  -5.948  0.00  0.00     0.004 C 
ATOM     10  C4' N4B d   1      -4.642  -2.259  -5.920  0.00  0.00     0.003 C 
ENDBRANCH   8   9
ENDBRANCH   7   8
ENDBRANCH   1   7
TORSDOF 3
ENDMDL
