MODEL 1
REMARK minimizedAffinity 7.07726288
REMARK minimizedRMSD -1
REMARK  3 active torsions:
REMARK  status: ('A' for Active; 'I' for Inactive)
REMARK    1  A    between atoms: C3'_2  and  C2'_3 
REMARK    2  A    between atoms: C2'_3  and  C1'_4 
REMARK    3  A    between atoms: C1'_4  and  C1_5 
ROOT
ATOM      1  C1  N4B d   1      -3.211  -4.077  -5.943  0.00  0.00    -0.075 A 
ATOM      2  C2  N4B d   1      -4.608  -4.285  -5.963  0.00  0.00     0.002 A 
ATOM      3  C3  N4B d   1      -5.461  -3.209  -5.995  0.00  0.00     0.002 A 
ATOM      4  C4  N4B d   1      -4.944  -1.922  -5.989  0.00  0.00    -0.004 A 
ATOM      5  C5  N4B d   1      -3.593  -1.731  -5.995  0.00  0.00     0.002 A 
ATOM      6  C6  N4B d   1      -2.724  -2.802  -5.967  0.00  0.00     0.002 A 
ENDROOT
BRANCH   1   7
ATOM      7  C1' N4B d   1      -2.240  -5.220  -5.822  0.00  0.00     0.057 C 
BRANCH   7   8
ATOM      8  C2' N4B d   1      -1.131  -4.832  -4.848  0.00  0.00     0.009 C 
BRANCH   8   9
ATOM      9  C3' N4B d   1      -0.201  -5.997  -4.554  0.00  0.00     0.004 C 
ATOM     10  C4' N4B d   1       1.064  -5.947  -5.357  0.00  0.00     0.003 C 
ENDBRANCH   8   9
ENDBRANCH   7   8
ENDBRANCH   1   7
TORSDOF 3
ENDMDL
