MODEL 1
REMARK minimizedAffinity 6.60505676
REMARK minimizedRMSD -1
REMARK  3 active torsions:
REMARK  status: ('A' for Active; 'I' for Inactive)
REMARK    1  A    between atoms: C3'_2  and  C2'_3 
REMARK    2  A    between atoms: C2'_3  and  C1'_4 
REMARK    3  A    between atoms: C1'_4  and  C1_5 
ROOT
ATOM      1  C1  N4B d   1      -2.545   4.261  -4.595  0.00  0.00    -0.075 A 
ATOM      2  C2  N4B d   1      -1.758   4.588  -5.722  0.00  0.00     0.002 A 
ATOM      3  C3  N4B d   1      -0.693   5.445  -5.590  0.00  0.00     0.002 A 
ATOM      4  C4  N4B d   1      -0.408   6.000  -4.352  0.00  0.00    -0.004 A 
ATOM      5  C5  N4B d   1      -1.157   5.659  -3.263  0.00  0.00     0.002 A 
ATOM      6  C6  N4B d   1      -2.228   4.796  -3.380  0.00  0.00     0.002 A 
ENDROOT
BRANCH   1   7
ATOM      7  C1' N4B d   1      -3.770   3.397  -4.706  0.00  0.00     0.057 C 
BRANCH   7   8
ATOM      8  C2' N4B d   1      -3.696   2.585  -5.997  0.00  0.00     0.009 C 
BRANCH   8   9
ATOM      9  C3' N4B d   1      -2.955   1.274  -5.801  0.00  0.00     0.004 C 
ATOM     10  C4' N4B d   1      -2.453   1.094  -4.399  0.00  0.00     0.003 C 
ENDBRANCH   8   9
ENDBRANCH   7   8
ENDBRANCH   1   7
TORSDOF 3
ENDMDL
