MODEL 1
REMARK minimizedAffinity 10.8887711
REMARK minimizedRMSD -1
REMARK  3 active torsions:
REMARK  status: ('A' for Active; 'I' for Inactive)
REMARK    1  A    between atoms: C3'_2  and  C2'_3 
REMARK    2  A    between atoms: C2'_3  and  C1'_4 
REMARK    3  A    between atoms: C1'_4  and  C1_5 
ROOT
ATOM      1  C1  N4B d   1      -1.715   5.053  -4.466  0.00  0.00    -0.075 A 
ATOM      2  C2  N4B d   1      -2.654   4.738  -3.458  0.00  0.00     0.002 A 
ATOM      3  C3  N4B d   1      -3.729   3.935  -3.748  0.00  0.00     0.002 A 
ATOM      4  C4  N4B d   1      -3.896   3.452  -5.038  0.00  0.00    -0.004 A 
ATOM      5  C5  N4B d   1      -2.972   3.740  -5.999  0.00  0.00     0.002 A 
ATOM      6  C6  N4B d   1      -1.884   4.543  -5.720  0.00  0.00     0.002 A 
ENDROOT
BRANCH   1   7
ATOM      7  C1' N4B d   1      -0.571   5.997  -4.218  0.00  0.00     0.057 C 
BRANCH   7   8
ATOM      8  C2' N4B d   1      -0.233   5.995  -2.730  0.00  0.00     0.009 C 
BRANCH   8   9
ATOM      9  C3' N4B d   1       1.103   5.329  -2.451  0.00  0.00     0.004 C 
ATOM     10  C4' N4B d   1       1.692   5.737  -1.134  0.00  0.00     0.003 C 
ENDBRANCH   8   9
ENDBRANCH   7   8
ENDBRANCH   1   7
TORSDOF 3
ENDMDL
