MODEL 1
REMARK minimizedAffinity 6.69392204
REMARK minimizedRMSD -1
REMARK  3 active torsions:
REMARK  status: ('A' for Active; 'I' for Inactive)
REMARK    1  A    between atoms: C3'_2  and  C2'_3 
REMARK    2  A    between atoms: C2'_3  and  C1'_4 
REMARK    3  A    between atoms: C1'_4  and  C1_5 
ROOT
ATOM      1  C1  N4B d   1       1.457   4.081   1.232  0.00  0.00    -0.075 A 
ATOM      2  C2  N4B d   1       1.523   2.674   1.328  0.00  0.00     0.002 A 
ATOM      3  C3  N4B d   1       1.297   1.899   0.217  0.00  0.00     0.002 A 
ATOM      4  C4  N4B d   1       0.986   2.505  -0.991  0.00  0.00    -0.004 A 
ATOM      5  C5  N4B d   1       0.948   3.866  -1.081  0.00  0.00     0.002 A 
ATOM      6  C6  N4B d   1       1.177   4.657   0.026  0.00  0.00     0.002 A 
ENDROOT
BRANCH   1   7
ATOM      7  C1' N4B d   1       1.611   4.968   2.437  0.00  0.00     0.057 C 
BRANCH   7   8
ATOM      8  C2' N4B d   1       2.971   4.707   3.079  0.00  0.00     0.009 C 
BRANCH   8   9
ATOM      9  C3' N4B d   1       3.768   5.987   3.261  0.00  0.00     0.004 C 
ATOM     10  C4' N4B d   1       5.037   6.000   2.463  0.00  0.00     0.003 C 
ENDBRANCH   8   9
ENDBRANCH   7   8
ENDBRANCH   1   7
TORSDOF 3
ENDMDL
