MODEL 1
REMARK minimizedAffinity 2.96621132
REMARK minimizedRMSD -1
REMARK  3 active torsions:
REMARK  status: ('A' for Active; 'I' for Inactive)
REMARK    1  A    between atoms: C3'_2  and  C2'_3 
REMARK    2  A    between atoms: C2'_3  and  C1'_4 
REMARK    3  A    between atoms: C1'_4  and  C1_5 
ROOT
ATOM      1  C1  N4B d   1      -4.256   0.207   3.299  0.00  0.00    -0.075 A 
ATOM      2  C2  N4B d   1      -3.452   0.383   4.447  0.00  0.00     0.002 A 
ATOM      3  C3  N4B d   1      -2.677   1.509   4.576  0.00  0.00     0.002 A 
ATOM      4  C4  N4B d   1      -2.675   2.460   3.566  0.00  0.00    -0.004 A 
ATOM      5  C5  N4B d   1      -3.473   2.295   2.473  0.00  0.00     0.002 A 
ATOM      6  C6  N4B d   1      -4.261   1.170   2.331  0.00  0.00     0.002 A 
ENDROOT
BRANCH   1   7
ATOM      7  C1' N4B d   1      -5.055  -1.048   3.073  0.00  0.00     0.057 C 
BRANCH   7   8
ATOM      8  C2' N4B d   1      -4.121  -2.157   2.598  0.00  0.00     0.009 C 
BRANCH   8   9
ATOM      9  C3' N4B d   1      -3.773  -3.124   3.716  0.00  0.00     0.004 C 
ATOM     10  C4' N4B d   1      -2.447  -3.794   3.513  0.00  0.00     0.003 C 
ENDBRANCH   8   9
ENDBRANCH   7   8
ENDBRANCH   1   7
TORSDOF 3
ENDMDL
