MODEL 1
REMARK minimizedAffinity 4.36052275
REMARK minimizedRMSD -1
REMARK  1 active torsions:
REMARK  status: ('A' for Active; 'I' for Inactive)
REMARK    1  A    between atoms: C1_2  and  C2_3 
ROOT
ATOM      1  C2  UNL d   1      -1.912  -2.691  -3.225  0.00  0.00    -0.077 A 
ATOM      2  C3  UNL d   1      -1.545  -1.940  -2.100  0.00  0.00     0.002 A 
ATOM      3  C4  UNL d   1      -2.311  -1.992  -0.934  0.00  0.00     0.002 A 
ATOM      4  C5  UNL d   1      -3.447  -2.798  -0.881  0.00  0.00    -0.004 A 
ATOM      5  C6  UNL d   1      -3.821  -3.548  -1.995  0.00  0.00     0.002 A 
ATOM      6  C7  UNL d   1      -3.057  -3.496  -3.161  0.00  0.00     0.002 A 
ENDROOT
BRANCH   1   7
ATOM      7  C1  UNL d   1      -1.059  -2.674  -4.466  0.00  0.00     0.055 C 
ATOM      8  C   UNL d   1      -1.881  -2.323  -5.698  0.00  0.00     0.019 C 
ENDBRANCH   1   7
TORSDOF 1
ENDMDL
