MODEL 1
REMARK minimizedAffinity 0.524651051
REMARK minimizedRMSD -1
REMARK  1 active torsions:
REMARK  status: ('A' for Active; 'I' for Inactive)
REMARK    1  A    between atoms: C1_2  and  C2_3 
ROOT
ATOM      1  C2  UNL d   1       3.550   0.704   1.055  0.00  0.00    -0.077 A 
ATOM      2  C3  UNL d   1       4.611   0.131   1.769  0.00  0.00     0.002 A 
ATOM      3  C4  UNL d   1       5.832   0.801   1.879  0.00  0.00     0.002 A 
ATOM      4  C5  UNL d   1       6.000   2.048   1.280  0.00  0.00    -0.004 A 
ATOM      5  C6  UNL d   1       4.950   2.625   0.566  0.00  0.00     0.002 A 
ATOM      6  C7  UNL d   1       3.731   1.956   0.455  0.00  0.00     0.002 A 
ENDROOT
BRANCH   1   7
ATOM      7  C1  UNL d   1       2.217   0.005   0.978  0.00  0.00     0.055 C 
ATOM      8  C   UNL d   1       1.164   0.728   1.805  0.00  0.00     0.019 C 
ENDBRANCH   1   7
TORSDOF 1
ENDMDL
