MODEL 1
REMARK minimizedAffinity 4.94731188
REMARK minimizedRMSD -1
REMARK  1 active torsions:
REMARK  status: ('A' for Active; 'I' for Inactive)
REMARK    1  A    between atoms: C1_2  and  C2_3 
ROOT
ATOM      1  C2  UNL d   1       4.855   0.763   1.186  0.00  0.00    -0.077 A 
ATOM      2  C3  UNL d   1       6.000   1.502   1.516  0.00  0.00     0.002 A 
ATOM      3  C4  UNL d   1       5.994   2.895   1.416  0.00  0.00     0.002 A 
ATOM      4  C5  UNL d   1       4.847   3.560   0.989  0.00  0.00    -0.004 A 
ATOM      5  C6  UNL d   1       3.704   2.834   0.656  0.00  0.00     0.002 A 
ATOM      6  C7  UNL d   1       3.708   1.442   0.755  0.00  0.00     0.002 A 
ENDROOT
BRANCH   1   7
ATOM      7  C1  UNL d   1       4.843  -0.735   1.341  0.00  0.00     0.055 C 
ATOM      8  C   UNL d   1       5.996  -1.211   2.214  0.00  0.00     0.019 C 
ENDBRANCH   1   7
TORSDOF 1
ENDMDL
