MODEL 1
REMARK minimizedAffinity 9.27043438
REMARK minimizedRMSD -1
REMARK  1 active torsions:
REMARK  status: ('A' for Active; 'I' for Inactive)
REMARK    1  A    between atoms: C1_2  and  C2_3 
ROOT
ATOM      1  C2  UNL d   1       3.810   1.539  -0.928  0.00  0.00    -0.077 A 
ATOM      2  C3  UNL d   1       2.904   2.537  -0.542  0.00  0.00     0.002 A 
ATOM      3  C4  UNL d   1       2.094   2.360   0.582  0.00  0.00     0.002 A 
ATOM      4  C5  UNL d   1       2.185   1.189   1.330  0.00  0.00    -0.004 A 
ATOM      5  C6  UNL d   1       3.081   0.189   0.953  0.00  0.00     0.002 A 
ATOM      6  C7  UNL d   1       3.891   0.364  -0.170  0.00  0.00     0.002 A 
ENDROOT
BRANCH   1   7
ATOM      7  C1  UNL d   1       4.719   1.749  -2.110  0.00  0.00     0.055 C 
ATOM      8  C   UNL d   1       3.933   1.799  -3.412  0.00  0.00     0.019 C 
ENDBRANCH   1   7
TORSDOF 1
ENDMDL
