MODEL 1
REMARK minimizedAffinity 4.59745836
REMARK minimizedRMSD -1
REMARK  1 active torsions:
REMARK  status: ('A' for Active; 'I' for Inactive)
REMARK    1  A    between atoms: C1_2  and  C2_3 
ROOT
ATOM      1  C2  UNL d   1       2.435   1.068   1.330  0.00  0.00    -0.077 A 
ATOM      2  C3  UNL d   1       1.387   0.420   1.998  0.00  0.00     0.002 A 
ATOM      3  C4  UNL d   1       0.321   1.155   2.521  0.00  0.00     0.002 A 
ATOM      4  C5  UNL d   1       0.291   2.540   2.377  0.00  0.00    -0.004 A 
ATOM      5  C6  UNL d   1       1.330   3.194   1.716  0.00  0.00     0.002 A 
ATOM      6  C7  UNL d   1       2.396   2.461   1.193  0.00  0.00     0.002 A 
ENDROOT
BRANCH   1   7
ATOM      7  C1  UNL d   1       3.560   0.272   0.722  0.00  0.00     0.055 C 
ATOM      8  C   UNL d   1       4.568  -0.157   1.778  0.00  0.00     0.019 C 
ENDBRANCH   1   7
TORSDOF 1
ENDMDL
