MODEL 1
REMARK minimizedAffinity 5.15808964
REMARK minimizedRMSD -1
REMARK  1 active torsions:
REMARK  status: ('A' for Active; 'I' for Inactive)
REMARK    1  A    between atoms: C1_2  and  C2_3 
ROOT
ATOM      1  C2  UNL d   1       4.358   5.060   3.524  0.00  0.00    -0.077 A 
ATOM      2  C3  UNL d   1       4.037   6.000   4.513  0.00  0.00     0.002 A 
ATOM      3  C4  UNL d   1       4.693   5.979   5.746  0.00  0.00     0.002 A 
ATOM      4  C5  UNL d   1       5.675   5.023   5.999  0.00  0.00    -0.004 A 
ATOM      5  C6  UNL d   1       5.999   4.083   5.022  0.00  0.00     0.002 A 
ATOM      6  C7  UNL d   1       5.345   4.102   3.790  0.00  0.00     0.002 A 
ENDROOT
BRANCH   1   7
ATOM      7  C1  UNL d   1       3.688   5.112   2.176  0.00  0.00     0.055 C 
ATOM      8  C   UNL d   1       4.690   5.412   1.070  0.00  0.00     0.019 C 
ENDBRANCH   1   7
TORSDOF 1
ENDMDL
