MODEL 1
REMARK minimizedAffinity 15.4816151
REMARK minimizedRMSD -1
REMARK  1 active torsions:
REMARK  status: ('A' for Active; 'I' for Inactive)
REMARK    1  A    between atoms: C1_2  and  C2_3 
ROOT
ATOM      1  C2  UNL d   1       4.891  -0.377   0.648  0.00  0.00    -0.077 A 
ATOM      2  C3  UNL d   1       3.615   0.081   0.288  0.00  0.00     0.002 A 
ATOM      3  C4  UNL d   1       2.606   0.185   1.248  0.00  0.00     0.002 A 
ATOM      4  C5  UNL d   1       2.863  -0.163   2.572  0.00  0.00    -0.004 A 
ATOM      5  C6  UNL d   1       4.128  -0.621   2.939  0.00  0.00     0.002 A 
ATOM      6  C7  UNL d   1       5.137  -0.727   1.982  0.00  0.00     0.002 A 
ENDROOT
BRANCH   1   7
ATOM      7  C1  UNL d   1       5.994  -0.443  -0.375  0.00  0.00     0.055 C 
ATOM      8  C   UNL d   1       5.998   0.790  -1.267  0.00  0.00     0.019 C 
ENDBRANCH   1   7
TORSDOF 1
ENDMDL
