MODEL 1
REMARK minimizedAffinity 12.9307671
REMARK minimizedRMSD -1
REMARK  1 active torsions:
REMARK  status: ('A' for Active; 'I' for Inactive)
REMARK    1  A    between atoms: C1_2  and  C2_3 
ROOT
ATOM      1  C2  UNL d   1       2.962   4.691   0.723  0.00  0.00    -0.077 A 
ATOM      2  C3  UNL d   1       3.580   3.483   0.371  0.00  0.00     0.002 A 
ATOM      3  C4  UNL d   1       2.828   2.312   0.258  0.00  0.00     0.002 A 
ATOM      4  C5  UNL d   1       1.455   2.338   0.491  0.00  0.00    -0.004 A 
ATOM      5  C6  UNL d   1       0.831   3.535   0.844  0.00  0.00     0.002 A 
ATOM      6  C7  UNL d   1       1.581   4.706   0.959  0.00  0.00     0.002 A 
ENDROOT
BRANCH   1   7
ATOM      7  C1  UNL d   1       3.763   5.965   0.798  0.00  0.00     0.055 C 
ATOM      8  C   UNL d   1       4.635   5.999   2.045  0.00  0.00     0.019 C 
ENDBRANCH   1   7
TORSDOF 1
ENDMDL
