MODEL 1
REMARK minimizedAffinity -3.63878012
REMARK minimizedRMSD -1
REMARK  1 active torsions:
REMARK  status: ('A' for Active; 'I' for Inactive)
REMARK    1  A    between atoms: C1_2  and  C2_3 
ROOT
ATOM      1  C2  UNL d   1       4.222   4.547  -5.064  0.00  0.00    -0.077 A 
ATOM      2  C3  UNL d   1       3.325   3.601  -4.550  0.00  0.00     0.002 A 
ATOM      3  C4  UNL d   1       3.764   2.630  -3.647  0.00  0.00     0.002 A 
ATOM      4  C5  UNL d   1       5.098   2.599  -3.248  0.00  0.00    -0.004 A 
ATOM      5  C6  UNL d   1       5.999   3.535  -3.756  0.00  0.00     0.002 A 
ATOM      6  C7  UNL d   1       5.562   4.506  -4.659  0.00  0.00     0.002 A 
ENDROOT
BRANCH   1   7
ATOM      7  C1  UNL d   1       3.741   5.625  -6.000  0.00  0.00     0.055 C 
ATOM      8  C   UNL d   1       2.272   5.947  -5.765  0.00  0.00     0.019 C 
ENDBRANCH   1   7
TORSDOF 1
ENDMDL
