MODEL 1
REMARK minimizedAffinity 3.76284599
REMARK minimizedRMSD -1
REMARK  1 active torsions:
REMARK  status: ('A' for Active; 'I' for Inactive)
REMARK    1  A    between atoms: C1_2  and  C2_3 
ROOT
ATOM      1  C2  UNL d   1       3.407   3.763  -4.351  0.00  0.00    -0.077 A 
ATOM      2  C3  UNL d   1       3.695   3.001  -3.210  0.00  0.00     0.002 A 
ATOM      3  C4  UNL d   1       4.974   2.478  -3.014  0.00  0.00     0.002 A 
ATOM      4  C5  UNL d   1       5.977   2.714  -3.952  0.00  0.00    -0.004 A 
ATOM      5  C6  UNL d   1       5.700   3.469  -5.091  0.00  0.00     0.002 A 
ATOM      6  C7  UNL d   1       4.421   3.992  -5.289  0.00  0.00     0.002 A 
ENDROOT
BRANCH   1   7
ATOM      7  C1  UNL d   1       2.041   4.369  -4.540  0.00  0.00     0.055 C 
ATOM      8  C   UNL d   1       2.077   5.512  -5.543  0.00  0.00     0.019 C 
ENDBRANCH   1   7
TORSDOF 1
ENDMDL
