MODEL 1
REMARK minimizedAffinity 9.22544193
REMARK minimizedRMSD -1
REMARK  1 active torsions:
REMARK  status: ('A' for Active; 'I' for Inactive)
REMARK    1  A    between atoms: C1_2  and  C2_3 
ROOT
ATOM      1  C2  UNL d   1      -1.488  -4.302   1.882  0.00  0.00    -0.077 A 
ATOM      2  C3  UNL d   1      -1.166  -3.675   3.094  0.00  0.00     0.002 A 
ATOM      3  C4  UNL d   1      -0.903  -2.304   3.132  0.00  0.00     0.002 A 
ATOM      4  C5  UNL d   1      -0.961  -1.549   1.963  0.00  0.00    -0.004 A 
ATOM      5  C6  UNL d   1      -1.278  -2.164   0.752  0.00  0.00     0.002 A 
ATOM      6  C7  UNL d   1      -1.541  -3.534   0.712  0.00  0.00     0.002 A 
ENDROOT
BRANCH   1   7
ATOM      7  C1  UNL d   1      -1.821  -5.771   1.847  0.00  0.00     0.055 C 
ATOM      8  C   UNL d   1      -3.314  -5.995   1.663  0.00  0.00     0.019 C 
ENDBRANCH   1   7
TORSDOF 1
ENDMDL
