MODEL 1
REMARK minimizedAffinity 5.27654457
REMARK minimizedRMSD -1
REMARK  1 active torsions:
REMARK  status: ('A' for Active; 'I' for Inactive)
REMARK    1  A    between atoms: C1_2  and  C2_3 
ROOT
ATOM      1  C2  UNL d   1       2.673   1.580  -1.347  0.00  0.00    -0.077 A 
ATOM      2  C3  UNL d   1       3.549   0.619  -0.824  0.00  0.00     0.002 A 
ATOM      3  C4  UNL d   1       3.368   0.129   0.470  0.00  0.00     0.002 A 
ATOM      4  C5  UNL d   1       2.310   0.590   1.251  0.00  0.00    -0.004 A 
ATOM      5  C6  UNL d   1       1.434   1.548   0.740  0.00  0.00     0.002 A 
ATOM      6  C7  UNL d   1       1.615   2.040  -0.553  0.00  0.00     0.002 A 
ENDROOT
BRANCH   1   7
ATOM      7  C1  UNL d   1       2.837   2.074  -2.761  0.00  0.00     0.055 C 
ATOM      8  C   UNL d   1       1.596   2.814  -3.237  0.00  0.00     0.019 C 
ENDBRANCH   1   7
TORSDOF 1
ENDMDL
