MODEL 1
REMARK minimizedAffinity 6.66485739
REMARK minimizedRMSD -1
REMARK  1 active torsions:
REMARK  status: ('A' for Active; 'I' for Inactive)
REMARK    1  A    between atoms: C1_2  and  C2_3 
ROOT
ATOM      1  C2  UNL d   1      -4.466   3.630   3.808  0.00  0.00    -0.077 A 
ATOM      2  C3  UNL d   1      -5.247   3.924   2.681  0.00  0.00     0.002 A 
ATOM      3  C4  UNL d   1      -5.994   5.102   2.627  0.00  0.00     0.002 A 
ATOM      4  C5  UNL d   1      -5.964   5.997   3.694  0.00  0.00    -0.004 A 
ATOM      5  C6  UNL d   1      -5.192   5.713   4.820  0.00  0.00     0.002 A 
ATOM      6  C7  UNL d   1      -4.445   4.536   4.876  0.00  0.00     0.002 A 
ENDROOT
BRANCH   1   7
ATOM      7  C1  UNL d   1      -3.620   2.384   3.847  0.00  0.00     0.055 C 
ATOM      8  C   UNL d   1      -4.339   1.207   3.204  0.00  0.00     0.019 C 
ENDBRANCH   1   7
TORSDOF 1
ENDMDL
