MODEL 1
REMARK minimizedAffinity -1.58694577
REMARK minimizedRMSD -1
REMARK  1 active torsions:
REMARK  status: ('A' for Active; 'I' for Inactive)
REMARK    1  A    between atoms: C1_2  and  C2_3 
ROOT
ATOM      1  C2  UNL d   1       3.438   3.078  -5.480  0.00  0.00    -0.077 A 
ATOM      2  C3  UNL d   1       3.623   2.159  -4.438  0.00  0.00     0.002 A 
ATOM      3  C4  UNL d   1       4.900   1.919  -3.927  0.00  0.00     0.002 A 
ATOM      4  C5  UNL d   1       6.000   2.597  -4.449  0.00  0.00    -0.004 A 
ATOM      5  C6  UNL d   1       5.826   3.512  -5.487  0.00  0.00     0.002 A 
ATOM      6  C7  UNL d   1       4.550   3.752  -6.000  0.00  0.00     0.002 A 
ENDROOT
BRANCH   1   7
ATOM      7  C1  UNL d   1       2.055   3.375  -5.999  0.00  0.00     0.055 C 
ATOM      8  C   UNL d   1       1.614   4.783  -5.626  0.00  0.00     0.019 C 
ENDBRANCH   1   7
TORSDOF 1
ENDMDL
