MODEL 1
REMARK minimizedAffinity -2.84993076
REMARK minimizedRMSD -1
REMARK  1 active torsions:
REMARK  status: ('A' for Active; 'I' for Inactive)
REMARK    1  A    between atoms: C1_2  and  C2_3 
ROOT
ATOM      1  C2  UNL d   1       3.667   3.589  -4.390  0.00  0.00    -0.077 A 
ATOM      2  C3  UNL d   1       2.399   3.757  -4.963  0.00  0.00     0.002 A 
ATOM      3  C4  UNL d   1       2.060   4.959  -5.589  0.00  0.00     0.002 A 
ATOM      4  C5  UNL d   1       2.985   5.999  -5.651  0.00  0.00    -0.004 A 
ATOM      5  C6  UNL d   1       4.248   5.842  -5.081  0.00  0.00     0.002 A 
ATOM      6  C7  UNL d   1       4.588   4.642  -4.454  0.00  0.00     0.002 A 
ENDROOT
BRANCH   1   7
ATOM      7  C1  UNL d   1       4.051   2.277  -3.758  0.00  0.00     0.055 C 
ATOM      8  C   UNL d   1       5.270   2.430  -2.860  0.00  0.00     0.019 C 
ENDBRANCH   1   7
TORSDOF 1
ENDMDL
