MODEL 1
REMARK minimizedAffinity 6.59122992
REMARK minimizedRMSD -1
REMARK  0 active torsions:
REMARK  status: ('A' for Active; 'I' for Inactive)
ROOT
ATOM      1  C   UNL d   1       1.106   1.002   0.715  0.00  0.00    -0.002 A 
ATOM      2  C1  UNL d   1       0.529  -0.256   0.815  0.00  0.00     0.010 A 
ATOM      3  C2  UNL d   1       1.001  -1.317   0.040  0.00  0.00     0.041 A 
ATOM      4  C3  UNL d   1       2.073  -1.092  -0.844  0.00  0.00    -0.075 A 
ATOM      5  S   UNL d   1       2.817  -2.242  -1.891  0.00  0.00     0.015 SA
ATOM      6  C4  UNL d   1       3.919  -1.091  -2.496  0.00  0.00     0.022 A 
ATOM      7  C5  UNL d   1       3.738   0.146  -1.924  0.00  0.00     0.026 A 
ATOM      8  C6  UNL d   1       2.672   0.166  -0.962  0.00  0.00    -0.082 A 
ATOM      9  C7  UNL d   1       2.170   1.222  -0.164  0.00  0.00     0.045 A 
ENDROOT
TORSDOF 0
ENDMDL
