MODEL 1
REMARK minimizedAffinity 4.58222151
REMARK minimizedRMSD -1
REMARK  0 active torsions:
REMARK  status: ('A' for Active; 'I' for Inactive)
ROOT
ATOM      1  C   UNL d   1       1.107   1.075   0.945  0.00  0.00    -0.002 A 
ATOM      2  C1  UNL d   1       0.335  -0.077   0.890  0.00  0.00     0.010 A 
ATOM      3  C2  UNL d   1       0.804  -1.216   0.232  0.00  0.00     0.041 A 
ATOM      4  C3  UNL d   1       2.075  -1.177  -0.375  0.00  0.00    -0.075 A 
ATOM      5  S   UNL d   1       2.855  -2.452  -1.235  0.00  0.00     0.015 SA
ATOM      6  C4  UNL d   1       4.231  -1.497  -1.550  0.00  0.00     0.022 A 
ATOM      7  C5  UNL d   1       4.116  -0.234  -1.019  0.00  0.00     0.026 A 
ATOM      8  C6  UNL d   1       2.871  -0.029  -0.333  0.00  0.00    -0.082 A 
ATOM      9  C7  UNL d   1       2.367   1.109   0.341  0.00  0.00     0.045 A 
ENDROOT
TORSDOF 0
ENDMDL
