MODEL 1
REMARK minimizedAffinity 2.3134141
REMARK minimizedRMSD -1
REMARK  0 active torsions:
REMARK  status: ('A' for Active; 'I' for Inactive)
ROOT
ATOM      1  C   UNL d   1       1.692  -1.321   0.025  0.00  0.00    -0.002 A 
ATOM      2  C1  UNL d   1       1.408   0.037   0.062  0.00  0.00     0.010 A 
ATOM      3  C2  UNL d   1       2.228   0.952  -0.601  0.00  0.00     0.041 A 
ATOM      4  C3  UNL d   1       3.347   0.475  -1.311  0.00  0.00    -0.075 A 
ATOM      5  S   UNL d   1       4.491   1.410  -2.198  0.00  0.00     0.015 SA
ATOM      6  C4  UNL d   1       5.383   0.029  -2.648  0.00  0.00     0.022 A 
ATOM      7  C5  UNL d   1       4.836  -1.126  -2.142  0.00  0.00     0.026 A 
ATOM      8  C6  UNL d   1       3.653  -0.888  -1.363  0.00  0.00    -0.082 A 
ATOM      9  C7  UNL d   1       2.803  -1.791  -0.680  0.00  0.00     0.045 A 
ENDROOT
TORSDOF 0
ENDMDL
