MODEL 1
REMARK minimizedAffinity 3.25347877
REMARK minimizedRMSD -1
REMARK  0 active torsions:
REMARK  status: ('A' for Active; 'I' for Inactive)
ROOT
ATOM      1  C   UNL d   1       0.237  -0.588   1.417  0.00  0.00    -0.002 A 
ATOM      2  C1  UNL d   1       0.547   0.765   1.407  0.00  0.00     0.010 A 
ATOM      3  C2  UNL d   1       1.573   1.252   0.596  0.00  0.00     0.041 A 
ATOM      4  C3  UNL d   1       2.288   0.349  -0.216  0.00  0.00    -0.075 A 
ATOM      5  S   UNL d   1       3.584   0.719  -1.291  0.00  0.00     0.015 SA
ATOM      6  C4  UNL d   1       3.755  -0.909  -1.764  0.00  0.00     0.022 A 
ATOM      7  C5  UNL d   1       2.854  -1.729  -1.127  0.00  0.00     0.026 A 
ATOM      8  C6  UNL d   1       1.993  -1.017  -0.224  0.00  0.00    -0.082 A 
ATOM      9  C7  UNL d   1       0.948  -1.481   0.610  0.00  0.00     0.045 A 
ENDROOT
TORSDOF 0
ENDMDL
