MODEL 1
REMARK minimizedAffinity 10.4363775
REMARK minimizedRMSD -1
REMARK  0 active torsions:
REMARK  status: ('A' for Active; 'I' for Inactive)
ROOT
ATOM      1  C   UNL d   1      -2.230   5.230  -1.968  0.00  0.00    -0.002 A 
ATOM      2  C1  UNL d   1      -0.976   5.809  -1.837  0.00  0.00     0.010 A 
ATOM      3  C2  UNL d   1       0.160   5.165  -2.332  0.00  0.00     0.041 A 
ATOM      4  C3  UNL d   1       0.012   3.917  -2.969  0.00  0.00    -0.075 A 
ATOM      5  S   UNL d   1       1.261   2.945  -3.652  0.00  0.00     0.015 SA
ATOM      6  C4  UNL d   1       0.159   1.737  -4.135  0.00  0.00     0.022 A 
ATOM      7  C5  UNL d   1      -1.134   2.052  -3.791  0.00  0.00     0.026 A 
ATOM      8  C6  UNL d   1      -1.240   3.314  -3.114  0.00  0.00    -0.082 A 
ATOM      9  C7  UNL d   1      -2.372   3.992  -2.601  0.00  0.00     0.045 A 
ENDROOT
TORSDOF 0
ENDMDL
