MODEL 1
REMARK minimizedAffinity 1.03916192
REMARK minimizedRMSD -1
REMARK  0 active torsions:
REMARK  status: ('A' for Active; 'I' for Inactive)
ROOT
ATOM      1  C   UNL d   1       1.331  -1.418   0.609  0.00  0.00    -0.002 A 
ATOM      2  C1  UNL d   1       1.054  -0.079   0.841  0.00  0.00     0.010 A 
ATOM      3  C2  UNL d   1       1.715   0.919   0.122  0.00  0.00     0.041 A 
ATOM      4  C3  UNL d   1       2.667   0.543  -0.846  0.00  0.00    -0.075 A 
ATOM      5  S   UNL d   1       3.599   1.592  -1.848  0.00  0.00     0.015 SA
ATOM      6  C4  UNL d   1       4.387   0.286  -2.609  0.00  0.00     0.022 A 
ATOM      7  C5  UNL d   1       3.962  -0.928  -2.122  0.00  0.00     0.026 A 
ATOM      8  C6  UNL d   1       2.963  -0.799  -1.098  0.00  0.00    -0.082 A 
ATOM      9  C7  UNL d   1       2.277  -1.787  -0.351  0.00  0.00     0.045 A 
ENDROOT
TORSDOF 0
ENDMDL
