MODEL 1
REMARK minimizedAffinity 3.61214614
REMARK minimizedRMSD -1
REMARK  0 active torsions:
REMARK  status: ('A' for Active; 'I' for Inactive)
ROOT
ATOM      1  C   UNL d   1       1.004  -0.023   2.111  0.00  0.00    -0.002 A 
ATOM      2  C1  UNL d   1      -0.020  -0.699   1.463  0.00  0.00     0.010 A 
ATOM      3  C2  UNL d   1       0.241  -1.456   0.320  0.00  0.00     0.041 A 
ATOM      4  C3  UNL d   1       1.562  -1.525  -0.166  0.00  0.00    -0.075 A 
ATOM      5  S   UNL d   1       2.118  -2.391  -1.549  0.00  0.00     0.015 SA
ATOM      6  C4  UNL d   1       3.728  -1.884  -1.312  0.00  0.00     0.022 A 
ATOM      7  C5  UNL d   1       3.856  -1.074  -0.209  0.00  0.00     0.026 A 
ATOM      8  C6  UNL d   1       2.610  -0.853   0.470  0.00  0.00    -0.082 A 
ATOM      9  C7  UNL d   1       2.313  -0.093   1.627  0.00  0.00     0.045 A 
ENDROOT
TORSDOF 0
ENDMDL
