MODEL 1
REMARK minimizedAffinity 5.38657093
REMARK minimizedRMSD -1
REMARK  0 active torsions:
REMARK  status: ('A' for Active; 'I' for Inactive)
ROOT
ATOM      1  C   UNL d   1       1.871  -1.946  -0.322  0.00  0.00    -0.002 A 
ATOM      2  C1  UNL d   1       2.951  -1.913  -1.192  0.00  0.00     0.010 A 
ATOM      3  C2  UNL d   1       3.500  -0.695  -1.598  0.00  0.00     0.041 A 
ATOM      4  C3  UNL d   1       2.941   0.501  -1.109  0.00  0.00    -0.075 A 
ATOM      5  S   UNL d   1       3.448   2.109  -1.468  0.00  0.00     0.015 SA
ATOM      6  C4  UNL d   1       2.243   2.791  -0.474  0.00  0.00     0.022 A 
ATOM      7  C5  UNL d   1       1.464   1.830   0.125  0.00  0.00     0.026 A 
ATOM      8  C6  UNL d   1       1.853   0.494  -0.230  0.00  0.00    -0.082 A 
ATOM      9  C7  UNL d   1       1.319  -0.757   0.162  0.00  0.00     0.045 A 
ENDROOT
TORSDOF 0
ENDMDL
