MODEL 1
REMARK minimizedAffinity 2.16906309
REMARK minimizedRMSD -1
REMARK  0 active torsions:
REMARK  status: ('A' for Active; 'I' for Inactive)
ROOT
ATOM      1  C   UNL d   1       4.156  -0.888  -1.967  0.00  0.00    -0.002 A 
ATOM      2  C1  UNL d   1       4.405   0.468  -2.123  0.00  0.00     0.010 A 
ATOM      3  C2  UNL d   1       3.720   1.409  -1.350  0.00  0.00     0.041 A 
ATOM      4  C3  UNL d   1       2.775   0.959  -0.408  0.00  0.00    -0.075 A 
ATOM      5  S   UNL d   1       1.818   1.928   0.649  0.00  0.00     0.015 SA
ATOM      6  C4  UNL d   1       1.058   0.565   1.333  0.00  0.00     0.022 A 
ATOM      7  C5  UNL d   1       1.511  -0.610   0.780  0.00  0.00     0.026 A 
ATOM      8  C6  UNL d   1       2.508  -0.402  -0.232  0.00  0.00    -0.082 A 
ATOM      9  C7  UNL d   1       3.218  -1.331  -1.031  0.00  0.00     0.045 A 
ENDROOT
TORSDOF 0
ENDMDL
