MODEL 1
REMARK minimizedAffinity 2.80059528
REMARK minimizedRMSD -1
REMARK  0 active torsions:
REMARK  status: ('A' for Active; 'I' for Inactive)
ROOT
ATOM      1  C   UNL d   1      -2.945  -1.713   2.064  0.00  0.00    -0.002 A 
ATOM      2  C1  UNL d   1      -2.819  -0.522   2.764  0.00  0.00     0.010 A 
ATOM      3  C2  UNL d   1      -1.622   0.197   2.733  0.00  0.00     0.041 A 
ATOM      4  C3  UNL d   1      -0.545  -0.306   1.976  0.00  0.00    -0.075 A 
ATOM      5  S   UNL d   1       1.015   0.404   1.790  0.00  0.00     0.015 SA
ATOM      6  C4  UNL d   1       1.550  -0.857   0.776  0.00  0.00     0.022 A 
ATOM      7  C5  UNL d   1       0.575  -1.804   0.573  0.00  0.00     0.026 A 
ATOM      8  C6  UNL d   1      -0.649  -1.502   1.262  0.00  0.00    -0.082 A 
ATOM      9  C7  UNL d   1      -1.875  -2.208   1.314  0.00  0.00     0.045 A 
ENDROOT
TORSDOF 0
ENDMDL
