MODEL 1
REMARK minimizedAffinity -2.75741863
REMARK minimizedRMSD -1
REMARK  0 active torsions:
REMARK  status: ('A' for Active; 'I' for Inactive)
ROOT
ATOM      1  C   UNL d   1       0.821   0.916   0.785  0.00  0.00    -0.002 A 
ATOM      2  C1  UNL d   1       0.605  -0.454   0.816  0.00  0.00     0.010 A 
ATOM      3  C2  UNL d   1       1.352  -1.309   0.004  0.00  0.00     0.041 A 
ATOM      4  C3  UNL d   1       2.332  -0.759  -0.846  0.00  0.00    -0.075 A 
ATOM      5  S   UNL d   1       3.368  -1.613  -1.927  0.00  0.00     0.015 SA
ATOM      6  C4  UNL d   1       4.123  -0.179  -2.455  0.00  0.00     0.022 A 
ATOM      7  C5  UNL d   1       3.609   0.933  -1.832  0.00  0.00     0.026 A 
ATOM      8  C6  UNL d   1       2.569   0.617  -0.894  0.00  0.00    -0.082 A 
ATOM      9  C7  UNL d   1       1.793   1.458  -0.060  0.00  0.00     0.045 A 
ENDROOT
TORSDOF 0
ENDMDL
