MODEL 1
REMARK minimizedAffinity 5.94728327
REMARK minimizedRMSD -1
REMARK  0 active torsions:
REMARK  status: ('A' for Active; 'I' for Inactive)
ROOT
ATOM      1  C   UNL d   1      -1.543   0.759   1.049  0.00  0.00     0.078 C 
ATOM      2  C1  UNL d   1      -2.015  -0.045   2.224  0.00  0.00    -0.077 A 
ATOM      3  C2  UNL d   1      -1.142  -0.379   3.267  0.00  0.00    -0.001 A 
ATOM      4  C3  UNL d   1      -1.593  -1.137   4.349  0.00  0.00     0.003 A 
ATOM      5  C4  UNL d   1      -2.917  -1.568   4.398  0.00  0.00    -0.005 A 
ATOM      6  C5  UNL d   1      -3.792  -1.244   3.363  0.00  0.00     0.003 A 
ATOM      7  C6  UNL d   1      -3.343  -0.486   2.281  0.00  0.00    -0.001 A 
ENDROOT
TORSDOF 0
ENDMDL
