MODEL 1
REMARK minimizedAffinity -1.89795458
REMARK minimizedRMSD -1
REMARK  0 active torsions:
REMARK  status: ('A' for Active; 'I' for Inactive)
ROOT
ATOM      1  C   UNL d   1       0.737  -1.461   4.106  0.00  0.00     0.078 C 
ATOM      2  C1  UNL d   1      -0.043  -0.841   2.986  0.00  0.00    -0.077 A 
ATOM      3  C2  UNL d   1      -1.352  -0.385   3.185  0.00  0.00    -0.001 A 
ATOM      4  C3  UNL d   1      -2.071   0.181   2.131  0.00  0.00     0.003 A 
ATOM      5  C4  UNL d   1      -1.489   0.296   0.870  0.00  0.00    -0.005 A 
ATOM      6  C5  UNL d   1      -0.188  -0.157   0.662  0.00  0.00     0.003 A 
ATOM      7  C6  UNL d   1       0.532  -0.723   1.715  0.00  0.00    -0.001 A 
ENDROOT
TORSDOF 0
ENDMDL
