MODEL 1
REMARK minimizedAffinity -1.15517938
REMARK minimizedRMSD -1
REMARK  0 active torsions:
REMARK  status: ('A' for Active; 'I' for Inactive)
ROOT
ATOM      1  C   UNL d   1       1.694  -1.266   4.080  0.00  0.00     0.078 C 
ATOM      2  C1  UNL d   1       0.198  -1.219   3.991  0.00  0.00    -0.077 A 
ATOM      3  C2  UNL d   1      -0.445  -0.347   3.104  0.00  0.00    -0.001 A 
ATOM      4  C3  UNL d   1      -1.838  -0.307   3.039  0.00  0.00     0.003 A 
ATOM      5  C4  UNL d   1      -2.601  -1.136   3.859  0.00  0.00    -0.005 A 
ATOM      6  C5  UNL d   1      -1.971  -2.005   4.747  0.00  0.00     0.003 A 
ATOM      7  C6  UNL d   1      -0.577  -2.046   4.814  0.00  0.00    -0.001 A 
ENDROOT
TORSDOF 0
ENDMDL
