MODEL 1
REMARK minimizedAffinity -1.21396887
REMARK minimizedRMSD -1
REMARK  0 active torsions:
REMARK  status: ('A' for Active; 'I' for Inactive)
ROOT
ATOM      1  C   UNL d   1      -1.660   0.630   2.281  0.00  0.00     0.078 C 
ATOM      2  C1  UNL d   1      -1.389  -0.452   3.283  0.00  0.00    -0.077 A 
ATOM      3  C2  UNL d   1      -2.438  -1.158   3.885  0.00  0.00    -0.001 A 
ATOM      4  C3  UNL d   1      -2.171  -2.156   4.823  0.00  0.00     0.003 A 
ATOM      5  C4  UNL d   1      -0.855  -2.457   5.169  0.00  0.00    -0.005 A 
ATOM      6  C5  UNL d   1       0.196  -1.759   4.577  0.00  0.00     0.003 A 
ATOM      7  C6  UNL d   1      -0.069  -0.760   3.639  0.00  0.00    -0.001 A 
ENDROOT
TORSDOF 0
ENDMDL
