MODEL 1
REMARK minimizedAffinity 6.82302189
REMARK minimizedRMSD -1
REMARK  0 active torsions:
REMARK  status: ('A' for Active; 'I' for Inactive)
ROOT
ATOM      1  C   UNL d   1      -3.276  -1.021   3.553  0.00  0.00     0.078 C 
ATOM      2  C1  UNL d   1      -3.011  -0.488   2.176  0.00  0.00    -0.077 A 
ATOM      3  C2  UNL d   1      -2.601   0.837   1.982  0.00  0.00    -0.001 A 
ATOM      4  C3  UNL d   1      -2.367   1.322   0.694  0.00  0.00     0.003 A 
ATOM      5  C4  UNL d   1      -2.541   0.489  -0.409  0.00  0.00    -0.005 A 
ATOM      6  C5  UNL d   1      -2.950  -0.830  -0.226  0.00  0.00     0.003 A 
ATOM      7  C6  UNL d   1      -3.185  -1.317   1.061  0.00  0.00    -0.001 A 
ENDROOT
TORSDOF 0
ENDMDL
