MODEL 1
REMARK minimizedAffinity -4.28843737
REMARK minimizedRMSD -1
REMARK  0 active torsions:
REMARK  status: ('A' for Active; 'I' for Inactive)
ROOT
ATOM      1  C   UNL d   1       0.676  -1.601   4.613  0.00  0.00     0.078 C 
ATOM      2  C1  UNL d   1       0.043  -0.847   3.482  0.00  0.00    -0.077 A 
ATOM      3  C2  UNL d   1      -1.267  -0.362   3.582  0.00  0.00    -0.001 A 
ATOM      4  C3  UNL d   1      -1.846   0.330   2.517  0.00  0.00     0.003 A 
ATOM      5  C4  UNL d   1      -1.124   0.542   1.344  0.00  0.00    -0.005 A 
ATOM      6  C5  UNL d   1       0.179   0.061   1.235  0.00  0.00     0.003 A 
ATOM      7  C6  UNL d   1       0.760  -0.631   2.299  0.00  0.00    -0.001 A 
ENDROOT
TORSDOF 0
ENDMDL
