MODEL 1
REMARK minimizedAffinity -2.39352441
REMARK minimizedRMSD -1
REMARK  0 active torsions:
REMARK  status: ('A' for Active; 'I' for Inactive)
ROOT
ATOM      1  C   UNL d   1       1.829  -0.147   0.780  0.00  0.00     0.078 C 
ATOM      2  C1  UNL d   1       0.585  -0.144   1.616  0.00  0.00    -0.077 A 
ATOM      3  C2  UNL d   1       0.591  -0.653   2.920  0.00  0.00    -0.001 A 
ATOM      4  C3  UNL d   1      -0.578  -0.652   3.684  0.00  0.00     0.003 A 
ATOM      5  C4  UNL d   1      -1.761  -0.145   3.152  0.00  0.00    -0.005 A 
ATOM      6  C5  UNL d   1      -1.778   0.362   1.854  0.00  0.00     0.003 A 
ATOM      7  C6  UNL d   1      -0.610   0.362   1.089  0.00  0.00    -0.001 A 
ENDROOT
TORSDOF 0
ENDMDL
