MODEL 1
REMARK minimizedAffinity -0.0969054997
REMARK minimizedRMSD -1
REMARK  0 active torsions:
REMARK  status: ('A' for Active; 'I' for Inactive)
ROOT
ATOM      1  C   UNL d   1      -2.333  -0.059   2.042  0.00  0.00     0.078 C 
ATOM      2  C1  UNL d   1      -2.146  -0.692   3.388  0.00  0.00    -0.077 A 
ATOM      3  C2  UNL d   1      -3.189  -1.393   4.006  0.00  0.00    -0.001 A 
ATOM      4  C3  UNL d   1      -3.004  -1.970   5.263  0.00  0.00     0.003 A 
ATOM      5  C4  UNL d   1      -1.778  -1.851   5.914  0.00  0.00    -0.005 A 
ATOM      6  C5  UNL d   1      -0.735  -1.154   5.308  0.00  0.00     0.003 A 
ATOM      7  C6  UNL d   1      -0.918  -0.576   4.050  0.00  0.00    -0.001 A 
ENDROOT
TORSDOF 0
ENDMDL
