MODEL 1
REMARK minimizedAffinity -1.3606348
REMARK minimizedRMSD -1
REMARK  0 active torsions:
REMARK  status: ('A' for Active; 'I' for Inactive)
ROOT
ATOM      1  C   UNL d   1       1.220  -0.259  -3.335  0.00  0.00     0.020 A 
ATOM      2  C1  UNL d   1       1.611  -1.568  -3.613  0.00  0.00     0.020 A 
ATOM      3  C2  UNL d   1       2.957  -1.862  -3.842  0.00  0.00     0.034 A 
ATOM      4  C3  UNL d   1       3.917  -0.845  -3.793  0.00  0.00     0.017 A 
ATOM      5  C4  UNL d   1       3.524   0.469  -3.513  0.00  0.00     0.017 A 
ATOM      6  C5  UNL d   1       2.175   0.757  -3.285  0.00  0.00     0.034 A 
ATOM      7 Cl   UNL d   1       4.652   1.777  -3.435  0.00  0.00    -0.070 Cl
ATOM      8 Cl1  UNL d   1       5.564  -1.280  -4.085  0.00  0.00    -0.070 Cl
ENDROOT
TORSDOF 0
ENDMDL
