MODEL 1
REMARK minimizedAffinity -4.7322073
REMARK minimizedRMSD -1
REMARK  0 active torsions:
REMARK  status: ('A' for Active; 'I' for Inactive)
ROOT
ATOM      1  C   UNL d   1       0.350   0.092  -0.809  0.00  0.00     0.020 A 
ATOM      2  C1  UNL d   1      -0.904   0.360  -1.357  0.00  0.00     0.020 A 
ATOM      3  C2  UNL d   1      -2.035   0.369  -0.539  0.00  0.00     0.034 A 
ATOM      4  C3  UNL d   1      -1.915   0.111   0.832  0.00  0.00     0.017 A 
ATOM      5  C4  UNL d   1      -0.656  -0.158   1.381  0.00  0.00     0.017 A 
ATOM      6  C5  UNL d   1       0.474  -0.166   0.557  0.00  0.00     0.034 A 
ATOM      7 Cl   UNL d   1      -0.429  -0.485   3.062  0.00  0.00    -0.070 Cl
ATOM      8 Cl1  UNL d   1      -3.357   0.139   1.784  0.00  0.00    -0.070 Cl
ENDROOT
TORSDOF 0
ENDMDL
