MODEL 1
REMARK minimizedAffinity -0.757837594
REMARK minimizedRMSD -1
REMARK  0 active torsions:
REMARK  status: ('A' for Active; 'I' for Inactive)
ROOT
ATOM      1  C   UNL d   1      -1.836  -0.474  -0.594  0.00  0.00     0.020 A 
ATOM      2  C1  UNL d   1      -0.618  -0.032  -1.111  0.00  0.00     0.020 A 
ATOM      3  C2  UNL d   1       0.432   0.287  -0.247  0.00  0.00     0.034 A 
ATOM      4  C3  UNL d   1       0.267   0.164   1.137  0.00  0.00     0.017 A 
ATOM      5  C4  UNL d   1      -0.956  -0.280   1.655  0.00  0.00     0.017 A 
ATOM      6  C5  UNL d   1      -2.004  -0.598   0.786  0.00  0.00     0.034 A 
ATOM      7 Cl   UNL d   1      -1.235  -0.456   3.351  0.00  0.00    -0.070 Cl
ATOM      8 Cl1  UNL d   1       1.608   0.576   2.146  0.00  0.00    -0.070 Cl
ENDROOT
TORSDOF 0
ENDMDL
