MODEL 1
REMARK minimizedAffinity -3.2102263
REMARK minimizedRMSD -1
REMARK  0 active torsions:
REMARK  status: ('A' for Active; 'I' for Inactive)
ROOT
ATOM      1  C   UNL d   1       0.002  -0.103   2.661  0.00  0.00     0.020 A 
ATOM      2  C1  UNL d   1       1.239  -0.110   2.016  0.00  0.00     0.020 A 
ATOM      3  C2  UNL d   1       1.302   0.019   0.627  0.00  0.00     0.034 A 
ATOM      4  C3  UNL d   1       0.127   0.155  -0.121  0.00  0.00     0.017 A 
ATOM      5  C4  UNL d   1      -1.113   0.162   0.527  0.00  0.00     0.017 A 
ATOM      6  C5  UNL d   1      -1.171   0.033   1.918  0.00  0.00     0.034 A 
ATOM      7 Cl   UNL d   1      -2.606   0.326  -0.329  0.00  0.00    -0.070 Cl
ATOM      8 Cl1  UNL d   1       0.280   0.310  -1.835  0.00  0.00    -0.070 Cl
ENDROOT
TORSDOF 0
ENDMDL
