MODEL 1
REMARK minimizedAffinity -4.32558393
REMARK minimizedRMSD -1
REMARK  0 active torsions:
REMARK  status: ('A' for Active; 'I' for Inactive)
ROOT
ATOM      1  C   UNL d   1      -0.714   0.381  -0.969  0.00  0.00     0.020 A 
ATOM      2  C1  UNL d   1      -1.926  -0.112  -0.488  0.00  0.00     0.020 A 
ATOM      3  C2  UNL d   1      -2.048  -0.475   0.855  0.00  0.00     0.034 A 
ATOM      4  C3  UNL d   1      -0.956  -0.346   1.721  0.00  0.00     0.017 A 
ATOM      5  C4  UNL d   1       0.260   0.149   1.237  0.00  0.00     0.017 A 
ATOM      6  C5  UNL d   1       0.376   0.512  -0.109  0.00  0.00     0.034 A 
ATOM      7 Cl   UNL d   1       1.651   0.337   2.245  0.00  0.00    -0.070 Cl
ATOM      8 Cl1  UNL d   1      -1.178  -0.814   3.370  0.00  0.00    -0.070 Cl
ENDROOT
TORSDOF 0
ENDMDL
