MODEL 1
REMARK minimizedAffinity 4.11586857
REMARK minimizedRMSD -1
REMARK  0 active torsions:
REMARK  status: ('A' for Active; 'I' for Inactive)
ROOT
ATOM      1  C   UNL d   1      -0.826  -1.519   2.650  0.00  0.00     0.020 A 
ATOM      2  C1  UNL d   1      -1.377  -0.407   2.014  0.00  0.00     0.020 A 
ATOM      3  C2  UNL d   1      -0.546   0.612   1.544  0.00  0.00     0.034 A 
ATOM      4  C3  UNL d   1       0.841   0.521   1.709  0.00  0.00     0.017 A 
ATOM      5  C4  UNL d   1       1.393  -0.596   2.347  0.00  0.00     0.017 A 
ATOM      6  C5  UNL d   1       0.556  -1.613   2.816  0.00  0.00     0.034 A 
ATOM      7 Cl   UNL d   1       3.095  -0.780   2.587  0.00  0.00    -0.070 Cl
ATOM      8 Cl1  UNL d   1       1.809   1.817   1.103  0.00  0.00    -0.070 Cl
ENDROOT
TORSDOF 0
ENDMDL
