MODEL 1
REMARK minimizedAffinity 5.06747723
REMARK minimizedRMSD -1
REMARK  0 active torsions:
REMARK  status: ('A' for Active; 'I' for Inactive)
ROOT
ATOM      1  C   UNL d   1       0.090  -0.057   2.669  0.00  0.00     0.020 A 
ATOM      2  C1  UNL d   1      -1.063  -0.445   1.988  0.00  0.00     0.020 A 
ATOM      3  C2  UNL d   1      -1.236  -0.089   0.649  0.00  0.00     0.034 A 
ATOM      4  C3  UNL d   1      -0.254   0.657  -0.013  0.00  0.00     0.017 A 
ATOM      5  C4  UNL d   1       0.903   1.046   0.671  0.00  0.00     0.017 A 
ATOM      6  C5  UNL d   1       1.071   0.687   2.012  0.00  0.00     0.034 A 
ATOM      7 Cl   UNL d   1       2.158   1.968  -0.079  0.00  0.00    -0.070 Cl
ATOM      8 Cl1  UNL d   1      -0.534   1.062  -1.669  0.00  0.00    -0.070 Cl
ENDROOT
TORSDOF 0
ENDMDL
