MODEL 1
REMARK minimizedAffinity -4.61655998
REMARK minimizedRMSD -1
REMARK  0 active torsions:
REMARK  status: ('A' for Active; 'I' for Inactive)
ROOT
ATOM      1  C   UNL d   1      -0.759  -0.516   3.085  0.00  0.00     0.020 A 
ATOM      2  C1  UNL d   1      -2.132  -0.273   3.046  0.00  0.00     0.020 A 
ATOM      3  C2  UNL d   1      -2.733   0.145   1.857  0.00  0.00     0.034 A 
ATOM      4  C3  UNL d   1      -1.963   0.321   0.702  0.00  0.00     0.017 A 
ATOM      5  C4  UNL d   1      -0.585   0.078   0.742  0.00  0.00     0.017 A 
ATOM      6  C5  UNL d   1       0.012  -0.341   1.935  0.00  0.00     0.034 A 
ATOM      7 Cl   UNL d   1       0.432   0.274  -0.642  0.00  0.00    -0.070 Cl
ATOM      8 Cl1  UNL d   1      -2.773   0.840  -0.733  0.00  0.00    -0.070 Cl
ENDROOT
TORSDOF 0
ENDMDL
