MODEL 1
REMARK minimizedAffinity -4.00499296
REMARK minimizedRMSD -1
REMARK  0 active torsions:
REMARK  status: ('A' for Active; 'I' for Inactive)
ROOT
ATOM      1  C   UNL d   1       0.401  -1.103   1.698  0.00  0.00     0.020 A 
ATOM      2  C1  UNL d   1      -0.529  -1.214   2.731  0.00  0.00     0.020 A 
ATOM      3  C2  UNL d   1      -1.788  -0.623   2.604  0.00  0.00     0.034 A 
ATOM      4  C3  UNL d   1      -2.120   0.082   1.442  0.00  0.00     0.017 A 
ATOM      5  C4  UNL d   1      -1.187   0.194   0.406  0.00  0.00     0.017 A 
ATOM      6  C5  UNL d   1       0.072  -0.400   0.538  0.00  0.00     0.034 A 
ATOM      7 Cl   UNL d   1      -1.525   1.048  -1.058  0.00  0.00    -0.070 Cl
ATOM      8 Cl1  UNL d   1      -3.695   0.787   1.354  0.00  0.00    -0.070 Cl
ENDROOT
TORSDOF 0
ENDMDL
