MODEL 1
REMARK minimizedAffinity 3.46741772
REMARK minimizedRMSD -1
REMARK  0 active torsions:
REMARK  status: ('A' for Active; 'I' for Inactive)
ROOT
ATOM      1  C   UNL d   1       0.234  -0.626  -3.290  0.00  0.00     0.020 A 
ATOM      2  C1  UNL d   1       0.040   0.610  -2.674  0.00  0.00     0.020 A 
ATOM      3  C2  UNL d   1      -0.371   0.669  -1.341  0.00  0.00     0.034 A 
ATOM      4  C3  UNL d   1      -0.590  -0.510  -0.619  0.00  0.00     0.017 A 
ATOM      5  C4  UNL d   1      -0.395  -1.750  -1.238  0.00  0.00     0.017 A 
ATOM      6  C5  UNL d   1       0.017  -1.803  -2.573  0.00  0.00     0.034 A 
ATOM      7 Cl   UNL d   1      -0.644  -3.248  -0.412  0.00  0.00    -0.070 Cl
ATOM      8 Cl1  UNL d   1      -1.097  -0.363   1.026  0.00  0.00    -0.070 Cl
ENDROOT
TORSDOF 0
ENDMDL
