MODEL 1
REMARK minimizedAffinity 0.147019506
REMARK minimizedRMSD -1
REMARK  0 active torsions:
REMARK  status: ('A' for Active; 'I' for Inactive)
ROOT
ATOM      1  C   UNL d   1      -1.474  -1.243   3.023  0.00  0.00     0.020 A 
ATOM      2  C1  UNL d   1      -2.085  -0.207   2.317  0.00  0.00     0.020 A 
ATOM      3  C2  UNL d   1      -1.303   0.743   1.657  0.00  0.00     0.034 A 
ATOM      4  C3  UNL d   1       0.094   0.660   1.702  0.00  0.00     0.017 A 
ATOM      5  C4  UNL d   1       0.705  -0.381   2.410  0.00  0.00     0.017 A 
ATOM      6  C5  UNL d   1      -0.083  -1.330   3.069  0.00  0.00     0.034 A 
ATOM      7 Cl   UNL d   1       2.422  -0.550   2.511  0.00  0.00    -0.070 Cl
ATOM      8 Cl1  UNL d   1       0.998   1.869   0.862  0.00  0.00    -0.070 Cl
ENDROOT
TORSDOF 0
ENDMDL
