MODEL 1
REMARK minimizedAffinity 3.95479774
REMARK minimizedRMSD -1
REMARK  0 active torsions:
REMARK  status: ('A' for Active; 'I' for Inactive)
ROOT
ATOM      1  C   UNL d   1       0.359  -1.966   1.490  0.00  0.00     0.020 A 
ATOM      2  C1  UNL d   1       1.466  -1.375   2.099  0.00  0.00     0.020 A 
ATOM      3  C2  UNL d   1       1.357  -0.102   2.662  0.00  0.00     0.034 A 
ATOM      4  C3  UNL d   1       0.138   0.584   2.619  0.00  0.00     0.017 A 
ATOM      5  C4  UNL d   1      -0.973  -0.010   2.008  0.00  0.00     0.017 A 
ATOM      6  C5  UNL d   1      -0.857  -1.284   1.445  0.00  0.00     0.034 A 
ATOM      7 Cl   UNL d   1      -2.510   0.775   1.916  0.00  0.00    -0.070 Cl
ATOM      8 Cl1  UNL d   1       0.074   2.155   3.336  0.00  0.00    -0.070 Cl
ENDROOT
TORSDOF 0
ENDMDL
