MODEL 1
REMARK minimizedAffinity 2.53114605
REMARK minimizedRMSD -1
REMARK  0 active torsions:
REMARK  status: ('A' for Active; 'I' for Inactive)
ROOT
ATOM      1  C   UNL d   1       3.304   2.400  -6.000  0.00  0.00     0.020 A 
ATOM      2  C1  UNL d   1       3.000   3.365  -5.040  0.00  0.00     0.020 A 
ATOM      3  C2  UNL d   1       2.107   3.067  -4.009  0.00  0.00     0.034 A 
ATOM      4  C3  UNL d   1       1.513   1.801  -3.935  0.00  0.00     0.017 A 
ATOM      5  C4  UNL d   1       1.819   0.834  -4.900  0.00  0.00     0.017 A 
ATOM      6  C5  UNL d   1       2.714   1.137  -5.930  0.00  0.00     0.034 A 
ATOM      7 Cl   UNL d   1       1.126  -0.750  -4.875  0.00  0.00    -0.070 Cl
ATOM      8 Cl1  UNL d   1       0.418   1.502  -2.633  0.00  0.00    -0.070 Cl
ENDROOT
TORSDOF 0
ENDMDL
