MODEL 1
REMARK minimizedAffinity 1.0137583
REMARK minimizedRMSD -1
REMARK  0 active torsions:
REMARK  status: ('A' for Active; 'I' for Inactive)
ROOT
ATOM      1  C   UNL d   1      -1.489   0.137   0.041  0.00  0.00     0.078 C 
ATOM      2  C1  UNL d   1      -0.021  -0.167   0.062  0.00  0.00    -0.077 A 
ATOM      3  C2  UNL d   1       0.607  -0.768  -1.035  0.00  0.00    -0.001 A 
ATOM      4  C3  UNL d   1       1.973  -1.054  -0.998  0.00  0.00     0.003 A 
ATOM      5  C4  UNL d   1       2.722  -0.743   0.135  0.00  0.00    -0.005 A 
ATOM      6  C5  UNL d   1       2.105  -0.147   1.233  0.00  0.00     0.003 A 
ATOM      7  C6  UNL d   1       0.740   0.140   1.197  0.00  0.00    -0.001 A 
ENDROOT
TORSDOF 0
ENDMDL
