MODEL 1
REMARK minimizedAffinity -3.49985313
REMARK minimizedRMSD -1
REMARK  0 active torsions:
REMARK  status: ('A' for Active; 'I' for Inactive)
ROOT
ATOM      1  C   UNL d   1      -2.756  -0.820   0.591  0.00  0.00     0.078 C 
ATOM      2  C1  UNL d   1      -1.336  -0.518   0.968  0.00  0.00    -0.077 A 
ATOM      3  C2  UNL d   1      -0.427  -0.027   0.024  0.00  0.00    -0.001 A 
ATOM      4  C3  UNL d   1       0.893   0.240   0.387  0.00  0.00     0.003 A 
ATOM      5  C4  UNL d   1       1.318   0.018   1.696  0.00  0.00    -0.005 A 
ATOM      6  C5  UNL d   1       0.421  -0.473   2.642  0.00  0.00     0.003 A 
ATOM      7  C6  UNL d   1      -0.900  -0.741   2.281  0.00  0.00    -0.001 A 
ENDROOT
TORSDOF 0
ENDMDL
