MODEL 1
REMARK minimizedAffinity -1.33987236
REMARK minimizedRMSD -1
REMARK  0 active torsions:
REMARK  status: ('A' for Active; 'I' for Inactive)
ROOT
ATOM      1  C   UNL d   1      -0.695   1.864  -2.139  0.00  0.00     0.078 C 
ATOM      2  C1  UNL d   1       0.078   0.892  -1.299  0.00  0.00    -0.077 A 
ATOM      3  C2  UNL d   1       0.082   0.990   0.098  0.00  0.00    -0.001 A 
ATOM      4  C3  UNL d   1       0.814   0.083   0.867  0.00  0.00     0.003 A 
ATOM      5  C4  UNL d   1       1.548  -0.926   0.248  0.00  0.00    -0.005 A 
ATOM      6  C5  UNL d   1       1.552  -1.030  -1.142  0.00  0.00     0.003 A 
ATOM      7  C6  UNL d   1       0.820  -0.125  -1.912  0.00  0.00    -0.001 A 
ENDROOT
TORSDOF 0
ENDMDL
