MODEL 1
REMARK minimizedAffinity -2.36689377
REMARK minimizedRMSD -1
REMARK  0 active torsions:
REMARK  status: ('A' for Active; 'I' for Inactive)
ROOT
ATOM      1  C   UNL d   1      -0.866   1.037  -1.083  0.00  0.00     0.078 C 
ATOM      2  C1  UNL d   1       0.387   0.375  -0.592  0.00  0.00    -0.077 A 
ATOM      3  C2  UNL d   1       1.046  -0.586  -1.368  0.00  0.00    -0.001 A 
ATOM      4  C3  UNL d   1       2.206  -1.202  -0.895  0.00  0.00     0.003 A 
ATOM      5  C4  UNL d   1       2.715  -0.864   0.358  0.00  0.00    -0.005 A 
ATOM      6  C5  UNL d   1       2.065   0.089   1.138  0.00  0.00     0.003 A 
ATOM      7  C6  UNL d   1       0.905   0.706   0.666  0.00  0.00    -0.001 A 
ENDROOT
TORSDOF 0
ENDMDL
