MODEL 1
REMARK minimizedAffinity -5.44872713
REMARK minimizedRMSD -1
REMARK  0 active torsions:
REMARK  status: ('A' for Active; 'I' for Inactive)
ROOT
ATOM      1  C   UNL d   1      -0.137   0.240  -0.890  0.00  0.00     0.078 C 
ATOM      2  C1  UNL d   1       0.290  -0.273   0.453  0.00  0.00    -0.077 A 
ATOM      3  C2  UNL d   1      -0.604  -0.306   1.530  0.00  0.00    -0.001 A 
ATOM      4  C3  UNL d   1      -0.189  -0.776   2.777  0.00  0.00     0.003 A 
ATOM      5  C4  UNL d   1       1.120  -1.216   2.959  0.00  0.00    -0.005 A 
ATOM      6  C5  UNL d   1       2.018  -1.185   1.893  0.00  0.00     0.003 A 
ATOM      7  C6  UNL d   1       1.605  -0.715   0.646  0.00  0.00    -0.001 A 
ENDROOT
TORSDOF 0
ENDMDL
