MODEL 1
REMARK minimizedAffinity -2.70352292
REMARK minimizedRMSD -1
REMARK  0 active torsions:
REMARK  status: ('A' for Active; 'I' for Inactive)
ROOT
ATOM      1  C   UNL d   1      -3.376   3.119  -3.018  0.00  0.00     0.078 C 
ATOM      2  C1  UNL d   1      -1.879   3.123  -3.108  0.00  0.00    -0.077 A 
ATOM      3  C2  UNL d   1      -1.089   2.752  -2.013  0.00  0.00    -0.001 A 
ATOM      4  C3  UNL d   1       0.303   2.770  -2.108  0.00  0.00     0.003 A 
ATOM      5  C4  UNL d   1       0.918   3.159  -3.297  0.00  0.00    -0.005 A 
ATOM      6  C5  UNL d   1       0.141   3.532  -4.391  0.00  0.00     0.003 A 
ATOM      7  C6  UNL d   1      -1.252   3.515  -4.297  0.00  0.00    -0.001 A 
ENDROOT
TORSDOF 0
ENDMDL
