MODEL 1
REMARK minimizedAffinity 2.31509018
REMARK minimizedRMSD -1
REMARK  1 active torsions:
REMARK  status: ('A' for Active; 'I' for Inactive)
REMARK    1  A    between atoms: C3_4  and  O_7 
ROOT
ATOM      1  C   UNL d   1       1.828  -2.194   0.020  0.00  0.00    -0.033 A 
ATOM      2  C1  UNL d   1       1.540  -0.905   0.472  0.00  0.00     0.039 A 
ATOM      3  C2  UNL d   1       2.331   0.172   0.066  0.00  0.00    -0.080 A 
ATOM      4  C3  UNL d   1       3.403  -0.053  -0.793  0.00  0.00     0.150 A 
ATOM      5  C4  UNL d   1       3.693  -1.335  -1.250  0.00  0.00    -0.007 A 
ATOM      6  C5  UNL d   1       2.904  -2.409  -0.843  0.00  0.00     0.039 A 
ENDROOT
BRANCH   4   7
ATOM      7  O   UNL d   1       4.206   0.965  -1.213  0.00  0.00    -0.526 OA
ATOM      8  H5  UNL d   1       3.903   1.788  -0.794  0.00  0.00     0.418 HD
ENDBRANCH   4   7
TORSDOF 1
ENDMDL
