MODEL 1
REMARK minimizedAffinity 1.9611069
REMARK minimizedRMSD -1
REMARK  1 active torsions:
REMARK  status: ('A' for Active; 'I' for Inactive)
REMARK    1  A    between atoms: C3_4  and  O_7 
ROOT
ATOM      1  C   UNL d   1       3.899  -0.629  -1.913  0.00  0.00    -0.033 A 
ATOM      2  C1  UNL d   1       3.308  -0.361  -0.676  0.00  0.00     0.039 A 
ATOM      3  C2  UNL d   1       2.410  -1.271  -0.117  0.00  0.00    -0.080 A 
ATOM      4  C3  UNL d   1       2.112  -2.446  -0.802  0.00  0.00     0.150 A 
ATOM      5  C4  UNL d   1       2.699  -2.722  -2.033  0.00  0.00    -0.007 A 
ATOM      6  C5  UNL d   1       3.595  -1.811  -2.590  0.00  0.00     0.039 A 
ENDROOT
BRANCH   4   7
ATOM      7  O   UNL d   1       1.237  -3.362  -0.299  0.00  0.00    -0.526 OA
ATOM      8  H5  UNL d   1       0.888  -3.025   0.543  0.00  0.00     0.418 HD
ENDBRANCH   4   7
TORSDOF 1
ENDMDL
