MODEL 1
REMARK minimizedAffinity 6.53594637
REMARK minimizedRMSD -1
REMARK  1 active torsions:
REMARK  status: ('A' for Active; 'I' for Inactive)
REMARK    1  A    between atoms: C3_4  and  O_7 
ROOT
ATOM      1  C   UNL d   1      -4.809   0.751  -1.081  0.00  0.00    -0.033 A 
ATOM      2  C1  UNL d   1      -4.665   2.037  -1.605  0.00  0.00     0.039 A 
ATOM      3  C2  UNL d   1      -3.673   2.301  -2.551  0.00  0.00    -0.080 A 
ATOM      4  C3  UNL d   1      -2.833   1.271  -2.965  0.00  0.00     0.150 A 
ATOM      5  C4  UNL d   1      -2.972  -0.014  -2.449  0.00  0.00    -0.007 A 
ATOM      6  C5  UNL d   1      -3.963  -0.275  -1.504  0.00  0.00     0.039 A 
ENDROOT
BRANCH   4   7
ATOM      7  O   UNL d   1      -1.847   1.480  -3.883  0.00  0.00    -0.526 OA
ATOM      8  H5  UNL d   1      -1.850   2.420  -4.129  0.00  0.00     0.418 HD
ENDBRANCH   4   7
TORSDOF 1
ENDMDL
