MODEL 1
REMARK minimizedAffinity 5.50311518
REMARK minimizedRMSD -1
REMARK  1 active torsions:
REMARK  status: ('A' for Active; 'I' for Inactive)
REMARK    1  A    between atoms: C3_4  and  O_7 
ROOT
ATOM      1  C   UNL d   1      -2.769   3.610   0.292  0.00  0.00    -0.033 A 
ATOM      2  C1  UNL d   1      -2.415   2.271   0.117  0.00  0.00     0.039 A 
ATOM      3  C2  UNL d   1      -1.822   1.561   1.163  0.00  0.00    -0.080 A 
ATOM      4  C3  UNL d   1      -1.590   2.200   2.377  0.00  0.00     0.150 A 
ATOM      5  C4  UNL d   1      -1.943   3.533   2.560  0.00  0.00    -0.007 A 
ATOM      6  C5  UNL d   1      -2.534   4.241   1.514  0.00  0.00     0.039 A 
ENDROOT
BRANCH   4   7
ATOM      7  O   UNL d   1      -1.009   1.550   3.425  0.00  0.00    -0.526 OA
ATOM      8  H5  UNL d   1      -0.793   0.645   3.144  0.00  0.00     0.418 HD
ENDBRANCH   4   7
TORSDOF 1
ENDMDL
