MODEL 1
REMARK minimizedAffinity 1.04273701
REMARK minimizedRMSD -1
REMARK  1 active torsions:
REMARK  status: ('A' for Active; 'I' for Inactive)
REMARK    1  A    between atoms: C3_4  and  O_7 
ROOT
ATOM      1  C   UNL d   1       1.129   0.394   2.719  0.00  0.00    -0.033 A 
ATOM      2  C1  UNL d   1       1.804   0.554   1.507  0.00  0.00     0.039 A 
ATOM      3  C2  UNL d   1       1.090   0.825   0.338  0.00  0.00    -0.080 A 
ATOM      4  C3  UNL d   1      -0.297   0.935   0.395  0.00  0.00     0.150 A 
ATOM      5  C4  UNL d   1      -0.976   0.781   1.600  0.00  0.00    -0.007 A 
ATOM      6  C5  UNL d   1      -0.261   0.509   2.765  0.00  0.00     0.039 A 
ENDROOT
BRANCH   4   7
ATOM      7  O   UNL d   1      -1.038   1.193  -0.720  0.00  0.00    -0.526 OA
ATOM      8  H5  UNL d   1      -0.437   1.246  -1.482  0.00  0.00     0.418 HD
ENDBRANCH   4   7
TORSDOF 1
ENDMDL
