MODEL 1
REMARK minimizedAffinity -0.975517154
REMARK minimizedRMSD -1
REMARK  1 active torsions:
REMARK  status: ('A' for Active; 'I' for Inactive)
REMARK    1  A    between atoms: C3_4  and  O_7 
ROOT
ATOM      1  C   UNL d   1      -1.132   0.677   2.475  0.00  0.00    -0.033 A 
ATOM      2  C1  UNL d   1      -1.313   1.108   1.160  0.00  0.00     0.039 A 
ATOM      3  C2  UNL d   1      -0.222   1.187   0.292  0.00  0.00    -0.080 A 
ATOM      4  C3  UNL d   1       1.043   0.831   0.752  0.00  0.00     0.150 A 
ATOM      5  C4  UNL d   1       1.231   0.397   2.060  0.00  0.00    -0.007 A 
ATOM      6  C5  UNL d   1       0.140   0.320   2.925  0.00  0.00     0.039 A 
ENDROOT
BRANCH   4   7
ATOM      7  O   UNL d   1       2.139   0.896  -0.057  0.00  0.00    -0.526 OA
ATOM      8  H5  UNL d   1       1.863   1.240  -0.922  0.00  0.00     0.418 HD
ENDBRANCH   4   7
TORSDOF 1
ENDMDL
