MODEL 1
REMARK minimizedAffinity 1.8625412
REMARK minimizedRMSD -1
REMARK  1 active torsions:
REMARK  status: ('A' for Active; 'I' for Inactive)
REMARK    1  A    between atoms: C3_4  and  O_7 
ROOT
ATOM      1  C   UNL d   1      -2.062  -5.359  -1.867  0.00  0.00    -0.033 A 
ATOM      2  C1  UNL d   1      -1.138  -6.000  -1.040  0.00  0.00     0.039 A 
ATOM      3  C2  UNL d   1       0.015  -5.329  -0.627  0.00  0.00    -0.080 A 
ATOM      4  C3  UNL d   1       0.231  -4.020  -1.047  0.00  0.00     0.150 A 
ATOM      5  C4  UNL d   1      -0.687  -3.374  -1.868  0.00  0.00    -0.007 A 
ATOM      6  C5  UNL d   1      -1.837  -4.045  -2.280  0.00  0.00     0.039 A 
ENDROOT
BRANCH   4   7
ATOM      7  O   UNL d   1       1.344  -3.326  -0.674  0.00  0.00    -0.526 OA
ATOM      8  H5  UNL d   1       1.902  -3.908  -0.131  0.00  0.00     0.418 HD
ENDBRANCH   4   7
TORSDOF 1
ENDMDL
