MODEL 1
REMARK minimizedAffinity 0.460103571
REMARK minimizedRMSD -1
REMARK  1 active torsions:
REMARK  status: ('A' for Active; 'I' for Inactive)
REMARK    1  A    between atoms: C3_4  and  O_7 
ROOT
ATOM      1  C   UNL d   1       3.449   1.350   0.119  0.00  0.00    -0.033 A 
ATOM      2  C1  UNL d   1       2.263   0.992   0.762  0.00  0.00     0.039 A 
ATOM      3  C2  UNL d   1       1.878  -0.348   0.824  0.00  0.00    -0.080 A 
ATOM      4  C3  UNL d   1       2.688  -1.320   0.243  0.00  0.00     0.150 A 
ATOM      5  C4  UNL d   1       3.873  -0.971  -0.396  0.00  0.00    -0.007 A 
ATOM      6  C5  UNL d   1       4.255   0.369  -0.458  0.00  0.00     0.039 A 
ENDROOT
BRANCH   4   7
ATOM      7  O   UNL d   1       2.351  -2.641   0.274  0.00  0.00    -0.526 OA
ATOM      8  H5  UNL d   1       1.494  -2.729   0.722  0.00  0.00     0.418 HD
ENDBRANCH   4   7
TORSDOF 1
ENDMDL
