MODEL 1
REMARK minimizedAffinity 0.385756791
REMARK minimizedRMSD -1
REMARK  1 active torsions:
REMARK  status: ('A' for Active; 'I' for Inactive)
REMARK    1  A    between atoms: C3_4  and  O_7 
ROOT
ATOM      1  C   UNL d   1       3.265   1.059  -0.365  0.00  0.00    -0.033 A 
ATOM      2  C1  UNL d   1       4.206   0.095  -0.731  0.00  0.00     0.039 A 
ATOM      3  C2  UNL d   1       3.930  -1.260  -0.541  0.00  0.00    -0.080 A 
ATOM      4  C3  UNL d   1       2.709  -1.638   0.012  0.00  0.00     0.150 A 
ATOM      5  C4  UNL d   1       1.765  -0.683   0.375  0.00  0.00    -0.007 A 
ATOM      6  C5  UNL d   1       2.044   0.670   0.186  0.00  0.00     0.039 A 
ENDROOT
BRANCH   4   7
ATOM      7  O   UNL d   1       2.396  -2.948   0.220  0.00  0.00    -0.526 OA
ATOM      8  H5  UNL d   1       3.154  -3.492  -0.051  0.00  0.00     0.418 HD
ENDBRANCH   4   7
TORSDOF 1
ENDMDL
