MODEL 1
REMARK minimizedAffinity -5.17242193
REMARK minimizedRMSD -1
REMARK  1 active torsions:
REMARK  status: ('A' for Active; 'I' for Inactive)
REMARK    1  A    between atoms: C3_4  and  O_7 
ROOT
ATOM      1  C   UNL d   1       1.652   2.107   1.509  0.00  0.00    -0.033 A 
ATOM      2  C1  UNL d   1       0.447   1.594   1.995  0.00  0.00     0.039 A 
ATOM      3  C2  UNL d   1      -0.319   0.737   1.203  0.00  0.00    -0.080 A 
ATOM      4  C3  UNL d   1       0.130   0.399  -0.070  0.00  0.00     0.150 A 
ATOM      5  C4  UNL d   1       1.331   0.903  -0.560  0.00  0.00    -0.007 A 
ATOM      6  C5  UNL d   1       2.094   1.760   0.232  0.00  0.00     0.039 A 
ENDROOT
BRANCH   4   7
ATOM      7  O   UNL d   1      -0.585  -0.430  -0.882  0.00  0.00    -0.526 OA
ATOM      8  H5  UNL d   1      -1.406  -0.677  -0.423  0.00  0.00     0.418 HD
ENDBRANCH   4   7
TORSDOF 1
ENDMDL
