MODEL 1
REMARK minimizedAffinity -4.8938508
REMARK minimizedRMSD -1
REMARK  1 active torsions:
REMARK  status: ('A' for Active; 'I' for Inactive)
REMARK    1  A    between atoms: C3_4  and  O_7 
ROOT
ATOM      1  C   UNL d   1       0.034  -0.173   0.201  0.00  0.00    -0.033 A 
ATOM      2  C1  UNL d   1       1.181   0.321  -0.424  0.00  0.00     0.039 A 
ATOM      3  C2  UNL d   1       1.739   1.531  -0.008  0.00  0.00    -0.080 A 
ATOM      4  C3  UNL d   1       1.143   2.237   1.033  0.00  0.00     0.150 A 
ATOM      5  C4  UNL d   1       0.002   1.749   1.663  0.00  0.00    -0.007 A 
ATOM      6  C5  UNL d   1      -0.555   0.541   1.246  0.00  0.00     0.039 A 
ENDROOT
BRANCH   4   7
ATOM      7  O   UNL d   1       1.649   3.424   1.471  0.00  0.00    -0.526 OA
ATOM      8  H5  UNL d   1       2.420   3.651   0.924  0.00  0.00     0.418 HD
ENDBRANCH   4   7
TORSDOF 1
ENDMDL
