MODEL 1
REMARK minimizedAffinity -3.02122593
REMARK minimizedRMSD -1
REMARK  1 active torsions:
REMARK  status: ('A' for Active; 'I' for Inactive)
REMARK    1  A    between atoms: C3_4  and  O_7 
ROOT
ATOM      1  C   UNL d   1      -2.292   5.990  -3.870  0.00  0.00    -0.033 A 
ATOM      2  C1  UNL d   1      -2.347   5.994  -5.266  0.00  0.00     0.039 A 
ATOM      3  C2  UNL d   1      -3.582   5.998  -5.918  0.00  0.00    -0.080 A 
ATOM      4  C3  UNL d   1      -4.752   6.000  -5.164  0.00  0.00     0.150 A 
ATOM      5  C4  UNL d   1      -4.705   6.000  -3.774  0.00  0.00    -0.007 A 
ATOM      6  C5  UNL d   1      -3.472   5.995  -3.125  0.00  0.00     0.039 A 
ENDROOT
BRANCH   4   7
ATOM      7  O   UNL d   1      -5.980   5.999  -5.756  0.00  0.00    -0.526 OA
ATOM      8  H5  UNL d   1      -5.858   5.970  -6.720  0.00  0.00     0.418 HD
ENDBRANCH   4   7
TORSDOF 1
ENDMDL
