MODEL 1
REMARK minimizedAffinity -4.95980358
REMARK minimizedRMSD -1
REMARK  1 active torsions:
REMARK  status: ('A' for Active; 'I' for Inactive)
REMARK    1  A    between atoms: C3_4  and  O_7 
ROOT
ATOM      1  C   UNL d   1       1.018   1.663   0.396  0.00  0.00    -0.033 A 
ATOM      2  C1  UNL d   1       0.304   0.524   0.020  0.00  0.00     0.039 A 
ATOM      3  C2  UNL d   1       0.966  -0.553  -0.572  0.00  0.00    -0.080 A 
ATOM      4  C3  UNL d   1       2.341  -0.480  -0.780  0.00  0.00     0.150 A 
ATOM      5  C4  UNL d   1       3.059   0.651  -0.404  0.00  0.00    -0.007 A 
ATOM      6  C5  UNL d   1       2.396   1.726   0.186  0.00  0.00     0.039 A 
ENDROOT
BRANCH   4   7
ATOM      7  O   UNL d   1       3.030  -1.504  -1.359  0.00  0.00    -0.526 OA
ATOM      8  H5  UNL d   1       2.399  -2.206  -1.592  0.00  0.00     0.418 HD
ENDBRANCH   4   7
TORSDOF 1
ENDMDL
