MODEL 1
REMARK minimizedAffinity -3.86343527
REMARK minimizedRMSD -1
REMARK  1 active torsions:
REMARK  status: ('A' for Active; 'I' for Inactive)
REMARK    1  A    between atoms: C3_4  and  O_7 
ROOT
ATOM      1  C   UNL d   1      -0.955   1.104   1.501  0.00  0.00    -0.033 A 
ATOM      2  C1  UNL d   1      -0.741   0.168   0.488  0.00  0.00     0.039 A 
ATOM      3  C2  UNL d   1       0.525   0.035  -0.087  0.00  0.00    -0.080 A 
ATOM      4  C3  UNL d   1       1.567   0.842   0.362  0.00  0.00     0.150 A 
ATOM      5  C4  UNL d   1       1.362   1.774   1.374  0.00  0.00    -0.007 A 
ATOM      6  C5  UNL d   1       0.097   1.906   1.945  0.00  0.00     0.039 A 
ENDROOT
BRANCH   4   7
ATOM      7  O   UNL d   1       2.818   0.751  -0.172  0.00  0.00    -0.526 OA
ATOM      8  H5  UNL d   1       2.804   0.086  -0.880  0.00  0.00     0.418 HD
ENDBRANCH   4   7
TORSDOF 1
ENDMDL
