MODEL 1
REMARK minimizedAffinity -4.02204466
REMARK minimizedRMSD -1
REMARK  1 active torsions:
REMARK  status: ('A' for Active; 'I' for Inactive)
REMARK    1  A    between atoms: C3_4  and  O_7 
ROOT
ATOM      1  C   UNL d   1       0.758  -0.798  -0.478  0.00  0.00    -0.033 A 
ATOM      2  C1  UNL d   1       1.939  -0.136  -0.819  0.00  0.00     0.039 A 
ATOM      3  C2  UNL d   1       2.202   1.136  -0.306  0.00  0.00    -0.080 A 
ATOM      4  C3  UNL d   1       1.277   1.733   0.547  0.00  0.00     0.150 A 
ATOM      5  C4  UNL d   1       0.101   1.077   0.894  0.00  0.00    -0.007 A 
ATOM      6  C5  UNL d   1      -0.160  -0.192   0.380  0.00  0.00     0.039 A 
ENDROOT
BRANCH   4   7
ATOM      7  O   UNL d   1       1.488   2.975   1.068  0.00  0.00    -0.526 OA
ATOM      8  H5  UNL d   1       2.327   3.317   0.719  0.00  0.00     0.418 HD
ENDBRANCH   4   7
TORSDOF 1
ENDMDL
