MODEL 1
REMARK minimizedAffinity -2.50884604
REMARK minimizedRMSD -1
REMARK  1 active torsions:
REMARK  status: ('A' for Active; 'I' for Inactive)
REMARK    1  A    between atoms: C3_4  and  O_7 
ROOT
ATOM      1  C   UNL d   1      -1.297   0.311   1.195  0.00  0.00    -0.033 A 
ATOM      2  C1  UNL d   1      -0.228   1.207   1.253  0.00  0.00     0.039 A 
ATOM      3  C2  UNL d   1       0.941   0.949   0.534  0.00  0.00    -0.080 A 
ATOM      4  C3  UNL d   1       1.027  -0.205  -0.239  0.00  0.00     0.150 A 
ATOM      5  C4  UNL d   1      -0.036  -1.100  -0.304  0.00  0.00    -0.007 A 
ATOM      6  C5  UNL d   1      -1.202  -0.842   0.415  0.00  0.00     0.039 A 
ENDROOT
BRANCH   4   7
ATOM      7  O   UNL d   1       2.149  -0.502  -0.954  0.00  0.00    -0.526 OA
ATOM      8  H5  UNL d   1       2.810   0.191  -0.791  0.00  0.00     0.418 HD
ENDBRANCH   4   7
TORSDOF 1
ENDMDL
