MODEL 1
REMARK minimizedAffinity -5.43792868
REMARK minimizedRMSD -1
REMARK  1 active torsions:
REMARK  status: ('A' for Active; 'I' for Inactive)
REMARK    1  A    between atoms: C3_4  and  O_7 
ROOT
ATOM      1  C   UNL d   1       1.735   2.507   1.316  0.00  0.00    -0.033 A 
ATOM      2  C1  UNL d   1       0.454   2.093   1.685  0.00  0.00     0.039 A 
ATOM      3  C2  UNL d   1      -0.130   0.986   1.066  0.00  0.00    -0.080 A 
ATOM      4  C3  UNL d   1       0.578   0.302   0.082  0.00  0.00     0.150 A 
ATOM      5  C4  UNL d   1       1.856   0.707  -0.289  0.00  0.00    -0.007 A 
ATOM      6  C5  UNL d   1       2.437   1.813   0.330  0.00  0.00     0.039 A 
ENDROOT
BRANCH   4   7
ATOM      7  O   UNL d   1       0.048  -0.781  -0.554  0.00  0.00    -0.526 OA
ATOM      8  H5  UNL d   1      -0.851  -0.927  -0.216  0.00  0.00     0.418 HD
ENDBRANCH   4   7
TORSDOF 1
ENDMDL
