MODEL 1
REMARK minimizedAffinity -4.07603407
REMARK minimizedRMSD -1
REMARK  1 active torsions:
REMARK  status: ('A' for Active; 'I' for Inactive)
REMARK    1  A    between atoms: C3_4  and  O_7 
ROOT
ATOM      1  C   UNL d   1      -2.617  -1.892  -3.256  0.00  0.00    -0.033 A 
ATOM      2  C1  UNL d   1      -2.957  -2.539  -2.066  0.00  0.00     0.039 A 
ATOM      3  C2  UNL d   1      -2.168  -2.368  -0.926  0.00  0.00    -0.080 A 
ATOM      4  C3  UNL d   1      -1.044  -1.549  -0.990  0.00  0.00     0.150 A 
ATOM      5  C4  UNL d   1      -0.702  -0.899  -2.172  0.00  0.00    -0.007 A 
ATOM      6  C5  UNL d   1      -1.490  -1.072  -3.308  0.00  0.00     0.039 A 
ENDROOT
BRANCH   4   7
ATOM      7  O   UNL d   1      -0.241  -1.356   0.094  0.00  0.00    -0.526 OA
ATOM      8  H5  UNL d   1      -0.584  -1.890   0.830  0.00  0.00     0.418 HD
ENDBRANCH   4   7
TORSDOF 1
ENDMDL
