MODEL 1
REMARK minimizedAffinity -2.75564027
REMARK minimizedRMSD -1
REMARK  1 active torsions:
REMARK  status: ('A' for Active; 'I' for Inactive)
REMARK    1  A    between atoms: C3_4  and  O_7 
ROOT
ATOM      1  C   UNL d   1      -0.540  -0.127   0.354  0.00  0.00    -0.033 A 
ATOM      2  C1  UNL d   1      -0.938   0.539   1.515  0.00  0.00     0.039 A 
ATOM      3  C2  UNL d   1      -0.351   1.758   1.859  0.00  0.00    -0.080 A 
ATOM      4  C3  UNL d   1       0.632   2.300   1.035  0.00  0.00     0.150 A 
ATOM      5  C4  UNL d   1       1.030   1.644  -0.125  0.00  0.00    -0.007 A 
ATOM      6  C5  UNL d   1       0.443   0.426  -0.467  0.00  0.00     0.039 A 
ENDROOT
BRANCH   4   7
ATOM      7  O   UNL d   1       1.237   3.485   1.331  0.00  0.00    -0.526 OA
ATOM      8  H5  UNL d   1       0.882   3.809   2.176  0.00  0.00     0.418 HD
ENDBRANCH   4   7
TORSDOF 1
ENDMDL
