MODEL 1
REMARK minimizedAffinity -2.42155814
REMARK minimizedRMSD -1
REMARK  1 active torsions:
REMARK  status: ('A' for Active; 'I' for Inactive)
REMARK    1  A    between atoms: C3_4  and  O_7 
ROOT
ATOM      1  C   UNL d   1      -0.600   0.797   1.280  0.00  0.00    -0.033 A 
ATOM      2  C1  UNL d   1      -0.264  -0.152   0.313  0.00  0.00     0.039 A 
ATOM      3  C2  UNL d   1       1.064  -0.301  -0.091  0.00  0.00    -0.080 A 
ATOM      4  C3  UNL d   1       2.046   0.504   0.480  0.00  0.00     0.150 A 
ATOM      5  C4  UNL d   1       1.719   1.450   1.447  0.00  0.00    -0.007 A 
ATOM      6  C5  UNL d   1       0.392   1.597   1.848  0.00  0.00     0.039 A 
ENDROOT
BRANCH   4   7
ATOM      7  O   UNL d   1       3.355   0.399   0.115  0.00  0.00    -0.526 OA
ATOM      8  H5  UNL d   1       3.427  -0.274  -0.582  0.00  0.00     0.418 HD
ENDBRANCH   4   7
TORSDOF 1
ENDMDL
