MODEL 1
REMARK minimizedAffinity -3.37117648
REMARK minimizedRMSD -1
REMARK  1 active torsions:
REMARK  status: ('A' for Active; 'I' for Inactive)
REMARK    1  A    between atoms: C3_4  and  O_7 
ROOT
ATOM      1  C   UNL d   1      -1.083   1.084   1.636  0.00  0.00    -0.033 A 
ATOM      2  C1  UNL d   1       0.036   0.262   1.486  0.00  0.00     0.039 A 
ATOM      3  C2  UNL d   1       0.131  -0.596   0.388  0.00  0.00    -0.080 A 
ATOM      4  C3  UNL d   1      -0.897  -0.621  -0.551  0.00  0.00     0.150 A 
ATOM      5  C4  UNL d   1      -2.012   0.198  -0.409  0.00  0.00    -0.007 A 
ATOM      6  C5  UNL d   1      -2.106   1.053   0.688  0.00  0.00     0.039 A 
ENDROOT
BRANCH   4   7
ATOM      7  O   UNL d   1      -0.851  -1.445  -1.636  0.00  0.00    -0.526 OA
ATOM      8  H5  UNL d   1      -0.036  -1.973  -1.587  0.00  0.00     0.418 HD
ENDBRANCH   4   7
TORSDOF 1
ENDMDL
