MODEL 1
REMARK minimizedAffinity -3.72246599
REMARK minimizedRMSD -1
REMARK  1 active torsions:
REMARK  status: ('A' for Active; 'I' for Inactive)
REMARK    1  A    between atoms: C3_4  and  O_7 
ROOT
ATOM      1  C   UNL d   1      -0.503   0.007   0.883  0.00  0.00    -0.033 A 
ATOM      2  C1  UNL d   1       0.341  -0.725   0.045  0.00  0.00     0.039 A 
ATOM      3  C2  UNL d   1       1.721  -0.513   0.083  0.00  0.00    -0.080 A 
ATOM      4  C3  UNL d   1       2.243   0.431   0.963  0.00  0.00     0.150 A 
ATOM      5  C4  UNL d   1       1.408   1.161   1.803  0.00  0.00    -0.007 A 
ATOM      6  C5  UNL d   1       0.031   0.949   1.763  0.00  0.00     0.039 A 
ENDROOT
BRANCH   4   7
ATOM      7  O   UNL d   1       3.582   0.677   1.033  0.00  0.00    -0.526 OA
ATOM      8  H5  UNL d   1       4.032   0.120   0.375  0.00  0.00     0.418 HD
ENDBRANCH   4   7
TORSDOF 1
ENDMDL
