MODEL 1
REMARK minimizedAffinity -5.18077755
REMARK minimizedRMSD -1
REMARK  1 active torsions:
REMARK  status: ('A' for Active; 'I' for Inactive)
REMARK    1  A    between atoms: C3_4  and  O_7 
ROOT
ATOM      1  C   UNL d   1      -0.514   0.767   1.320  0.00  0.00    -0.033 A 
ATOM      2  C1  UNL d   1       0.654   1.486   1.580  0.00  0.00     0.039 A 
ATOM      3  C2  UNL d   1       1.868   1.071   1.032  0.00  0.00    -0.080 A 
ATOM      4  C3  UNL d   1       1.901  -0.063   0.224  0.00  0.00     0.150 A 
ATOM      5  C4  UNL d   1       0.741  -0.782  -0.042  0.00  0.00    -0.007 A 
ATOM      6  C5  UNL d   1      -0.471  -0.366   0.507  0.00  0.00     0.039 A 
ENDROOT
BRANCH   4   7
ATOM      7  O   UNL d   1       3.064  -0.510  -0.330  0.00  0.00    -0.526 OA
ATOM      8  H5  UNL d   1       3.787   0.068  -0.035  0.00  0.00     0.418 HD
ENDBRANCH   4   7
TORSDOF 1
ENDMDL
