MODEL 1
REMARK minimizedAffinity -4.4445591
REMARK minimizedRMSD -1
REMARK  1 active torsions:
REMARK  status: ('A' for Active; 'I' for Inactive)
REMARK    1  A    between atoms: C3_4  and  O_7 
ROOT
ATOM      1  C   UNL d   1       0.461  -1.139  -1.201  0.00  0.00    -0.033 A 
ATOM      2  C1  UNL d   1      -0.422  -0.797  -0.175  0.00  0.00     0.039 A 
ATOM      3  C2  UNL d   1      -0.260   0.405   0.516  0.00  0.00    -0.080 A 
ATOM      4  C3  UNL d   1       0.788   1.255   0.172  0.00  0.00     0.150 A 
ATOM      5  C4  UNL d   1       1.669   0.922  -0.852  0.00  0.00    -0.007 A 
ATOM      6  C5  UNL d   1       1.505  -0.279  -1.541  0.00  0.00     0.039 A 
ENDROOT
BRANCH   4   7
ATOM      7  O   UNL d   1       0.990   2.437   0.821  0.00  0.00    -0.526 OA
ATOM      8  H5  UNL d   1       0.322   2.520   1.522  0.00  0.00     0.418 HD
ENDBRANCH   4   7
TORSDOF 1
ENDMDL
