MODEL 1
REMARK minimizedAffinity 0.293294191
REMARK minimizedRMSD -1
REMARK  0 active torsions:
REMARK  status: ('A' for Active; 'I' for Inactive)
ROOT
ATOM      1  C1  BNZ d   1      -1.365   2.207  -0.778  0.00  0.00     0.000 A 
ATOM      2  C2  BNZ d   1      -2.629   2.579  -1.151  0.00  0.00     0.000 A 
ATOM      3  C3  BNZ d   1      -3.704   2.309  -0.351  0.00  0.00     0.000 A 
ATOM      4  C4  BNZ d   1      -3.519   1.631   0.801  0.00  0.00     0.000 A 
ATOM      5  C5  BNZ d   1      -2.252   1.241   1.186  0.00  0.00     0.000 A 
ATOM      6  C6  BNZ d   1      -1.168   1.549   0.397  0.00  0.00     0.000 A 
ENDROOT
TORSDOF 0
ENDMDL
