MODEL 1
REMARK minimizedAffinity -3.57681012
REMARK minimizedRMSD -1
REMARK  0 active torsions:
REMARK  status: ('A' for Active; 'I' for Inactive)
ROOT
ATOM      1  C1  BNZ d   1      -1.014  -0.107   1.141  0.00  0.00     0.000 A 
ATOM      2  C2  BNZ d   1       0.102   0.593   0.769  0.00  0.00     0.000 A 
ATOM      3  C3  BNZ d   1       0.019   1.914   0.428  0.00  0.00     0.000 A 
ATOM      4  C4  BNZ d   1      -1.185   2.522   0.421  0.00  0.00     0.000 A 
ATOM      5  C5  BNZ d   1      -2.321   1.827   0.785  0.00  0.00     0.000 A 
ATOM      6  C6  BNZ d   1      -2.228   0.508   1.165  0.00  0.00     0.000 A 
ENDROOT
TORSDOF 0
ENDMDL
