MODEL 1
REMARK minimizedAffinity -1.84684312
REMARK minimizedRMSD -1
REMARK  0 active torsions:
REMARK  status: ('A' for Active; 'I' for Inactive)
ROOT
ATOM      1  C1  BNZ d   1      -1.085   1.888   0.052  0.00  0.00     0.000 A 
ATOM      2  C2  BNZ d   1      -2.227   2.596  -0.211  0.00  0.00     0.000 A 
ATOM      3  C3  BNZ d   1      -3.437   2.176   0.267  0.00  0.00     0.000 A 
ATOM      4  C4  BNZ d   1      -3.510   1.029   0.972  0.00  0.00     0.000 A 
ATOM      5  C5  BNZ d   1      -2.368   0.299   1.238  0.00  0.00     0.000 A 
ATOM      6  C6  BNZ d   1      -1.147   0.745   0.789  0.00  0.00     0.000 A 
ENDROOT
TORSDOF 0
ENDMDL
