MODEL 1
REMARK minimizedAffinity 3.35274768
REMARK minimizedRMSD -1
REMARK  0 active torsions:
REMARK  status: ('A' for Active; 'I' for Inactive)
ROOT
ATOM      1  C1  BNZ d   1      -2.265   1.598   0.222  0.00  0.00     0.000 A 
ATOM      2  C2  BNZ d   1      -1.019   2.120  -0.004  0.00  0.00     0.000 A 
ATOM      3  C3  BNZ d   1       0.068   1.660   0.687  0.00  0.00     0.000 A 
ATOM      4  C4  BNZ d   1      -0.098   0.710   1.629  0.00  0.00     0.000 A 
ATOM      5  C5  BNZ d   1      -1.350   0.181   1.874  0.00  0.00     0.000 A 
ATOM      6  C6  BNZ d   1      -2.435   0.618   1.150  0.00  0.00     0.000 A 
ENDROOT
TORSDOF 0
ENDMDL
