MODEL 1
REMARK minimizedAffinity -2.68495131
REMARK minimizedRMSD -1
REMARK  0 active torsions:
REMARK  status: ('A' for Active; 'I' for Inactive)
ROOT
ATOM      1  C1  BNZ d   1      -1.761   2.374  -0.165  0.00  0.00     0.000 A 
ATOM      2  C2  BNZ d   1      -0.488   1.915   0.043  0.00  0.00     0.000 A 
ATOM      3  C3  BNZ d   1      -0.269   0.688   0.605  0.00  0.00     0.000 A 
ATOM      4  C4  BNZ d   1      -1.321  -0.060   0.995  0.00  0.00     0.000 A 
ATOM      5  C5  BNZ d   1      -2.611   0.393   0.801  0.00  0.00     0.000 A 
ATOM      6  C6  BNZ d   1      -2.828   1.612   0.199  0.00  0.00     0.000 A 
ENDROOT
TORSDOF 0
ENDMDL
