MODEL 1
REMARK minimizedAffinity -2.34545994
REMARK minimizedRMSD -1
REMARK  0 active torsions:
REMARK  status: ('A' for Active; 'I' for Inactive)
ROOT
ATOM      1  C1  BNZ d   1      -4.284   1.228   0.731  0.00  0.00     0.000 A 
ATOM      2  C2  BNZ d   1      -3.485   2.259   0.313  0.00  0.00     0.000 A 
ATOM      3  C3  BNZ d   1      -2.123   2.151   0.356  0.00  0.00     0.000 A 
ATOM      4  C4  BNZ d   1      -1.562   1.030   0.852  0.00  0.00     0.000 A 
ATOM      5  C5  BNZ d   1      -2.354  -0.015   1.286  0.00  0.00     0.000 A 
ATOM      6  C6  BNZ d   1      -3.724   0.082   1.205  0.00  0.00     0.000 A 
ENDROOT
TORSDOF 0
ENDMDL
