MODEL 1
REMARK minimizedAffinity -2.30433893
REMARK minimizedRMSD -1
REMARK  0 active torsions:
REMARK  status: ('A' for Active; 'I' for Inactive)
ROOT
ATOM      1  C1  BNZ d   1      -2.593   1.372   0.425  0.00  0.00     0.000 A 
ATOM      2  C2  BNZ d   1      -2.015   0.163   0.709  0.00  0.00     0.000 A 
ATOM      3  C3  BNZ d   1      -0.728   0.092   1.163  0.00  0.00     0.000 A 
ATOM      4  C4  BNZ d   1      -0.007   1.224   1.294  0.00  0.00     0.000 A 
ATOM      5  C5  BNZ d   1      -0.572   2.450   1.003  0.00  0.00     0.000 A 
ATOM      6  C6  BNZ d   1      -1.881   2.521   0.583  0.00  0.00     0.000 A 
ENDROOT
TORSDOF 0
ENDMDL
