MODEL 1
REMARK minimizedAffinity -4.13618517
REMARK minimizedRMSD -1
REMARK  0 active torsions:
REMARK  status: ('A' for Active; 'I' for Inactive)
ROOT
ATOM      1  C1  BNZ d   1      -1.451   0.291   0.781  0.00  0.00     0.000 A 
ATOM      2  C2  BNZ d   1      -2.732   0.761   0.671  0.00  0.00     0.000 A 
ATOM      3  C3  BNZ d   1      -2.973   2.082   0.415  0.00  0.00     0.000 A 
ATOM      4  C4  BNZ d   1      -1.936   2.937   0.308  0.00  0.00     0.000 A 
ATOM      5  C5  BNZ d   1      -0.638   2.480   0.426  0.00  0.00     0.000 A 
ATOM      6  C6  BNZ d   1      -0.398   1.143   0.645  0.00  0.00     0.000 A 
ENDROOT
TORSDOF 0
ENDMDL
