MODEL 1
REMARK minimizedAffinity -0.357430696
REMARK minimizedRMSD -1
REMARK  0 active torsions:
REMARK  status: ('A' for Active; 'I' for Inactive)
ROOT
ATOM      1  C1  BNZ d   1      -2.350   1.719   0.503  0.00  0.00     0.000 A 
ATOM      2  C2  BNZ d   1      -1.693   0.527   0.653  0.00  0.00     0.000 A 
ATOM      3  C3  BNZ d   1      -0.328   0.484   0.713  0.00  0.00     0.000 A 
ATOM      4  C4  BNZ d   1       0.378   1.625   0.583  0.00  0.00     0.000 A 
ATOM      5  C5  BNZ d   1      -0.270   2.833   0.421  0.00  0.00     0.000 A 
ATOM      6  C6  BNZ d   1      -1.645   2.878   0.401  0.00  0.00     0.000 A 
ENDROOT
TORSDOF 0
ENDMDL
