MODEL 1
REMARK minimizedAffinity -2.79542422
REMARK minimizedRMSD -1
REMARK  0 active torsions:
REMARK  status: ('A' for Active; 'I' for Inactive)
ROOT
ATOM      1  C1  BNZ d   1      -0.286   1.548  -0.088  0.00  0.00     0.000 A 
ATOM      2  C2  BNZ d   1      -1.436   2.283  -0.203  0.00  0.00     0.000 A 
ATOM      3  C3  BNZ d   1      -2.548   1.961   0.524  0.00  0.00     0.000 A 
ATOM      4  C4  BNZ d   1      -2.521   0.884   1.334  0.00  0.00     0.000 A 
ATOM      5  C5  BNZ d   1      -1.373   0.127   1.454  0.00  0.00     0.000 A 
ATOM      6  C6  BNZ d   1      -0.243   0.477   0.750  0.00  0.00     0.000 A 
ENDROOT
TORSDOF 0
ENDMDL
