MODEL 1
REMARK minimizedAffinity -5.09103298
REMARK minimizedRMSD -1
REMARK  0 active torsions:
REMARK  status: ('A' for Active; 'I' for Inactive)
ROOT
ATOM      1  C1  BNZ d   1      -2.293   0.854   1.132  0.00  0.00     0.000 A 
ATOM      2  C2  BNZ d   1      -0.938   0.695   1.012  0.00  0.00     0.000 A 
ATOM      3  C3  BNZ d   1      -0.219   1.455   0.132  0.00  0.00     0.000 A 
ATOM      4  C4  BNZ d   1      -0.861   2.343  -0.655  0.00  0.00     0.000 A 
ATOM      5  C5  BNZ d   1      -2.228   2.508  -0.552  0.00  0.00     0.000 A 
ATOM      6  C6  BNZ d   1      -2.942   1.769   0.362  0.00  0.00     0.000 A 
ENDROOT
TORSDOF 0
ENDMDL
