MODEL 1
REMARK minimizedAffinity -2.33851957
REMARK minimizedRMSD -1
REMARK  0 active torsions:
REMARK  status: ('A' for Active; 'I' for Inactive)
ROOT
ATOM      1  C1  BNZ d   1      -0.288   1.815   0.022  0.00  0.00     0.000 A 
ATOM      2  C2  BNZ d   1      -1.458   2.344  -0.456  0.00  0.00     0.000 A 
ATOM      3  C3  BNZ d   1      -2.666   1.879  -0.018  0.00  0.00     0.000 A 
ATOM      4  C4  BNZ d   1      -2.704   0.860   0.865  0.00  0.00     0.000 A 
ATOM      5  C5  BNZ d   1      -1.534   0.310   1.349  0.00  0.00     0.000 A 
ATOM      6  C6  BNZ d   1      -0.319   0.807   0.935  0.00  0.00     0.000 A 
ENDROOT
TORSDOF 0
ENDMDL
