MODEL 1
REMARK minimizedAffinity -2.71742725
REMARK minimizedRMSD -1
REMARK  0 active torsions:
REMARK  status: ('A' for Active; 'I' for Inactive)
ROOT
ATOM      1  C1  BNZ d   1       0.028   1.095  -0.080  0.00  0.00     0.000 A 
ATOM      2  C2  BNZ d   1      -0.345   2.157  -0.859  0.00  0.00     0.000 A 
ATOM      3  C3  BNZ d   1      -1.644   2.580  -0.890  0.00  0.00     0.000 A 
ATOM      4  C4  BNZ d   1      -2.575   1.917  -0.174  0.00  0.00     0.000 A 
ATOM      5  C5  BNZ d   1      -2.216   0.839   0.610  0.00  0.00     0.000 A 
ATOM      6  C6  BNZ d   1      -0.900   0.440   0.669  0.00  0.00     0.000 A 
ENDROOT
TORSDOF 0
ENDMDL
