MODEL 1
REMARK minimizedAffinity 0.475543916
REMARK minimizedRMSD -1
REMARK  0 active torsions:
REMARK  status: ('A' for Active; 'I' for Inactive)
ROOT
ATOM      1  C1  BNZ d   1      -3.337   1.646   0.849  0.00  0.00     0.000 A 
ATOM      2  C2  BNZ d   1      -2.333   0.762   1.141  0.00  0.00     0.000 A 
ATOM      3  C3  BNZ d   1      -1.093   0.901   0.582  0.00  0.00     0.000 A 
ATOM      4  C4  BNZ d   1      -0.871   1.899  -0.298  0.00  0.00     0.000 A 
ATOM      5  C5  BNZ d   1      -1.876   2.793  -0.610  0.00  0.00     0.000 A 
ATOM      6  C6  BNZ d   1      -3.112   2.673  -0.015  0.00  0.00     0.000 A 
ENDROOT
TORSDOF 0
ENDMDL
