MODEL 1
REMARK minimizedAffinity 2.06701922
REMARK minimizedRMSD -1
REMARK  0 active torsions:
REMARK  status: ('A' for Active; 'I' for Inactive)
ROOT
ATOM      1  C1  BNZ d   1      -0.901   2.122   1.836  0.00  0.00     0.000 A 
ATOM      2  C2  BNZ d   1      -0.127   2.066   0.709  0.00  0.00     0.000 A 
ATOM      3  C3  BNZ d   1       1.200   1.746   0.786  0.00  0.00     0.000 A 
ATOM      4  C4  BNZ d   1       1.759   1.522   1.993  0.00  0.00     0.000 A 
ATOM      5  C5  BNZ d   1       0.993   1.584   3.140  0.00  0.00     0.000 A 
ATOM      6  C6  BNZ d   1      -0.351   1.868   3.055  0.00  0.00     0.000 A 
ENDROOT
TORSDOF 0
ENDMDL
