MODEL 1
REMARK minimizedAffinity 0.247309193
REMARK minimizedRMSD -1
REMARK  0 active torsions:
REMARK  status: ('A' for Active; 'I' for Inactive)
ROOT
ATOM      1  C1  DEN d   1       1.543   4.014   0.036  0.00  0.00     0.130 A 
ATOM      2  C2  DEN d   1       1.177   4.505  -1.290  0.00  0.00    -0.031 A 
ATOM      3  C3  DEN d   1       0.760   3.347  -2.106  0.00  0.00     0.027 A 
ATOM      4  C4  DEN d   1       0.641   0.856  -1.448  0.00  0.00     0.027 A 
ATOM      5  C5  DEN d   1       0.863  -0.048  -0.433  0.00  0.00    -0.003 A 
ATOM      6  C6  DEN d   1       1.355   0.330   0.788  0.00  0.00     0.001 A 
ATOM      7  C7  DEN d   1       1.599   1.654   1.040  0.00  0.00     0.017 A 
ATOM      8  C8  DEN d   1       1.385   2.571   0.020  0.00  0.00    -0.094 A 
ATOM      9  C9  DEN d   1       0.875   2.171  -1.204  0.00  0.00    -0.072 A 
ENDROOT
TORSDOF 0
ENDMDL
