MODEL 1
REMARK minimizedAffinity -0.927756071
REMARK minimizedRMSD -1
REMARK  0 active torsions:
REMARK  status: ('A' for Active; 'I' for Inactive)
ROOT
ATOM      1  C1  DEN d   1       1.292  -0.701  -1.565  0.00  0.00     0.130 A 
ATOM      2  C2  DEN d   1       1.238  -1.532  -0.365  0.00  0.00    -0.031 A 
ATOM      3  C3  DEN d   1       1.094  -0.640   0.803  0.00  0.00     0.027 A 
ATOM      4  C4  DEN d   1       0.946   1.934   0.869  0.00  0.00     0.027 A 
ATOM      5  C5  DEN d   1       0.959   3.080   0.104  0.00  0.00    -0.003 A 
ATOM      6  C6  DEN d   1       1.116   3.047  -1.256  0.00  0.00     0.001 A 
ATOM      7  C7  DEN d   1       1.222   1.842  -1.899  0.00  0.00     0.017 A 
ATOM      8  C8  DEN d   1       1.217   0.683  -1.134  0.00  0.00    -0.094 A 
ATOM      9  C9  DEN d   1       1.045   0.736   0.239  0.00  0.00    -0.072 A 
ENDROOT
TORSDOF 0
ENDMDL
