MODEL 1
REMARK minimizedAffinity -3.7445395
REMARK minimizedRMSD -1
REMARK  0 active torsions:
REMARK  status: ('A' for Active; 'I' for Inactive)
ROOT
ATOM      1  C1  DEN d   1       1.282   3.258  -1.779  0.00  0.00     0.130 A 
ATOM      2  C2  DEN d   1       0.966   4.086  -0.619  0.00  0.00    -0.031 A 
ATOM      3  C3  DEN d   1       0.895   3.206   0.565  0.00  0.00     0.027 A 
ATOM      4  C4  DEN d   1       1.247   0.655   0.712  0.00  0.00     0.027 A 
ATOM      5  C5  DEN d   1       1.523  -0.484  -0.012  0.00  0.00    -0.003 A 
ATOM      6  C6  DEN d   1       1.703  -0.461  -1.369  0.00  0.00     0.001 A 
ATOM      7  C7  DEN d   1       1.654   0.733  -2.040  0.00  0.00     0.017 A 
ATOM      8  C8  DEN d   1       1.368   1.884  -1.318  0.00  0.00    -0.094 A 
ATOM      9  C9  DEN d   1       1.201   1.841   0.056  0.00  0.00    -0.072 A 
ENDROOT
TORSDOF 0
ENDMDL
