MODEL 1
REMARK minimizedAffinity 0.754743099
REMARK minimizedRMSD -1
REMARK  0 active torsions:
REMARK  status: ('A' for Active; 'I' for Inactive)
ROOT
ATOM      1  C1  DEN d   1       0.844   3.443  -0.663  0.00  0.00     0.130 A 
ATOM      2  C2  DEN d   1       0.731   3.733   0.764  0.00  0.00    -0.031 A 
ATOM      3  C3  DEN d   1       1.027   2.492   1.507  0.00  0.00     0.027 A 
ATOM      4  C4  DEN d   1       1.651   0.162   0.592  0.00  0.00     0.027 A 
ATOM      5  C5  DEN d   1       1.859  -0.575  -0.552  0.00  0.00    -0.003 A 
ATOM      6  C6  DEN d   1       1.711  -0.039  -1.804  0.00  0.00     0.001 A 
ATOM      7  C7  DEN d   1       1.389   1.286  -1.941  0.00  0.00     0.017 A 
ATOM      8  C8  DEN d   1       1.170   2.034  -0.792  0.00  0.00    -0.094 A 
ATOM      9  C9  DEN d   1       1.337   1.476   0.465  0.00  0.00    -0.072 A 
ENDROOT
TORSDOF 0
ENDMDL
