MODEL 1
REMARK minimizedAffinity -2.00049901
REMARK minimizedRMSD -1
REMARK  0 active torsions:
REMARK  status: ('A' for Active; 'I' for Inactive)
ROOT
ATOM      1  C1  DEN d   1       0.652   2.147   1.263  0.00  0.00     0.130 A 
ATOM      2  C2  DEN d   1       0.567   3.565   0.923  0.00  0.00    -0.031 A 
ATOM      3  C3  DEN d   1       0.831   3.704  -0.523  0.00  0.00     0.027 A 
ATOM      4  C4  DEN d   1       1.356   1.871  -2.260  0.00  0.00     0.027 A 
ATOM      5  C5  DEN d   1       1.547   0.519  -2.443  0.00  0.00    -0.003 A 
ATOM      6  C6  DEN d   1       1.486  -0.374  -1.406  0.00  0.00     0.001 A 
ATOM      7  C7  DEN d   1       1.184   0.070  -0.145  0.00  0.00     0.017 A 
ATOM      8  C8  DEN d   1       0.998   1.432   0.048  0.00  0.00    -0.094 A 
ATOM      9  C9  DEN d   1       1.052   2.317  -1.015  0.00  0.00    -0.072 A 
ENDROOT
TORSDOF 0
ENDMDL
