MODEL 1
REMARK minimizedAffinity 0.344286323
REMARK minimizedRMSD -1
REMARK  0 active torsions:
REMARK  status: ('A' for Active; 'I' for Inactive)
ROOT
ATOM      1  C1  DEN d   1       1.453   0.552   0.639  0.00  0.00     0.130 A 
ATOM      2  C2  DEN d   1       1.321  -0.545  -0.315  0.00  0.00    -0.031 A 
ATOM      3  C3  DEN d   1       1.017   0.036  -1.639  0.00  0.00     0.027 A 
ATOM      4  C4  DEN d   1       0.743   2.514  -2.299  0.00  0.00     0.027 A 
ATOM      5  C5  DEN d   1       0.753   3.809  -1.829  0.00  0.00    -0.003 A 
ATOM      6  C6  DEN d   1       0.962   4.104  -0.508  0.00  0.00     0.001 A 
ATOM      7  C7  DEN d   1       1.214   3.094   0.382  0.00  0.00     0.017 A 
ATOM      8  C8  DEN d   1       1.198   1.786  -0.083  0.00  0.00    -0.094 A 
ATOM      9  C9  DEN d   1       0.997   1.508  -1.424  0.00  0.00    -0.072 A 
ENDROOT
TORSDOF 0
ENDMDL
