MODEL 1
REMARK minimizedAffinity 1.07431614
REMARK minimizedRMSD -1
REMARK  0 active torsions:
REMARK  status: ('A' for Active; 'I' for Inactive)
ROOT
ATOM      1  C1  DEN d   1       0.458   2.192   1.125  0.00  0.00     0.130 A 
ATOM      2  C2  DEN d   1       0.327   3.578   0.682  0.00  0.00    -0.031 A 
ATOM      3  C3  DEN d   1       0.770   3.651  -0.725  0.00  0.00     0.027 A 
ATOM      4  C4  DEN d   1       1.638   1.762  -2.253  0.00  0.00     0.027 A 
ATOM      5  C5  DEN d   1       1.938   0.419  -2.318  0.00  0.00    -0.003 A 
ATOM      6  C6  DEN d   1       1.799  -0.413  -1.239  0.00  0.00     0.001 A 
ATOM      7  C7  DEN d   1       1.305   0.080  -0.060  0.00  0.00     0.017 A 
ATOM      8  C8  DEN d   1       1.008   1.435   0.015  0.00  0.00    -0.094 A 
ATOM      9  C9  DEN d   1       1.143   2.257  -1.090  0.00  0.00    -0.072 A 
ENDROOT
TORSDOF 0
ENDMDL
