MODEL 1
REMARK minimizedAffinity -3.01838851
REMARK minimizedRMSD -1
REMARK  0 active torsions:
REMARK  status: ('A' for Active; 'I' for Inactive)
ROOT
ATOM      1  C1  DEN d   1       1.327   3.757  -1.626  0.00  0.00     0.130 A 
ATOM      2  C2  DEN d   1       1.209   4.642  -0.471  0.00  0.00    -0.031 A 
ATOM      3  C3  DEN d   1       0.988   3.805   0.725  0.00  0.00     0.027 A 
ATOM      4  C4  DEN d   1       0.822   1.237   0.900  0.00  0.00     0.027 A 
ATOM      5  C5  DEN d   1       0.848   0.059   0.187  0.00  0.00    -0.003 A 
ATOM      6  C6  DEN d   1       1.000   0.033  -1.174  0.00  0.00     0.001 A 
ATOM      7  C7  DEN d   1       1.178   1.206  -1.860  0.00  0.00     0.017 A 
ATOM      8  C8  DEN d   1       1.145   2.398  -1.148  0.00  0.00    -0.094 A 
ATOM      9  C9  DEN d   1       1.002   2.402   0.229  0.00  0.00    -0.072 A 
ENDROOT
TORSDOF 0
ENDMDL
