MODEL 1
REMARK minimizedAffinity 2.2183063
REMARK minimizedRMSD -1
REMARK  0 active torsions:
REMARK  status: ('A' for Active; 'I' for Inactive)
ROOT
ATOM      1  C1  DEN d   1       1.175   3.709  -1.094  0.00  0.00     0.130 A 
ATOM      2  C2  DEN d   1       0.545   3.605  -2.407  0.00  0.00    -0.031 A 
ATOM      3  C3  DEN d   1       0.189   2.190  -2.632  0.00  0.00     0.027 A 
ATOM      4  C4  DEN d   1       0.546   0.160  -1.081  0.00  0.00     0.027 A 
ATOM      5  C5  DEN d   1       1.052  -0.250   0.133  0.00  0.00    -0.003 A 
ATOM      6  C6  DEN d   1       1.659   0.618   1.001  0.00  0.00     0.001 A 
ATOM      7  C7  DEN d   1       1.737   1.949   0.688  0.00  0.00     0.017 A 
ATOM      8  C8  DEN d   1       1.236   2.369  -0.538  0.00  0.00    -0.094 A 
ATOM      9  C9  DEN d   1       0.614   1.479  -1.397  0.00  0.00    -0.072 A 
ENDROOT
TORSDOF 0
ENDMDL
