MODEL 1
REMARK minimizedAffinity -4.42131662
REMARK minimizedRMSD -1
REMARK  0 active torsions:
REMARK  status: ('A' for Active; 'I' for Inactive)
ROOT
ATOM      1  C1  DEN d   1       0.980   0.738   1.207  0.00  0.00     0.130 A 
ATOM      2  C2  DEN d   1       1.243  -0.339   0.257  0.00  0.00    -0.031 A 
ATOM      3  C3  DEN d   1       1.441   0.267  -1.076  0.00  0.00     0.027 A 
ATOM      4  C4  DEN d   1       1.371   2.754  -1.754  0.00  0.00     0.027 A 
ATOM      5  C5  DEN d   1       1.171   4.037  -1.296  0.00  0.00    -0.003 A 
ATOM      6  C6  DEN d   1       0.862   4.306   0.011  0.00  0.00     0.001 A 
ATOM      7  C7  DEN d   1       0.789   3.280   0.916  0.00  0.00     0.017 A 
ATOM      8  C8  DEN d   1       0.982   1.983   0.460  0.00  0.00    -0.094 A 
ATOM      9  C9  DEN d   1       1.305   1.733  -0.863  0.00  0.00    -0.072 A 
ENDROOT
TORSDOF 0
ENDMDL
