MODEL 1
REMARK minimizedAffinity 6.15563822
REMARK minimizedRMSD -1
REMARK  0 active torsions:
REMARK  status: ('A' for Active; 'I' for Inactive)
ROOT
ATOM      1  C1  DEN d   1       1.005   3.599  -0.149  0.00  0.00     0.130 A 
ATOM      2  C2  DEN d   1       0.955   3.843  -1.588  0.00  0.00    -0.031 A 
ATOM      3  C3  DEN d   1       1.060   2.540  -2.275  0.00  0.00     0.027 A 
ATOM      4  C4  DEN d   1       1.288   0.181  -1.257  0.00  0.00     0.027 A 
ATOM      5  C5  DEN d   1       1.386  -0.529  -0.081  0.00  0.00    -0.003 A 
ATOM      6  C6  DEN d   1       1.398   0.084   1.143  0.00  0.00     0.001 A 
ATOM      7  C7  DEN d   1       1.265   1.446   1.222  0.00  0.00     0.017 A 
ATOM      8  C8  DEN d   1       1.173   2.169   0.041  0.00  0.00    -0.094 A 
ATOM      9  C9  DEN d   1       1.151   1.530  -1.187  0.00  0.00    -0.072 A 
ENDROOT
TORSDOF 0
ENDMDL
