MODEL 1
REMARK minimizedAffinity 4.70599937
REMARK minimizedRMSD -1
REMARK  0 active torsions:
REMARK  status: ('A' for Active; 'I' for Inactive)
ROOT
ATOM      1  C1  DEN d   1       1.853   0.562   1.466  0.00  0.00     0.130 A 
ATOM      2  C2  DEN d   1       1.439   1.823   2.074  0.00  0.00    -0.031 A 
ATOM      3  C3  DEN d   1       0.809   2.650   1.026  0.00  0.00     0.027 A 
ATOM      4  C4  DEN d   1       0.431   2.101  -1.466  0.00  0.00     0.027 A 
ATOM      5  C5  DEN d   1       0.623   1.155  -2.448  0.00  0.00    -0.003 A 
ATOM      6  C6  DEN d   1       1.264  -0.031  -2.205  0.00  0.00     0.001 A 
ATOM      7  C7  DEN d   1       1.695  -0.322  -0.938  0.00  0.00     0.017 A 
ATOM      8  C8  DEN d   1       1.512   0.630   0.057  0.00  0.00    -0.094 A 
ATOM      9  C9  DEN d   1       0.851   1.818  -0.207  0.00  0.00    -0.072 A 
ENDROOT
TORSDOF 0
ENDMDL
