MODEL 1
REMARK minimizedAffinity 2.53634095
REMARK minimizedRMSD -1
REMARK  0 active torsions:
REMARK  status: ('A' for Active; 'I' for Inactive)
ROOT
ATOM      1  C1  DEN d   1       0.570   0.812   1.565  0.00  0.00     0.130 A 
ATOM      2  C2  DEN d   1       0.240   2.199   1.882  0.00  0.00    -0.031 A 
ATOM      3  C3  DEN d   1       0.415   3.001   0.654  0.00  0.00     0.027 A 
ATOM      4  C4  DEN d   1       1.154   2.234  -1.694  0.00  0.00     0.027 A 
ATOM      5  C5  DEN d   1       1.554   1.152  -2.448  0.00  0.00    -0.003 A 
ATOM      6  C6  DEN d   1       1.685  -0.102  -1.913  0.00  0.00     0.001 A 
ATOM      7  C7  DEN d   1       1.371  -0.315  -0.596  0.00  0.00     0.017 A 
ATOM      8  C8  DEN d   1       0.975   0.772   0.171  0.00  0.00    -0.094 A 
ATOM      9  C9  DEN d   1       0.836   2.030  -0.391  0.00  0.00    -0.072 A 
ENDROOT
TORSDOF 0
ENDMDL
