MODEL 1
REMARK minimizedAffinity 5.79157209
REMARK minimizedRMSD -1
REMARK  0 active torsions:
REMARK  status: ('A' for Active; 'I' for Inactive)
ROOT
ATOM      1  C1  DEN d   1      -4.504   1.125   2.634  0.00  0.00     0.130 A 
ATOM      2  C2  DEN d   1      -3.983   2.255   1.869  0.00  0.00    -0.031 A 
ATOM      3  C3  DEN d   1      -2.883   2.863   2.645  0.00  0.00     0.027 A 
ATOM      4  C4  DEN d   1      -1.937   2.165   4.940  0.00  0.00     0.027 A 
ATOM      5  C5  DEN d   1      -2.063   1.272   5.982  0.00  0.00    -0.003 A 
ATOM      6  C6  DEN d   1      -3.025   0.297   5.996  0.00  0.00     0.001 A 
ATOM      7  C7  DEN d   1      -3.871   0.163   4.927  0.00  0.00     0.017 A 
ATOM      8  C8  DEN d   1      -3.755   1.064   3.877  0.00  0.00    -0.094 A 
ATOM      9  C9  DEN d   1      -2.768   2.035   3.875  0.00  0.00    -0.072 A 
ENDROOT
TORSDOF 0
ENDMDL
