MODEL 1
REMARK minimizedAffinity 15.2205191
REMARK minimizedRMSD -1
REMARK  1 active torsions:
REMARK  status: ('A' for Active; 'I' for Inactive)
REMARK    1  A    between atoms: C1_2  and  C2_3 
ROOT
ATOM      1  C2  UNL d   1      -5.982  -3.822   2.378  0.00  0.00    -0.076 A 
ATOM      2  C3  UNL d   1      -5.969  -2.453   2.057  0.00  0.00     0.004 A 
ATOM      3  C4  UNL d   1      -5.978  -1.482   3.056  0.00  0.00    -0.003 A 
ATOM      4  C5  UNL d   1      -5.999  -1.863   4.393  0.00  0.00     0.000 A 
ATOM      5  C6  UNL d   1      -5.994  -3.216   4.730  0.00  0.00     0.000 A 
ATOM      6  C7  UNL d   1      -5.968  -4.208   3.735  0.00  0.00    -0.073 A 
ATOM      7  C8  UNL d   1      -5.970  -5.652   4.156  0.00  0.00     0.078 C 
ENDROOT
BRANCH   1   8
ATOM      8  C1  UNL d   1      -5.999  -4.830   1.252  0.00  0.00     0.053 C 
ATOM      9  C   UNL d   1      -4.678  -4.886   0.499  0.00  0.00     0.018 C 
ENDBRANCH   1   8
TORSDOF 1
ENDMDL
