MODEL 1
REMARK minimizedAffinity 3.19408798
REMARK minimizedRMSD -1
REMARK  1 active torsions:
REMARK  status: ('A' for Active; 'I' for Inactive)
REMARK    1  A    between atoms: C1_2  and  C2_3 
ROOT
ATOM      1  C2  UNL d   1       3.505  -3.955  -1.040  0.00  0.00    -0.076 A 
ATOM      2  C3  UNL d   1       2.744  -3.377  -2.070  0.00  0.00     0.004 A 
ATOM      3  C4  UNL d   1       2.638  -3.993  -3.316  0.00  0.00    -0.003 A 
ATOM      4  C5  UNL d   1       3.291  -5.197  -3.552  0.00  0.00     0.000 A 
ATOM      5  C6  UNL d   1       4.036  -5.794  -2.535  0.00  0.00     0.000 A 
ATOM      6  C7  UNL d   1       4.140  -5.195  -1.268  0.00  0.00    -0.073 A 
ATOM      7  C8  UNL d   1       4.961  -5.880  -0.211  0.00  0.00     0.078 C 
ENDROOT
BRANCH   1   8
ATOM      8  C1  UNL d   1       3.606  -3.228   0.282  0.00  0.00     0.053 C 
ATOM      9  C   UNL d   1       4.780  -2.263   0.328  0.00  0.00     0.018 C 
ENDBRANCH   1   8
TORSDOF 1
ENDMDL
