MODEL 1
REMARK minimizedAffinity 8.83749676
REMARK minimizedRMSD -1
REMARK  1 active torsions:
REMARK  status: ('A' for Active; 'I' for Inactive)
REMARK    1  A    between atoms: C1_2  and  C2_3 
ROOT
ATOM      1  C2  UNL d   1      -1.242   0.909   2.423  0.00  0.00    -0.076 A 
ATOM      2  C3  UNL d   1      -1.280   2.213   1.899  0.00  0.00     0.004 A 
ATOM      3  C4  UNL d   1      -0.112   2.959   1.746  0.00  0.00    -0.003 A 
ATOM      4  C5  UNL d   1       1.113   2.412   2.113  0.00  0.00     0.000 A 
ATOM      5  C6  UNL d   1       1.171   1.114   2.618  0.00  0.00     0.000 A 
ATOM      6  C7  UNL d   1       0.005   0.343   2.764  0.00  0.00    -0.073 A 
ATOM      7  C8  UNL d   1       0.126  -1.050   3.319  0.00  0.00     0.078 C 
ENDROOT
BRANCH   1   8
ATOM      8  C1  UNL d   1      -2.543   0.158   2.592  0.00  0.00     0.053 C 
ATOM      9  C   UNL d   1      -3.099   0.266   4.004  0.00  0.00     0.018 C 
ENDBRANCH   1   8
TORSDOF 1
ENDMDL
