MODEL 1
REMARK minimizedAffinity 6.15991306
REMARK minimizedRMSD -1
REMARK  1 active torsions:
REMARK  status: ('A' for Active; 'I' for Inactive)
REMARK    1  A    between atoms: C1_2  and  C2_3 
ROOT
ATOM      1  C2  UNL d   1       3.018  -4.075  -1.804  0.00  0.00    -0.076 A 
ATOM      2  C3  UNL d   1       3.516  -5.314  -2.245  0.00  0.00     0.004 A 
ATOM      3  C4  UNL d   1       4.485  -5.999  -1.513  0.00  0.00    -0.003 A 
ATOM      4  C5  UNL d   1       4.970  -5.456  -0.328  0.00  0.00     0.000 A 
ATOM      5  C6  UNL d   1       4.474  -4.237   0.133  0.00  0.00     0.000 A 
ATOM      6  C7  UNL d   1       3.486  -3.542  -0.585  0.00  0.00    -0.073 A 
ATOM      7  C8  UNL d   1       2.992  -2.228  -0.044  0.00  0.00     0.078 C 
ENDROOT
BRANCH   1   8
ATOM      8  C1  UNL d   1       1.988  -3.366  -2.654  0.00  0.00     0.053 C 
ATOM      9  C   UNL d   1       2.498  -3.060  -4.054  0.00  0.00     0.018 C 
ENDBRANCH   1   8
TORSDOF 1
ENDMDL
