MODEL 1
REMARK minimizedAffinity 15.6716661
REMARK minimizedRMSD -1
REMARK  1 active torsions:
REMARK  status: ('A' for Active; 'I' for Inactive)
REMARK    1  A    between atoms: C1_2  and  C2_3 
ROOT
ATOM      1  C2  UNL d   1       2.438   0.790  -0.277  0.00  0.00    -0.076 A 
ATOM      2  C3  UNL d   1       2.171   1.974  -0.986  0.00  0.00     0.004 A 
ATOM      3  C4  UNL d   1       1.599   1.935  -2.257  0.00  0.00    -0.003 A 
ATOM      4  C5  UNL d   1       1.284   0.712  -2.839  0.00  0.00     0.000 A 
ATOM      5  C6  UNL d   1       1.525  -0.472  -2.142  0.00  0.00     0.000 A 
ATOM      6  C7  UNL d   1       2.086  -0.450  -0.854  0.00  0.00    -0.073 A 
ATOM      7  C8  UNL d   1       2.331  -1.757  -0.150  0.00  0.00     0.078 C 
ENDROOT
BRANCH   1   8
ATOM      8  C1  UNL d   1       3.084   0.892   1.086  0.00  0.00     0.053 C 
ATOM      9  C   UNL d   1       2.462   1.982   1.945  0.00  0.00     0.018 C 
ENDBRANCH   1   8
TORSDOF 1
ENDMDL
