MODEL 1
REMARK minimizedAffinity 12.0145826
REMARK minimizedRMSD -1
REMARK  1 active torsions:
REMARK  status: ('A' for Active; 'I' for Inactive)
REMARK    1  A    between atoms: C1_2  and  C2_3 
ROOT
ATOM      1  C2  UNL d   1       3.495   2.891   1.719  0.00  0.00    -0.076 A 
ATOM      2  C3  UNL d   1       2.517   2.854   2.728  0.00  0.00     0.004 A 
ATOM      3  C4  UNL d   1       1.610   1.799   2.810  0.00  0.00    -0.003 A 
ATOM      4  C5  UNL d   1       1.667   0.763   1.884  0.00  0.00     0.000 A 
ATOM      5  C6  UNL d   1       2.641   0.775   0.887  0.00  0.00     0.000 A 
ATOM      6  C7  UNL d   1       3.574   1.823   0.800  0.00  0.00    -0.073 A 
ATOM      7  C8  UNL d   1       4.600   1.788  -0.299  0.00  0.00     0.078 C 
ENDROOT
BRANCH   1   8
ATOM      8  C1  UNL d   1       4.434   4.075   1.664  0.00  0.00     0.053 C 
ATOM      9  C   UNL d   1       3.788   5.356   2.169  0.00  0.00     0.018 C 
ENDBRANCH   1   8
TORSDOF 1
ENDMDL
