MODEL 1
REMARK minimizedAffinity 21.5239162
REMARK minimizedRMSD -1
REMARK  1 active torsions:
REMARK  status: ('A' for Active; 'I' for Inactive)
REMARK    1  A    between atoms: C1_2  and  C2_3 
ROOT
ATOM      1  C2  UNL d   1       2.884   2.492   2.263  0.00  0.00    -0.076 A 
ATOM      2  C3  UNL d   1       3.780   3.100   1.367  0.00  0.00     0.004 A 
ATOM      3  C4  UNL d   1       4.231   2.425   0.234  0.00  0.00    -0.003 A 
ATOM      4  C5  UNL d   1       3.792   1.130  -0.022  0.00  0.00     0.000 A 
ATOM      5  C6  UNL d   1       2.890   0.518   0.847  0.00  0.00     0.000 A 
ATOM      6  C7  UNL d   1       2.413   1.191   1.985  0.00  0.00    -0.073 A 
ATOM      7  C8  UNL d   1       1.445   0.480   2.891  0.00  0.00     0.078 C 
ENDROOT
BRANCH   1   8
ATOM      8  C1  UNL d   1       2.450   3.263   3.489  0.00  0.00     0.053 C 
ATOM      9  C   UNL d   1       3.211   2.846   4.738  0.00  0.00     0.018 C 
ENDBRANCH   1   8
TORSDOF 1
ENDMDL
