MODEL 1
REMARK minimizedAffinity 8.77687263
REMARK minimizedRMSD -1
REMARK  1 active torsions:
REMARK  status: ('A' for Active; 'I' for Inactive)
REMARK    1  A    between atoms: C1_2  and  C2_3 
ROOT
ATOM      1  C2  UNL d   1       1.238  -3.446  -0.910  0.00  0.00    -0.076 A 
ATOM      2  C3  UNL d   1       0.556  -4.535  -1.481  0.00  0.00     0.004 A 
ATOM      3  C4  UNL d   1      -0.631  -4.348  -2.187  0.00  0.00    -0.003 A 
ATOM      4  C5  UNL d   1      -1.156  -3.068  -2.334  0.00  0.00     0.000 A 
ATOM      5  C6  UNL d   1      -0.484  -1.975  -1.789  0.00  0.00     0.000 A 
ATOM      6  C7  UNL d   1       0.723  -2.145  -1.089  0.00  0.00    -0.073 A 
ATOM      7  C8  UNL d   1       1.402  -0.931  -0.517  0.00  0.00     0.078 C 
ENDROOT
BRANCH   1   8
ATOM      8  C1  UNL d   1       2.506  -3.714  -0.132  0.00  0.00     0.053 C 
ATOM      9  C   UNL d   1       3.759  -3.446  -0.952  0.00  0.00     0.018 C 
ENDBRANCH   1   8
TORSDOF 1
ENDMDL
