MODEL 1
REMARK minimizedAffinity 21.6053581
REMARK minimizedRMSD -1
REMARK  1 active torsions:
REMARK  status: ('A' for Active; 'I' for Inactive)
REMARK    1  A    between atoms: C1_2  and  C2_3 
ROOT
ATOM      1  C2  UNL d   1      -0.508  -3.837  -1.612  0.00  0.00    -0.076 A 
ATOM      2  C3  UNL d   1       0.535  -3.769  -0.671  0.00  0.00     0.004 A 
ATOM      3  C4  UNL d   1       1.323  -2.625  -0.556  0.00  0.00    -0.003 A 
ATOM      4  C5  UNL d   1       1.081  -1.531  -1.379  0.00  0.00     0.000 A 
ATOM      5  C6  UNL d   1       0.040  -1.574  -2.305  0.00  0.00     0.000 A 
ATOM      6  C7  UNL d   1      -0.775  -2.713  -2.423  0.00  0.00    -0.073 A 
ATOM      7  C8  UNL d   1      -1.880  -2.708  -3.443  0.00  0.00     0.078 C 
ENDROOT
BRANCH   1   8
ATOM      8  C1  UNL d   1      -1.312  -5.114  -1.710  0.00  0.00     0.053 C 
ATOM      9  C   UNL d   1      -2.683  -4.990  -1.064  0.00  0.00     0.018 C 
ENDBRANCH   1   8
TORSDOF 1
ENDMDL
