MODEL 1
REMARK minimizedAffinity 12.8848009
REMARK minimizedRMSD -1
REMARK  1 active torsions:
REMARK  status: ('A' for Active; 'I' for Inactive)
REMARK    1  A    between atoms: C1_2  and  C2_3 
ROOT
ATOM      1  C2  UNL d   1      -1.176  -3.938  -2.357  0.00  0.00    -0.076 A 
ATOM      2  C3  UNL d   1      -2.410  -3.936  -3.030  0.00  0.00     0.004 A 
ATOM      3  C4  UNL d   1      -3.173  -2.773  -3.123  0.00  0.00    -0.003 A 
ATOM      4  C5  UNL d   1      -2.714  -1.594  -2.546  0.00  0.00     0.000 A 
ATOM      5  C6  UNL d   1      -1.484  -1.575  -1.890  0.00  0.00     0.000 A 
ATOM      6  C7  UNL d   1      -0.694  -2.734  -1.801  0.00  0.00    -0.073 A 
ATOM      7  C8  UNL d   1       0.622  -2.657  -1.077  0.00  0.00     0.078 C 
ENDROOT
BRANCH   1   8
ATOM      8  C1  UNL d   1      -0.404  -5.236  -2.264  0.00  0.00     0.053 C 
ATOM      9  C   UNL d   1      -0.386  -5.998  -3.580  0.00  0.00     0.018 C 
ENDBRANCH   1   8
TORSDOF 1
ENDMDL
