MODEL 1
REMARK minimizedAffinity 14.145215
REMARK minimizedRMSD -1
REMARK  1 active torsions:
REMARK  status: ('A' for Active; 'I' for Inactive)
REMARK    1  A    between atoms: C1_2  and  C2_3 
ROOT
ATOM      1  C2  UNL d   1       1.875   1.134   4.218  0.00  0.00    -0.076 A 
ATOM      2  C3  UNL d   1       2.151   1.370   5.576  0.00  0.00     0.004 A 
ATOM      3  C4  UNL d   1       2.675   2.590   6.000  0.00  0.00    -0.003 A 
ATOM      4  C5  UNL d   1       2.931   3.594   5.073  0.00  0.00     0.000 A 
ATOM      5  C6  UNL d   1       2.646   3.384   3.724  0.00  0.00     0.000 A 
ATOM      6  C7  UNL d   1       2.103   2.166   3.282  0.00  0.00    -0.073 A 
ATOM      7  C8  UNL d   1       1.821   1.991   1.815  0.00  0.00     0.078 C 
ENDROOT
BRANCH   1   8
ATOM      8  C1  UNL d   1       1.333  -0.218   3.813  0.00  0.00     0.053 C 
ATOM      9  C   UNL d   1       0.463  -0.844   4.892  0.00  0.00     0.018 C 
ENDBRANCH   1   8
TORSDOF 1
ENDMDL
