MODEL 1
REMARK minimizedAffinity 9.22717285
REMARK minimizedRMSD -1
REMARK  1 active torsions:
REMARK  status: ('A' for Active; 'I' for Inactive)
REMARK    1  A    between atoms: C1_2  and  C2_3 
ROOT
ATOM      1  C2  UNL d   1       1.897   2.357  -2.250  0.00  0.00    -0.076 A 
ATOM      2  C3  UNL d   1       2.794   1.831  -1.304  0.00  0.00     0.004 A 
ATOM      3  C4  UNL d   1       2.899   0.456  -1.101  0.00  0.00    -0.003 A 
ATOM      4  C5  UNL d   1       2.109  -0.416  -1.843  0.00  0.00     0.000 A 
ATOM      5  C6  UNL d   1       1.227   0.087  -2.798  0.00  0.00     0.000 A 
ATOM      6  C7  UNL d   1       1.120   1.470  -3.026  0.00  0.00    -0.073 A 
ATOM      7  C8  UNL d   1       0.148   1.958  -4.065  0.00  0.00     0.078 C 
ENDROOT
BRANCH   1   8
ATOM      8  C1  UNL d   1       1.806   3.858  -2.406  0.00  0.00     0.053 C 
ATOM      9  C   UNL d   1       1.540   4.566  -1.087  0.00  0.00     0.018 C 
ENDBRANCH   1   8
TORSDOF 1
ENDMDL
