MODEL 1
REMARK minimizedAffinity 13.7844267
REMARK minimizedRMSD -1
REMARK  1 active torsions:
REMARK  status: ('A' for Active; 'I' for Inactive)
REMARK    1  A    between atoms: C1_2  and  C2_3 
ROOT
ATOM      1  C2  UNL d   1      -5.975  -1.813   2.567  0.00  0.00    -0.076 A 
ATOM      2  C3  UNL d   1      -5.981  -1.428   3.919  0.00  0.00     0.004 A 
ATOM      3  C4  UNL d   1      -5.993  -2.381   4.936  0.00  0.00    -0.003 A 
ATOM      4  C5  UNL d   1      -5.999  -3.734   4.618  0.00  0.00     0.000 A 
ATOM      5  C6  UNL d   1      -5.975  -4.134   3.282  0.00  0.00     0.000 A 
ATOM      6  C7  UNL d   1      -5.947  -3.186   2.245  0.00  0.00    -0.073 A 
ATOM      7  C8  UNL d   1      -5.928  -3.673   0.822  0.00  0.00     0.078 C 
ENDROOT
BRANCH   1   8
ATOM      8  C1  UNL d   1      -5.990  -0.734   1.507  0.00  0.00     0.053 C 
ATOM      9  C   UNL d   1      -5.622   0.633   2.062  0.00  0.00     0.018 C 
ENDBRANCH   1   8
TORSDOF 1
ENDMDL
