MODEL 1
REMARK minimizedAffinity 11.6757231
REMARK minimizedRMSD -1
REMARK  1 active torsions:
REMARK  status: ('A' for Active; 'I' for Inactive)
REMARK    1  A    between atoms: C1_2  and  C2_3 
ROOT
ATOM      1  C2  UNL d   1      -1.174  -3.624  -2.217  0.00  0.00    -0.076 A 
ATOM      2  C3  UNL d   1      -2.456  -3.548  -2.787  0.00  0.00     0.004 A 
ATOM      3  C4  UNL d   1      -3.006  -2.321  -3.155  0.00  0.00    -0.003 A 
ATOM      4  C5  UNL d   1      -2.281  -1.150  -2.960  0.00  0.00     0.000 A 
ATOM      5  C6  UNL d   1      -1.000  -1.209  -2.412  0.00  0.00     0.000 A 
ATOM      6  C7  UNL d   1      -0.425  -2.440  -2.050  0.00  0.00    -0.073 A 
ATOM      7  C8  UNL d   1       0.957  -2.444  -1.458  0.00  0.00     0.078 C 
ENDROOT
BRANCH   1   8
ATOM      8  C1  UNL d   1      -0.641  -4.980  -1.812  0.00  0.00     0.053 C 
ATOM      9  C   UNL d   1      -0.704  -5.993  -2.945  0.00  0.00     0.018 C 
ENDBRANCH   1   8
TORSDOF 1
ENDMDL
