MODEL 1
REMARK minimizedAffinity 3.41725826
REMARK minimizedRMSD -1
REMARK  1 active torsions:
REMARK  status: ('A' for Active; 'I' for Inactive)
REMARK    1  A    between atoms: C1_2  and  C2_3 
ROOT
ATOM      1  C2  UNL d   1       0.948  -2.046  -2.209  0.00  0.00    -0.076 A 
ATOM      2  C3  UNL d   1       1.045  -0.820  -2.890  0.00  0.00     0.004 A 
ATOM      3  C4  UNL d   1       1.874   0.198  -2.420  0.00  0.00    -0.003 A 
ATOM      4  C5  UNL d   1       2.618   0.007  -1.261  0.00  0.00     0.000 A 
ATOM      5  C6  UNL d   1       2.547  -1.210  -0.583  0.00  0.00     0.000 A 
ATOM      6  C7  UNL d   1       1.730  -2.252  -1.052  0.00  0.00    -0.073 A 
ATOM      7  C8  UNL d   1       1.687  -3.541  -0.277  0.00  0.00     0.078 C 
ENDROOT
BRANCH   1   8
ATOM      8  C1  UNL d   1       0.013  -3.103  -2.750  0.00  0.00     0.053 C 
ATOM      9  C   UNL d   1      -1.321  -3.130  -2.020  0.00  0.00     0.018 C 
ENDBRANCH   1   8
TORSDOF 1
ENDMDL
