MODEL 1
REMARK minimizedAffinity -4.11923075
REMARK minimizedRMSD -1
REMARK  1 active torsions:
REMARK  status: ('A' for Active; 'I' for Inactive)
REMARK    1  A    between atoms: C1_2  and  C2_3 
ROOT
ATOM      1  C2  UNL d   1       0.752  -0.946  -0.307  0.00  0.00    -0.076 A 
ATOM      2  C3  UNL d   1       0.082  -0.589   0.876  0.00  0.00     0.004 A 
ATOM      3  C4  UNL d   1       0.140   0.714   1.367  0.00  0.00    -0.003 A 
ATOM      4  C5  UNL d   1       0.868   1.681   0.684  0.00  0.00     0.000 A 
ATOM      5  C6  UNL d   1       1.525   1.349  -0.501  0.00  0.00     0.000 A 
ATOM      6  C7  UNL d   1       1.463   0.044  -1.019  0.00  0.00    -0.073 A 
ATOM      7  C8  UNL d   1       2.196  -0.261  -2.297  0.00  0.00     0.078 C 
ENDROOT
BRANCH   1   8
ATOM      8  C1  UNL d   1       0.676  -2.381  -0.777  0.00  0.00     0.053 C 
ATOM      9  C   UNL d   1      -0.756  -2.876  -0.908  0.00  0.00     0.018 C 
ENDBRANCH   1   8
TORSDOF 1
ENDMDL
