MODEL 1
REMARK minimizedAffinity 14.5187874
REMARK minimizedRMSD -1
REMARK  0 active torsions:
REMARK  status: ('A' for Active; 'I' for Inactive)
ROOT
ATOM      1  C   UNL d   1       1.562  -3.757   1.179  0.00  0.00     0.124 A 
ATOM      2  C1  UNL d   1       0.400  -4.144   1.833  0.00  0.00     0.062 A 
ATOM      3  C2  UNL d   1      -0.378  -3.199   2.496  0.00  0.00     0.162 A 
ATOM      4  C3  UNL d   1       0.002  -1.856   2.506  0.00  0.00    -0.034 A 
ATOM      5  C4  UNL d   1       1.172  -1.475   1.847  0.00  0.00     0.162 A 
ATOM      6  C5  UNL d   1       1.946  -2.423   1.186  0.00  0.00     0.062 A 
ATOM      7  F   UNL d   1       3.068  -2.048   0.555  0.00  0.00    -0.097 F 
ATOM      8  F1  UNL d   1       1.566  -0.193   1.837  0.00  0.00    -0.096 F 
ATOM      9  I   UNL d   1      -1.159  -0.440   3.495  0.00  0.00    -0.060 I 
ATOM     10  F2  UNL d   1      -1.495  -3.601   3.119  0.00  0.00    -0.096 F 
ATOM     11  F3  UNL d   1       0.027  -5.431   1.829  0.00  0.00    -0.097 F 
ATOM     12  F4  UNL d   1       2.309  -4.668   0.544  0.00  0.00    -0.092 F 
ENDROOT
TORSDOF 0
ENDMDL
