MODEL 1
REMARK minimizedAffinity 23.9567757
REMARK minimizedRMSD -1
REMARK  0 active torsions:
REMARK  status: ('A' for Active; 'I' for Inactive)
ROOT
ATOM      1  C   UNL d   1      -1.240  -0.875   2.750  0.00  0.00     0.124 A 
ATOM      2  C1  UNL d   1      -0.043  -0.207   2.535  0.00  0.00     0.062 A 
ATOM      3  C2  UNL d   1       1.043  -0.879   1.981  0.00  0.00     0.162 A 
ATOM      4  C3  UNL d   1       0.937  -2.226   1.637  0.00  0.00    -0.034 A 
ATOM      5  C4  UNL d   1      -0.271  -2.891   1.857  0.00  0.00     0.162 A 
ATOM      6  C5  UNL d   1      -1.353  -2.216   2.411  0.00  0.00     0.062 A 
ATOM      7  F   UNL d   1      -2.510  -2.863   2.617  0.00  0.00    -0.097 F 
ATOM      8  F1  UNL d   1      -0.408  -4.187   1.537  0.00  0.00    -0.096 F 
ATOM      9  I   UNL d   1       2.558  -3.234   0.808  0.00  0.00    -0.060 I 
ATOM     10  F2  UNL d   1       2.189  -0.209   1.785  0.00  0.00    -0.096 F 
ATOM     11  F3  UNL d   1       0.070   1.088   2.863  0.00  0.00    -0.097 F 
ATOM     12  F4  UNL d   1      -2.283  -0.227   3.284  0.00  0.00    -0.092 F 
ENDROOT
TORSDOF 0
ENDMDL
