MODEL 1
REMARK minimizedAffinity 17.4047432
REMARK minimizedRMSD -1
REMARK  0 active torsions:
REMARK  status: ('A' for Active; 'I' for Inactive)
ROOT
ATOM      1  C   UNL d   1       2.431  -1.100   1.422  0.00  0.00     0.124 A 
ATOM      2  C1  UNL d   1       1.724  -0.367   2.365  0.00  0.00     0.062 A 
ATOM      3  C2  UNL d   1       0.506  -0.838   2.848  0.00  0.00     0.162 A 
ATOM      4  C3  UNL d   1      -0.011  -2.050   2.390  0.00  0.00    -0.034 A 
ATOM      5  C4  UNL d   1       0.706  -2.781   1.441  0.00  0.00     0.162 A 
ATOM      6  C5  UNL d   1       1.922  -2.305   0.961  0.00  0.00     0.062 A 
ATOM      7  F   UNL d   1       2.604  -3.015   0.050  0.00  0.00    -0.097 F 
ATOM      8  F1  UNL d   1       0.237  -3.949   0.979  0.00  0.00    -0.096 F 
ATOM      9  I   UNL d   1      -1.831  -2.758   3.111  0.00  0.00    -0.060 I 
ATOM     10  F2  UNL d   1      -0.156  -0.109   3.759  0.00  0.00    -0.096 F 
ATOM     11  F3  UNL d   1       2.213   0.799   2.811  0.00  0.00    -0.097 F 
ATOM     12  F4  UNL d   1       3.601  -0.643   0.957  0.00  0.00    -0.092 F 
ENDROOT
TORSDOF 0
ENDMDL
