MODEL 1
REMARK minimizedAffinity 25.3799934
REMARK minimizedRMSD -1
REMARK  0 active torsions:
REMARK  status: ('A' for Active; 'I' for Inactive)
ROOT
ATOM      1  C   UNL d   1      -3.010   1.136  -1.849  0.00  0.00     0.124 A 
ATOM      2  C1  UNL d   1      -2.619   2.248  -2.582  0.00  0.00     0.062 A 
ATOM      3  C2  UNL d   1      -1.450   2.213  -3.338  0.00  0.00     0.162 A 
ATOM      4  C3  UNL d   1      -0.665   1.060  -3.365  0.00  0.00    -0.034 A 
ATOM      5  C4  UNL d   1      -1.064  -0.054  -2.625  0.00  0.00     0.162 A 
ATOM      6  C5  UNL d   1      -2.233  -0.013  -1.871  0.00  0.00     0.062 A 
ATOM      7  F   UNL d   1      -2.609  -1.088  -1.163  0.00  0.00    -0.097 F 
ATOM      8  F1  UNL d   1      -0.333  -1.178  -2.628  0.00  0.00    -0.096 F 
ATOM      9  I   UNL d   1       1.083   1.003  -4.494  0.00  0.00    -0.060 I 
ATOM     10  F2  UNL d   1      -1.096   3.302  -4.036  0.00  0.00    -0.096 F 
ATOM     11  F3  UNL d   1      -3.367   3.360  -2.562  0.00  0.00    -0.097 F 
ATOM     12  F4  UNL d   1      -4.134   1.174  -1.122  0.00  0.00    -0.092 F 
ENDROOT
TORSDOF 0
ENDMDL
