MODEL 1
REMARK minimizedAffinity 29.0430241
REMARK minimizedRMSD -1
REMARK  0 active torsions:
REMARK  status: ('A' for Active; 'I' for Inactive)
ROOT
ATOM      1  C   UNL d   1      -1.887   1.218  -1.972  0.00  0.00     0.124 A 
ATOM      2  C1  UNL d   1      -2.610   1.908  -2.936  0.00  0.00     0.062 A 
ATOM      3  C2  UNL d   1      -3.784   1.367  -3.451  0.00  0.00     0.162 A 
ATOM      4  C3  UNL d   1      -4.244   0.129  -3.004  0.00  0.00    -0.034 A 
ATOM      5  C4  UNL d   1      -3.511  -0.560  -2.035  0.00  0.00     0.162 A 
ATOM      6  C5  UNL d   1      -2.338  -0.015  -1.523  0.00  0.00     0.062 A 
ATOM      7  F   UNL d   1      -1.642  -0.683  -0.592  0.00  0.00    -0.097 F 
ATOM      8  F1  UNL d   1      -3.925  -1.753  -1.582  0.00  0.00    -0.096 F 
ATOM      9  I   UNL d   1      -5.999  -0.684  -3.772  0.00  0.00    -0.060 I 
ATOM     10  F2  UNL d   1      -4.462   2.056  -4.382  0.00  0.00    -0.096 F 
ATOM     11  F3  UNL d   1      -2.175   3.099  -3.373  0.00  0.00    -0.097 F 
ATOM     12  F4  UNL d   1      -0.757   1.741  -1.479  0.00  0.00    -0.092 F 
ENDROOT
TORSDOF 0
ENDMDL
