MODEL 1
REMARK minimizedAffinity 21.666235
REMARK minimizedRMSD -1
REMARK  0 active torsions:
REMARK  status: ('A' for Active; 'I' for Inactive)
ROOT
ATOM      1  C   UNL d   1      -5.172   2.265   3.674  0.00  0.00     0.124 A 
ATOM      2  C1  UNL d   1      -4.313   1.592   4.532  0.00  0.00     0.062 A 
ATOM      3  C2  UNL d   1      -3.452   0.616   4.038  0.00  0.00     0.162 A 
ATOM      4  C3  UNL d   1      -3.445   0.308   2.677  0.00  0.00    -0.034 A 
ATOM      5  C4  UNL d   1      -4.313   0.989   1.821  0.00  0.00     0.162 A 
ATOM      6  C5  UNL d   1      -5.171   1.963   2.320  0.00  0.00     0.062 A 
ATOM      7  F   UNL d   1      -6.000   2.613   1.490  0.00  0.00    -0.097 F 
ATOM      8  F1  UNL d   1      -4.332   0.718   0.507  0.00  0.00    -0.096 F 
ATOM      9  I   UNL d   1      -2.160  -1.150   1.934  0.00  0.00    -0.060 I 
ATOM     10  F2  UNL d   1      -2.633  -0.018   4.889  0.00  0.00    -0.096 F 
ATOM     11  F3  UNL d   1      -4.313   1.881   5.841  0.00  0.00    -0.097 F 
ATOM     12  F4  UNL d   1      -5.999   3.203   4.153  0.00  0.00    -0.092 F 
ENDROOT
TORSDOF 0
ENDMDL
