MODEL 1
REMARK minimizedAffinity 20.3392143
REMARK minimizedRMSD -1
REMARK  0 active torsions:
REMARK  status: ('A' for Active; 'I' for Inactive)
ROOT
ATOM      1  C   UNL d   1       3.490  -3.096   0.454  0.00  0.00     0.124 A 
ATOM      2  C1  UNL d   1       3.633  -2.675   1.769  0.00  0.00     0.062 A 
ATOM      3  C2  UNL d   1       2.608  -1.972   2.395  0.00  0.00     0.162 A 
ATOM      4  C3  UNL d   1       1.429  -1.686   1.706  0.00  0.00    -0.034 A 
ATOM      5  C4  UNL d   1       1.293  -2.111   0.383  0.00  0.00     0.162 A 
ATOM      6  C5  UNL d   1       2.321  -2.813  -0.237  0.00  0.00     0.062 A 
ATOM      7  F   UNL d   1       2.181  -3.219  -1.508  0.00  0.00    -0.097 F 
ATOM      8  F1  UNL d   1       0.173  -1.853  -0.308  0.00  0.00    -0.096 F 
ATOM      9  I   UNL d   1      -0.107  -0.635   2.637  0.00  0.00    -0.060 I 
ATOM     10  F2  UNL d   1       2.773  -1.578   3.666  0.00  0.00    -0.096 F 
ATOM     11  F3  UNL d   1       4.763  -2.946   2.439  0.00  0.00    -0.097 F 
ATOM     12  F4  UNL d   1       4.479  -3.771  -0.145  0.00  0.00    -0.092 F 
ENDROOT
TORSDOF 0
ENDMDL
