MODEL 1
REMARK minimizedAffinity 19.2610588
REMARK minimizedRMSD -1
REMARK  0 active torsions:
REMARK  status: ('A' for Active; 'I' for Inactive)
ROOT
ATOM      1  C   UNL d   1      -2.158  -1.425   1.664  0.00  0.00     0.023 A 
ATOM      2  C1  UNL d   1      -1.541  -2.663   1.486  0.00  0.00     0.003 A 
ATOM      3  C2  UNL d   1      -0.266  -2.891   2.008  0.00  0.00     0.048 A 
ATOM      4  C3  UNL d   1       0.387  -1.877   2.707  0.00  0.00     0.023 A 
ATOM      5  C4  UNL d   1      -0.227  -0.636   2.888  0.00  0.00     0.048 A 
ATOM      6  C5  UNL d   1      -1.501  -0.412   2.364  0.00  0.00     0.003 A 
ATOM      7  I   UNL d   1       2.285  -2.214   3.484  0.00  0.00    -0.146 I 
ENDROOT
TORSDOF 0
ENDMDL
