MODEL 1
REMARK minimizedAffinity 8.3067894
REMARK minimizedRMSD -1
REMARK  0 active torsions:
REMARK  status: ('A' for Active; 'I' for Inactive)
ROOT
ATOM      1  C   UNL d   1       2.042   3.464  -2.438  0.00  0.00     0.023 A 
ATOM      2  C1  UNL d   1       1.594   2.643  -3.473  0.00  0.00     0.003 A 
ATOM      3  C2  UNL d   1       0.513   3.039  -4.263  0.00  0.00     0.048 A 
ATOM      4  C3  UNL d   1      -0.115   4.259  -4.014  0.00  0.00     0.023 A 
ATOM      5  C4  UNL d   1       0.329   5.084  -2.980  0.00  0.00     0.048 A 
ATOM      6  C5  UNL d   1       1.410   4.683  -2.192  0.00  0.00     0.003 A 
ATOM      7  I   UNL d   1      -1.724   4.851  -5.188  0.00  0.00    -0.146 I 
ENDROOT
TORSDOF 0
ENDMDL
