MODEL 1
REMARK minimizedAffinity 4.10426521
REMARK minimizedRMSD -1
REMARK  0 active torsions:
REMARK  status: ('A' for Active; 'I' for Inactive)
ROOT
ATOM      1  C   UNL d   1       6.000   4.488   1.180  0.00  0.00     0.023 A 
ATOM      2  C1  UNL d   1       4.988   4.308   2.123  0.00  0.00     0.003 A 
ATOM      3  C2  UNL d   1       3.972   3.378   1.891  0.00  0.00     0.048 A 
ATOM      4  C3  UNL d   1       3.976   2.630   0.714  0.00  0.00     0.023 A 
ATOM      5  C4  UNL d   1       4.987   2.805  -0.232  0.00  0.00     0.048 A 
ATOM      6  C5  UNL d   1       5.999   3.737   0.004  0.00  0.00     0.003 A 
ATOM      7  I   UNL d   1       2.466   1.245   0.367  0.00  0.00    -0.146 I 
ENDROOT
TORSDOF 0
ENDMDL
