MODEL 1
REMARK minimizedAffinity 11.0362463
REMARK minimizedRMSD -1
REMARK  0 active torsions:
REMARK  status: ('A' for Active; 'I' for Inactive)
ROOT
ATOM      1  C   UNL d   1       5.911   4.076  -4.841  0.00  0.00     0.023 A 
ATOM      2  C1  UNL d   1       4.983   3.353  -5.591  0.00  0.00     0.003 A 
ATOM      3  C2  UNL d   1       3.764   2.978  -5.022  0.00  0.00     0.048 A 
ATOM      4  C3  UNL d   1       3.479   3.328  -3.703  0.00  0.00     0.023 A 
ATOM      5  C4  UNL d   1       4.405   4.052  -2.949  0.00  0.00     0.048 A 
ATOM      6  C5  UNL d   1       5.622   4.424  -3.521  0.00  0.00     0.003 A 
ATOM      7  I   UNL d   1       1.666   2.770  -2.855  0.00  0.00    -0.146 I 
ENDROOT
TORSDOF 0
ENDMDL
