MODEL 1
REMARK minimizedAffinity 14.5164461
REMARK minimizedRMSD -1
REMARK  0 active torsions:
REMARK  status: ('A' for Active; 'I' for Inactive)
ROOT
ATOM      1  C   UNL d   1       2.440  -3.455   1.473  0.00  0.00     0.023 A 
ATOM      2  C1  UNL d   1       2.634  -2.259   2.165  0.00  0.00     0.003 A 
ATOM      3  C2  UNL d   1       1.548  -1.425   2.438  0.00  0.00     0.048 A 
ATOM      4  C3  UNL d   1       0.271  -1.793   2.016  0.00  0.00     0.023 A 
ATOM      5  C4  UNL d   1       0.072  -2.988   1.324  0.00  0.00     0.048 A 
ATOM      6  C5  UNL d   1       1.161  -3.819   1.053  0.00  0.00     0.003 A 
ATOM      7  I   UNL d   1      -1.347  -0.552   2.421  0.00  0.00    -0.146 I 
ENDROOT
TORSDOF 0
ENDMDL
