MODEL 1
REMARK minimizedAffinity 12.9022799
REMARK minimizedRMSD -1
REMARK  0 active torsions:
REMARK  status: ('A' for Active; 'I' for Inactive)
ROOT
ATOM      1  C   UNL d   1       1.869   3.149  -3.053  0.00  0.00     0.023 A 
ATOM      2  C1  UNL d   1       2.320   4.212  -2.270  0.00  0.00     0.003 A 
ATOM      3  C2  UNL d   1       3.505   4.871  -2.602  0.00  0.00     0.048 A 
ATOM      4  C3  UNL d   1       4.234   4.463  -3.719  0.00  0.00     0.023 A 
ATOM      5  C4  UNL d   1       3.786   3.400  -4.505  0.00  0.00     0.048 A 
ATOM      6  C5  UNL d   1       2.601   2.743  -4.169  0.00  0.00     0.003 A 
ATOM      7  I   UNL d   1       5.999   5.443  -4.215  0.00  0.00    -0.146 I 
ENDROOT
TORSDOF 0
ENDMDL
