MODEL 1
REMARK minimizedAffinity 14.9795685
REMARK minimizedRMSD -1
REMARK  0 active torsions:
REMARK  status: ('A' for Active; 'I' for Inactive)
ROOT
ATOM      1  C   UNL d   1      -2.908  -0.406   1.845  0.00  0.00     0.023 A 
ATOM      2  C1  UNL d   1      -2.184   0.261   2.834  0.00  0.00     0.003 A 
ATOM      3  C2  UNL d   1      -0.860  -0.099   3.094  0.00  0.00     0.048 A 
ATOM      4  C3  UNL d   1      -0.266  -1.126   2.361  0.00  0.00     0.023 A 
ATOM      5  C4  UNL d   1      -0.986  -1.795   1.371  0.00  0.00     0.048 A 
ATOM      6  C5  UNL d   1      -2.309  -1.433   1.115  0.00  0.00     0.003 A 
ATOM      7  I   UNL d   1       1.705  -1.663   2.747  0.00  0.00    -0.146 I 
ENDROOT
TORSDOF 0
ENDMDL
