MODEL 1
REMARK minimizedAffinity 13.4370632
REMARK minimizedRMSD -1
REMARK  0 active torsions:
REMARK  status: ('A' for Active; 'I' for Inactive)
ROOT
ATOM      1  C   UNL d   1      -4.526   0.331   1.688  0.00  0.00     0.023 A 
ATOM      2  C1  UNL d   1      -4.273  -1.019   1.442  0.00  0.00     0.003 A 
ATOM      3  C2  UNL d   1      -3.004  -1.548   1.683  0.00  0.00     0.048 A 
ATOM      4  C3  UNL d   1      -1.992  -0.722   2.172  0.00  0.00     0.023 A 
ATOM      5  C4  UNL d   1      -2.241   0.629   2.421  0.00  0.00     0.048 A 
ATOM      6  C5  UNL d   1      -3.511   1.153   2.177  0.00  0.00     0.003 A 
ATOM      7  I   UNL d   1      -0.102  -1.507   2.532  0.00  0.00    -0.146 I 
ENDROOT
TORSDOF 0
ENDMDL
