MODEL 1
REMARK minimizedAffinity 16.1834126
REMARK minimizedRMSD -1
REMARK  0 active torsions:
REMARK  status: ('A' for Active; 'I' for Inactive)
ROOT
ATOM      1  C   UNL d   1       3.202   0.671  -0.117  0.00  0.00     0.023 A 
ATOM      2  C1  UNL d   1       2.708   1.477   0.909  0.00  0.00     0.003 A 
ATOM      3  C2  UNL d   1       3.510   2.479   1.460  0.00  0.00     0.048 A 
ATOM      4  C3  UNL d   1       4.804   2.671   0.978  0.00  0.00     0.023 A 
ATOM      5  C4  UNL d   1       5.302   1.868  -0.049  0.00  0.00     0.048 A 
ATOM      6  C5  UNL d   1       4.498   0.866  -0.595  0.00  0.00     0.003 A 
ATOM      7  I   UNL d   1       5.999   4.162   1.795  0.00  0.00    -0.146 I 
ENDROOT
TORSDOF 0
ENDMDL
