MODEL 1
REMARK minimizedAffinity 18.1113815
REMARK minimizedRMSD -1
REMARK  0 active torsions:
REMARK  status: ('A' for Active; 'I' for Inactive)
ROOT
ATOM      1  C   UNL d   1       2.892   3.428  -3.809  0.00  0.00     0.023 A 
ATOM      2  C1  UNL d   1       2.143   2.260  -3.664  0.00  0.00     0.003 A 
ATOM      3  C2  UNL d   1       2.134   1.582  -2.443  0.00  0.00     0.048 A 
ATOM      4  C3  UNL d   1       2.874   2.078  -1.371  0.00  0.00     0.023 A 
ATOM      5  C4  UNL d   1       3.624   3.247  -1.511  0.00  0.00     0.048 A 
ATOM      6  C5  UNL d   1       3.631   3.921  -2.734  0.00  0.00     0.003 A 
ATOM      7  I   UNL d   1       2.862   1.071   0.447  0.00  0.00    -0.146 I 
ENDROOT
TORSDOF 0
ENDMDL
