MODEL 1
REMARK minimizedAffinity 12.7068329
REMARK minimizedRMSD -1
REMARK  0 active torsions:
REMARK  status: ('A' for Active; 'I' for Inactive)
ROOT
ATOM      1  C   UNL d   1      -2.833  -0.127   1.474  0.00  0.00     0.023 A 
ATOM      2  C1  UNL d   1      -2.175  -1.306   1.125  0.00  0.00     0.003 A 
ATOM      3  C2  UNL d   1      -0.960  -1.635   1.729  0.00  0.00     0.048 A 
ATOM      4  C3  UNL d   1      -0.408  -0.779   2.682  0.00  0.00     0.023 A 
ATOM      5  C4  UNL d   1      -1.062   0.402   3.035  0.00  0.00     0.048 A 
ATOM      6  C5  UNL d   1      -2.277   0.726   2.428  0.00  0.00     0.003 A 
ATOM      7  I   UNL d   1       1.401  -1.266   3.583  0.00  0.00    -0.146 I 
ENDROOT
TORSDOF 0
ENDMDL
