MODEL 1
REMARK minimizedAffinity 12.267704
REMARK minimizedRMSD -1
REMARK  0 active torsions:
REMARK  status: ('A' for Active; 'I' for Inactive)
ROOT
ATOM      1  C   UNL d   1      -0.203  -0.379   3.851  0.00  0.00     0.023 A 
ATOM      2  C1  UNL d   1      -0.378  -1.041   2.636  0.00  0.00     0.003 A 
ATOM      3  C2  UNL d   1      -1.534  -0.826   1.882  0.00  0.00     0.048 A 
ATOM      4  C3  UNL d   1      -2.510   0.054   2.349  0.00  0.00     0.023 A 
ATOM      5  C4  UNL d   1      -2.338   0.720   3.564  0.00  0.00     0.048 A 
ATOM      6  C5  UNL d   1      -1.182   0.501   4.314  0.00  0.00     0.003 A 
ATOM      7  I   UNL d   1      -4.230   0.376   1.229  0.00  0.00    -0.146 I 
ENDROOT
TORSDOF 0
ENDMDL
