MODEL 1
REMARK minimizedAffinity 11.5314007
REMARK minimizedRMSD -1
REMARK  0 active torsions:
REMARK  status: ('A' for Active; 'I' for Inactive)
ROOT
ATOM      1  C   UNL d   1      -2.339   0.351   2.188  0.00  0.00     0.023 A 
ATOM      2  C1  UNL d   1      -1.910  -0.745   1.438  0.00  0.00     0.003 A 
ATOM      3  C2  UNL d   1      -0.869  -1.549   1.907  0.00  0.00     0.048 A 
ATOM      4  C3  UNL d   1      -0.262  -1.252   3.126  0.00  0.00     0.023 A 
ATOM      5  C4  UNL d   1      -0.688  -0.157   3.880  0.00  0.00     0.048 A 
ATOM      6  C5  UNL d   1      -1.729   0.644   3.407  0.00  0.00     0.003 A 
ATOM      7  I   UNL d   1       1.287  -2.447   3.826  0.00  0.00    -0.146 I 
ENDROOT
TORSDOF 0
ENDMDL
