MODEL 1
REMARK minimizedAffinity 8.34009457
REMARK minimizedRMSD -1
REMARK  0 active torsions:
REMARK  status: ('A' for Active; 'I' for Inactive)
ROOT
ATOM      1  C   UNL d   1      -2.053  -0.070   2.614  0.00  0.00     0.023 A 
ATOM      2  C1  UNL d   1      -1.351   1.105   2.885  0.00  0.00     0.003 A 
ATOM      3  C2  UNL d   1      -0.073   1.293   2.355  0.00  0.00     0.048 A 
ATOM      4  C3  UNL d   1       0.496   0.304   1.553  0.00  0.00     0.023 A 
ATOM      5  C4  UNL d   1      -0.204  -0.872   1.279  0.00  0.00     0.048 A 
ATOM      6  C5  UNL d   1      -1.481  -1.057   1.812  0.00  0.00     0.003 A 
ATOM      7  I   UNL d   1       2.398   0.583   0.762  0.00  0.00    -0.146 I 
ENDROOT
TORSDOF 0
ENDMDL
