MODEL 1
REMARK minimizedAffinity 11.9870968
REMARK minimizedRMSD -1
REMARK  0 active torsions:
REMARK  status: ('A' for Active; 'I' for Inactive)
ROOT
ATOM      1  C   UNL d   1      -3.618   0.568   1.666  0.00  0.00     0.023 A 
ATOM      2  C1  UNL d   1      -3.165  -0.632   1.119  0.00  0.00     0.003 A 
ATOM      3  C2  UNL d   1      -1.933  -1.160   1.513  0.00  0.00     0.048 A 
ATOM      4  C3  UNL d   1      -1.161  -0.482   2.456  0.00  0.00     0.023 A 
ATOM      5  C4  UNL d   1      -1.611   0.719   3.007  0.00  0.00     0.048 A 
ATOM      6  C5  UNL d   1      -2.843   1.243   2.609  0.00  0.00     0.003 A 
ATOM      7  I   UNL d   1       0.672  -1.264   3.045  0.00  0.00    -0.146 I 
ENDROOT
TORSDOF 0
ENDMDL
