MODEL 1
REMARK minimizedAffinity 11.3650999
REMARK minimizedRMSD -1
REMARK  0 active torsions:
REMARK  status: ('A' for Active; 'I' for Inactive)
ROOT
ATOM      1  C   UNL d   1       6.000   4.147  -3.915  0.00  0.00     0.023 A 
ATOM      2  C1  UNL d   1       5.162   3.505  -4.828  0.00  0.00     0.003 A 
ATOM      3  C2  UNL d   1       3.890   3.085  -4.434  0.00  0.00     0.048 A 
ATOM      4  C3  UNL d   1       3.461   3.310  -3.127  0.00  0.00     0.023 A 
ATOM      5  C4  UNL d   1       4.295   3.953  -2.210  0.00  0.00     0.048 A 
ATOM      6  C5  UNL d   1       5.566   4.370  -2.608  0.00  0.00     0.003 A 
ATOM      7  I   UNL d   1       1.568   2.686  -2.539  0.00  0.00    -0.146 I 
ENDROOT
TORSDOF 0
ENDMDL
