MODEL 1
REMARK minimizedAffinity 14.1139612
REMARK minimizedRMSD -1
REMARK  0 active torsions:
REMARK  status: ('A' for Active; 'I' for Inactive)
ROOT
ATOM      1  C   UNL d   1       0.891   4.688  -2.582  0.00  0.00     0.023 A 
ATOM      2  C1  UNL d   1       1.430   5.874  -2.081  0.00  0.00     0.003 A 
ATOM      3  C2  UNL d   1       2.810   5.996  -1.907  0.00  0.00     0.048 A 
ATOM      4  C3  UNL d   1       3.645   4.928  -2.235  0.00  0.00     0.023 A 
ATOM      5  C4  UNL d   1       3.110   3.741  -2.737  0.00  0.00     0.048 A 
ATOM      6  C5  UNL d   1       1.730   3.623  -2.909  0.00  0.00     0.003 A 
ATOM      7  I   UNL d   1       5.699   5.108  -1.976  0.00  0.00    -0.146 I 
ENDROOT
TORSDOF 0
ENDMDL
