MODEL 1
REMARK minimizedAffinity -1.18559229
REMARK minimizedRMSD -1
REMARK  0 active torsions:
REMARK  status: ('A' for Active; 'I' for Inactive)
ROOT
ATOM      1  C   UNL d   1      -0.642  -0.129  -0.694  0.00  0.00     0.124 A 
ATOM      2  C1  UNL d   1      -1.107  -0.590   0.530  0.00  0.00     0.062 A 
ATOM      3  C2  UNL d   1      -0.223  -1.141   1.452  0.00  0.00     0.162 A 
ATOM      4  C3  UNL d   1       1.137  -1.233   1.155  0.00  0.00    -0.034 A 
ATOM      5  C4  UNL d   1       1.597  -0.767  -0.078  0.00  0.00     0.162 A 
ATOM      6  C5  UNL d   1       0.709  -0.218  -0.996  0.00  0.00     0.062 A 
ATOM      7  F   UNL d   1       1.161   0.228  -2.178  0.00  0.00    -0.097 F 
ATOM      8  F1  UNL d   1       2.899  -0.840  -0.396  0.00  0.00    -0.096 F 
ATOM      9  I   UNL d   1       2.463  -2.056   2.532  0.00  0.00    -0.060 I 
ATOM     10  F2  UNL d   1      -0.700  -1.579   2.627  0.00  0.00    -0.096 F 
ATOM     11  F3  UNL d   1      -2.413  -0.506   0.824  0.00  0.00    -0.097 F 
ATOM     12  F4  UNL d   1      -1.496   0.400  -1.580  0.00  0.00    -0.092 F 
ENDROOT
TORSDOF 0
ENDMDL
