MODEL 1
REMARK minimizedAffinity -0.0175737813
REMARK minimizedRMSD -1
REMARK  0 active torsions:
REMARK  status: ('A' for Active; 'I' for Inactive)
ROOT
ATOM      1  C   UNL d   1       1.423  -1.510   1.881  0.00  0.00     0.124 A 
ATOM      2  C1  UNL d   1       0.397  -0.644   2.236  0.00  0.00     0.062 A 
ATOM      3  C2  UNL d   1      -0.337   0.011   1.252  0.00  0.00     0.162 A 
ATOM      4  C3  UNL d   1      -0.050  -0.198  -0.097  0.00  0.00    -0.034 A 
ATOM      5  C4  UNL d   1       0.984  -1.069  -0.446  0.00  0.00     0.162 A 
ATOM      6  C5  UNL d   1       1.715  -1.721   0.541  0.00  0.00     0.062 A 
ATOM      7  F   UNL d   1       2.706  -2.557   0.197  0.00  0.00    -0.097 F 
ATOM      8  F1  UNL d   1       1.287  -1.293  -1.733  0.00  0.00    -0.096 F 
ATOM      9  I   UNL d   1      -1.146   0.780  -1.572  0.00  0.00    -0.060 I 
ATOM     10  F2  UNL d   1      -1.323   0.841   1.623  0.00  0.00    -0.096 F 
ATOM     11  F3  UNL d   1       0.114  -0.438   3.530  0.00  0.00    -0.097 F 
ATOM     12  F4  UNL d   1       2.129  -2.138   2.830  0.00  0.00    -0.092 F 
ENDROOT
TORSDOF 0
ENDMDL
