MODEL 1
REMARK minimizedAffinity -2.92183399
REMARK minimizedRMSD -1
REMARK  0 active torsions:
REMARK  status: ('A' for Active; 'I' for Inactive)
ROOT
ATOM      1  C   UNL d   1       1.223  -1.822   1.802  0.00  0.00     0.124 A 
ATOM      2  C1  UNL d   1      -0.054  -1.380   2.118  0.00  0.00     0.062 A 
ATOM      3  C2  UNL d   1      -0.806  -0.682   1.178  0.00  0.00     0.162 A 
ATOM      4  C3  UNL d   1      -0.283  -0.423  -0.089  0.00  0.00    -0.034 A 
ATOM      5  C4  UNL d   1       1.002  -0.870  -0.400  0.00  0.00     0.162 A 
ATOM      6  C5  UNL d   1       1.750  -1.567   0.544  0.00  0.00     0.062 A 
ATOM      7  F   UNL d   1       2.984  -1.993   0.236  0.00  0.00    -0.097 F 
ATOM      8  F1  UNL d   1       1.535  -0.638  -1.609  0.00  0.00    -0.096 F 
ATOM      9  I   UNL d   1      -1.405   0.620  -1.499  0.00  0.00    -0.060 I 
ATOM     10  F2  UNL d   1      -2.037  -0.267   1.511  0.00  0.00    -0.096 F 
ATOM     11  F3  UNL d   1      -0.564  -1.624   3.334  0.00  0.00    -0.097 F 
ATOM     12  F4  UNL d   1       1.945  -2.492   2.709  0.00  0.00    -0.092 F 
ENDROOT
TORSDOF 0
ENDMDL
