MODEL 1
REMARK minimizedAffinity -5.6153264
REMARK minimizedRMSD -1
REMARK  0 active torsions:
REMARK  status: ('A' for Active; 'I' for Inactive)
ROOT
ATOM      1  C   UNL d   1       1.881  -1.415   1.873  0.00  0.00     0.124 A 
ATOM      2  C1  UNL d   1       2.244  -1.713   0.567  0.00  0.00     0.062 A 
ATOM      3  C2  UNL d   1       1.531  -1.172  -0.499  0.00  0.00     0.162 A 
ATOM      4  C3  UNL d   1       0.448  -0.325  -0.263  0.00  0.00    -0.034 A 
ATOM      5  C4  UNL d   1       0.089  -0.030   1.053  0.00  0.00     0.162 A 
ATOM      6  C5  UNL d   1       0.804  -0.574   2.115  0.00  0.00     0.062 A 
ATOM      7  F   UNL d   1       0.452  -0.284   3.376  0.00  0.00    -0.097 F 
ATOM      8  F1  UNL d   1      -0.948   0.780   1.316  0.00  0.00    -0.096 F 
ATOM      9  I   UNL d   1      -0.621   0.487  -1.854  0.00  0.00    -0.060 I 
ATOM     10  F2  UNL d   1       1.904  -1.477  -1.750  0.00  0.00    -0.096 F 
ATOM     11  F3  UNL d   1       3.284  -2.526   0.331  0.00  0.00    -0.097 F 
ATOM     12  F4  UNL d   1       2.568  -1.938   2.897  0.00  0.00    -0.092 F 
ENDROOT
TORSDOF 0
ENDMDL
