MODEL 1
REMARK minimizedAffinity -3.6244874
REMARK minimizedRMSD -1
REMARK  0 active torsions:
REMARK  status: ('A' for Active; 'I' for Inactive)
ROOT
ATOM      1  C   UNL d   1       2.000  -1.265   1.617  0.00  0.00     0.124 A 
ATOM      2  C1  UNL d   1       1.596  -1.884   0.442  0.00  0.00     0.062 A 
ATOM      3  C2  UNL d   1       0.950  -1.151  -0.549  0.00  0.00     0.162 A 
ATOM      4  C3  UNL d   1       0.704   0.211  -0.369  0.00  0.00    -0.034 A 
ATOM      5  C4  UNL d   1       1.112   0.826   0.815  0.00  0.00     0.162 A 
ATOM      6  C5  UNL d   1       1.757   0.089   1.803  0.00  0.00     0.062 A 
ATOM      7  F   UNL d   1       2.147   0.689   2.937  0.00  0.00    -0.097 F 
ATOM      8  F1  UNL d   1       0.891   2.133   1.020  0.00  0.00    -0.096 F 
ATOM      9  I   UNL d   1      -0.263   1.310  -1.849  0.00  0.00    -0.060 I 
ATOM     10  F2  UNL d   1       0.571  -1.775  -1.674  0.00  0.00    -0.096 F 
ATOM     11  F3  UNL d   1       1.829  -3.192   0.261  0.00  0.00    -0.097 F 
ATOM     12  F4  UNL d   1       2.621  -1.973   2.570  0.00  0.00    -0.092 F 
ENDROOT
TORSDOF 0
ENDMDL
