MODEL 1
REMARK minimizedAffinity -1.19799626
REMARK minimizedRMSD -1
REMARK  0 active torsions:
REMARK  status: ('A' for Active; 'I' for Inactive)
ROOT
ATOM      1  C   UNL d   1       1.843  -1.573   2.404  0.00  0.00     0.124 A 
ATOM      2  C1  UNL d   1       2.374  -1.604   1.122  0.00  0.00     0.062 A 
ATOM      3  C2  UNL d   1       1.692  -1.005   0.067  0.00  0.00     0.162 A 
ATOM      4  C3  UNL d   1       0.472  -0.367   0.290  0.00  0.00    -0.034 A 
ATOM      5  C4  UNL d   1      -0.056  -0.340   1.582  0.00  0.00     0.162 A 
ATOM      6  C5  UNL d   1       0.629  -0.941   2.633  0.00  0.00     0.062 A 
ATOM      7  F   UNL d   1       0.115  -0.909   3.871  0.00  0.00    -0.097 F 
ATOM      8  F1  UNL d   1      -1.227   0.265   1.832  0.00  0.00    -0.096 F 
ATOM      9  I   UNL d   1      -0.550   0.531  -1.284  0.00  0.00    -0.060 I 
ATOM     10  F2  UNL d   1       2.229  -1.051  -1.161  0.00  0.00    -0.096 F 
ATOM     11  F3  UNL d   1       3.547  -2.215   0.899  0.00  0.00    -0.097 F 
ATOM     12  F4  UNL d   1       2.501  -2.151   3.417  0.00  0.00    -0.092 F 
ENDROOT
TORSDOF 0
ENDMDL
