MODEL 1
REMARK minimizedAffinity -1.37801242
REMARK minimizedRMSD -1
REMARK  0 active torsions:
REMARK  status: ('A' for Active; 'I' for Inactive)
ROOT
ATOM      1  C   UNL d   1       3.775  -0.948   2.256  0.00  0.00     0.124 A 
ATOM      2  C1  UNL d   1       3.615  -0.338   1.019  0.00  0.00     0.062 A 
ATOM      3  C2  UNL d   1       2.356  -0.270   0.430  0.00  0.00     0.162 A 
ATOM      4  C3  UNL d   1       1.245  -0.812   1.078  0.00  0.00    -0.034 A 
ATOM      5  C4  UNL d   1       1.414  -1.424   2.321  0.00  0.00     0.162 A 
ATOM      6  C5  UNL d   1       2.675  -1.490   2.905  0.00  0.00     0.062 A 
ATOM      7  F   UNL d   1       2.827  -2.080   4.100  0.00  0.00    -0.097 F 
ATOM      8  F1  UNL d   1       0.368  -1.955   2.971  0.00  0.00    -0.096 F 
ATOM      9  I   UNL d   1      -0.639  -0.711   0.200  0.00  0.00    -0.060 I 
ATOM     10  F2  UNL d   1       2.231   0.325  -0.765  0.00  0.00    -0.096 F 
ATOM     11  F3  UNL d   1       4.676   0.185   0.390  0.00  0.00    -0.097 F 
ATOM     12  F4  UNL d   1       4.988  -1.013   2.820  0.00  0.00    -0.092 F 
ENDROOT
TORSDOF 0
ENDMDL
