MODEL 1
REMARK minimizedAffinity 6.631217
REMARK minimizedRMSD -1
REMARK  1 active torsions:
REMARK  status: ('A' for Active; 'I' for Inactive)
REMARK    1  A    between atoms: C1_2  and  C2_3 
ROOT
ATOM      1  C2  UNL d   1       4.748   4.058  -0.573  0.00  0.00    -0.081 A 
ATOM      2  C3  UNL d   1       4.419   3.396   0.616  0.00  0.00     0.006 A 
ATOM      3  C4  UNL d   1       3.713   2.191   0.584  0.00  0.00     0.002 A 
ATOM      4  C5  UNL d   1       3.331   1.625  -0.637  0.00  0.00    -0.080 A 
ATOM      5  C6  UNL d   1       2.600   0.316  -0.686  0.00  0.00     0.076 C 
ATOM      6  C7  UNL d   1       3.644   2.295  -1.824  0.00  0.00     0.002 A 
ATOM      7  C8  UNL d   1       4.349   3.500  -1.793  0.00  0.00     0.006 A 
ENDROOT
BRANCH   1   8
ATOM      8  C1  UNL d   1       5.565   5.325  -0.545  0.00  0.00     0.054 C 
ATOM      9  C   UNL d   1       5.507   5.990   0.823  0.00  0.00     0.018 C 
ENDBRANCH   1   8
TORSDOF 1
ENDMDL
