MODEL 1
REMARK minimizedAffinity 8.76147079
REMARK minimizedRMSD -1
REMARK  1 active torsions:
REMARK  status: ('A' for Active; 'I' for Inactive)
REMARK    1  A    between atoms: C1_2  and  C2_3 
ROOT
ATOM      1  C2  UNL d   1       4.400   2.616   0.394  0.00  0.00    -0.081 A 
ATOM      2  C3  UNL d   1       3.747   1.748   1.278  0.00  0.00     0.006 A 
ATOM      3  C4  UNL d   1       2.880   0.765   0.795  0.00  0.00     0.002 A 
ATOM      4  C5  UNL d   1       2.657   0.629  -0.579  0.00  0.00    -0.080 A 
ATOM      5  C6  UNL d   1       1.752  -0.442  -1.113  0.00  0.00     0.076 C 
ATOM      6  C7  UNL d   1       3.295   1.508  -1.461  0.00  0.00     0.002 A 
ATOM      7  C8  UNL d   1       4.162   2.491  -0.979  0.00  0.00     0.006 A 
ENDROOT
BRANCH   1   8
ATOM      8  C1  UNL d   1       5.385   3.635   0.908  0.00  0.00     0.054 C 
ATOM      9  C   UNL d   1       5.370   3.702   2.428  0.00  0.00     0.018 C 
ENDBRANCH   1   8
TORSDOF 1
ENDMDL
