MODEL 1
REMARK minimizedAffinity 8.75094318
REMARK minimizedRMSD -1
REMARK  1 active torsions:
REMARK  status: ('A' for Active; 'I' for Inactive)
REMARK    1  A    between atoms: C1_2  and  C2_3 
ROOT
ATOM      1  C2  UNL d   1      -1.247  -1.871  -3.020  0.00  0.00    -0.081 A 
ATOM      2  C3  UNL d   1      -0.004  -2.301  -2.541  0.00  0.00     0.006 A 
ATOM      3  C4  UNL d   1       0.077  -3.353  -1.625  0.00  0.00     0.002 A 
ATOM      4  C5  UNL d   1      -1.082  -3.997  -1.179  0.00  0.00    -0.080 A 
ATOM      5  C6  UNL d   1      -1.007  -5.147  -0.219  0.00  0.00     0.076 C 
ATOM      6  C7  UNL d   1      -2.326  -3.556  -1.644  0.00  0.00     0.002 A 
ATOM      7  C8  UNL d   1      -2.407  -2.504  -2.559  0.00  0.00     0.006 A 
ENDROOT
BRANCH   1   8
ATOM      8  C1  UNL d   1      -1.334  -0.781  -4.057  0.00  0.00     0.054 C 
ATOM      9  C   UNL d   1      -2.769  -0.311  -4.248  0.00  0.00     0.018 C 
ENDBRANCH   1   8
TORSDOF 1
ENDMDL
