MODEL 1
REMARK minimizedAffinity 1.45710909
REMARK minimizedRMSD -1
REMARK  1 active torsions:
REMARK  status: ('A' for Active; 'I' for Inactive)
REMARK    1  A    between atoms: C1_2  and  C2_3 
ROOT
ATOM      1  C2  UNL d   1       2.074  -0.502   0.889  0.00  0.00    -0.076 A 
ATOM      2  C3  UNL d   1       2.306   0.846   1.215  0.00  0.00     0.004 A 
ATOM      3  C4  UNL d   1       3.560   1.273   1.650  0.00  0.00    -0.003 A 
ATOM      4  C5  UNL d   1       4.602   0.360   1.766  0.00  0.00     0.000 A 
ATOM      5  C6  UNL d   1       4.394  -0.978   1.430  0.00  0.00     0.000 A 
ATOM      6  C7  UNL d   1       3.141  -1.422   0.974  0.00  0.00    -0.073 A 
ATOM      7  C8  UNL d   1       2.971  -2.877   0.632  0.00  0.00     0.078 C 
ENDROOT
BRANCH   1   8
ATOM      8  C1  UNL d   1       0.687  -0.912   0.449  0.00  0.00     0.053 C 
ATOM      9  C   UNL d   1      -0.319   0.224   0.560  0.00  0.00     0.018 C 
ENDBRANCH   1   8
TORSDOF 1
ENDMDL
