MODEL 1
REMARK minimizedAffinity -3.67901969
REMARK minimizedRMSD -1
REMARK  1 active torsions:
REMARK  status: ('A' for Active; 'I' for Inactive)
REMARK    1  A    between atoms: C1_2  and  C2_3 
ROOT
ATOM      1  C2  UNL d   1      -0.498  -0.432   0.525  0.00  0.00    -0.076 A 
ATOM      2  C3  UNL d   1       0.392  -1.520   0.532  0.00  0.00     0.004 A 
ATOM      3  C4  UNL d   1      -0.064  -2.819   0.752  0.00  0.00    -0.003 A 
ATOM      4  C5  UNL d   1      -1.418  -3.051   0.967  0.00  0.00     0.000 A 
ATOM      5  C6  UNL d   1      -2.317  -1.985   0.945  0.00  0.00     0.000 A 
ATOM      6  C7  UNL d   1      -1.876  -0.672   0.709  0.00  0.00    -0.073 A 
ATOM      7  C8  UNL d   1      -2.889   0.440   0.703  0.00  0.00     0.078 C 
ENDROOT
BRANCH   1   8
ATOM      8  C1  UNL d   1       0.059   0.957   0.308  0.00  0.00     0.053 C 
ATOM      9  C   UNL d   1       0.506   1.189  -1.127  0.00  0.00     0.018 C 
ENDBRANCH   1   8
TORSDOF 1
ENDMDL
