MODEL 1
REMARK minimizedAffinity -1.25997829
REMARK minimizedRMSD -1
REMARK  1 active torsions:
REMARK  status: ('A' for Active; 'I' for Inactive)
REMARK    1  A    between atoms: C1_2  and  C2_3 
ROOT
ATOM      1  C2  UNL d   1      -0.544   0.166   0.057  0.00  0.00    -0.076 A 
ATOM      2  C3  UNL d   1      -1.919   0.057  -0.215  0.00  0.00     0.004 A 
ATOM      3  C4  UNL d   1      -2.571  -1.172  -0.130  0.00  0.00    -0.003 A 
ATOM      4  C5  UNL d   1      -1.859  -2.311   0.229  0.00  0.00     0.000 A 
ATOM      5  C6  UNL d   1      -0.498  -2.218   0.520  0.00  0.00     0.000 A 
ATOM      6  C7  UNL d   1       0.171  -0.984   0.455  0.00  0.00    -0.073 A 
ATOM      7  C8  UNL d   1       1.640  -0.942   0.773  0.00  0.00     0.078 C 
ENDROOT
BRANCH   1   8
ATOM      8  C1  UNL d   1       0.115   1.521  -0.078  0.00  0.00     0.053 C 
ATOM      9  C   UNL d   1       0.163   2.004  -1.519  0.00  0.00     0.018 C 
ENDBRANCH   1   8
TORSDOF 1
ENDMDL
