MODEL 1
REMARK minimizedAffinity -5.60113478
REMARK minimizedRMSD -1
REMARK  1 active torsions:
REMARK  status: ('A' for Active; 'I' for Inactive)
REMARK    1  A    between atoms: C1_2  and  C2_3 
ROOT
ATOM      1  C2  UNL d   1       0.932  -1.426   0.774  0.00  0.00    -0.076 A 
ATOM      2  C3  UNL d   1       0.337  -2.468   1.506  0.00  0.00     0.004 A 
ATOM      3  C4  UNL d   1      -1.035  -2.481   1.751  0.00  0.00    -0.003 A 
ATOM      4  C5  UNL d   1      -1.835  -1.451   1.267  0.00  0.00     0.000 A 
ATOM      5  C6  UNL d   1      -1.264  -0.419   0.523  0.00  0.00     0.000 A 
ATOM      6  C7  UNL d   1       0.115  -0.400   0.253  0.00  0.00    -0.073 A 
ATOM      7  C8  UNL d   1       0.678   0.741  -0.549  0.00  0.00     0.078 C 
ENDROOT
BRANCH   1   8
ATOM      8  C1  UNL d   1       2.429  -1.452   0.563  0.00  0.00     0.053 C 
ATOM      9  C   UNL d   1       3.159  -0.450   1.443  0.00  0.00     0.018 C 
ENDBRANCH   1   8
TORSDOF 1
ENDMDL
