MODEL 1
REMARK minimizedAffinity -4.09534407
REMARK minimizedRMSD -1
REMARK  1 active torsions:
REMARK  status: ('A' for Active; 'I' for Inactive)
REMARK    1  A    between atoms: C1_2  and  C2_3 
ROOT
ATOM      1  C2  UNL d   1      -0.833  -0.535   0.708  0.00  0.00    -0.076 A 
ATOM      2  C3  UNL d   1       0.398   0.116   0.513  0.00  0.00     0.004 A 
ATOM      3  C4  UNL d   1       1.578  -0.611   0.361  0.00  0.00    -0.003 A 
ATOM      4  C5  UNL d   1       1.545  -2.001   0.399  0.00  0.00     0.000 A 
ATOM      5  C6  UNL d   1       0.330  -2.663   0.574  0.00  0.00     0.000 A 
ATOM      6  C7  UNL d   1      -0.870  -1.945   0.713  0.00  0.00    -0.073 A 
ATOM      7  C8  UNL d   1      -2.151  -2.711   0.905  0.00  0.00     0.078 C 
ENDROOT
BRANCH   1   8
ATOM      8  C1  UNL d   1      -2.075   0.307   0.895  0.00  0.00     0.053 C 
ATOM      9  C   UNL d   1      -1.755   1.733   1.316  0.00  0.00     0.018 C 
ENDBRANCH   1   8
TORSDOF 1
ENDMDL
