MODEL 1
REMARK minimizedAffinity -5.49587154
REMARK minimizedRMSD -1
REMARK  1 active torsions:
REMARK  status: ('A' for Active; 'I' for Inactive)
REMARK    1  A    between atoms: C1_2  and  C2_3 
ROOT
ATOM      1  C2  UNL d   1       2.652   0.227   1.308  0.00  0.00    -0.076 A 
ATOM      2  C3  UNL d   1       2.154  -1.026   0.912  0.00  0.00     0.004 A 
ATOM      3  C4  UNL d   1       0.924  -1.138   0.265  0.00  0.00    -0.003 A 
ATOM      4  C5  UNL d   1       0.174   0.002   0.002  0.00  0.00     0.000 A 
ATOM      5  C6  UNL d   1       0.661   1.256   0.371  0.00  0.00     0.000 A 
ATOM      6  C7  UNL d   1       1.906   1.387   1.010  0.00  0.00    -0.073 A 
ATOM      7  C8  UNL d   1       2.380   2.763   1.392  0.00  0.00     0.078 C 
ENDROOT
BRANCH   1   8
ATOM      8  C1  UNL d   1       3.979   0.284   2.031  0.00  0.00     0.053 C 
ATOM      9  C   UNL d   1       4.999  -0.685   1.453  0.00  0.00     0.018 C 
ENDBRANCH   1   8
TORSDOF 1
ENDMDL
