MODEL 1
REMARK minimizedAffinity -2.52417493
REMARK minimizedRMSD -1
REMARK  1 active torsions:
REMARK  status: ('A' for Active; 'I' for Inactive)
REMARK    1  A    between atoms: C1_2  and  C2_3 
ROOT
ATOM      1  C2  UNL d   1      -0.044  -2.219   2.454  0.00  0.00    -0.076 A 
ATOM      2  C3  UNL d   1       0.914  -3.187   2.802  0.00  0.00     0.004 A 
ATOM      3  C4  UNL d   1       1.043  -3.628   4.118  0.00  0.00    -0.003 A 
ATOM      4  C5  UNL d   1       0.215  -3.109   5.108  0.00  0.00     0.000 A 
ATOM      5  C6  UNL d   1      -0.753  -2.161   4.777  0.00  0.00     0.000 A 
ATOM      6  C7  UNL d   1      -0.906  -1.717   3.452  0.00  0.00    -0.073 A 
ATOM      7  C8  UNL d   1      -1.962  -0.689   3.153  0.00  0.00     0.078 C 
ENDROOT
BRANCH   1   8
ATOM      8  C1  UNL d   1      -0.119  -1.759   1.016  0.00  0.00     0.053 C 
ATOM      9  C   UNL d   1       1.229  -1.301   0.480  0.00  0.00     0.018 C 
ENDBRANCH   1   8
TORSDOF 1
ENDMDL
