MODEL 1
REMARK minimizedAffinity -3.56601644
REMARK minimizedRMSD -1
REMARK  1 active torsions:
REMARK  status: ('A' for Active; 'I' for Inactive)
REMARK    1  A    between atoms: C1_2  and  C2_3 
ROOT
ATOM      1  C2  UNL d   1      -0.203  -2.204   2.381  0.00  0.00    -0.076 A 
ATOM      2  C3  UNL d   1       0.816  -2.559   1.480  0.00  0.00     0.004 A 
ATOM      3  C4  UNL d   1       1.183  -1.706   0.440  0.00  0.00    -0.003 A 
ATOM      4  C5  UNL d   1       0.536  -0.484   0.285  0.00  0.00     0.000 A 
ATOM      5  C6  UNL d   1      -0.465  -0.109   1.180  0.00  0.00     0.000 A 
ATOM      6  C7  UNL d   1      -0.835  -0.950   2.243  0.00  0.00    -0.073 A 
ATOM      7  C8  UNL d   1      -1.926  -0.498   3.175  0.00  0.00     0.078 C 
ENDROOT
BRANCH   1   8
ATOM      8  C1  UNL d   1      -0.576  -3.182   3.473  0.00  0.00     0.053 C 
ATOM      9  C   UNL d   1       0.263  -3.002   4.728  0.00  0.00     0.018 C 
ENDBRANCH   1   8
TORSDOF 1
ENDMDL
