MODEL 1
REMARK minimizedAffinity 5.64966059
REMARK minimizedRMSD -1
REMARK  1 active torsions:
REMARK  status: ('A' for Active; 'I' for Inactive)
REMARK    1  A    between atoms: C1_2  and  C2_3 
ROOT
ATOM      1  C2  UNL d   1      -0.641   2.828  -2.993  0.00  0.00    -0.076 A 
ATOM      2  C3  UNL d   1      -1.687   2.121  -2.374  0.00  0.00     0.004 A 
ATOM      3  C4  UNL d   1      -2.980   2.639  -2.337  0.00  0.00    -0.003 A 
ATOM      4  C5  UNL d   1      -3.249   3.873  -2.919  0.00  0.00     0.000 A 
ATOM      5  C6  UNL d   1      -2.228   4.580  -3.552  0.00  0.00     0.000 A 
ATOM      6  C7  UNL d   1      -0.922   4.065  -3.613  0.00  0.00    -0.073 A 
ATOM      7  C8  UNL d   1       0.142   4.873  -4.304  0.00  0.00     0.078 C 
ENDROOT
BRANCH   1   8
ATOM      8  C1  UNL d   1       0.747   2.229  -2.978  0.00  0.00     0.053 C 
ATOM      9  C   UNL d   1       0.824   0.958  -2.146  0.00  0.00     0.018 C 
ENDBRANCH   1   8
TORSDOF 1
ENDMDL
