MODEL 1
REMARK minimizedAffinity -1.02689409
REMARK minimizedRMSD -1
REMARK  1 active torsions:
REMARK  status: ('A' for Active; 'I' for Inactive)
REMARK    1  A    between atoms: C1_2  and  C2_3 
ROOT
ATOM      1  C2  UNL d   1      -0.771  -1.062   2.678  0.00  0.00    -0.076 A 
ATOM      2  C3  UNL d   1      -0.272   0.159   2.192  0.00  0.00     0.004 A 
ATOM      3  C4  UNL d   1       0.478   0.211   1.018  0.00  0.00    -0.003 A 
ATOM      4  C5  UNL d   1       0.740  -0.957   0.310  0.00  0.00     0.000 A 
ATOM      5  C6  UNL d   1       0.238  -2.174   0.769  0.00  0.00     0.000 A 
ATOM      6  C7  UNL d   1      -0.533  -2.242   1.942  0.00  0.00    -0.073 A 
ATOM      7  C8  UNL d   1      -1.044  -3.583   2.393  0.00  0.00     0.078 C 
ENDROOT
BRANCH   1   8
ATOM      8  C1  UNL d   1      -1.554  -1.061   3.971  0.00  0.00     0.053 C 
ATOM      9  C   UNL d   1      -0.739  -1.577   5.147  0.00  0.00     0.018 C 
ENDBRANCH   1   8
TORSDOF 1
ENDMDL
