MODEL 1
REMARK minimizedAffinity 6.61710835
REMARK minimizedRMSD -1
REMARK  1 active torsions:
REMARK  status: ('A' for Active; 'I' for Inactive)
REMARK    1  A    between atoms: C1_2  and  C2_3 
ROOT
ATOM      1  C2  UNL d   1       0.236  -2.452   2.778  0.00  0.00    -0.076 A 
ATOM      2  C3  UNL d   1       1.611  -2.742   2.725  0.00  0.00     0.004 A 
ATOM      3  C4  UNL d   1       2.216  -3.530   3.703  0.00  0.00    -0.003 A 
ATOM      4  C5  UNL d   1       1.456  -4.040   4.750  0.00  0.00     0.000 A 
ATOM      5  C6  UNL d   1       0.088  -3.777   4.809  0.00  0.00     0.000 A 
ATOM      6  C7  UNL d   1      -0.541  -2.998   3.822  0.00  0.00    -0.073 A 
ATOM      7  C8  UNL d   1      -2.018  -2.740   3.939  0.00  0.00     0.078 C 
ENDROOT
BRANCH   1   8
ATOM      8  C1  UNL d   1      -0.359  -1.570   1.704  0.00  0.00     0.053 C 
ATOM      9  C   UNL d   1       0.695  -0.992   0.773  0.00  0.00     0.018 C 
ENDBRANCH   1   8
TORSDOF 1
ENDMDL
