MODEL 1
REMARK minimizedAffinity 2.34292459
REMARK minimizedRMSD -1
REMARK  1 active torsions:
REMARK  status: ('A' for Active; 'I' for Inactive)
REMARK    1  A    between atoms: C1_2  and  C2_3 
ROOT
ATOM      1  C2  UNL d   1       0.307  -2.231   2.126  0.00  0.00    -0.076 A 
ATOM      2  C3  UNL d   1       1.282  -3.198   2.425  0.00  0.00     0.004 A 
ATOM      3  C4  UNL d   1       1.436  -3.684   3.723  0.00  0.00    -0.003 A 
ATOM      4  C5  UNL d   1       0.616  -3.212   4.741  0.00  0.00     0.000 A 
ATOM      5  C6  UNL d   1      -0.369  -2.266   4.459  0.00  0.00     0.000 A 
ATOM      6  C7  UNL d   1      -0.548  -1.777   3.153  0.00  0.00    -0.073 A 
ATOM      7  C8  UNL d   1      -1.621  -0.753   2.907  0.00  0.00     0.078 C 
ENDROOT
BRANCH   1   8
ATOM      8  C1  UNL d   1       0.205  -1.720   0.706  0.00  0.00     0.053 C 
ATOM      9  C   UNL d   1       1.562  -1.387   0.108  0.00  0.00     0.018 C 
ENDBRANCH   1   8
TORSDOF 1
ENDMDL
