MODEL 1
REMARK minimizedAffinity 3.67047548
REMARK minimizedRMSD -1
REMARK  0 active torsions:
REMARK  status: ('A' for Active; 'I' for Inactive)
ROOT
ATOM      1  C   UNL d   1      -2.846   0.295   1.486  0.00  0.00     0.020 A 
ATOM      2  C1  UNL d   1      -2.251   0.614   0.266  0.00  0.00     0.020 A 
ATOM      3  C2  UNL d   1      -0.887   0.384   0.074  0.00  0.00     0.034 A 
ATOM      4  C3  UNL d   1      -0.114  -0.167   1.103  0.00  0.00     0.017 A 
ATOM      5  C4  UNL d   1      -0.713  -0.487   2.327  0.00  0.00     0.017 A 
ATOM      6  C5  UNL d   1      -2.079  -0.255   2.514  0.00  0.00     0.034 A 
ATOM      7 Cl   UNL d   1       0.175  -1.170   3.643  0.00  0.00    -0.070 Cl
ATOM      8 Cl1  UNL d   1       1.567  -0.424   0.796  0.00  0.00    -0.070 Cl
ENDROOT
TORSDOF 0
ENDMDL
