MODEL 1
REMARK minimizedAffinity 4.85633135
REMARK minimizedRMSD -1
REMARK  0 active torsions:
REMARK  status: ('A' for Active; 'I' for Inactive)
ROOT
ATOM      1  C   UNL d   1      -2.446   0.139   1.632  0.00  0.00     0.020 A 
ATOM      2  C1  UNL d   1      -2.411  -0.175   2.990  0.00  0.00     0.020 A 
ATOM      3  C2  UNL d   1      -1.214  -0.585   3.581  0.00  0.00     0.034 A 
ATOM      4  C3  UNL d   1      -0.047  -0.681   2.814  0.00  0.00     0.017 A 
ATOM      5  C4  UNL d   1      -0.084  -0.365   1.451  0.00  0.00     0.017 A 
ATOM      6  C5  UNL d   1      -1.285   0.044   0.864  0.00  0.00     0.034 A 
ATOM      7 Cl   UNL d   1       1.315  -0.460   0.440  0.00  0.00    -0.070 Cl
ATOM      8 Cl1  UNL d   1       1.398  -1.194   3.611  0.00  0.00    -0.070 Cl
ENDROOT
TORSDOF 0
ENDMDL
