MODEL 1
REMARK minimizedAffinity 1.62603855
REMARK minimizedRMSD -1
REMARK  0 active torsions:
REMARK  status: ('A' for Active; 'I' for Inactive)
ROOT
ATOM      1  C   UNL d   1      -3.084  -1.214   3.587  0.00  0.00     0.020 A 
ATOM      2  C1  UNL d   1      -1.865  -1.213   4.264  0.00  0.00     0.020 A 
ATOM      3  C2  UNL d   1      -0.703  -0.801   3.608  0.00  0.00     0.034 A 
ATOM      4  C3  UNL d   1      -0.757  -0.389   2.271  0.00  0.00     0.017 A 
ATOM      5  C4  UNL d   1      -1.981  -0.390   1.593  0.00  0.00     0.017 A 
ATOM      6  C5  UNL d   1      -3.142  -0.803   2.255  0.00  0.00     0.034 A 
ATOM      7 Cl   UNL d   1      -2.128   0.105  -0.056  0.00  0.00    -0.070 Cl
ATOM      8 Cl1  UNL d   1       0.719   0.108   1.523  0.00  0.00    -0.070 Cl
ENDROOT
TORSDOF 0
ENDMDL
