MODEL 1
REMARK minimizedAffinity 7.69947243
REMARK minimizedRMSD -1
REMARK  0 active torsions:
REMARK  status: ('A' for Active; 'I' for Inactive)
ROOT
ATOM      1  C   UNL d   1      -2.728   0.448   1.487  0.00  0.00     0.020 A 
ATOM      2  C1  UNL d   1      -2.874  -0.101   2.761  0.00  0.00     0.020 A 
ATOM      3  C2  UNL d   1      -1.781  -0.696   3.394  0.00  0.00     0.034 A 
ATOM      4  C3  UNL d   1      -0.537  -0.744   2.754  0.00  0.00     0.017 A 
ATOM      5  C4  UNL d   1      -0.392  -0.194   1.476  0.00  0.00     0.017 A 
ATOM      6  C5  UNL d   1      -1.490   0.401   0.846  0.00  0.00     0.034 A 
ATOM      7 Cl   UNL d   1       1.111  -0.215   0.622  0.00  0.00    -0.070 Cl
ATOM      8 Cl1  UNL d   1       0.772  -1.495   3.596  0.00  0.00    -0.070 Cl
ENDROOT
TORSDOF 0
ENDMDL
