MODEL 1
REMARK minimizedAffinity 8.73043156
REMARK minimizedRMSD -1
REMARK  0 active torsions:
REMARK  status: ('A' for Active; 'I' for Inactive)
ROOT
ATOM      1  C   UNL d   1      -2.375   0.301   2.320  0.00  0.00     0.020 A 
ATOM      2  C1  UNL d   1      -2.135   0.519   0.964  0.00  0.00     0.020 A 
ATOM      3  C2  UNL d   1      -0.861   0.298   0.436  0.00  0.00     0.034 A 
ATOM      4  C3  UNL d   1       0.177  -0.143   1.265  0.00  0.00     0.017 A 
ATOM      5  C4  UNL d   1      -0.065  -0.361   2.626  0.00  0.00     0.017 A 
ATOM      6  C5  UNL d   1      -1.343  -0.139   3.149  0.00  0.00     0.034 A 
ATOM      7 Cl   UNL d   1       1.166  -0.905   3.711  0.00  0.00    -0.070 Cl
ATOM      8 Cl1  UNL d   1       1.727  -0.396   0.545  0.00  0.00    -0.070 Cl
ENDROOT
TORSDOF 0
ENDMDL
