MODEL 1
REMARK minimizedAffinity -0.323426992
REMARK minimizedRMSD -1
REMARK  0 active torsions:
REMARK  status: ('A' for Active; 'I' for Inactive)
ROOT
ATOM      1  C   UNL d   1      -0.250  -0.713   3.576  0.00  0.00     0.020 A 
ATOM      2  C1  UNL d   1      -1.585  -0.313   3.562  0.00  0.00     0.020 A 
ATOM      3  C2  UNL d   1      -2.176   0.105   2.368  0.00  0.00     0.034 A 
ATOM      4  C3  UNL d   1      -1.432   0.123   1.183  0.00  0.00     0.017 A 
ATOM      5  C4  UNL d   1      -0.091  -0.279   1.198  0.00  0.00     0.017 A 
ATOM      6  C5  UNL d   1       0.496  -0.696   2.397  0.00  0.00     0.034 A 
ATOM      7 Cl   UNL d   1       0.892  -0.283  -0.224  0.00  0.00    -0.070 Cl
ATOM      8 Cl1  UNL d   1      -2.227   0.651  -0.258  0.00  0.00    -0.070 Cl
ENDROOT
TORSDOF 0
ENDMDL
