MODEL 1
REMARK minimizedAffinity 4.71741915
REMARK minimizedRMSD -1
REMARK  0 active torsions:
REMARK  status: ('A' for Active; 'I' for Inactive)
ROOT
ATOM      1  C   UNL d   1      -2.366   0.382   1.367  0.00  0.00     0.020 A 
ATOM      2  C1  UNL d   1      -2.008   0.508   0.025  0.00  0.00     0.020 A 
ATOM      3  C2  UNL d   1      -0.710   0.195  -0.383  0.00  0.00     0.034 A 
ATOM      4  C3  UNL d   1       0.236  -0.244   0.551  0.00  0.00     0.017 A 
ATOM      5  C4  UNL d   1      -0.125  -0.369   1.897  0.00  0.00     0.017 A 
ATOM      6  C5  UNL d   1      -1.426  -0.056   2.301  0.00  0.00     0.034 A 
ATOM      7 Cl   UNL d   1       0.986  -0.905   3.108  0.00  0.00    -0.070 Cl
ATOM      8 Cl1  UNL d   1       1.823  -0.613  -0.024  0.00  0.00    -0.070 Cl
ENDROOT
TORSDOF 0
ENDMDL
