MODEL 1
REMARK minimizedAffinity 2.66685081
REMARK minimizedRMSD -1
REMARK  0 active torsions:
REMARK  status: ('A' for Active; 'I' for Inactive)
ROOT
ATOM      1  C   UNL d   1      -2.830   0.240   1.746  0.00  0.00     0.020 A 
ATOM      2  C1  UNL d   1      -2.499   0.321   0.394  0.00  0.00     0.020 A 
ATOM      3  C2  UNL d   1      -1.196   0.042  -0.023  0.00  0.00     0.034 A 
ATOM      4  C3  UNL d   1      -0.219  -0.319   0.912  0.00  0.00     0.017 A 
ATOM      5  C4  UNL d   1      -0.552  -0.399   2.269  0.00  0.00     0.017 A 
ATOM      6  C5  UNL d   1      -1.858  -0.119   2.682  0.00  0.00     0.034 A 
ATOM      7 Cl   UNL d   1       0.599  -0.838   3.481  0.00  0.00    -0.070 Cl
ATOM      8 Cl1  UNL d   1       1.372  -0.650   0.325  0.00  0.00    -0.070 Cl
ENDROOT
TORSDOF 0
ENDMDL
