MODEL 1
REMARK minimizedAffinity -0.164445236
REMARK minimizedRMSD -1
REMARK  0 active torsions:
REMARK  status: ('A' for Active; 'I' for Inactive)
ROOT
ATOM      1  C   UNL d   1      -3.331  -1.185   3.151  0.00  0.00     0.020 A 
ATOM      2  C1  UNL d   1      -2.832  -1.846   4.273  0.00  0.00     0.020 A 
ATOM      3  C2  UNL d   1      -1.455  -1.887   4.503  0.00  0.00     0.034 A 
ATOM      4  C3  UNL d   1      -0.573  -1.266   3.611  0.00  0.00     0.017 A 
ATOM      5  C4  UNL d   1      -1.076  -0.603   2.486  0.00  0.00     0.017 A 
ATOM      6  C5  UNL d   1      -2.455  -0.565   2.259  0.00  0.00     0.034 A 
ATOM      7 Cl   UNL d   1      -0.050   0.186   1.340  0.00  0.00    -0.070 Cl
ATOM      8 Cl1  UNL d   1       1.117  -1.356   3.959  0.00  0.00    -0.070 Cl
ENDROOT
TORSDOF 0
ENDMDL
