MODEL 1
REMARK minimizedAffinity 1.95835257
REMARK minimizedRMSD -1
REMARK  0 active torsions:
REMARK  status: ('A' for Active; 'I' for Inactive)
ROOT
ATOM      1  C   UNL d   1      -0.912  -0.438   4.358  0.00  0.00     0.020 A 
ATOM      2  C1  UNL d   1      -2.254  -0.164   4.094  0.00  0.00     0.020 A 
ATOM      3  C2  UNL d   1      -2.657   0.169   2.800  0.00  0.00     0.034 A 
ATOM      4  C3  UNL d   1      -1.719   0.229   1.763  0.00  0.00     0.017 A 
ATOM      5  C4  UNL d   1      -0.372  -0.047   2.028  0.00  0.00     0.017 A 
ATOM      6  C5  UNL d   1       0.026  -0.380   3.327  0.00  0.00     0.034 A 
ATOM      7 Cl   UNL d   1       0.844   0.006   0.801  0.00  0.00    -0.070 Cl
ATOM      8 Cl1  UNL d   1      -2.288   0.647   0.186  0.00  0.00    -0.070 Cl
ENDROOT
TORSDOF 0
ENDMDL
