MODEL 1
REMARK minimizedAffinity 8.46800995
REMARK minimizedRMSD -1
REMARK  0 active torsions:
REMARK  status: ('A' for Active; 'I' for Inactive)
ROOT
ATOM      1  C   UNL d   1       0.439  -0.821  -0.505  0.00  0.00     0.020 A 
ATOM      2  C1  UNL d   1       0.659  -0.456   0.823  0.00  0.00     0.020 A 
ATOM      3  C2  UNL d   1      -0.425  -0.188   1.662  0.00  0.00     0.034 A 
ATOM      4  C3  UNL d   1      -1.733  -0.284   1.174  0.00  0.00     0.017 A 
ATOM      5  C4  UNL d   1      -1.953  -0.650  -0.159  0.00  0.00     0.017 A 
ATOM      6  C5  UNL d   1      -0.864  -0.917  -0.995  0.00  0.00     0.034 A 
ATOM      7 Cl   UNL d   1      -3.538  -0.789  -0.833  0.00  0.00    -0.070 Cl
ATOM      8 Cl1  UNL d   1      -3.026   0.061   2.267  0.00  0.00    -0.070 Cl
ENDROOT
TORSDOF 0
ENDMDL
