MODEL 1
REMARK minimizedAffinity -4.09992552
REMARK minimizedRMSD -1
REMARK  0 active torsions:
REMARK  status: ('A' for Active; 'I' for Inactive)
ROOT
ATOM      1  C   UNL d   1       0.513  -0.768   3.079  0.00  0.00    -0.002 A 
ATOM      2  C1  UNL d   1      -0.772  -0.365   2.745  0.00  0.00     0.010 A 
ATOM      3  C2  UNL d   1      -1.142  -0.206   1.408  0.00  0.00     0.041 A 
ATOM      4  C3  UNL d   1      -0.189  -0.464   0.402  0.00  0.00    -0.075 A 
ATOM      5  S   UNL d   1      -0.417  -0.337  -1.302  0.00  0.00     0.015 SA
ATOM      6  C4  UNL d   1       1.186  -0.816  -1.627  0.00  0.00     0.022 A 
ATOM      7  C5  UNL d   1       1.892  -1.070  -0.475  0.00  0.00     0.026 A 
ATOM      8  C6  UNL d   1       1.111  -0.872   0.714  0.00  0.00    -0.082 A 
ATOM      9  C7  UNL d   1       1.455  -1.023   2.079  0.00  0.00     0.045 A 
ENDROOT
TORSDOF 0
ENDMDL
