MODEL 1
REMARK minimizedAffinity -4.84044933
REMARK minimizedRMSD -1
REMARK  0 active torsions:
REMARK  status: ('A' for Active; 'I' for Inactive)
ROOT
ATOM      1  C   UNL d   1       0.196   0.154  -1.177  0.00  0.00    -0.002 A 
ATOM      2  C1  UNL d   1      -1.137   0.076  -0.801  0.00  0.00     0.010 A 
ATOM      3  C2  UNL d   1      -1.487  -0.242   0.513  0.00  0.00     0.041 A 
ATOM      4  C3  UNL d   1      -0.465  -0.481   1.452  0.00  0.00    -0.075 A 
ATOM      5  S   UNL d   1      -0.656  -0.885   3.117  0.00  0.00     0.015 SA
ATOM      6  C4  UNL d   1       1.028  -0.963   3.369  0.00  0.00     0.022 A 
ATOM      7  C5  UNL d   1       1.734  -0.690   2.221  0.00  0.00     0.026 A 
ATOM      8  C6  UNL d   1       0.885  -0.407   1.097  0.00  0.00    -0.082 A 
ATOM      9  C7  UNL d   1       1.208  -0.084  -0.243  0.00  0.00     0.045 A 
ENDROOT
TORSDOF 0
ENDMDL
