MODEL 1
REMARK minimizedAffinity -1.78707719
REMARK minimizedRMSD -1
REMARK  0 active torsions:
REMARK  status: ('A' for Active; 'I' for Inactive)
ROOT
ATOM      1  C   UNL d   1       1.891  -0.316   2.284  0.00  0.00    -0.002 A 
ATOM      2  C1  UNL d   1       0.853  -0.698   3.122  0.00  0.00     0.010 A 
ATOM      3  C2  UNL d   1      -0.434  -0.891   2.617  0.00  0.00     0.041 A 
ATOM      4  C3  UNL d   1      -0.662  -0.694   1.240  0.00  0.00    -0.075 A 
ATOM      5  S   UNL d   1      -2.156  -0.873   0.398  0.00  0.00     0.015 SA
ATOM      6  C4  UNL d   1      -1.451  -0.449  -1.094  0.00  0.00     0.022 A 
ATOM      7  C5  UNL d   1      -0.109  -0.173  -0.971  0.00  0.00     0.026 A 
ATOM      8  C6  UNL d   1       0.368  -0.311   0.376  0.00  0.00    -0.082 A 
ATOM      9  C7  UNL d   1       1.661  -0.122   0.920  0.00  0.00     0.045 A 
ENDROOT
TORSDOF 0
ENDMDL
