MODEL 1
REMARK minimizedAffinity -3.99896049
REMARK minimizedRMSD -1
REMARK  0 active torsions:
REMARK  status: ('A' for Active; 'I' for Inactive)
ROOT
ATOM      1  C   UNL d   1       1.150   0.224  -0.662  0.00  0.00     0.023 A 
ATOM      2  C1  UNL d   1       0.740   1.053   0.382  0.00  0.00     0.003 A 
ATOM      3  C2  UNL d   1       0.916   2.435   0.289  0.00  0.00     0.048 A 
ATOM      4  C3  UNL d   1       1.501   2.982  -0.853  0.00  0.00     0.023 A 
ATOM      5  C4  UNL d   1       1.912   2.157  -1.901  0.00  0.00     0.048 A 
ATOM      6  C5  UNL d   1       1.735   0.775  -1.802  0.00  0.00     0.003 A 
ATOM      7  I   UNL d   1       1.763   5.039  -0.994  0.00  0.00    -0.146 I 
ENDROOT
TORSDOF 0
ENDMDL
