MODEL 1
REMARK minimizedAffinity 0.742876172
REMARK minimizedRMSD -1
REMARK  0 active torsions:
REMARK  status: ('A' for Active; 'I' for Inactive)
ROOT
ATOM      1  C   UNL d   1       1.120   0.006  -1.482  0.00  0.00     0.023 A 
ATOM      2  C1  UNL d   1       1.514   0.753  -2.592  0.00  0.00     0.003 A 
ATOM      3  C2  UNL d   1       1.604   2.144  -2.504  0.00  0.00     0.048 A 
ATOM      4  C3  UNL d   1       1.299   2.781  -1.302  0.00  0.00     0.023 A 
ATOM      5  C4  UNL d   1       0.906   2.038  -0.188  0.00  0.00     0.048 A 
ATOM      6  C5  UNL d   1       0.817   0.648  -0.281  0.00  0.00     0.003 A 
ATOM      7  I   UNL d   1       1.432   4.851  -1.167  0.00  0.00    -0.146 I 
ENDROOT
TORSDOF 0
ENDMDL
