MODEL 1
REMARK minimizedAffinity -1.60831821
REMARK minimizedRMSD -1
REMARK  0 active torsions:
REMARK  status: ('A' for Active; 'I' for Inactive)
ROOT
ATOM      1  C   UNL d   1       1.003   0.181  -0.489  0.00  0.00     0.023 A 
ATOM      2  C1  UNL d   1       1.233   0.610  -1.796  0.00  0.00     0.003 A 
ATOM      3  C2  UNL d   1       1.569   1.942  -2.046  0.00  0.00     0.048 A 
ATOM      4  C3  UNL d   1       1.674   2.840  -0.984  0.00  0.00     0.023 A 
ATOM      5  C4  UNL d   1       1.445   2.414   0.326  0.00  0.00     0.048 A 
ATOM      6  C5  UNL d   1       1.108   1.082   0.570  0.00  0.00     0.003 A 
ATOM      7  I   UNL d   1       2.175   4.823  -1.353  0.00  0.00    -0.146 I 
ENDROOT
TORSDOF 0
ENDMDL
