MODEL 1
REMARK minimizedAffinity -2.35722661
REMARK minimizedRMSD -1
REMARK  0 active torsions:
REMARK  status: ('A' for Active; 'I' for Inactive)
ROOT
ATOM      1  C   UNL d   1       1.273   1.217  -2.995  0.00  0.00     0.023 A 
ATOM      2  C1  UNL d   1       0.650   0.152  -2.345  0.00  0.00     0.003 A 
ATOM      3  C2  UNL d   1       0.617   0.106  -0.950  0.00  0.00     0.048 A 
ATOM      4  C3  UNL d   1       1.209   1.130  -0.211  0.00  0.00     0.023 A 
ATOM      5  C4  UNL d   1       1.833   2.198  -0.856  0.00  0.00     0.048 A 
ATOM      6  C5  UNL d   1       1.864   2.239  -2.252  0.00  0.00     0.003 A 
ATOM      7  I   UNL d   1       1.161   1.064   1.866  0.00  0.00    -0.146 I 
ENDROOT
TORSDOF 0
ENDMDL
