MODEL 1
REMARK minimizedAffinity -0.0923023596
REMARK minimizedRMSD -1
REMARK  0 active torsions:
REMARK  status: ('A' for Active; 'I' for Inactive)
ROOT
ATOM      1  C   UNL d   1       1.145   0.930  -2.515  0.00  0.00     0.023 A 
ATOM      2  C1  UNL d   1       0.969  -0.023  -1.511  0.00  0.00     0.003 A 
ATOM      3  C2  UNL d   1       1.178   0.324  -0.174  0.00  0.00     0.048 A 
ATOM      4  C3  UNL d   1       1.561   1.624   0.151  0.00  0.00     0.023 A 
ATOM      5  C4  UNL d   1       1.736   2.581  -0.850  0.00  0.00     0.048 A 
ATOM      6  C5  UNL d   1       1.528   2.230  -2.185  0.00  0.00     0.003 A 
ATOM      7  I   UNL d   1       1.871   2.142   2.140  0.00  0.00    -0.146 I 
ENDROOT
TORSDOF 0
ENDMDL
