MODEL 1
REMARK minimizedAffinity 9.85243511
REMARK minimizedRMSD -1
REMARK  0 active torsions:
REMARK  status: ('A' for Active; 'I' for Inactive)
ROOT
ATOM      1  C   UNL d   1      -4.337   1.856   2.295  0.00  0.00     0.023 A 
ATOM      2  C1  UNL d   1      -4.203   2.813   1.289  0.00  0.00     0.003 A 
ATOM      3  C2  UNL d   1      -3.409   3.942   1.499  0.00  0.00     0.048 A 
ATOM      4  C3  UNL d   1      -2.752   4.108   2.718  0.00  0.00     0.023 A 
ATOM      5  C4  UNL d   1      -2.883   3.153   3.727  0.00  0.00     0.048 A 
ATOM      6  C5  UNL d   1      -3.678   2.026   3.513  0.00  0.00     0.003 A 
ATOM      7  I   UNL d   1      -1.570   5.788   3.033  0.00  0.00    -0.146 I 
ENDROOT
TORSDOF 0
ENDMDL
