MODEL 1
REMARK minimizedAffinity 1.70237291
REMARK minimizedRMSD -1
REMARK  0 active torsions:
REMARK  status: ('A' for Active; 'I' for Inactive)
ROOT
ATOM      1  C   UNL d   1      -0.008  -4.198  -0.697  0.00  0.00     0.023 A 
ATOM      2  C1  UNL d   1      -0.471  -3.496  -1.810  0.00  0.00     0.003 A 
ATOM      3  C2  UNL d   1      -0.033  -2.191  -2.045  0.00  0.00     0.048 A 
ATOM      4  C3  UNL d   1       0.869  -1.594  -1.165  0.00  0.00     0.023 A 
ATOM      5  C4  UNL d   1       1.335  -2.293  -0.050  0.00  0.00     0.048 A 
ATOM      6  C5  UNL d   1       0.894  -3.597   0.182  0.00  0.00     0.003 A 
ATOM      7  I   UNL d   1       1.522   0.347  -1.514  0.00  0.00    -0.146 I 
ENDROOT
TORSDOF 0
ENDMDL
