MODEL 1
REMARK minimizedAffinity -1.38205564
REMARK minimizedRMSD -1
REMARK  0 active torsions:
REMARK  status: ('A' for Active; 'I' for Inactive)
ROOT
ATOM      1  C   UNL d   1       1.525   4.839  -0.201  0.00  0.00     0.023 A 
ATOM      2  C1  UNL d   1       1.341   3.920   0.833  0.00  0.00     0.003 A 
ATOM      3  C2  UNL d   1       1.237   2.558   0.547  0.00  0.00     0.048 A 
ATOM      4  C3  UNL d   1       1.319   2.120  -0.774  0.00  0.00     0.023 A 
ATOM      5  C4  UNL d   1       1.504   3.035  -1.811  0.00  0.00     0.048 A 
ATOM      6  C5  UNL d   1       1.606   4.397  -1.521  0.00  0.00     0.003 A 
ATOM      7  I   UNL d   1       1.164   0.092  -1.201  0.00  0.00    -0.146 I 
ENDROOT
TORSDOF 0
ENDMDL
