MODEL 1
REMARK minimizedAffinity 2.78736401
REMARK minimizedRMSD -1
REMARK  0 active torsions:
REMARK  status: ('A' for Active; 'I' for Inactive)
ROOT
ATOM      1  C   UNL d   1       1.060   0.626  -0.411  0.00  0.00     0.023 A 
ATOM      2  C1  UNL d   1       1.336   1.111  -1.690  0.00  0.00     0.003 A 
ATOM      3  C2  UNL d   1       1.566   2.474  -1.887  0.00  0.00     0.048 A 
ATOM      4  C3  UNL d   1       1.521   3.346  -0.800  0.00  0.00     0.023 A 
ATOM      5  C4  UNL d   1       1.247   2.866   0.481  0.00  0.00     0.048 A 
ATOM      6  C5  UNL d   1       1.016   1.502   0.673  0.00  0.00     0.003 A 
ATOM      7  I   UNL d   1       1.864   5.376  -1.090  0.00  0.00    -0.146 I 
ENDROOT
TORSDOF 0
ENDMDL
