MODEL 1
REMARK minimizedAffinity -2.51745772
REMARK minimizedRMSD -1
REMARK  0 active torsions:
REMARK  status: ('A' for Active; 'I' for Inactive)
ROOT
ATOM      1  C   UNL d   1       0.860  -0.420   0.572  0.00  0.00     0.023 A 
ATOM      2  C1  UNL d   1       0.903   0.723   1.371  0.00  0.00     0.003 A 
ATOM      3  C2  UNL d   1       1.027   1.983   0.783  0.00  0.00     0.048 A 
ATOM      4  C3  UNL d   1       1.106   2.093  -0.605  0.00  0.00     0.023 A 
ATOM      5  C4  UNL d   1       1.063   0.952  -1.408  0.00  0.00     0.048 A 
ATOM      6  C5  UNL d   1       0.939  -0.306  -0.815  0.00  0.00     0.003 A 
ATOM      7  I   UNL d   1       1.291   3.968  -1.483  0.00  0.00    -0.146 I 
ENDROOT
TORSDOF 0
ENDMDL
