MODEL 1
REMARK minimizedAffinity 6.48907137
REMARK minimizedRMSD -1
REMARK  0 active torsions:
REMARK  status: ('A' for Active; 'I' for Inactive)
ROOT
ATOM      1  C   UNL d   1       1.155  -1.004   0.478  0.00  0.00     0.023 A 
ATOM      2  C1  UNL d   1       0.730  -0.882  -0.846  0.00  0.00     0.003 A 
ATOM      3  C2  UNL d   1       0.918   0.319  -1.533  0.00  0.00     0.048 A 
ATOM      4  C3  UNL d   1       1.532   1.394  -0.891  0.00  0.00     0.023 A 
ATOM      5  C4  UNL d   1       1.959   1.277   0.433  0.00  0.00     0.048 A 
ATOM      6  C5  UNL d   1       1.768   0.074   1.116  0.00  0.00     0.003 A 
ATOM      7  I   UNL d   1       1.812   3.183  -1.911  0.00  0.00    -0.146 I 
ENDROOT
TORSDOF 0
ENDMDL
