MODEL 1
REMARK minimizedAffinity -1.87642026
REMARK minimizedRMSD -1
REMARK  0 active torsions:
REMARK  status: ('A' for Active; 'I' for Inactive)
ROOT
ATOM      1  C   UNL d   1       0.915   0.357  -0.528  0.00  0.00     0.023 A 
ATOM      2  C1  UNL d   1       1.485   0.852  -1.701  0.00  0.00     0.003 A 
ATOM      3  C2  UNL d   1       1.739   2.219  -1.832  0.00  0.00     0.048 A 
ATOM      4  C3  UNL d   1       1.423   3.085  -0.785  0.00  0.00     0.023 A 
ATOM      5  C4  UNL d   1       0.854   2.593   0.391  0.00  0.00     0.048 A 
ATOM      6  C5  UNL d   1       0.600   1.226   0.517  0.00  0.00     0.003 A 
ATOM      7  I   UNL d   1       1.801   5.119  -0.977  0.00  0.00    -0.146 I 
ENDROOT
TORSDOF 0
ENDMDL
