MODEL 1
REMARK minimizedAffinity -0.768754005
REMARK minimizedRMSD -1
REMARK  0 active torsions:
REMARK  status: ('A' for Active; 'I' for Inactive)
ROOT
ATOM      1  C   UNL d   1       1.499   2.025  -2.342  0.00  0.00     0.023 A 
ATOM      2  C1  UNL d   1       1.638   3.074  -1.434  0.00  0.00     0.003 A 
ATOM      3  C2  UNL d   1       1.548   2.829  -0.062  0.00  0.00     0.048 A 
ATOM      4  C3  UNL d   1       1.321   1.531   0.395  0.00  0.00     0.023 A 
ATOM      5  C4  UNL d   1       1.183   0.478  -0.510  0.00  0.00     0.048 A 
ATOM      6  C5  UNL d   1       1.272   0.728  -1.881  0.00  0.00     0.003 A 
ATOM      7  I   UNL d   1       1.188   1.163   2.436  0.00  0.00    -0.146 I 
ENDROOT
TORSDOF 0
ENDMDL
