MODEL 1
REMARK minimizedAffinity -0.157403305
REMARK minimizedRMSD -1
REMARK  0 active torsions:
REMARK  status: ('A' for Active; 'I' for Inactive)
ROOT
ATOM      1  C   UNL d   1       0.979   0.403  -0.803  0.00  0.00     0.023 A 
ATOM      2  C1  UNL d   1       0.654   1.168   0.317  0.00  0.00     0.003 A 
ATOM      3  C2  UNL d   1       0.886   2.545   0.315  0.00  0.00     0.048 A 
ATOM      4  C3  UNL d   1       1.442   3.151  -0.811  0.00  0.00     0.023 A 
ATOM      5  C4  UNL d   1       1.768   2.390  -1.935  0.00  0.00     0.048 A 
ATOM      6  C5  UNL d   1       1.535   1.013  -1.928  0.00  0.00     0.003 A 
ATOM      7  I   UNL d   1       1.788   5.200  -0.817  0.00  0.00    -0.146 I 
ENDROOT
TORSDOF 0
ENDMDL
