MODEL 1
REMARK minimizedAffinity -1.7294234
REMARK minimizedRMSD -1
REMARK  0 active torsions:
REMARK  status: ('A' for Active; 'I' for Inactive)
ROOT
ATOM      1  C   UNL d   1       0.695   0.910  -0.874  0.00  0.00     0.023 A 
ATOM      2  C1  UNL d   1       1.388   1.464   0.202  0.00  0.00     0.003 A 
ATOM      3  C2  UNL d   1       1.777   2.805   0.168  0.00  0.00     0.048 A 
ATOM      4  C3  UNL d   1       1.467   3.586  -0.945  0.00  0.00     0.023 A 
ATOM      5  C4  UNL d   1       0.772   3.036  -2.023  0.00  0.00     0.048 A 
ATOM      6  C5  UNL d   1       0.387   1.695  -1.985  0.00  0.00     0.003 A 
ATOM      7  I   UNL d   1       2.044   5.582  -0.998  0.00  0.00    -0.146 I 
ENDROOT
TORSDOF 0
ENDMDL
