MODEL 1
REMARK minimizedAffinity 0.773729622
REMARK minimizedRMSD -1
REMARK  0 active torsions:
REMARK  status: ('A' for Active; 'I' for Inactive)
ROOT
ATOM      1  C   UNL d   1      -5.157   1.125   3.340  0.00  0.00     0.023 A 
ATOM      2  C1  UNL d   1      -4.367   2.054   4.017  0.00  0.00     0.003 A 
ATOM      3  C2  UNL d   1      -3.147   1.661   4.572  0.00  0.00     0.048 A 
ATOM      4  C3  UNL d   1      -2.723   0.338   4.445  0.00  0.00     0.023 A 
ATOM      5  C4  UNL d   1      -3.511  -0.594   3.767  0.00  0.00     0.048 A 
ATOM      6  C5  UNL d   1      -4.730  -0.197   3.215  0.00  0.00     0.003 A 
ATOM      7  I   UNL d   1      -0.908  -0.248   5.270  0.00  0.00    -0.146 I 
ENDROOT
TORSDOF 0
ENDMDL
