MODEL 1
REMARK minimizedAffinity 5.8114295
REMARK minimizedRMSD -1
REMARK  1 active torsions:
REMARK  status: ('A' for Active; 'I' for Inactive)
REMARK    1  A    between atoms: C1_2  and  C2_3 
ROOT
ATOM      1  C2  UNL d   1      -3.645   1.482   1.501  0.00  0.00    -0.077 A 
ATOM      2  C3  UNL d   1      -3.467   0.941   0.220  0.00  0.00     0.002 A 
ATOM      3  C4  UNL d   1      -4.547   0.385  -0.468  0.00  0.00     0.002 A 
ATOM      4  C5  UNL d   1      -5.813   0.368   0.115  0.00  0.00    -0.004 A 
ATOM      5  C6  UNL d   1      -5.999   0.902   1.389  0.00  0.00     0.002 A 
ATOM      6  C7  UNL d   1      -4.921   1.457   2.079  0.00  0.00     0.002 A 
ENDROOT
BRANCH   1   7
ATOM      7  C1  UNL d   1      -2.492   2.126   2.225  0.00  0.00     0.055 C 
ATOM      8  C   UNL d   1      -2.830   3.548   2.650  0.00  0.00     0.019 C 
ENDBRANCH   1   7
TORSDOF 1
ENDMDL
