MODEL 1
REMARK minimizedAffinity 4.90682602
REMARK minimizedRMSD -1
REMARK  1 active torsions:
REMARK  status: ('A' for Active; 'I' for Inactive)
REMARK    1  A    between atoms: C1_2  and  C2_3 
ROOT
ATOM      1  C2  UNL d   1       2.469   0.547   0.415  0.00  0.00    -0.077 A 
ATOM      2  C3  UNL d   1       2.259  -0.264  -0.710  0.00  0.00     0.002 A 
ATOM      3  C4  UNL d   1       2.644  -1.606  -0.694  0.00  0.00     0.002 A 
ATOM      4  C5  UNL d   1       3.237  -2.150   0.443  0.00  0.00    -0.004 A 
ATOM      5  C6  UNL d   1       3.452  -1.351   1.566  0.00  0.00     0.002 A 
ATOM      6  C7  UNL d   1       3.069  -0.009   1.552  0.00  0.00     0.002 A 
ENDROOT
BRANCH   1   7
ATOM      7  C1  UNL d   1       2.010   1.981   0.418  0.00  0.00     0.055 C 
ATOM      8  C   UNL d   1       0.655   2.130  -0.259  0.00  0.00     0.019 C 
ENDBRANCH   1   7
TORSDOF 1
ENDMDL
