MODEL 1
REMARK minimizedAffinity 3.84176493
REMARK minimizedRMSD -1
REMARK  1 active torsions:
REMARK  status: ('A' for Active; 'I' for Inactive)
REMARK    1  A    between atoms: C1_2  and  C2_3 
ROOT
ATOM      1  C2  UNL d   1       2.028   0.157   0.061  0.00  0.00    -0.077 A 
ATOM      2  C3  UNL d   1       0.943  -0.227  -0.739  0.00  0.00     0.002 A 
ATOM      3  C4  UNL d   1       0.713  -1.576  -1.016  0.00  0.00     0.002 A 
ATOM      4  C5  UNL d   1       1.560  -2.551  -0.493  0.00  0.00    -0.004 A 
ATOM      5  C6  UNL d   1       2.643  -2.178   0.302  0.00  0.00     0.002 A 
ATOM      6  C7  UNL d   1       2.875  -0.830   0.578  0.00  0.00     0.002 A 
ENDROOT
BRANCH   1   7
ATOM      7  C1  UNL d   1       2.249   1.608   0.400  0.00  0.00     0.055 C 
ATOM      8  C   UNL d   1       1.031   2.451   0.052  0.00  0.00     0.019 C 
ENDBRANCH   1   7
TORSDOF 1
ENDMDL
