MODEL 1
REMARK minimizedAffinity 2.77131224
REMARK minimizedRMSD -1
REMARK  1 active torsions:
REMARK  status: ('A' for Active; 'I' for Inactive)
REMARK    1  A    between atoms: C1_2  and  C2_3 
ROOT
ATOM      1  C2  UNL d   1       1.009   2.188   1.033  0.00  0.00    -0.077 A 
ATOM      2  C3  UNL d   1       0.055   3.155   0.685  0.00  0.00     0.002 A 
ATOM      3  C4  UNL d   1      -1.103   3.313   1.449  0.00  0.00     0.002 A 
ATOM      4  C5  UNL d   1      -1.315   2.511   2.569  0.00  0.00    -0.004 A 
ATOM      5  C6  UNL d   1      -0.373   1.546   2.923  0.00  0.00     0.002 A 
ATOM      6  C7  UNL d   1       0.784   1.386   2.159  0.00  0.00     0.002 A 
ENDROOT
BRANCH   1   7
ATOM      7  C1  UNL d   1       2.281   2.050   0.239  0.00  0.00     0.055 C 
ATOM      8  C   UNL d   1       2.561   0.595  -0.108  0.00  0.00     0.019 C 
ENDBRANCH   1   7
TORSDOF 1
ENDMDL
