MODEL 1
REMARK minimizedAffinity 13.2157307
REMARK minimizedRMSD -1
REMARK  1 active torsions:
REMARK  status: ('A' for Active; 'I' for Inactive)
REMARK    1  A    between atoms: C1_2  and  C2_3 
ROOT
ATOM      1  C2  UNL d   1      -0.068   2.442   1.534  0.00  0.00    -0.077 A 
ATOM      2  C3  UNL d   1       0.465   1.554   2.479  0.00  0.00     0.002 A 
ATOM      3  C4  UNL d   1      -0.344   1.027   3.488  0.00  0.00     0.002 A 
ATOM      4  C5  UNL d   1      -1.691   1.379   3.558  0.00  0.00    -0.004 A 
ATOM      5  C6  UNL d   1      -2.229   2.262   2.624  0.00  0.00     0.002 A 
ATOM      6  C7  UNL d   1      -1.422   2.791   1.616  0.00  0.00     0.002 A 
ENDROOT
BRANCH   1   7
ATOM      7  C1  UNL d   1       0.792   2.973   0.416  0.00  0.00     0.055 C 
ATOM      8  C   UNL d   1       2.109   2.216   0.324  0.00  0.00     0.019 C 
ENDBRANCH   1   7
TORSDOF 1
ENDMDL
