MODEL 1
REMARK minimizedAffinity -6.05373478
REMARK minimizedRMSD -1
REMARK  2 active torsions:
REMARK  status: ('A' for Active; 'I' for Inactive)
REMARK    1  A    between atoms: C1_2  and  C2_3 
REMARK    2  A    between atoms: C2_3  and  C3_4 
ROOT
ATOM      1  C3  UNL d   1      -0.168  -0.074  -0.202  0.00  0.00    -0.075 A 
ATOM      2  C4  UNL d   1       0.723   0.410   0.767  0.00  0.00     0.002 A 
ATOM      3  C5  UNL d   1       0.256   0.827   2.014  0.00  0.00     0.002 A 
ATOM      4  C6  UNL d   1      -1.106   0.776   2.304  0.00  0.00    -0.004 A 
ATOM      5  C7  UNL d   1      -2.002   0.312   1.343  0.00  0.00     0.002 A 
ATOM      6  C8  UNL d   1      -1.537  -0.110   0.096  0.00  0.00     0.002 A 
ENDROOT
BRANCH   1   7
ATOM      7  C2  UNL d   1       0.334  -0.555  -1.542  0.00  0.00     0.056 C 
BRANCH   7   8
ATOM      8  C1  UNL d   1       1.251   0.442  -2.258  0.00  0.00     0.007 C 
ATOM      9  C   UNL d   1       0.983   0.537  -3.755  0.00  0.00     0.009 C 
ENDBRANCH   7   8
ENDBRANCH   1   7
TORSDOF 2
ENDMDL
