MODEL 1
REMARK minimizedAffinity -3.08120775
REMARK minimizedRMSD -1
REMARK  2 active torsions:
REMARK  status: ('A' for Active; 'I' for Inactive)
REMARK    1  A    between atoms: C1_2  and  C2_3 
REMARK    2  A    between atoms: C2_3  and  C3_4 
ROOT
ATOM      1  C3  UNL d   1       0.461  -0.141  -0.831  0.00  0.00    -0.075 A 
ATOM      2  C4  UNL d   1      -0.619   0.604  -0.335  0.00  0.00     0.002 A 
ATOM      3  C5  UNL d   1      -0.710   0.900   1.025  0.00  0.00     0.002 A 
ATOM      4  C6  UNL d   1       0.269   0.449   1.906  0.00  0.00    -0.004 A 
ATOM      5  C7  UNL d   1       1.338  -0.306   1.428  0.00  0.00     0.002 A 
ATOM      6  C8  UNL d   1       1.434  -0.600   0.066  0.00  0.00     0.002 A 
ENDROOT
BRANCH   1   7
ATOM      7  C2  UNL d   1       0.581  -0.440  -2.306  0.00  0.00     0.056 C 
BRANCH   7   8
ATOM      8  C1  UNL d   1       1.676   0.361  -3.018  0.00  0.00     0.007 C 
ATOM      9  C   UNL d   1       1.400   0.569  -4.501  0.00  0.00     0.009 C 
ENDBRANCH   7   8
ENDBRANCH   1   7
TORSDOF 2
ENDMDL
