MODEL 1
REMARK minimizedAffinity -5.62516975
REMARK minimizedRMSD -1
REMARK  2 active torsions:
REMARK  status: ('A' for Active; 'I' for Inactive)
REMARK    1  A    between atoms: C1_2  and  C2_3 
REMARK    2  A    between atoms: C2_3  and  C3_4 
ROOT
ATOM      1  C3  UNL d   1       0.094  -0.058   0.329  0.00  0.00    -0.075 A 
ATOM      2  C4  UNL d   1       0.703   0.275   1.548  0.00  0.00     0.002 A 
ATOM      3  C5  UNL d   1      -0.071   0.626   2.654  0.00  0.00     0.002 A 
ATOM      4  C6  UNL d   1      -1.460   0.659   2.554  0.00  0.00    -0.004 A 
ATOM      5  C7  UNL d   1      -2.076   0.346   1.344  0.00  0.00     0.002 A 
ATOM      6  C8  UNL d   1      -1.304  -0.010   0.236  0.00  0.00     0.002 A 
ENDROOT
BRANCH   1   7
ATOM      7  C2  UNL d   1       0.925  -0.468  -0.863  0.00  0.00     0.056 C 
BRANCH   7   8
ATOM      8  C1  UNL d   1       0.122  -0.621  -2.160  0.00  0.00     0.007 C 
ATOM      9  C   UNL d   1       0.754   0.096  -3.345  0.00  0.00     0.009 C 
ENDBRANCH   7   8
ENDBRANCH   1   7
TORSDOF 2
ENDMDL
