MODEL 1
REMARK minimizedAffinity -5.56373835
REMARK minimizedRMSD -1
REMARK  2 active torsions:
REMARK  status: ('A' for Active; 'I' for Inactive)
REMARK    1  A    between atoms: C1_2  and  C2_3 
REMARK    2  A    between atoms: C2_3  and  C3_4 
ROOT
ATOM      1  C3  UNL d   1      -0.176  -0.007   0.012  0.00  0.00    -0.075 A 
ATOM      2  C4  UNL d   1       0.828   0.297   0.943  0.00  0.00     0.002 A 
ATOM      3  C5  UNL d   1       0.503   0.874   2.171  0.00  0.00     0.002 A 
ATOM      4  C6  UNL d   1      -0.824   1.163   2.479  0.00  0.00    -0.004 A 
ATOM      5  C7  UNL d   1      -1.828   0.881   1.555  0.00  0.00     0.002 A 
ATOM      6  C8  UNL d   1      -1.506   0.299   0.327  0.00  0.00     0.002 A 
ENDROOT
BRANCH   1   7
ATOM      7  C2  UNL d   1       0.165  -0.659  -1.307  0.00  0.00     0.056 C 
BRANCH   7   8
ATOM      8  C1  UNL d   1       1.079   0.186  -2.202  0.00  0.00     0.007 C 
ATOM      9  C   UNL d   1       0.431   0.577  -3.523  0.00  0.00     0.009 C 
ENDBRANCH   7   8
ENDBRANCH   1   7
TORSDOF 2
ENDMDL
