MODEL 1
REMARK minimizedAffinity -4.09231329
REMARK minimizedRMSD -1
REMARK  2 active torsions:
REMARK  status: ('A' for Active; 'I' for Inactive)
REMARK    1  A    between atoms: C1_2  and  C2_3 
REMARK    2  A    between atoms: C2_3  and  C3_4 
ROOT
ATOM      1  C3  UNL d   1       0.096   0.237   0.141  0.00  0.00    -0.075 A 
ATOM      2  C4  UNL d   1       0.655   1.035   1.150  0.00  0.00     0.002 A 
ATOM      3  C5  UNL d   1      -0.126   1.481   2.215  0.00  0.00     0.002 A 
ATOM      4  C6  UNL d   1      -1.477   1.145   2.281  0.00  0.00    -0.004 A 
ATOM      5  C7  UNL d   1      -2.047   0.366   1.277  0.00  0.00     0.002 A 
ATOM      6  C8  UNL d   1      -1.266  -0.085   0.211  0.00  0.00     0.002 A 
ENDROOT
BRANCH   1   7
ATOM      7  C2  UNL d   1       0.943  -0.274  -0.999  0.00  0.00     0.056 C 
BRANCH   7   8
ATOM      8  C1  UNL d   1       0.311  -0.080  -2.382  0.00  0.00     0.007 C 
ATOM      9  C   UNL d   1       1.213   0.666  -3.356  0.00  0.00     0.009 C 
ENDBRANCH   7   8
ENDBRANCH   1   7
TORSDOF 2
ENDMDL
