MODEL 1
REMARK minimizedAffinity -5.34359694
REMARK minimizedRMSD -1
REMARK  2 active torsions:
REMARK  status: ('A' for Active; 'I' for Inactive)
REMARK    1  A    between atoms: C1_2  and  C2_3 
REMARK    2  A    between atoms: C2_3  and  C3_4 
ROOT
ATOM      1  C3  UNL d   1      -0.231  -0.138  -0.510  0.00  0.00    -0.075 A 
ATOM      2  C4  UNL d   1       0.485   0.405   0.567  0.00  0.00     0.002 A 
ATOM      3  C5  UNL d   1      -0.156   0.687   1.774  0.00  0.00     0.002 A 
ATOM      4  C6  UNL d   1      -1.520   0.440   1.916  0.00  0.00    -0.004 A 
ATOM      5  C7  UNL d   1      -2.244  -0.084   0.848  0.00  0.00     0.002 A 
ATOM      6  C8  UNL d   1      -1.605  -0.371  -0.359  0.00  0.00     0.002 A 
ENDROOT
BRANCH   1   7
ATOM      7  C2  UNL d   1       0.462  -0.472  -1.808  0.00  0.00     0.056 C 
BRANCH   7   8
ATOM      8  C1  UNL d   1       1.147   0.725  -2.477  0.00  0.00     0.007 C 
ATOM      9  C   UNL d   1       0.836   0.841  -3.963  0.00  0.00     0.009 C 
ENDBRANCH   7   8
ENDBRANCH   1   7
TORSDOF 2
ENDMDL
