MODEL 1
REMARK minimizedAffinity -2.3425262
REMARK minimizedRMSD -1
REMARK  2 active torsions:
REMARK  status: ('A' for Active; 'I' for Inactive)
REMARK    1  A    between atoms: C1_2  and  C2_3 
REMARK    2  A    between atoms: C2_3  and  C3_4 
ROOT
ATOM      1  C3  UNL d   1      -0.281  -0.402  -0.480  0.00  0.00    -0.075 A 
ATOM      2  C4  UNL d   1      -1.632  -0.555  -0.825  0.00  0.00     0.002 A 
ATOM      3  C5  UNL d   1      -2.636  -0.056   0.005  0.00  0.00     0.002 A 
ATOM      4  C6  UNL d   1      -2.304   0.591   1.193  0.00  0.00    -0.004 A 
ATOM      5  C7  UNL d   1      -0.966   0.734   1.554  0.00  0.00     0.002 A 
ATOM      6  C8  UNL d   1       0.041   0.240   0.724  0.00  0.00     0.002 A 
ENDROOT
BRANCH   1   7
ATOM      7  C2  UNL d   1       0.811  -0.914  -1.388  0.00  0.00     0.056 C 
BRANCH   7   8
ATOM      8  C1  UNL d   1       0.493  -0.783  -2.882  0.00  0.00     0.007 C 
ATOM      9  C   UNL d   1       1.606  -0.114  -3.677  0.00  0.00     0.009 C 
ENDBRANCH   7   8
ENDBRANCH   1   7
TORSDOF 2
ENDMDL
