MODEL 1
REMARK minimizedAffinity -4.42265606
REMARK minimizedRMSD -1
REMARK  2 active torsions:
REMARK  status: ('A' for Active; 'I' for Inactive)
REMARK    1  A    between atoms: C1_2  and  C2_3 
REMARK    2  A    between atoms: C2_3  and  C3_4 
ROOT
ATOM      1  C3  UNL d   1      -0.633   0.095   0.269  0.00  0.00    -0.075 A 
ATOM      2  C4  UNL d   1       0.349   1.021   0.648  0.00  0.00     0.002 A 
ATOM      3  C5  UNL d   1       0.383   1.525   1.949  0.00  0.00     0.002 A 
ATOM      4  C6  UNL d   1      -0.568   1.119   2.881  0.00  0.00    -0.004 A 
ATOM      5  C7  UNL d   1      -1.559   0.212   2.511  0.00  0.00     0.002 A 
ATOM      6  C8  UNL d   1      -1.593  -0.297   1.212  0.00  0.00     0.002 A 
ENDROOT
BRANCH   1   7
ATOM      7  C2  UNL d   1      -0.658  -0.476  -1.129  0.00  0.00     0.056 C 
BRANCH   7   8
ATOM      8  C1  UNL d   1       0.541  -0.068  -1.991  0.00  0.00     0.007 C 
ATOM      9  C   UNL d   1       0.230  -0.047  -3.481  0.00  0.00     0.009 C 
ENDBRANCH   7   8
ENDBRANCH   1   7
TORSDOF 2
ENDMDL
