MODEL 1
REMARK minimizedAffinity -5.38972664
REMARK minimizedRMSD -1
REMARK  2 active torsions:
REMARK  status: ('A' for Active; 'I' for Inactive)
REMARK    1  A    between atoms: C1_2  and  C2_3 
REMARK    2  A    between atoms: C2_3  and  C3_4 
ROOT
ATOM      1  C3  UNL d   1       0.102  -0.093  -1.270  0.00  0.00    -0.075 A 
ATOM      2  C4  UNL d   1       1.263  -0.785  -1.647  0.00  0.00     0.002 A 
ATOM      3  C5  UNL d   1       1.758  -0.682  -2.947  0.00  0.00     0.002 A 
ATOM      4  C6  UNL d   1       1.095   0.103  -3.888  0.00  0.00    -0.004 A 
ATOM      5  C7  UNL d   1      -0.067   0.782  -3.529  0.00  0.00     0.002 A 
ATOM      6  C8  UNL d   1      -0.563   0.684  -2.227  0.00  0.00     0.002 A 
ENDROOT
BRANCH   1   7
ATOM      7  C2  UNL d   1      -0.422  -0.177   0.144  0.00  0.00     0.056 C 
BRANCH   7   8
ATOM      8  C1  UNL d   1      -1.650   0.701   0.406  0.00  0.00     0.007 C 
ATOM      9  C   UNL d   1      -2.033   0.772   1.878  0.00  0.00     0.009 C 
ENDBRANCH   7   8
ENDBRANCH   1   7
TORSDOF 2
ENDMDL
