MODEL 1
REMARK minimizedAffinity -4.93733454
REMARK minimizedRMSD -1
REMARK  2 active torsions:
REMARK  status: ('A' for Active; 'I' for Inactive)
REMARK    1  A    between atoms: C1_2  and  C2_3 
REMARK    2  A    between atoms: C2_3  and  C3_4 
ROOT
ATOM      1  C3  UNL d   1       0.613   0.535  -0.942  0.00  0.00    -0.075 A 
ATOM      2  C4  UNL d   1       1.708   1.357  -1.246  0.00  0.00     0.002 A 
ATOM      3  C5  UNL d   1       1.991   1.701  -2.568  0.00  0.00     0.002 A 
ATOM      4  C6  UNL d   1       1.191   1.221  -3.602  0.00  0.00    -0.004 A 
ATOM      5  C7  UNL d   1       0.110   0.390  -3.314  0.00  0.00     0.002 A 
ATOM      6  C8  UNL d   1      -0.178   0.048  -1.991  0.00  0.00     0.002 A 
ENDROOT
BRANCH   1   7
ATOM      7  C2  UNL d   1       0.284   0.183   0.489  0.00  0.00     0.056 C 
BRANCH   7   8
ATOM      8  C1  UNL d   1      -1.096   0.665   0.948  0.00  0.00     0.007 C 
ATOM      9  C   UNL d   1      -1.029   1.719   2.046  0.00  0.00     0.009 C 
ENDBRANCH   7   8
ENDBRANCH   1   7
TORSDOF 2
ENDMDL
