MODEL 1
REMARK minimizedAffinity 23.0926914
REMARK minimizedRMSD -1
REMARK  0 active torsions:
REMARK  status: ('A' for Active; 'I' for Inactive)
ROOT
ATOM      1  C   UNL d   1       1.510  -0.060   3.086  0.00  0.00    -0.002 A 
ATOM      2  C1  UNL d   1       1.454  -1.352   2.583  0.00  0.00     0.010 A 
ATOM      3  C2  UNL d   1       0.311  -1.809   1.924  0.00  0.00     0.041 A 
ATOM      4  C3  UNL d   1      -0.785  -0.937   1.777  0.00  0.00    -0.075 A 
ATOM      5  S   UNL d   1      -2.289  -1.278   1.005  0.00  0.00     0.015 SA
ATOM      6  C4  UNL d   1      -2.892   0.284   1.325  0.00  0.00     0.022 A 
ATOM      7  C5  UNL d   1      -1.982   1.059   2.003  0.00  0.00     0.026 A 
ATOM      8  C6  UNL d   1      -0.752   0.369   2.274  0.00  0.00    -0.082 A 
ATOM      9  C7  UNL d   1       0.421   0.802   2.938  0.00  0.00     0.045 A 
ENDROOT
TORSDOF 0
ENDMDL
