MODEL 1
REMARK minimizedAffinity 11.190793
REMARK minimizedRMSD -1
REMARK  0 active torsions:
REMARK  status: ('A' for Active; 'I' for Inactive)
ROOT
ATOM      1  C   UNL d   1      -1.491  -5.999  -4.438  0.00  0.00    -0.002 A 
ATOM      2  C1  UNL d   1      -1.934  -5.626  -3.176  0.00  0.00     0.010 A 
ATOM      3  C2  UNL d   1      -1.932  -4.284  -2.791  0.00  0.00     0.041 A 
ATOM      4  C3  UNL d   1      -1.476  -3.314  -3.704  0.00  0.00    -0.075 A 
ATOM      5  S   UNL d   1      -1.384  -1.611  -3.451  0.00  0.00     0.015 SA
ATOM      6  C4  UNL d   1      -0.757  -1.337  -5.012  0.00  0.00     0.022 A 
ATOM      7  C5  UNL d   1      -0.614  -2.506  -5.722  0.00  0.00     0.026 A 
ATOM      8  C6  UNL d   1      -1.026  -3.664  -4.980  0.00  0.00    -0.082 A 
ATOM      9  C7  UNL d   1      -1.040  -5.033  -5.341  0.00  0.00     0.045 A 
ENDROOT
TORSDOF 0
ENDMDL
