MODEL 1
REMARK minimizedAffinity 4.35390472
REMARK minimizedRMSD -1
REMARK  0 active torsions:
REMARK  status: ('A' for Active; 'I' for Inactive)
ROOT
ATOM      1  C   UNL d   1       1.218  -1.721   3.362  0.00  0.00    -0.002 A 
ATOM      2  C1  UNL d   1       1.870  -0.540   3.687  0.00  0.00     0.010 A 
ATOM      3  C2  UNL d   1       3.009  -0.557   4.495  0.00  0.00     0.041 A 
ATOM      4  C3  UNL d   1       3.486  -1.793   4.974  0.00  0.00    -0.075 A 
ATOM      5  S   UNL d   1       4.863  -2.056   5.977  0.00  0.00     0.015 SA
ATOM      6  C4  UNL d   1       4.618  -3.743   5.998  0.00  0.00     0.022 A 
ATOM      7  C5  UNL d   1       3.517  -4.113   5.262  0.00  0.00     0.026 A 
ATOM      8  C6  UNL d   1       2.847  -2.995   4.659  0.00  0.00    -0.082 A 
ATOM      9  C7  UNL d   1       1.694  -2.945   3.839  0.00  0.00     0.045 A 
ENDROOT
TORSDOF 0
ENDMDL
