MODEL 1
REMARK minimizedAffinity -4.21853971
REMARK minimizedRMSD -1
REMARK  0 active torsions:
REMARK  status: ('A' for Active; 'I' for Inactive)
ROOT
ATOM      1  C1  DEN d   1      -0.637  -1.376   1.443  0.00  0.00     0.130 A 
ATOM      2  C2  DEN d   1      -0.480  -0.756   2.756  0.00  0.00    -0.031 A 
ATOM      3  C3  DEN d   1       0.327   0.469   2.589  0.00  0.00     0.027 A 
ATOM      4  C4  DEN d   1       1.340   1.463   0.436  0.00  0.00     0.027 A 
ATOM      5  C5  DEN d   1       1.485   1.286  -0.923  0.00  0.00    -0.003 A 
ATOM      6  C6  DEN d   1       0.966   0.200  -1.577  0.00  0.00     0.001 A 
ATOM      7  C7  DEN d   1       0.238  -0.728  -0.880  0.00  0.00     0.017 A 
ATOM      8  C8  DEN d   1       0.094  -0.560   0.491  0.00  0.00    -0.094 A 
ATOM      9  C9  DEN d   1       0.616   0.551   1.132  0.00  0.00    -0.072 A 
ENDROOT
TORSDOF 0
ENDMDL
