MODEL 1
REMARK minimizedAffinity -4.40016603
REMARK minimizedRMSD -1
REMARK  0 active torsions:
REMARK  status: ('A' for Active; 'I' for Inactive)
ROOT
ATOM      1  C1  DEN d   1       0.126  -0.601   3.263  0.00  0.00     0.130 A 
ATOM      2  C2  DEN d   1      -1.250  -1.078   3.370  0.00  0.00    -0.031 A 
ATOM      3  C3  DEN d   1      -1.905  -0.878   2.061  0.00  0.00     0.027 A 
ATOM      4  C4  DEN d   1      -0.925   0.114  -0.109  0.00  0.00     0.027 A 
ATOM      5  C5  DEN d   1       0.198   0.668  -0.683  0.00  0.00    -0.003 A 
ATOM      6  C6  DEN d   1       1.355   0.868   0.022  0.00  0.00     0.001 A 
ATOM      7  C7  DEN d   1       1.431   0.469   1.330  0.00  0.00     0.017 A 
ATOM      8  C8  DEN d   1       0.301  -0.084   1.918  0.00  0.00    -0.094 A 
ATOM      9  C9  DEN d   1      -0.856  -0.288   1.185  0.00  0.00    -0.072 A 
ENDROOT
TORSDOF 0
ENDMDL
