MODEL 1
REMARK minimizedAffinity -5.39904356
REMARK minimizedRMSD -1
REMARK  0 active torsions:
REMARK  status: ('A' for Active; 'I' for Inactive)
ROOT
ATOM      1  C1  DEN d   1       1.390   1.115  -0.119  0.00  0.00     0.130 A 
ATOM      2  C2  DEN d   1       1.011   0.801  -1.494  0.00  0.00    -0.031 A 
ATOM      3  C3  DEN d   1      -0.191  -0.055  -1.452  0.00  0.00     0.027 A 
ATOM      4  C4  DEN d   1      -1.499  -0.918   0.598  0.00  0.00     0.027 A 
ATOM      5  C5  DEN d   1      -1.551  -0.925   1.974  0.00  0.00    -0.003 A 
ATOM      6  C6  DEN d   1      -0.614  -0.287   2.744  0.00  0.00     0.001 A 
ATOM      7  C7  DEN d   1       0.389   0.424   2.141  0.00  0.00     0.017 A 
ATOM      8  C8  DEN d   1       0.453   0.430   0.754  0.00  0.00    -0.094 A 
ATOM      9  C9  DEN d   1      -0.510  -0.211  -0.007  0.00  0.00    -0.072 A 
ENDROOT
TORSDOF 0
ENDMDL
