MODEL 1
REMARK minimizedAffinity -5.32190371
REMARK minimizedRMSD -1
REMARK  0 active torsions:
REMARK  status: ('A' for Active; 'I' for Inactive)
ROOT
ATOM      1  C1  DEN d   1      -1.211   1.251  -1.024  0.00  0.00     0.130 A 
ATOM      2  C2  DEN d   1      -2.624   1.093  -0.690  0.00  0.00    -0.031 A 
ATOM      3  C3  DEN d   1      -2.711   0.404   0.613  0.00  0.00     0.027 A 
ATOM      4  C4  DEN d   1      -0.805  -0.425   2.140  0.00  0.00     0.027 A 
ATOM      5  C5  DEN d   1       0.562  -0.527   2.275  0.00  0.00    -0.003 A 
ATOM      6  C6  DEN d   1       1.426  -0.077   1.311  0.00  0.00     0.001 A 
ATOM      7  C7  DEN d   1       0.933   0.536   0.190  0.00  0.00     0.017 A 
ATOM      8  C8  DEN d   1      -0.444   0.636   0.044  0.00  0.00    -0.094 A 
ATOM      9  C9  DEN d   1      -1.301   0.186   1.035  0.00  0.00    -0.072 A 
ENDROOT
TORSDOF 0
ENDMDL
