MODEL 1
REMARK minimizedAffinity -2.41909981
REMARK minimizedRMSD -1
REMARK  0 active torsions:
REMARK  status: ('A' for Active; 'I' for Inactive)
ROOT
ATOM      1  C1  DEN d   1      -1.288  -0.347   2.215  0.00  0.00     0.130 A 
ATOM      2  C2  DEN d   1      -0.343  -0.282   3.327  0.00  0.00    -0.031 A 
ATOM      3  C3  DEN d   1       0.957   0.172   2.795  0.00  0.00     0.027 A 
ATOM      4  C4  DEN d   1       1.594   0.784   0.371  0.00  0.00     0.027 A 
ATOM      5  C5  DEN d   1       1.130   0.874  -0.923  0.00  0.00    -0.003 A 
ATOM      6  C6  DEN d   1      -0.152   0.534  -1.264  0.00  0.00     0.001 A 
ATOM      7  C7  DEN d   1      -1.029   0.130  -0.292  0.00  0.00     0.017 A 
ATOM      8  C8  DEN d   1      -0.566   0.030   1.013  0.00  0.00    -0.094 A 
ATOM      9  C9  DEN d   1       0.730   0.390   1.340  0.00  0.00    -0.072 A 
ENDROOT
TORSDOF 0
ENDMDL
