MODEL 1
REMARK minimizedAffinity -6.1640172
REMARK minimizedRMSD -1
REMARK  0 active torsions:
REMARK  status: ('A' for Active; 'I' for Inactive)
ROOT
ATOM      1  C1  DEN d   1      -0.717   0.143  -0.826  0.00  0.00     0.130 A 
ATOM      2  C2  DEN d   1       0.705   0.477  -0.851  0.00  0.00    -0.031 A 
ATOM      3  C3  DEN d   1       1.178   0.562   0.546  0.00  0.00     0.027 A 
ATOM      4  C4  DEN d   1      -0.145   0.205   2.731  0.00  0.00     0.027 A 
ATOM      5  C5  DEN d   1      -1.383  -0.085   3.259  0.00  0.00    -0.003 A 
ATOM      6  C6  DEN d   1      -2.485  -0.284   2.470  0.00  0.00     0.001 A 
ATOM      7  C7  DEN d   1      -2.360  -0.240   1.106  0.00  0.00     0.017 A 
ATOM      8  C8  DEN d   1      -1.116   0.059   0.567  0.00  0.00    -0.094 A 
ATOM      9  C9  DEN d   1      -0.012   0.244   1.381  0.00  0.00    -0.072 A 
ENDROOT
TORSDOF 0
ENDMDL
