MODEL 1
REMARK minimizedAffinity -6.09678602
REMARK minimizedRMSD -1
REMARK  0 active torsions:
REMARK  status: ('A' for Active; 'I' for Inactive)
ROOT
ATOM      1  C1  DEN d   1      -0.981  -0.002  -0.752  0.00  0.00     0.130 A 
ATOM      2  C2  DEN d   1       0.472  -0.131  -0.807  0.00  0.00    -0.031 A 
ATOM      3  C3  DEN d   1       0.970  -0.282   0.575  0.00  0.00     0.027 A 
ATOM      4  C4  DEN d   1      -0.362  -0.333   2.782  0.00  0.00     0.027 A 
ATOM      5  C5  DEN d   1      -1.621  -0.249   3.336  0.00  0.00    -0.003 A 
ATOM      6  C6  DEN d   1      -2.741  -0.044   2.576  0.00  0.00     0.001 A 
ATOM      7  C7  DEN d   1      -2.630   0.038   1.213  0.00  0.00     0.017 A 
ATOM      8  C8  DEN d   1      -1.364  -0.038   0.648  0.00  0.00    -0.094 A 
ATOM      9  C9  DEN d   1      -0.245  -0.258   1.433  0.00  0.00    -0.072 A 
ENDROOT
TORSDOF 0
ENDMDL
