MODEL 1
REMARK minimizedAffinity -6.0924983
REMARK minimizedRMSD -1
REMARK  0 active torsions:
REMARK  status: ('A' for Active; 'I' for Inactive)
ROOT
ATOM      1  C1  DEN d   1      -2.503   0.808   0.386  0.00  0.00     0.130 A 
ATOM      2  C2  DEN d   1      -3.462   0.681   1.480  0.00  0.00    -0.031 A 
ATOM      3  C3  DEN d   1      -2.743   0.158   2.659  0.00  0.00     0.027 A 
ATOM      4  C4  DEN d   1      -0.250  -0.460   2.897  0.00  0.00     0.027 A 
ATOM      5  C5  DEN d   1       0.956  -0.532   2.236  0.00  0.00    -0.003 A 
ATOM      6  C6  DEN d   1       1.086  -0.199   0.914  0.00  0.00     0.001 A 
ATOM      7  C7  DEN d   1      -0.000   0.267   0.222  0.00  0.00     0.017 A 
ATOM      8  C8  DEN d   1      -1.222   0.336   0.879  0.00  0.00    -0.094 A 
ATOM      9  C9  DEN d   1      -1.330   0.006   2.219  0.00  0.00    -0.072 A 
ENDROOT
TORSDOF 0
ENDMDL
