MODEL 1
REMARK minimizedAffinity -6.07594347
REMARK minimizedRMSD -1
REMARK  0 active torsions:
REMARK  status: ('A' for Active; 'I' for Inactive)
ROOT
ATOM      1  C1  DEN d   1       1.464   0.225   0.452  0.00  0.00     0.130 A 
ATOM      2  C2  DEN d   1       0.867   0.549  -0.841  0.00  0.00    -0.031 A 
ATOM      3  C3  DEN d   1      -0.599   0.440  -0.708  0.00  0.00     0.027 A 
ATOM      4  C4  DEN d   1      -1.997  -0.192   1.366  0.00  0.00     0.027 A 
ATOM      5  C5  DEN d   1      -1.935  -0.562   2.691  0.00  0.00    -0.003 A 
ATOM      6  C6  DEN d   1      -0.745  -0.728   3.348  0.00  0.00     0.001 A 
ATOM      7  C7  DEN d   1       0.432  -0.479   2.693  0.00  0.00     0.017 A 
ATOM      8  C8  DEN d   1       0.378  -0.112   1.355  0.00  0.00    -0.094 A 
ATOM      9  C9  DEN d   1      -0.836   0.062   0.712  0.00  0.00    -0.072 A 
ENDROOT
TORSDOF 0
ENDMDL
