MODEL 1
REMARK minimizedAffinity -1.85551906
REMARK minimizedRMSD -1
REMARK  0 active torsions:
REMARK  status: ('A' for Active; 'I' for Inactive)
ROOT
ATOM      1  C1  DEN d   1       0.967   1.010   0.222  0.00  0.00     0.130 A 
ATOM      2  C2  DEN d   1       0.301   0.760  -1.053  0.00  0.00    -0.031 A 
ATOM      3  C3  DEN d   1      -0.850  -0.129  -0.800  0.00  0.00     0.027 A 
ATOM      4  C4  DEN d   1      -1.666  -1.133   1.432  0.00  0.00     0.027 A 
ATOM      5  C5  DEN d   1      -1.416  -1.214   2.784  0.00  0.00    -0.003 A 
ATOM      6  C6  DEN d   1      -0.343  -0.592   3.367  0.00  0.00     0.001 A 
ATOM      7  C7  DEN d   1       0.494   0.176   2.602  0.00  0.00     0.017 A 
ATOM      8  C8  DEN d   1       0.253   0.257   1.237  0.00  0.00    -0.094 A 
ATOM      9  C9  DEN d   1      -0.844  -0.369   0.668  0.00  0.00    -0.072 A 
ENDROOT
TORSDOF 0
ENDMDL
