MODEL 1
REMARK minimizedAffinity -0.996899605
REMARK minimizedRMSD -1
REMARK  0 active torsions:
REMARK  status: ('A' for Active; 'I' for Inactive)
ROOT
ATOM      1  C1  DEN d   1      -1.632  -2.004   0.863  0.00  0.00     0.130 A 
ATOM      2  C2  DEN d   1      -1.888  -2.110   2.297  0.00  0.00    -0.031 A 
ATOM      3  C3  DEN d   1      -1.139  -1.033   2.975  0.00  0.00     0.027 A 
ATOM      4  C4  DEN d   1       0.383   0.780   1.950  0.00  0.00     0.027 A 
ATOM      5  C5  DEN d   1       0.916   1.265   0.776  0.00  0.00    -0.003 A 
ATOM      6  C6  DEN d   1       0.666   0.680  -0.436  0.00  0.00     0.001 A 
ATOM      7  C7  DEN d   1      -0.174  -0.399  -0.509  0.00  0.00     0.017 A 
ATOM      8  C8  DEN d   1      -0.709  -0.900   0.671  0.00  0.00    -0.094 A 
ATOM      9  C9  DEN d   1      -0.455  -0.286   1.885  0.00  0.00    -0.072 A 
ENDROOT
TORSDOF 0
ENDMDL
