MODEL 1
REMARK minimizedAffinity 0.160593182
REMARK minimizedRMSD -1
REMARK  0 active torsions:
REMARK  status: ('A' for Active; 'I' for Inactive)
ROOT
ATOM      1  C1  DEN d   1      -0.628   0.553   1.969  0.00  0.00     0.130 A 
ATOM      2  C2  DEN d   1       0.816   0.368   2.085  0.00  0.00    -0.031 A 
ATOM      3  C3  DEN d   1       1.390   0.382   0.724  0.00  0.00     0.027 A 
ATOM      4  C4  DEN d   1       0.189   0.675  -1.539  0.00  0.00     0.027 A 
ATOM      5  C5  DEN d   1      -1.035   0.852  -2.146  0.00  0.00    -0.003 A 
ATOM      6  C6  DEN d   1      -2.203   0.907  -1.433  0.00  0.00     0.001 A 
ATOM      7  C7  DEN d   1      -2.167   0.829  -0.065  0.00  0.00     0.017 A 
ATOM      8  C8  DEN d   1      -0.938   0.643   0.553  0.00  0.00    -0.094 A 
ATOM      9  C9  DEN d   1       0.233   0.602  -0.185  0.00  0.00    -0.072 A 
ENDROOT
TORSDOF 0
ENDMDL
