MODEL 1
REMARK minimizedAffinity -5.71217012
REMARK minimizedRMSD -1
REMARK  0 active torsions:
REMARK  status: ('A' for Active; 'I' for Inactive)
ROOT
ATOM      1  C1  DEN d   1       1.340   0.375   0.263  0.00  0.00     0.130 A 
ATOM      2  C2  DEN d   1       0.709   0.417  -1.053  0.00  0.00    -0.031 A 
ATOM      3  C3  DEN d   1      -0.722   0.095  -0.884  0.00  0.00     0.027 A 
ATOM      4  C4  DEN d   1      -2.016  -0.459   1.277  0.00  0.00     0.027 A 
ATOM      5  C5  DEN d   1      -1.905  -0.628   2.640  0.00  0.00    -0.003 A 
ATOM      6  C6  DEN d   1      -0.709  -0.509   3.295  0.00  0.00     0.001 A 
ATOM      7  C7  DEN d   1       0.418  -0.168   2.595  0.00  0.00     0.017 A 
ATOM      8  C8  DEN d   1       0.316  -0.003   1.220  0.00  0.00    -0.094 A 
ATOM      9  C9  DEN d   1      -0.905  -0.116   0.577  0.00  0.00    -0.072 A 
ENDROOT
TORSDOF 0
ENDMDL
