MODEL 1
REMARK minimizedAffinity -3.74075317
REMARK minimizedRMSD -1
REMARK  0 active torsions:
REMARK  status: ('A' for Active; 'I' for Inactive)
ROOT
ATOM      1  C1  DEN d   1       1.199   0.747   0.284  0.00  0.00     0.130 A 
ATOM      2  C2  DEN d   1       0.659   0.660  -1.070  0.00  0.00    -0.031 A 
ATOM      3  C3  DEN d   1      -0.743   0.207  -0.974  0.00  0.00     0.027 A 
ATOM      4  C4  DEN d   1      -2.125  -0.359   1.129  0.00  0.00     0.027 A 
ATOM      5  C5  DEN d   1      -2.093  -0.445   2.504  0.00  0.00    -0.003 A 
ATOM      6  C6  DEN d   1      -0.961  -0.176   3.226  0.00  0.00     0.001 A 
ATOM      7  C7  DEN d   1       0.174   0.238   2.580  0.00  0.00     0.017 A 
ATOM      8  C8  DEN d   1       0.151   0.321   1.194  0.00  0.00    -0.094 A 
ATOM      9  C9  DEN d   1      -1.006   0.056   0.483  0.00  0.00    -0.072 A 
ENDROOT
TORSDOF 0
ENDMDL
