MODEL 1
REMARK minimizedAffinity -1.75479436
REMARK minimizedRMSD -1
REMARK  1 active torsions:
REMARK  status: ('A' for Active; 'I' for Inactive)
REMARK    1  A    between atoms: C1_2  and  C2_3 
ROOT
ATOM      1  C2  UNL d   1      -0.313  -0.056   0.402  0.00  0.00    -0.076 A 
ATOM      2  C3  UNL d   1       0.177  -1.309   0.808  0.00  0.00     0.004 A 
ATOM      3  C4  UNL d   1       1.116  -1.996   0.040  0.00  0.00    -0.003 A 
ATOM      4  C5  UNL d   1       1.581  -1.441  -1.147  0.00  0.00     0.000 A 
ATOM      5  C6  UNL d   1       1.119  -0.190  -1.556  0.00  0.00     0.000 A 
ATOM      6  C7  UNL d   1       0.185   0.523  -0.785  0.00  0.00    -0.073 A 
ATOM      7  C8  UNL d   1      -0.283   1.865  -1.278  0.00  0.00     0.078 C 
ENDROOT
BRANCH   1   8
ATOM      8  C1  UNL d   1      -1.350   0.630   1.261  0.00  0.00     0.053 C 
ATOM      9  C   UNL d   1      -0.938   0.705   2.724  0.00  0.00     0.018 C 
ENDBRANCH   1   8
TORSDOF 1
ENDMDL
