MODEL 1
REMARK minimizedAffinity -3.54522681
REMARK minimizedRMSD -1
REMARK  1 active torsions:
REMARK  status: ('A' for Active; 'I' for Inactive)
REMARK    1  A    between atoms: C1_2  and  C2_3 
ROOT
ATOM      1  C2  UNL d   1      -0.318  -0.100  -0.186  0.00  0.00    -0.076 A 
ATOM      2  C3  UNL d   1      -0.076  -1.369   0.370  0.00  0.00     0.004 A 
ATOM      3  C4  UNL d   1       0.918  -2.199  -0.145  0.00  0.00    -0.003 A 
ATOM      4  C5  UNL d   1       1.687  -1.775  -1.223  0.00  0.00     0.000 A 
ATOM      5  C6  UNL d   1       1.472  -0.513  -1.775  0.00  0.00     0.000 A 
ATOM      6  C7  UNL d   1       0.485   0.344  -1.259  0.00  0.00    -0.073 A 
ATOM      7  C8  UNL d   1       0.292   1.692  -1.897  0.00  0.00     0.078 C 
ENDROOT
BRANCH   1   8
ATOM      8  C1  UNL d   1      -1.428   0.745   0.396  0.00  0.00     0.053 C 
ATOM      9  C   UNL d   1      -1.672   0.454   1.869  0.00  0.00     0.018 C 
ENDBRANCH   1   8
TORSDOF 1
ENDMDL
