MODEL 1
REMARK minimizedAffinity 11.4156075
REMARK minimizedRMSD -1
REMARK  1 active torsions:
REMARK  status: ('A' for Active; 'I' for Inactive)
REMARK    1  A    between atoms: C1_2  and  C2_3 
ROOT
ATOM      1  C2  UNL d   1      -3.625  -1.741   3.208  0.00  0.00    -0.076 A 
ATOM      2  C3  UNL d   1      -3.100  -1.063   2.094  0.00  0.00     0.004 A 
ATOM      3  C4  UNL d   1      -2.255   0.033   2.254  0.00  0.00    -0.003 A 
ATOM      4  C5  UNL d   1      -1.921   0.470   3.531  0.00  0.00     0.000 A 
ATOM      5  C6  UNL d   1      -2.418  -0.202   4.647  0.00  0.00     0.000 A 
ATOM      6  C7  UNL d   1      -3.258  -1.319   4.503  0.00  0.00    -0.073 A 
ATOM      7  C8  UNL d   1      -3.770  -2.002   5.742  0.00  0.00     0.078 C 
ENDROOT
BRANCH   1   8
ATOM      8  C1  UNL d   1      -4.558  -2.908   2.972  0.00  0.00     0.053 C 
ATOM      9  C   UNL d   1      -6.000  -2.582   3.331  0.00  0.00     0.018 C 
ENDBRANCH   1   8
TORSDOF 1
ENDMDL
