MODEL 1
REMARK minimizedAffinity -3.25977302
REMARK minimizedRMSD -1
REMARK  1 active torsions:
REMARK  status: ('A' for Active; 'I' for Inactive)
REMARK    1  A    between atoms: C1_2  and  C2_3 
ROOT
ATOM      1  C2  UNL d   1       1.104  -0.985  -0.691  0.00  0.00    -0.076 A 
ATOM      2  C3  UNL d   1       0.883   0.397  -0.830  0.00  0.00     0.004 A 
ATOM      3  C4  UNL d   1      -0.239   1.004  -0.269  0.00  0.00    -0.003 A 
ATOM      4  C5  UNL d   1      -1.159   0.240   0.441  0.00  0.00     0.000 A 
ATOM      5  C6  UNL d   1      -0.947  -1.129   0.603  0.00  0.00     0.000 A 
ATOM      6  C7  UNL d   1       0.187  -1.754   0.058  0.00  0.00    -0.073 A 
ATOM      7  C8  UNL d   1       0.363  -3.234   0.258  0.00  0.00     0.078 C 
ENDROOT
BRANCH   1   8
ATOM      8  C1  UNL d   1       2.324  -1.593  -1.344  0.00  0.00     0.053 C 
ATOM      9  C   UNL d   1       3.208  -0.550  -2.012  0.00  0.00     0.018 C 
ENDBRANCH   1   8
TORSDOF 1
ENDMDL
