MODEL 1
REMARK minimizedAffinity -3.65609765
REMARK minimizedRMSD -1
REMARK  1 active torsions:
REMARK  status: ('A' for Active; 'I' for Inactive)
REMARK    1  A    between atoms: C1_2  and  C2_3 
ROOT
ATOM      1  C2  UNL d   1      -0.334  -0.036  -0.374  0.00  0.00    -0.076 A 
ATOM      2  C3  UNL d   1       0.442  -1.207  -0.320  0.00  0.00     0.004 A 
ATOM      3  C4  UNL d   1       1.575  -1.355  -1.117  0.00  0.00    -0.003 A 
ATOM      4  C5  UNL d   1       1.953  -0.333  -1.982  0.00  0.00     0.000 A 
ATOM      5  C6  UNL d   1       1.205   0.843  -2.036  0.00  0.00     0.000 A 
ATOM      6  C7  UNL d   1       0.069   1.014  -1.227  0.00  0.00    -0.073 A 
ATOM      7  C8  UNL d   1      -0.704   2.301  -1.330  0.00  0.00     0.078 C 
ENDROOT
BRANCH   1   8
ATOM      8  C1  UNL d   1      -1.568   0.056   0.494  0.00  0.00     0.053 C 
ATOM      9  C   UNL d   1      -1.281   0.681   1.850  0.00  0.00     0.018 C 
ENDBRANCH   1   8
TORSDOF 1
ENDMDL
