MODEL 1
REMARK minimizedAffinity -4.28804731
REMARK minimizedRMSD -1
REMARK  1 active torsions:
REMARK  status: ('A' for Active; 'I' for Inactive)
REMARK    1  A    between atoms: C1_2  and  C2_3 
ROOT
ATOM      1  C2  UNL d   1       0.238   0.266  -1.573  0.00  0.00    -0.076 A 
ATOM      2  C3  UNL d   1       0.302  -0.946  -0.863  0.00  0.00     0.004 A 
ATOM      3  C4  UNL d   1      -0.372  -1.105   0.347  0.00  0.00    -0.003 A 
ATOM      4  C5  UNL d   1      -1.121  -0.056   0.866  0.00  0.00     0.000 A 
ATOM      5  C6  UNL d   1      -1.210   1.148   0.167  0.00  0.00     0.000 A 
ATOM      6  C7  UNL d   1      -0.550   1.319  -1.062  0.00  0.00    -0.073 A 
ATOM      7  C8  UNL d   1      -0.675   2.640  -1.771  0.00  0.00     0.078 C 
ENDROOT
BRANCH   1   8
ATOM      8  C1  UNL d   1       1.012   0.389  -2.866  0.00  0.00     0.053 C 
ATOM      9  C   UNL d   1       2.175  -0.588  -2.944  0.00  0.00     0.018 C 
ENDBRANCH   1   8
TORSDOF 1
ENDMDL
