MODEL 1
REMARK minimizedAffinity -3.73204851
REMARK minimizedRMSD -1
REMARK  1 active torsions:
REMARK  status: ('A' for Active; 'I' for Inactive)
REMARK    1  A    between atoms: C1_2  and  C2_3 
ROOT
ATOM      1  C2  UNL d   1      -0.148  -0.045  -0.261  0.00  0.00    -0.076 A 
ATOM      2  C3  UNL d   1      -0.149  -1.376   0.190  0.00  0.00     0.004 A 
ATOM      3  C4  UNL d   1       0.927  -2.222  -0.070  0.00  0.00    -0.003 A 
ATOM      4  C5  UNL d   1       2.023  -1.751  -0.784  0.00  0.00     0.000 A 
ATOM      5  C6  UNL d   1       2.049  -0.428  -1.224  0.00  0.00     0.000 A 
ATOM      6  C7  UNL d   1       0.979   0.443  -0.957  0.00  0.00    -0.073 A 
ATOM      7  C8  UNL d   1       1.057   1.859  -1.460  0.00  0.00     0.078 C 
ENDROOT
BRANCH   1   8
ATOM      8  C1  UNL d   1      -1.355   0.819   0.027  0.00  0.00     0.053 C 
ATOM      9  C   UNL d   1      -1.886   0.625   1.439  0.00  0.00     0.018 C 
ENDBRANCH   1   8
TORSDOF 1
ENDMDL
