MODEL 1
REMARK minimizedAffinity -4.38032103
REMARK minimizedRMSD -1
REMARK  1 active torsions:
REMARK  status: ('A' for Active; 'I' for Inactive)
REMARK    1  A    between atoms: C1_2  and  C2_3 
ROOT
ATOM      1  C2  UNL d   1       1.379  -0.290  -0.507  0.00  0.00    -0.076 A 
ATOM      2  C3  UNL d   1       2.655  -0.500  -1.057  0.00  0.00     0.004 A 
ATOM      3  C4  UNL d   1       3.228   0.434  -1.918  0.00  0.00    -0.003 A 
ATOM      4  C5  UNL d   1       2.534   1.595  -2.242  0.00  0.00     0.000 A 
ATOM      5  C6  UNL d   1       1.274   1.828  -1.691  0.00  0.00     0.000 A 
ATOM      6  C7  UNL d   1       0.689   0.904  -0.809  0.00  0.00    -0.073 A 
ATOM      7  C8  UNL d   1      -0.674   1.203  -0.249  0.00  0.00     0.078 C 
ENDROOT
BRANCH   1   8
ATOM      8  C1  UNL d   1       0.797  -1.352   0.399  0.00  0.00     0.053 C 
ATOM      9  C   UNL d   1      -0.083  -2.339  -0.351  0.00  0.00     0.018 C 
ENDBRANCH   1   8
TORSDOF 1
ENDMDL
