MODEL 1
REMARK minimizedAffinity -0.715047538
REMARK minimizedRMSD -1
REMARK  1 active torsions:
REMARK  status: ('A' for Active; 'I' for Inactive)
REMARK    1  A    between atoms: C1_2  and  C2_3 
ROOT
ATOM      1  C2  UNL d   1       0.073   0.836  -1.412  0.00  0.00    -0.076 A 
ATOM      2  C3  UNL d   1       0.980   0.603  -2.460  0.00  0.00     0.004 A 
ATOM      3  C4  UNL d   1       1.722  -0.575  -2.519  0.00  0.00    -0.003 A 
ATOM      4  C5  UNL d   1       1.567  -1.542  -1.531  0.00  0.00     0.000 A 
ATOM      5  C6  UNL d   1       0.659  -1.335  -0.493  0.00  0.00     0.000 A 
ATOM      6  C7  UNL d   1      -0.108  -0.159  -0.428  0.00  0.00    -0.073 A 
ATOM      7  C8  UNL d   1      -1.068   0.013   0.717  0.00  0.00     0.078 C 
ENDROOT
BRANCH   1   8
ATOM      8  C1  UNL d   1      -0.683   2.145  -1.385  0.00  0.00     0.053 C 
ATOM      9  C   UNL d   1       0.077   3.271  -2.070  0.00  0.00     0.018 C 
ENDBRANCH   1   8
TORSDOF 1
ENDMDL
