MODEL 1
REMARK minimizedAffinity -3.6608119
REMARK minimizedRMSD -1
REMARK  1 active torsions:
REMARK  status: ('A' for Active; 'I' for Inactive)
REMARK    1  A    between atoms: C1_2  and  C2_3 
ROOT
ATOM      1  C2  UNL d   1       2.713  -0.612  -3.062  0.00  0.00    -0.076 A 
ATOM      2  C3  UNL d   1       3.718  -0.550  -4.044  0.00  0.00     0.004 A 
ATOM      3  C4  UNL d   1       4.148   0.674  -4.553  0.00  0.00    -0.003 A 
ATOM      4  C5  UNL d   1       3.581   1.856  -4.089  0.00  0.00     0.000 A 
ATOM      5  C6  UNL d   1       2.597   1.814  -3.103  0.00  0.00     0.000 A 
ATOM      6  C7  UNL d   1       2.163   0.589  -2.566  0.00  0.00    -0.073 A 
ATOM      7  C8  UNL d   1       1.093   0.603  -1.509  0.00  0.00     0.078 C 
ENDROOT
BRANCH   1   8
ATOM      8  C1  UNL d   1       2.268  -1.969  -2.566  0.00  0.00     0.053 C 
ATOM      9  C   UNL d   1       1.886  -2.907  -3.701  0.00  0.00     0.018 C 
ENDBRANCH   1   8
TORSDOF 1
ENDMDL
