MODEL 1
REMARK minimizedAffinity 8.07816505
REMARK minimizedRMSD -1
REMARK  0 active torsions:
REMARK  status: ('A' for Active; 'I' for Inactive)
ROOT
ATOM      1  C   UNL d   1       1.606  -1.369   0.930  0.00  0.00     0.020 A 
ATOM      2  C1  UNL d   1       2.558  -0.624   0.234  0.00  0.00     0.020 A 
ATOM      3  C2  UNL d   1       3.888  -1.046   0.202  0.00  0.00     0.034 A 
ATOM      4  C3  UNL d   1       4.271  -2.217   0.867  0.00  0.00     0.017 A 
ATOM      5  C4  UNL d   1       3.316  -2.964   1.565  0.00  0.00     0.017 A 
ATOM      6  C5  UNL d   1       1.985  -2.537   1.594  0.00  0.00     0.034 A 
ATOM      7 Cl   UNL d   1       3.712  -4.419   2.409  0.00  0.00    -0.070 Cl
ATOM      8 Cl1  UNL d   1       5.934  -2.680   0.784  0.00  0.00    -0.070 Cl
ENDROOT
TORSDOF 0
ENDMDL
