MODEL 1
REMARK minimizedAffinity 11.1004829
REMARK minimizedRMSD -1
REMARK  0 active torsions:
REMARK  status: ('A' for Active; 'I' for Inactive)
ROOT
ATOM      1  C   UNL d   1      -2.155   2.116  -3.761  0.00  0.00     0.020 A 
ATOM      2  C1  UNL d   1      -1.954   3.480  -3.964  0.00  0.00     0.020 A 
ATOM      3  C2  UNL d   1      -0.783   3.930  -4.577  0.00  0.00     0.034 A 
ATOM      4  C3  UNL d   1       0.192   3.014  -4.989  0.00  0.00     0.017 A 
ATOM      5  C4  UNL d   1      -0.010   1.645  -4.785  0.00  0.00     0.017 A 
ATOM      6  C5  UNL d   1      -1.185   1.200  -4.170  0.00  0.00     0.034 A 
ATOM      7 Cl   UNL d   1       1.147   0.455  -5.266  0.00  0.00    -0.070 Cl
ATOM      8 Cl1  UNL d   1       1.616   3.641  -5.741  0.00  0.00    -0.070 Cl
ENDROOT
TORSDOF 0
ENDMDL
