MODEL 1
REMARK minimizedAffinity 5.90564489
REMARK minimizedRMSD -1
REMARK  0 active torsions:
REMARK  status: ('A' for Active; 'I' for Inactive)
ROOT
ATOM      1  C   UNL d   1       1.840   4.795   3.953  0.00  0.00     0.020 A 
ATOM      2  C1  UNL d   1       1.943   4.795   5.344  0.00  0.00     0.020 A 
ATOM      3  C2  UNL d   1       3.142   5.169   5.955  0.00  0.00     0.034 A 
ATOM      4  C3  UNL d   1       4.242   5.544   5.176  0.00  0.00     0.017 A 
ATOM      5  C4  UNL d   1       4.138   5.543   3.780  0.00  0.00     0.017 A 
ATOM      6  C5  UNL d   1       2.936   5.168   3.173  0.00  0.00     0.034 A 
ATOM      7 Cl   UNL d   1       5.453   5.993   2.753  0.00  0.00    -0.070 Cl
ATOM      8 Cl1  UNL d   1       5.693   5.995   5.999  0.00  0.00    -0.070 Cl
ENDROOT
TORSDOF 0
ENDMDL
