MODEL 1
REMARK minimizedAffinity 3.52081299
REMARK minimizedRMSD -1
REMARK  0 active torsions:
REMARK  status: ('A' for Active; 'I' for Inactive)
ROOT
ATOM      1  C   UNL d   1       3.697   5.999   5.481  0.00  0.00     0.020 A 
ATOM      2  C1  UNL d   1       3.977   5.390   4.259  0.00  0.00     0.020 A 
ATOM      3  C2  UNL d   1       2.962   4.740   3.554  0.00  0.00     0.034 A 
ATOM      4  C3  UNL d   1       1.662   4.698   4.070  0.00  0.00     0.017 A 
ATOM      5  C4  UNL d   1       1.382   5.310   5.297  0.00  0.00     0.017 A 
ATOM      6  C5  UNL d   1       2.402   5.960   5.999  0.00  0.00     0.034 A 
ATOM      7 Cl   UNL d   1      -0.198   5.300   5.999  0.00  0.00    -0.070 Cl
ATOM      8 Cl1  UNL d   1       0.456   3.877   3.145  0.00  0.00    -0.070 Cl
ENDROOT
TORSDOF 0
ENDMDL
