MODEL 1
REMARK minimizedAffinity 3.42379808
REMARK minimizedRMSD -1
REMARK  0 active torsions:
REMARK  status: ('A' for Active; 'I' for Inactive)
ROOT
ATOM      1  C   UNL d   1       2.016   5.645   5.519  0.00  0.00     0.020 A 
ATOM      2  C1  UNL d   1       1.890   4.856   4.376  0.00  0.00     0.020 A 
ATOM      3  C2  UNL d   1       3.031   4.400   3.713  0.00  0.00     0.034 A 
ATOM      4  C3  UNL d   1       4.303   4.733   4.192  0.00  0.00     0.017 A 
ATOM      5  C4  UNL d   1       4.429   5.524   5.339  0.00  0.00     0.017 A 
ATOM      6  C5  UNL d   1       3.283   5.978   5.999  0.00  0.00     0.034 A 
ATOM      7 Cl   UNL d   1       5.965   5.976   5.990  0.00  0.00    -0.070 Cl
ATOM      8 Cl1  UNL d   1       5.671   4.134   3.321  0.00  0.00    -0.070 Cl
ENDROOT
TORSDOF 0
ENDMDL
