MODEL 1
REMARK minimizedAffinity 14.6124554
REMARK minimizedRMSD -1
REMARK  0 active torsions:
REMARK  status: ('A' for Active; 'I' for Inactive)
ROOT
ATOM      1  C   UNL d   1       5.748   5.983   5.343  0.00  0.00     0.020 A 
ATOM      2  C1  UNL d   1       5.891   5.801   3.968  0.00  0.00     0.020 A 
ATOM      3  C2  UNL d   1       4.792   5.414   3.197  0.00  0.00     0.034 A 
ATOM      4  C3  UNL d   1       3.547   5.208   3.801  0.00  0.00     0.017 A 
ATOM      5  C4  UNL d   1       3.404   5.391   5.181  0.00  0.00     0.017 A 
ATOM      6  C5  UNL d   1       4.507   5.779   5.948  0.00  0.00     0.034 A 
ATOM      7 Cl   UNL d   1       1.899   5.157   5.997  0.00  0.00    -0.070 Cl
ATOM      8 Cl1  UNL d   1       2.231   4.731   2.786  0.00  0.00    -0.070 Cl
ENDROOT
TORSDOF 0
ENDMDL
