MODEL 1
REMARK minimizedAffinity -3.35656548
REMARK minimizedRMSD -1
REMARK  0 active torsions:
REMARK  status: ('A' for Active; 'I' for Inactive)
ROOT
ATOM      1  C   UNL d   1       0.051   5.991   5.725  0.00  0.00     0.020 A 
ATOM      2  C1  UNL d   1      -0.775   5.281   4.855  0.00  0.00     0.020 A 
ATOM      3  C2  UNL d   1      -0.221   4.578   3.783  0.00  0.00     0.034 A 
ATOM      4  C3  UNL d   1       1.164   4.585   3.577  0.00  0.00     0.017 A 
ATOM      5  C4  UNL d   1       1.992   5.298   4.451  0.00  0.00     0.017 A 
ATOM      6  C5  UNL d   1       1.432   6.000   5.523  0.00  0.00     0.034 A 
ATOM      7 Cl   UNL d   1       3.709   5.353   4.262  0.00  0.00    -0.070 Cl
ATOM      8 Cl1  UNL d   1       1.780   3.694   2.231  0.00  0.00    -0.070 Cl
ENDROOT
TORSDOF 0
ENDMDL
