MODEL 1
REMARK minimizedAffinity 10.0498323
REMARK minimizedRMSD -1
REMARK  0 active torsions:
REMARK  status: ('A' for Active; 'I' for Inactive)
ROOT
ATOM      1  C   UNL d   1       5.751   5.685   5.152  0.00  0.00     0.020 A 
ATOM      2  C1  UNL d   1       5.770   5.918   3.777  0.00  0.00     0.020 A 
ATOM      3  C2  UNL d   1       4.571   5.999   3.066  0.00  0.00     0.034 A 
ATOM      4  C3  UNL d   1       3.348   5.847   3.729  0.00  0.00     0.017 A 
ATOM      5  C4  UNL d   1       3.330   5.613   5.109  0.00  0.00     0.017 A 
ATOM      6  C5  UNL d   1       4.533   5.532   5.816  0.00  0.00     0.034 A 
ATOM      7 Cl   UNL d   1       1.860   5.414   5.996  0.00  0.00    -0.070 Cl
ATOM      8 Cl1  UNL d   1       1.904   5.959   2.787  0.00  0.00    -0.070 Cl
ENDROOT
TORSDOF 0
ENDMDL
