MODEL 1
REMARK minimizedAffinity -1.4415592
REMARK minimizedRMSD -1
REMARK  0 active torsions:
REMARK  status: ('A' for Active; 'I' for Inactive)
ROOT
ATOM      1  C   UNL d   1       4.834   5.659   5.524  0.00  0.00     0.020 A 
ATOM      2  C1  UNL d   1       4.961   4.859   4.389  0.00  0.00     0.020 A 
ATOM      3  C2  UNL d   1       3.820   4.397   3.730  0.00  0.00     0.034 A 
ATOM      4  C3  UNL d   1       2.547   4.735   4.204  0.00  0.00     0.017 A 
ATOM      5  C4  UNL d   1       2.421   5.539   5.343  0.00  0.00     0.017 A 
ATOM      6  C5  UNL d   1       3.567   5.998   6.000  0.00  0.00     0.034 A 
ATOM      7 Cl   UNL d   1       0.885   5.998   5.988  0.00  0.00    -0.070 Cl
ATOM      8 Cl1  UNL d   1       1.180   4.130   3.339  0.00  0.00    -0.070 Cl
ENDROOT
TORSDOF 0
ENDMDL
