MODEL 1
REMARK minimizedAffinity 15.8516245
REMARK minimizedRMSD -1
REMARK  0 active torsions:
REMARK  status: ('A' for Active; 'I' for Inactive)
ROOT
ATOM      1  C   UNL d   1      -4.651   5.263  -5.412  0.00  0.00     0.020 A 
ATOM      2  C1  UNL d   1      -5.616   4.444  -5.999  0.00  0.00     0.020 A 
ATOM      3  C2  UNL d   1      -5.662   3.084  -5.685  0.00  0.00     0.034 A 
ATOM      4  C3  UNL d   1      -4.741   2.539  -4.782  0.00  0.00     0.017 A 
ATOM      5  C4  UNL d   1      -3.774   3.361  -4.194  0.00  0.00     0.017 A 
ATOM      6  C5  UNL d   1      -3.732   4.722  -4.512  0.00  0.00     0.034 A 
ATOM      7 Cl   UNL d   1      -2.605   2.760  -3.071  0.00  0.00    -0.070 Cl
ATOM      8 Cl1  UNL d   1      -4.857   0.849  -4.440  0.00  0.00    -0.070 Cl
ENDROOT
TORSDOF 0
ENDMDL
