MODEL 1
REMARK minimizedAffinity 5.54977608
REMARK minimizedRMSD -1
REMARK  0 active torsions:
REMARK  status: ('A' for Active; 'I' for Inactive)
ROOT
ATOM      1  O1  BZF d   1       0.538  -1.128   1.976  0.00  0.00    -0.204 OA
ATOM      2  C2  BZF d   1      -0.380  -0.909   2.985  0.00  0.00     0.174 A 
ATOM      3  C3  BZF d   1      -1.523  -0.393   2.489  0.00  0.00    -0.012 A 
ATOM      4  C3A BZF d   1      -1.340  -0.369   1.070  0.00  0.00    -0.107 A 
ATOM      5  C4  BZF d   1      -2.131   0.022   0.028  0.00  0.00     0.055 A 
ATOM      6  C5  BZF d   1      -1.627  -0.014  -1.233  0.00  0.00    -0.016 A 
ATOM      7  C6  BZF d   1      -0.336  -0.429  -1.488  0.00  0.00     0.022 A 
ATOM      8  C7  BZF d   1       0.485  -0.831  -0.488  0.00  0.00     0.029 A 
ATOM      9  C7A BZF d   1      -0.033  -0.827   0.785  0.00  0.00     0.058 A 
ENDROOT
TORSDOF 0
ENDMDL
