MODEL 1
REMARK minimizedAffinity 1.2888875
REMARK minimizedRMSD -1
REMARK  0 active torsions:
REMARK  status: ('A' for Active; 'I' for Inactive)
ROOT
ATOM      1  O1  BZF d   1       5.389   5.991   4.395  0.00  0.00    -0.204 OA
ATOM      2  C2  BZF d   1       5.492   5.928   3.019  0.00  0.00     0.174 A 
ATOM      3  C3  BZF d   1       4.273   5.815   2.453  0.00  0.00    -0.012 A 
ATOM      4  C3A BZF d   1       3.345   5.899   3.538  0.00  0.00    -0.107 A 
ATOM      5  C4  BZF d   1       1.982   5.867   3.612  0.00  0.00     0.055 A 
ATOM      6  C5  BZF d   1       1.385   5.901   4.832  0.00  0.00    -0.016 A 
ATOM      7  C6  BZF d   1       2.120   5.961   5.998  0.00  0.00     0.022 A 
ATOM      8  C7  BZF d   1       3.475   6.000   5.975  0.00  0.00     0.029 A 
ATOM      9  C7A BZF d   1       4.079   6.000   4.742  0.00  0.00     0.058 A 
ENDROOT
TORSDOF 0
ENDMDL
