MODEL 1
REMARK minimizedAffinity 3.69007421
REMARK minimizedRMSD -1
REMARK  0 active torsions:
REMARK  status: ('A' for Active; 'I' for Inactive)
ROOT
ATOM      1  O1  BZF d   1      -1.951  -1.863   3.072  0.00  0.00    -0.204 OA
ATOM      2  C2  BZF d   1      -1.871  -2.976   3.886  0.00  0.00     0.174 A 
ATOM      3  C3  BZF d   1      -0.743  -3.671   3.636  0.00  0.00    -0.012 A 
ATOM      4  C3A BZF d   1      -0.031  -2.897   2.666  0.00  0.00    -0.107 A 
ATOM      5  C4  BZF d   1       1.169  -3.058   2.034  0.00  0.00     0.055 A 
ATOM      6  C5  BZF d   1       1.542  -2.158   1.086  0.00  0.00    -0.016 A 
ATOM      7  C6  BZF d   1       0.739  -1.090   0.743  0.00  0.00     0.022 A 
ATOM      8  C7  BZF d   1      -0.457  -0.886   1.347  0.00  0.00     0.029 A 
ATOM      9  C7A BZF d   1      -0.822  -1.775   2.328  0.00  0.00     0.058 A 
ENDROOT
TORSDOF 0
ENDMDL
