MODEL 1
REMARK minimizedAffinity -2.17212701
REMARK minimizedRMSD -1
REMARK  0 active torsions:
REMARK  status: ('A' for Active; 'I' for Inactive)
ROOT
ATOM      1  O1  BZF d   1      -0.111  -3.428   2.964  0.00  0.00    -0.204 OA
ATOM      2  C2  BZF d   1       1.055  -3.759   2.300  0.00  0.00     0.174 A 
ATOM      3  C3  BZF d   1       1.294  -2.895   1.293  0.00  0.00    -0.012 A 
ATOM      4  C3A BZF d   1       0.258  -1.912   1.387  0.00  0.00    -0.107 A 
ATOM      5  C4  BZF d   1      -0.036  -0.786   0.671  0.00  0.00     0.055 A 
ATOM      6  C5  BZF d   1      -1.160  -0.086   0.974  0.00  0.00    -0.016 A 
ATOM      7  C6  BZF d   1      -2.015  -0.485   1.980  0.00  0.00     0.022 A 
ATOM      8  C7  BZF d   1      -1.763  -1.592   2.720  0.00  0.00     0.029 A 
ATOM      9  C7A BZF d   1      -0.610  -2.283   2.439  0.00  0.00     0.058 A 
ENDROOT
TORSDOF 0
ENDMDL
