MODEL 1
REMARK minimizedAffinity -1.53130615
REMARK minimizedRMSD -1
REMARK  0 active torsions:
REMARK  status: ('A' for Active; 'I' for Inactive)
ROOT
ATOM      1  O1  BZF d   1       0.356  -1.071   0.112  0.00  0.00    -0.204 OA
ATOM      2  C2  BZF d   1      -0.658  -0.145   0.268  0.00  0.00     0.174 A 
ATOM      3  C3  BZF d   1      -1.288  -0.320   1.448  0.00  0.00    -0.012 A 
ATOM      4  C3A BZF d   1      -0.566  -1.363   2.109  0.00  0.00    -0.107 A 
ATOM      5  C4  BZF d   1      -0.700  -1.974   3.323  0.00  0.00     0.055 A 
ATOM      6  C5  BZF d   1       0.123  -3.009   3.636  0.00  0.00    -0.016 A 
ATOM      7  C6  BZF d   1       1.086  -3.462   2.759  0.00  0.00     0.022 A 
ATOM      8  C7  BZF d   1       1.260  -2.885   1.545  0.00  0.00     0.029 A 
ATOM      9  C7A BZF d   1       0.452  -1.818   1.239  0.00  0.00     0.058 A 
ENDROOT
TORSDOF 0
ENDMDL
