MODEL 1
REMARK minimizedAffinity 5.2550292
REMARK minimizedRMSD -1
REMARK  0 active torsions:
REMARK  status: ('A' for Active; 'I' for Inactive)
ROOT
ATOM      1  O1  BZF d   1      -0.206   0.524  -0.148  0.00  0.00    -0.204 OA
ATOM      2  C2  BZF d   1       1.052   0.865   0.312  0.00  0.00     0.174 A 
ATOM      3  C3  BZF d   1       1.317   0.248   1.482  0.00  0.00    -0.012 A 
ATOM      4  C3A BZF d   1       0.189  -0.599   1.724  0.00  0.00    -0.107 A 
ATOM      5  C4  BZF d   1      -0.129  -1.475   2.722  0.00  0.00     0.055 A 
ATOM      6  C5  BZF d   1      -1.341  -2.090   2.700  0.00  0.00    -0.016 A 
ATOM      7  C6  BZF d   1      -2.259  -1.847   1.699  0.00  0.00     0.022 A 
ATOM      8  C7  BZF d   1      -1.987  -0.990   0.686  0.00  0.00     0.029 A 
ATOM      9  C7A BZF d   1      -0.750  -0.392   0.688  0.00  0.00     0.058 A 
ENDROOT
TORSDOF 0
ENDMDL
