MODEL 1
REMARK minimizedAffinity 6.03464317
REMARK minimizedRMSD -1
REMARK  0 active torsions:
REMARK  status: ('A' for Active; 'I' for Inactive)
ROOT
ATOM      1  C   UNL d   1      -1.367  -1.834  -1.631  0.00  0.00     0.124 A 
ATOM      2  C1  UNL d   1      -0.921  -0.660  -1.040  0.00  0.00     0.062 A 
ATOM      3  C2  UNL d   1      -1.208  -0.396   0.296  0.00  0.00     0.162 A 
ATOM      4  C3  UNL d   1      -1.942  -1.310   1.052  0.00  0.00    -0.034 A 
ATOM      5  C4  UNL d   1      -2.388  -2.489   0.450  0.00  0.00     0.162 A 
ATOM      6  C5  UNL d   1      -2.099  -2.747  -0.886  0.00  0.00     0.062 A 
ATOM      7  F   UNL d   1      -2.530  -3.882  -1.455  0.00  0.00    -0.097 F 
ATOM      8  F1  UNL d   1      -3.097  -3.389   1.148  0.00  0.00    -0.096 F 
ATOM      9  I   UNL d   1      -2.373  -0.920   3.050  0.00  0.00    -0.060 I 
ATOM     10  F2  UNL d   1      -0.765   0.746   0.841  0.00  0.00    -0.096 F 
ATOM     11  F3  UNL d   1      -0.214   0.224  -1.759  0.00  0.00    -0.097 F 
ATOM     12  F4  UNL d   1      -1.091  -2.085  -2.917  0.00  0.00    -0.092 F 
ENDROOT
TORSDOF 0
ENDMDL
