MODEL 1
REMARK minimizedAffinity 19.3745918
REMARK minimizedRMSD -1
REMARK  0 active torsions:
REMARK  status: ('A' for Active; 'I' for Inactive)
ROOT
ATOM      1  C   UNL d   1       3.292   2.320  -1.483  0.00  0.00     0.124 A 
ATOM      2  C1  UNL d   1       2.844   2.812  -0.265  0.00  0.00     0.062 A 
ATOM      3  C2  UNL d   1       1.743   2.235   0.361  0.00  0.00     0.162 A 
ATOM      4  C3  UNL d   1       1.081   1.159  -0.231  0.00  0.00    -0.034 A 
ATOM      5  C4  UNL d   1       1.537   0.670  -1.457  0.00  0.00     0.162 A 
ATOM      6  C5  UNL d   1       2.638   1.250  -2.078  0.00  0.00     0.062 A 
ATOM      7  F   UNL d   1       3.069   0.774  -3.255  0.00  0.00    -0.097 F 
ATOM      8  F1  UNL d   1       0.924  -0.363  -2.053  0.00  0.00    -0.096 F 
ATOM      9  I   UNL d   1      -0.566   0.294   0.701  0.00  0.00    -0.060 I 
ATOM     10  F2  UNL d   1       1.332   2.731   1.537  0.00  0.00    -0.096 F 
ATOM     11  F3  UNL d   1       3.474   3.846   0.311  0.00  0.00    -0.097 F 
ATOM     12  F4  UNL d   1       4.352   2.877  -2.083  0.00  0.00    -0.092 F 
ENDROOT
TORSDOF 0
ENDMDL
