MODEL 1
REMARK minimizedAffinity -2.94287133
REMARK minimizedRMSD -1
REMARK  0 active torsions:
REMARK  status: ('A' for Active; 'I' for Inactive)
ROOT
ATOM      1  C   UNL d   1      -0.627  -2.500   0.126  0.00  0.00     0.124 A 
ATOM      2  C1  UNL d   1       0.534  -2.022  -0.465  0.00  0.00     0.062 A 
ATOM      3  C2  UNL d   1       0.944  -0.711  -0.242  0.00  0.00     0.162 A 
ATOM      4  C3  UNL d   1       0.193   0.132   0.576  0.00  0.00    -0.034 A 
ATOM      5  C4  UNL d   1      -0.974  -0.355   1.167  0.00  0.00     0.162 A 
ATOM      6  C5  UNL d   1      -1.380  -1.667   0.941  0.00  0.00     0.062 A 
ATOM      7  F   UNL d   1      -2.502  -2.127   1.513  0.00  0.00    -0.097 F 
ATOM      8  F1  UNL d   1      -1.720   0.428   1.960  0.00  0.00    -0.096 F 
ATOM      9  I   UNL d   1       0.803   2.094   0.912  0.00  0.00    -0.060 I 
ATOM     10  F2  UNL d   1       2.071  -0.276  -0.827  0.00  0.00    -0.096 F 
ATOM     11  F3  UNL d   1       1.263  -2.825  -1.254  0.00  0.00    -0.097 F 
ATOM     12  F4  UNL d   1      -1.020  -3.762  -0.090  0.00  0.00    -0.092 F 
ENDROOT
TORSDOF 0
ENDMDL
