MODEL 1
REMARK minimizedAffinity 4.11802197
REMARK minimizedRMSD -1
REMARK  0 active torsions:
REMARK  status: ('A' for Active; 'I' for Inactive)
ROOT
ATOM      1  C   UNL d   1      -0.478  -2.931   0.699  0.00  0.00     0.124 A 
ATOM      2  C1  UNL d   1       0.809  -2.411   0.702  0.00  0.00     0.062 A 
ATOM      3  C2  UNL d   1       1.007  -1.034   0.676  0.00  0.00     0.162 A 
ATOM      4  C3  UNL d   1      -0.084  -0.166   0.647  0.00  0.00    -0.034 A 
ATOM      5  C4  UNL d   1      -1.376  -0.697   0.643  0.00  0.00     0.162 A 
ATOM      6  C5  UNL d   1      -1.569  -2.074   0.670  0.00  0.00     0.062 A 
ATOM      7  F   UNL d   1      -2.813  -2.575   0.667  0.00  0.00    -0.097 F 
ATOM      8  F1  UNL d   1      -2.448   0.109   0.616  0.00  0.00    -0.096 F 
ATOM      9  I   UNL d   1       0.208   1.894   0.607  0.00  0.00    -0.060 I 
ATOM     10  F2  UNL d   1       2.262  -0.559   0.679  0.00  0.00    -0.096 F 
ATOM     11  F3  UNL d   1       1.865  -3.237   0.730  0.00  0.00    -0.097 F 
ATOM     12  F4  UNL d   1      -0.666  -4.257   0.724  0.00  0.00    -0.092 F 
ENDROOT
TORSDOF 0
ENDMDL
