MODEL 1
REMARK minimizedAffinity -5.99842739
REMARK minimizedRMSD -1
REMARK  0 active torsions:
REMARK  status: ('A' for Active; 'I' for Inactive)
ROOT
ATOM      1  C   UNL d   1      -0.019  -1.827  -1.569  0.00  0.00     0.124 A 
ATOM      2  C1  UNL d   1      -0.245  -0.519  -1.162  0.00  0.00     0.062 A 
ATOM      3  C2  UNL d   1      -0.563  -0.244   0.165  0.00  0.00     0.162 A 
ATOM      4  C3  UNL d   1      -0.656  -1.279   1.096  0.00  0.00    -0.034 A 
ATOM      5  C4  UNL d   1      -0.428  -2.592   0.679  0.00  0.00     0.162 A 
ATOM      6  C5  UNL d   1      -0.111  -2.862  -0.649  0.00  0.00     0.062 A 
ATOM      7  F   UNL d   1       0.106  -4.126  -1.040  0.00  0.00    -0.097 F 
ATOM      8  F1  UNL d   1      -0.509  -3.611   1.547  0.00  0.00    -0.096 F 
ATOM      9  I   UNL d   1      -1.130  -0.872   3.081  0.00  0.00    -0.060 I 
ATOM     10  F2  UNL d   1      -0.775   1.029   0.531  0.00  0.00    -0.096 F 
ATOM     11  F3  UNL d   1      -0.158   0.482  -2.049  0.00  0.00    -0.097 F 
ATOM     12  F4  UNL d   1       0.285  -2.089  -2.846  0.00  0.00    -0.092 F 
ENDROOT
TORSDOF 0
ENDMDL
