MODEL 1
REMARK minimizedAffinity 0.838038266
REMARK minimizedRMSD -1
REMARK  0 active torsions:
REMARK  status: ('A' for Active; 'I' for Inactive)
ROOT
ATOM      1  C   UNL d   1       0.994  -1.275  -0.584  0.00  0.00     0.124 A 
ATOM      2  C1  UNL d   1       0.534   0.026  -0.732  0.00  0.00     0.062 A 
ATOM      3  C2  UNL d   1      -0.594   0.453  -0.037  0.00  0.00     0.162 A 
ATOM      4  C3  UNL d   1      -1.270  -0.422   0.814  0.00  0.00    -0.034 A 
ATOM      5  C4  UNL d   1      -0.801  -1.729   0.957  0.00  0.00     0.162 A 
ATOM      6  C5  UNL d   1       0.327  -2.151   0.260  0.00  0.00     0.062 A 
ATOM      7  F   UNL d   1       0.770  -3.408   0.404  0.00  0.00    -0.097 F 
ATOM      8  F1  UNL d   1      -1.427  -2.597   1.766  0.00  0.00    -0.096 F 
ATOM      9  I   UNL d   1      -2.957   0.212   1.854  0.00  0.00    -0.060 I 
ATOM     10  F2  UNL d   1      -1.017   1.716  -0.199  0.00  0.00    -0.096 F 
ATOM     11  F3  UNL d   1       1.177   0.875  -1.547  0.00  0.00    -0.097 F 
ATOM     12  F4  UNL d   1       2.079  -1.683  -1.254  0.00  0.00    -0.092 F 
ENDROOT
TORSDOF 0
ENDMDL
