MODEL 1
REMARK minimizedAffinity -3.8046627
REMARK minimizedRMSD -1
REMARK  0 active torsions:
REMARK  status: ('A' for Active; 'I' for Inactive)
ROOT
ATOM      1  C   UNL d   1       0.248  -2.449  -0.404  0.00  0.00     0.124 A 
ATOM      2  C1  UNL d   1      -0.289  -2.041   0.809  0.00  0.00     0.062 A 
ATOM      3  C2  UNL d   1      -0.536  -0.692   1.046  0.00  0.00     0.162 A 
ATOM      4  C3  UNL d   1      -0.248   0.259   0.067  0.00  0.00    -0.034 A 
ATOM      5  C4  UNL d   1       0.293  -0.159  -1.150  0.00  0.00     0.162 A 
ATOM      6  C5  UNL d   1       0.539  -1.508  -1.382  0.00  0.00     0.062 A 
ATOM      7  F   UNL d   1       1.058  -1.901  -2.554  0.00  0.00    -0.097 F 
ATOM      8  F1  UNL d   1       0.582   0.729  -2.113  0.00  0.00    -0.096 F 
ATOM      9  I   UNL d   1      -0.616   2.277   0.418  0.00  0.00    -0.060 I 
ATOM     10  F2  UNL d   1      -1.056  -0.326   2.227  0.00  0.00    -0.096 F 
ATOM     11  F3  UNL d   1      -0.570  -2.948   1.756  0.00  0.00    -0.097 F 
ATOM     12  F4  UNL d   1       0.486  -3.748  -0.629  0.00  0.00    -0.092 F 
ENDROOT
TORSDOF 0
ENDMDL
