MODEL 1
REMARK minimizedAffinity -0.667609215
REMARK minimizedRMSD -1
REMARK  0 active torsions:
REMARK  status: ('A' for Active; 'I' for Inactive)
ROOT
ATOM      1  C   UNL d   1      -1.165  -0.399   1.164  0.00  0.00     0.124 A 
ATOM      2  C1  UNL d   1      -0.571   0.643   0.466  0.00  0.00     0.062 A 
ATOM      3  C2  UNL d   1      -0.057   0.428  -0.810  0.00  0.00     0.162 A 
ATOM      4  C3  UNL d   1      -0.137  -0.835  -1.397  0.00  0.00    -0.034 A 
ATOM      5  C4  UNL d   1      -0.735  -1.878  -0.689  0.00  0.00     0.162 A 
ATOM      6  C5  UNL d   1      -1.247  -1.658   0.586  0.00  0.00     0.062 A 
ATOM      7  F   UNL d   1      -1.820  -2.666   1.259  0.00  0.00    -0.097 F 
ATOM      8  F1  UNL d   1      -0.828  -3.105  -1.223  0.00  0.00    -0.096 F 
ATOM      9  I   UNL d   1       0.630  -1.160  -3.304  0.00  0.00    -0.060 I 
ATOM     10  F2  UNL d   1       0.511   1.454  -1.461  0.00  0.00    -0.096 F 
ATOM     11  F3  UNL d   1      -0.490   1.861   1.022  0.00  0.00    -0.097 F 
ATOM     12  F4  UNL d   1      -1.657  -0.190   2.391  0.00  0.00    -0.092 F 
ENDROOT
TORSDOF 0
ENDMDL
