MODEL 1
REMARK minimizedAffinity -2.49350667
REMARK minimizedRMSD -1
REMARK  0 active torsions:
REMARK  status: ('A' for Active; 'I' for Inactive)
ROOT
ATOM      1  C   UNL d   1       0.060  -2.617   0.583  0.00  0.00     0.124 A 
ATOM      2  C1  UNL d   1      -1.089  -1.870   0.802  0.00  0.00     0.062 A 
ATOM      3  C2  UNL d   1      -1.052  -0.482   0.701  0.00  0.00     0.162 A 
ATOM      4  C3  UNL d   1       0.139   0.168   0.380  0.00  0.00    -0.034 A 
ATOM      5  C4  UNL d   1       1.291  -0.589   0.162  0.00  0.00     0.162 A 
ATOM      6  C5  UNL d   1       1.249  -1.976   0.264  0.00  0.00     0.062 A 
ATOM      7  F   UNL d   1       2.361  -2.696   0.052  0.00  0.00    -0.097 F 
ATOM      8  F1  UNL d   1       2.454   0.004  -0.149  0.00  0.00    -0.096 F 
ATOM      9  I   UNL d   1       0.199   2.243   0.229  0.00  0.00    -0.060 I 
ATOM     10  F2  UNL d   1      -2.178   0.214   0.918  0.00  0.00    -0.096 F 
ATOM     11  F3  UNL d   1      -2.239  -2.487   1.111  0.00  0.00    -0.097 F 
ATOM     12  F4  UNL d   1       0.022  -3.952   0.681  0.00  0.00    -0.092 F 
ENDROOT
TORSDOF 0
ENDMDL
