MODEL 1
REMARK minimizedAffinity -2.63099217
REMARK minimizedRMSD -1
REMARK  0 active torsions:
REMARK  status: ('A' for Active; 'I' for Inactive)
ROOT
ATOM      1  C   UNL d   1      -0.880  -2.796  -0.468  0.00  0.00     0.124 A 
ATOM      2  C1  UNL d   1      -1.469  -2.295   0.685  0.00  0.00     0.062 A 
ATOM      3  C2  UNL d   1      -1.256  -0.972   1.062  0.00  0.00     0.162 A 
ATOM      4  C3  UNL d   1      -0.451  -0.140   0.284  0.00  0.00    -0.034 A 
ATOM      5  C4  UNL d   1       0.138  -0.651  -0.874  0.00  0.00     0.162 A 
ATOM      6  C5  UNL d   1      -0.078  -1.974  -1.246  0.00  0.00     0.062 A 
ATOM      7  F   UNL d   1       0.491  -2.456  -2.360  0.00  0.00    -0.097 F 
ATOM      8  F1  UNL d   1       0.917   0.122  -1.645  0.00  0.00    -0.096 F 
ATOM      9  I   UNL d   1      -0.131   1.839   0.844  0.00  0.00    -0.060 I 
ATOM     10  F2  UNL d   1      -1.837  -0.515   2.181  0.00  0.00    -0.096 F 
ATOM     11  F3  UNL d   1      -2.244  -3.088   1.440  0.00  0.00    -0.097 F 
ATOM     12  F4  UNL d   1      -1.086  -4.069  -0.827  0.00  0.00    -0.092 F 
ENDROOT
TORSDOF 0
ENDMDL
