MODEL 1
REMARK minimizedAffinity -2.30652547
REMARK minimizedRMSD -1
REMARK  0 active torsions:
REMARK  status: ('A' for Active; 'I' for Inactive)
ROOT
ATOM      1  C   UNL d   1      -1.444  -1.809   0.903  0.00  0.00     0.124 A 
ATOM      2  C1  UNL d   1      -1.846  -0.485   0.784  0.00  0.00     0.062 A 
ATOM      3  C2  UNL d   1      -0.907   0.512   0.539  0.00  0.00     0.162 A 
ATOM      4  C3  UNL d   1       0.444   0.191   0.408  0.00  0.00    -0.034 A 
ATOM      5  C4  UNL d   1       0.841  -1.142   0.529  0.00  0.00     0.162 A 
ATOM      6  C5  UNL d   1      -0.101  -2.135   0.775  0.00  0.00     0.062 A 
ATOM      7  F   UNL d   1       0.290  -3.413   0.889  0.00  0.00    -0.097 F 
ATOM      8  F1  UNL d   1       2.132  -1.486   0.409  0.00  0.00    -0.096 F 
ATOM      9  I   UNL d   1       1.850   1.680   0.041  0.00  0.00    -0.060 I 
ATOM     10  F2  UNL d   1      -1.325   1.783   0.429  0.00  0.00    -0.096 F 
ATOM     11  F3  UNL d   1      -3.143  -0.167   0.908  0.00  0.00    -0.097 F 
ATOM     12  F4  UNL d   1      -2.349  -2.767   1.140  0.00  0.00    -0.092 F 
ENDROOT
TORSDOF 0
ENDMDL
