MODEL 1
REMARK minimizedAffinity -4.85019207
REMARK minimizedRMSD -1
REMARK  0 active torsions:
REMARK  status: ('A' for Active; 'I' for Inactive)
ROOT
ATOM      1  C   UNL d   1      -0.257  -2.774  -0.213  0.00  0.00     0.124 A 
ATOM      2  C1  UNL d   1      -0.829  -2.155   0.890  0.00  0.00     0.062 A 
ATOM      3  C2  UNL d   1      -0.793  -0.768   1.011  0.00  0.00     0.162 A 
ATOM      4  C3  UNL d   1      -0.183   0.008   0.026  0.00  0.00    -0.034 A 
ATOM      5  C4  UNL d   1       0.391  -0.622  -1.080  0.00  0.00     0.162 A 
ATOM      6  C5  UNL d   1       0.352  -2.008  -1.196  0.00  0.00     0.062 A 
ATOM      7  F   UNL d   1       0.905  -2.604  -2.262  0.00  0.00    -0.097 F 
ATOM      8  F1  UNL d   1       0.986   0.095  -2.045  0.00  0.00    -0.096 F 
ATOM      9  I   UNL d   1      -0.126   2.081   0.203  0.00  0.00    -0.060 I 
ATOM     10  F2  UNL d   1      -1.353  -0.197   2.087  0.00  0.00    -0.096 F 
ATOM     11  F3  UNL d   1      -1.417  -2.893   1.841  0.00  0.00    -0.097 F 
ATOM     12  F4  UNL d   1      -0.292  -4.108  -0.327  0.00  0.00    -0.092 F 
ENDROOT
TORSDOF 0
ENDMDL
