MODEL 1
REMARK minimizedAffinity -0.333996594
REMARK minimizedRMSD -1
REMARK  0 active torsions:
REMARK  status: ('A' for Active; 'I' for Inactive)
ROOT
ATOM      1  C   UNL d   1       0.883   4.186   1.402  0.00  0.00     0.124 A 
ATOM      2  C1  UNL d   1       1.836   3.843   0.453  0.00  0.00     0.062 A 
ATOM      3  C2  UNL d   1       1.749   2.627  -0.218  0.00  0.00     0.162 A 
ATOM      4  C3  UNL d   1       0.703   1.745   0.055  0.00  0.00    -0.034 A 
ATOM      5  C4  UNL d   1      -0.252   2.097   1.010  0.00  0.00     0.162 A 
ATOM      6  C5  UNL d   1      -0.160   3.314   1.679  0.00  0.00     0.062 A 
ATOM      7  F   UNL d   1      -1.082   3.644   2.595  0.00  0.00    -0.097 F 
ATOM      8  F1  UNL d   1      -1.270   1.273   1.298  0.00  0.00    -0.096 F 
ATOM      9  I   UNL d   1       0.569  -0.074  -0.948  0.00  0.00    -0.060 I 
ATOM     10  F2  UNL d   1       2.684   2.321  -1.130  0.00  0.00    -0.096 F 
ATOM     11  F3  UNL d   1       2.845   4.684   0.184  0.00  0.00    -0.097 F 
ATOM     12  F4  UNL d   1       0.970   5.356   2.047  0.00  0.00    -0.092 F 
ENDROOT
TORSDOF 0
ENDMDL
