MODEL 1
REMARK minimizedAffinity -0.175434798
REMARK minimizedRMSD -1
REMARK  0 active torsions:
REMARK  status: ('A' for Active; 'I' for Inactive)
ROOT
ATOM      1  C   UNL d   1       1.441   3.011   0.746  0.00  0.00     0.124 A 
ATOM      2  C1  UNL d   1       0.120   2.668   0.998  0.00  0.00     0.062 A 
ATOM      3  C2  UNL d   1      -0.317   1.363   0.790  0.00  0.00     0.162 A 
ATOM      4  C3  UNL d   1       0.569   0.390   0.328  0.00  0.00    -0.034 A 
ATOM      5  C4  UNL d   1       1.896   0.742   0.075  0.00  0.00     0.162 A 
ATOM      6  C5  UNL d   1       2.328   2.048   0.284  0.00  0.00     0.062 A 
ATOM      7  F   UNL d   1       3.604   2.378   0.039  0.00  0.00    -0.097 F 
ATOM      8  F1  UNL d   1       2.774  -0.168  -0.371  0.00  0.00    -0.096 F 
ATOM      9  I   UNL d   1      -0.080  -1.563   0.015  0.00  0.00    -0.060 I 
ATOM     10  F2  UNL d   1      -1.599   1.060   1.043  0.00  0.00    -0.096 F 
ATOM     11  F3  UNL d   1      -0.739   3.597   1.444  0.00  0.00    -0.097 F 
ATOM     12  F4  UNL d   1       1.858   4.268   0.946  0.00  0.00    -0.092 F 
ENDROOT
TORSDOF 0
ENDMDL
