MODEL 1
REMARK minimizedAffinity -3.63666606
REMARK minimizedRMSD -1
REMARK  0 active torsions:
REMARK  status: ('A' for Active; 'I' for Inactive)
ROOT
ATOM      1  C   UNL d   1       0.153  -2.825  -0.929  0.00  0.00     0.124 A 
ATOM      2  C1  UNL d   1      -0.040  -2.441   0.391  0.00  0.00     0.062 A 
ATOM      3  C2  UNL d   1      -0.161  -1.093   0.717  0.00  0.00     0.162 A 
ATOM      4  C3  UNL d   1      -0.090  -0.119  -0.279  0.00  0.00    -0.034 A 
ATOM      5  C4  UNL d   1       0.106  -0.513  -1.604  0.00  0.00     0.162 A 
ATOM      6  C5  UNL d   1       0.226  -1.861  -1.924  0.00  0.00     0.062 A 
ATOM      7  F   UNL d   1       0.414  -2.231  -3.200  0.00  0.00    -0.097 F 
ATOM      8  F1  UNL d   1       0.180   0.398  -2.586  0.00  0.00    -0.096 F 
ATOM      9  I   UNL d   1      -0.270   1.898   0.204  0.00  0.00    -0.060 I 
ATOM     10  F2  UNL d   1      -0.348  -0.750   2.000  0.00  0.00    -0.096 F 
ATOM     11  F3  UNL d   1      -0.110  -3.370   1.355  0.00  0.00    -0.097 F 
ATOM     12  F4  UNL d   1       0.271  -4.122  -1.239  0.00  0.00    -0.092 F 
ENDROOT
TORSDOF 0
ENDMDL
