MODEL 1
REMARK minimizedAffinity -0.986041069
REMARK minimizedRMSD -1
REMARK  0 active torsions:
REMARK  status: ('A' for Active; 'I' for Inactive)
ROOT
ATOM      1  C   UNL d   1       0.803   3.928   1.526  0.00  0.00     0.124 A 
ATOM      2  C1  UNL d   1       1.979   3.505   0.920  0.00  0.00     0.062 A 
ATOM      3  C2  UNL d   1       1.973   2.398   0.077  0.00  0.00     0.162 A 
ATOM      4  C3  UNL d   1       0.787   1.705  -0.167  0.00  0.00    -0.034 A 
ATOM      5  C4  UNL d   1      -0.391   2.135   0.447  0.00  0.00     0.162 A 
ATOM      6  C5  UNL d   1      -0.380   3.243   1.289  0.00  0.00     0.062 A 
ATOM      7  F   UNL d   1      -1.516   3.649   1.873  0.00  0.00    -0.097 F 
ATOM      8  F1  UNL d   1      -1.549   1.492   0.234  0.00  0.00    -0.096 F 
ATOM      9  I   UNL d   1       0.774   0.049  -1.427  0.00  0.00    -0.060 I 
ATOM     10  F2  UNL d   1       3.123   2.012  -0.494  0.00  0.00    -0.096 F 
ATOM     11  F3  UNL d   1       3.123   4.165   1.149  0.00  0.00    -0.097 F 
ATOM     12  F4  UNL d   1       0.812   4.993   2.337  0.00  0.00    -0.092 F 
ENDROOT
TORSDOF 0
ENDMDL
