MODEL 1
REMARK minimizedAffinity 6.23046064
REMARK minimizedRMSD -1
REMARK  0 active torsions:
REMARK  status: ('A' for Active; 'I' for Inactive)
ROOT
ATOM      1  C   UNL d   1       3.520  -3.213   5.217  0.00  0.00     0.023 A 
ATOM      2  C1  UNL d   1       4.575  -2.349   4.923  0.00  0.00     0.003 A 
ATOM      3  C2  UNL d   1       4.367  -1.248   4.091  0.00  0.00     0.048 A 
ATOM      4  C3  UNL d   1       3.100  -1.016   3.555  0.00  0.00     0.023 A 
ATOM      5  C4  UNL d   1       2.041  -1.877   3.847  0.00  0.00     0.048 A 
ATOM      6  C5  UNL d   1       2.255  -2.977   4.679  0.00  0.00     0.003 A 
ATOM      7  I   UNL d   1       2.788   0.623   2.316  0.00  0.00    -0.146 I 
ENDROOT
TORSDOF 0
ENDMDL
