MODEL 1
REMARK minimizedAffinity 6.50576258
REMARK minimizedRMSD -1
REMARK  0 active torsions:
REMARK  status: ('A' for Active; 'I' for Inactive)
ROOT
ATOM      1  C   UNL d   1       1.325  -3.500   4.591  0.00  0.00     0.023 A 
ATOM      2  C1  UNL d   1       2.321  -4.458   4.781  0.00  0.00     0.003 A 
ATOM      3  C2  UNL d   1       3.663  -4.075   4.813  0.00  0.00     0.048 A 
ATOM      4  C3  UNL d   1       4.003  -2.732   4.653  0.00  0.00     0.023 A 
ATOM      5  C4  UNL d   1       3.009  -1.770   4.463  0.00  0.00     0.048 A 
ATOM      6  C5  UNL d   1       1.669  -2.158   4.432  0.00  0.00     0.003 A 
ATOM      7  I   UNL d   1       6.000  -2.159   4.700  0.00  0.00    -0.146 I 
ENDROOT
TORSDOF 0
ENDMDL
