MODEL 1
REMARK minimizedAffinity 1.45460582
REMARK minimizedRMSD -1
REMARK  0 active torsions:
REMARK  status: ('A' for Active; 'I' for Inactive)
ROOT
ATOM      1  O1  BZF d   1       2.436  -1.661   2.608  0.00  0.00    -0.204 OA
ATOM      2  C2  BZF d   1       1.526  -1.175   1.690  0.00  0.00     0.174 A 
ATOM      3  C3  BZF d   1       1.626  -1.839   0.520  0.00  0.00    -0.012 A 
ATOM      4  C3A BZF d   1       2.600  -2.862   0.750  0.00  0.00    -0.107 A 
ATOM      5  C4  BZF d   1       3.121  -3.855  -0.029  0.00  0.00     0.055 A 
ATOM      6  C5  BZF d   1       4.110  -4.639   0.474  0.00  0.00    -0.016 A 
ATOM      7  C6  BZF d   1       4.605  -4.456   1.748  0.00  0.00     0.022 A 
ATOM      8  C7  BZF d   1       4.117  -3.487   2.560  0.00  0.00     0.029 A 
ATOM      9  C7A BZF d   1       3.094  -2.714   2.067  0.00  0.00     0.058 A 
ENDROOT
TORSDOF 0
ENDMDL
