MODEL 1
REMARK minimizedAffinity 0.185241044
REMARK minimizedRMSD -1
REMARK  0 active torsions:
REMARK  status: ('A' for Active; 'I' for Inactive)
ROOT
ATOM      1  O1  BZF d   1       5.458  -3.305   2.384  0.00  0.00    -0.204 OA
ATOM      2  C2  BZF d   1       4.873  -4.246   1.559  0.00  0.00     0.174 A 
ATOM      3  C3  BZF d   1       4.360  -5.263   2.281  0.00  0.00    -0.012 A 
ATOM      4  C3A BZF d   1       4.561  -4.893   3.648  0.00  0.00    -0.107 A 
ATOM      5  C4  BZF d   1       4.252  -5.488   4.838  0.00  0.00     0.055 A 
ATOM      6  C5  BZF d   1       4.652  -4.899   5.995  0.00  0.00    -0.016 A 
ATOM      7  C6  BZF d   1       5.367  -3.719   6.000  0.00  0.00     0.022 A 
ATOM      8  C7  BZF d   1       5.693  -3.089   4.845  0.00  0.00     0.029 A 
ATOM      9  C7A BZF d   1       5.261  -3.664   3.675  0.00  0.00     0.058 A 
ENDROOT
TORSDOF 0
ENDMDL
