MODEL 1
REMARK minimizedAffinity -0.629047096
REMARK minimizedRMSD -1
REMARK  0 active torsions:
REMARK  status: ('A' for Active; 'I' for Inactive)
ROOT
ATOM      1  O1  BZF d   1       2.644   4.489   4.423  0.00  0.00    -0.204 OA
ATOM      2  C2  BZF d   1       2.610   4.135   3.088  0.00  0.00     0.174 A 
ATOM      3  C3  BZF d   1       1.396   4.385   2.557  0.00  0.00    -0.012 A 
ATOM      4  C3A BZF d   1       0.651   5.016   3.603  0.00  0.00    -0.107 A 
ATOM      5  C4  BZF d   1      -0.618   5.515   3.682  0.00  0.00     0.055 A 
ATOM      6  C5  BZF d   1      -1.064   6.000   4.871  0.00  0.00    -0.016 A 
ATOM      7  C6  BZF d   1      -0.271   5.996   6.000  0.00  0.00     0.022 A 
ATOM      8  C7  BZF d   1       0.996   5.516   5.969  0.00  0.00     0.029 A 
ATOM      9  C7A BZF d   1       1.461   5.056   4.761  0.00  0.00     0.058 A 
ENDROOT
TORSDOF 0
ENDMDL
