MODEL 1
REMARK minimizedAffinity 0.0708327964
REMARK minimizedRMSD -1
REMARK  0 active torsions:
REMARK  status: ('A' for Active; 'I' for Inactive)
ROOT
ATOM      1  O1  BZF d   1       3.769   2.057  -5.992  0.00  0.00    -0.204 OA
ATOM      2  C2  BZF d   1       5.043   1.525  -5.976  0.00  0.00     0.174 A 
ATOM      3  C3  BZF d   1       5.971   2.503  -5.999  0.00  0.00    -0.012 A 
ATOM      4  C3A BZF d   1       5.230   3.726  -5.938  0.00  0.00    -0.107 A 
ATOM      5  C4  BZF d   1       5.591   5.042  -5.912  0.00  0.00     0.055 A 
ATOM      6  C5  BZF d   1       4.621   5.994  -5.925  0.00  0.00    -0.016 A 
ATOM      7  C6  BZF d   1       3.282   5.665  -5.969  0.00  0.00     0.022 A 
ATOM      8  C7  BZF d   1       2.874   4.372  -5.991  0.00  0.00     0.029 A 
ATOM      9  C7A BZF d   1       3.852   3.408  -5.944  0.00  0.00     0.058 A 
ENDROOT
TORSDOF 0
ENDMDL
