MODEL 1
REMARK minimizedAffinity -1.39166915
REMARK minimizedRMSD -1
REMARK  0 active torsions:
REMARK  status: ('A' for Active; 'I' for Inactive)
ROOT
ATOM      1  O1  BZF d   1       5.601   2.497  -5.957  0.00  0.00    -0.204 OA
ATOM      2  C2  BZF d   1       4.805   1.368  -5.952  0.00  0.00     0.174 A 
ATOM      3  C3  BZF d   1       3.499   1.703  -5.910  0.00  0.00    -0.012 A 
ATOM      4  C3A BZF d   1       3.475   3.132  -5.982  0.00  0.00    -0.107 A 
ATOM      5  C4  BZF d   1       2.469   4.055  -5.998  0.00  0.00     0.055 A 
ATOM      6  C5  BZF d   1       2.784   5.377  -6.000  0.00  0.00    -0.016 A 
ATOM      7  C6  BZF d   1       4.093   5.811  -5.979  0.00  0.00     0.022 A 
ATOM      8  C7  BZF d   1       5.126   4.933  -5.968  0.00  0.00     0.029 A 
ATOM      9  C7A BZF d   1       4.811   3.597  -6.000  0.00  0.00     0.058 A 
ENDROOT
TORSDOF 0
ENDMDL
