MODEL 1
REMARK minimizedAffinity -1.24678767
REMARK minimizedRMSD -1
REMARK  0 active torsions:
REMARK  status: ('A' for Active; 'I' for Inactive)
ROOT
ATOM      1  O1  BZF d   1       1.910   4.831  -5.972  0.00  0.00    -0.204 OA
ATOM      2  C2  BZF d   1       2.649   5.998  -5.995  0.00  0.00     0.174 A 
ATOM      3  C3  BZF d   1       3.970   5.730  -5.954  0.00  0.00    -0.012 A 
ATOM      4  C3A BZF d   1       4.065   4.303  -5.995  0.00  0.00    -0.107 A 
ATOM      5  C4  BZF d   1       5.117   3.432  -5.998  0.00  0.00     0.055 A 
ATOM      6  C5  BZF d   1       4.869   2.096  -5.969  0.00  0.00    -0.016 A 
ATOM      7  C6  BZF d   1       3.583   1.597  -5.933  0.00  0.00     0.022 A 
ATOM      8  C7  BZF d   1       2.508   2.422  -5.934  0.00  0.00     0.029 A 
ATOM      9  C7A BZF d   1       2.755   3.772  -5.996  0.00  0.00     0.058 A 
ENDROOT
TORSDOF 0
ENDMDL
