MODEL 1
REMARK minimizedAffinity -3.06588268
REMARK minimizedRMSD -1
REMARK  0 active torsions:
REMARK  status: ('A' for Active; 'I' for Inactive)
ROOT
ATOM      1  O1  BZF d   1       4.662   2.281  -5.940  0.00  0.00    -0.204 OA
ATOM      2  C2  BZF d   1       5.961   2.749  -5.885  0.00  0.00     0.174 A 
ATOM      3  C3  BZF d   1       5.985   4.097  -5.899  0.00  0.00    -0.012 A 
ATOM      4  C3A BZF d   1       4.612   4.498  -5.874  0.00  0.00    -0.107 A 
ATOM      5  C4  BZF d   1       3.989   5.714  -5.859  0.00  0.00     0.055 A 
ATOM      6  C5  BZF d   1       2.632   5.761  -5.910  0.00  0.00    -0.016 A 
ATOM      7  C6  BZF d   1       1.868   4.615  -5.983  0.00  0.00     0.022 A 
ATOM      8  C7  BZF d   1       2.440   3.386  -5.995  0.00  0.00     0.029 A 
ATOM      9  C7A BZF d   1       3.810   3.334  -5.910  0.00  0.00     0.058 A 
ENDROOT
TORSDOF 0
ENDMDL
