MODEL 1
REMARK minimizedAffinity -0.967824578
REMARK minimizedRMSD -1
REMARK  1 active torsions:
REMARK  status: ('A' for Active; 'I' for Inactive)
REMARK    1  A    between atoms: C1_2  and  C2_3 
ROOT
ATOM      1  C2  UNL d   1      -5.136   0.793  -5.243  0.00  0.00    -0.077 A 
ATOM      2  C3  UNL d   1      -5.555   1.897  -5.999  0.00  0.00     0.002 A 
ATOM      3  C4  UNL d   1      -5.987   3.064  -5.365  0.00  0.00     0.002 A 
ATOM      4  C5  UNL d   1      -5.999   3.139  -3.974  0.00  0.00    -0.004 A 
ATOM      5  C6  UNL d   1      -5.586   2.046  -3.214  0.00  0.00     0.002 A 
ATOM      6  C7  UNL d   1      -5.156   0.879  -3.845  0.00  0.00     0.002 A 
ENDROOT
BRANCH   1   7
ATOM      7  C1  UNL d   1      -4.623  -0.449  -5.925  0.00  0.00     0.055 C 
ATOM      8  C   UNL d   1      -5.679  -1.545  -5.946  0.00  0.00     0.019 C 
ENDBRANCH   1   7
TORSDOF 1
ENDMDL
