MODEL 1
REMARK minimizedAffinity 5.92877197
REMARK minimizedRMSD -1
REMARK  1 active torsions:
REMARK  status: ('A' for Active; 'I' for Inactive)
REMARK    1  A    between atoms: C1_2  and  C2_3 
ROOT
ATOM      1  C2  UNL d   1      -2.161   1.357  -0.218  0.00  0.00    -0.077 A 
ATOM      2  C3  UNL d   1      -2.348   0.532   0.900  0.00  0.00     0.002 A 
ATOM      3  C4  UNL d   1      -1.248   0.017   1.589  0.00  0.00     0.002 A 
ATOM      4  C5  UNL d   1       0.045   0.325   1.171  0.00  0.00    -0.004 A 
ATOM      5  C6  UNL d   1       0.241   1.143   0.059  0.00  0.00     0.002 A 
ATOM      6  C7  UNL d   1      -0.857   1.658  -0.632  0.00  0.00     0.002 A 
ENDROOT
BRANCH   1   7
ATOM      7  C1  UNL d   1      -3.346   1.953  -0.933  0.00  0.00     0.055 C 
ATOM      8  C   UNL d   1      -4.222   0.872  -1.550  0.00  0.00     0.019 C 
ENDBRANCH   1   7
TORSDOF 1
ENDMDL
