MODEL 1
REMARK minimizedAffinity 3.18207979
REMARK minimizedRMSD -1
REMARK  1 active torsions:
REMARK  status: ('A' for Active; 'I' for Inactive)
REMARK    1  A    between atoms: C1_2  and  C2_3 
ROOT
ATOM      1  C2  UNL d   1      -0.670  -1.165  -1.031  0.00  0.00    -0.077 A 
ATOM      2  C3  UNL d   1      -0.334  -2.380  -0.419  0.00  0.00     0.002 A 
ATOM      3  C4  UNL d   1      -0.705  -3.592  -1.005  0.00  0.00     0.002 A 
ATOM      4  C5  UNL d   1      -1.409  -3.601  -2.206  0.00  0.00    -0.004 A 
ATOM      5  C6  UNL d   1      -1.750  -2.397  -2.822  0.00  0.00     0.002 A 
ATOM      6  C7  UNL d   1      -1.381  -1.184  -2.237  0.00  0.00     0.002 A 
ENDROOT
BRANCH   1   7
ATOM      7  C1  UNL d   1      -0.228   0.142  -0.426  0.00  0.00     0.055 C 
ATOM      8  C   UNL d   1       0.580  -0.080   0.844  0.00  0.00     0.019 C 
ENDBRANCH   1   7
TORSDOF 1
ENDMDL
