MODEL 1
REMARK minimizedAffinity 0.437874138
REMARK minimizedRMSD -1
REMARK  1 active torsions:
REMARK  status: ('A' for Active; 'I' for Inactive)
REMARK    1  A    between atoms: C1_2  and  C2_3 
ROOT
ATOM      1  C2  UNL d   1      -2.805  -3.477  -3.216  0.00  0.00    -0.077 A 
ATOM      2  C3  UNL d   1      -3.338  -3.207  -4.484  0.00  0.00     0.002 A 
ATOM      3  C4  UNL d   1      -3.969  -1.988  -4.740  0.00  0.00     0.002 A 
ATOM      4  C5  UNL d   1      -4.067  -1.028  -3.735  0.00  0.00    -0.004 A 
ATOM      5  C6  UNL d   1      -3.542  -1.288  -2.470  0.00  0.00     0.002 A 
ATOM      6  C7  UNL d   1      -2.913  -2.507  -2.212  0.00  0.00     0.002 A 
ENDROOT
BRANCH   1   7
ATOM      7  C1  UNL d   1      -2.081  -4.772  -2.952  0.00  0.00     0.055 C 
ATOM      8  C   UNL d   1      -2.109  -5.680  -4.173  0.00  0.00     0.019 C 
ENDBRANCH   1   7
TORSDOF 1
ENDMDL
