MODEL 1
REMARK minimizedAffinity 5.78195477
REMARK minimizedRMSD -1
REMARK  1 active torsions:
REMARK  status: ('A' for Active; 'I' for Inactive)
REMARK    1  A    between atoms: C1_2  and  C2_3 
ROOT
ATOM      1  C2  UNL d   1       0.211   1.132   1.693  0.00  0.00    -0.077 A 
ATOM      2  C3  UNL d   1       1.081   0.041   1.823  0.00  0.00     0.002 A 
ATOM      3  C4  UNL d   1       1.351  -0.782   0.728  0.00  0.00     0.002 A 
ATOM      4  C5  UNL d   1       0.760  -0.519  -0.506  0.00  0.00    -0.004 A 
ATOM      5  C6  UNL d   1      -0.108   0.563  -0.646  0.00  0.00     0.002 A 
ATOM      6  C7  UNL d   1      -0.380   1.386   0.448  0.00  0.00     0.002 A 
ENDROOT
BRANCH   1   7
ATOM      7  C1  UNL d   1      -0.044   2.050   2.860  0.00  0.00     0.055 C 
ATOM      8  C   UNL d   1       1.221   2.791   3.268  0.00  0.00     0.019 C 
ENDBRANCH   1   7
TORSDOF 1
ENDMDL
