MODEL 1
REMARK minimizedAffinity 7.91409302
REMARK minimizedRMSD -1
REMARK  1 active torsions:
REMARK  status: ('A' for Active; 'I' for Inactive)
REMARK    1  A    between atoms: C3_4  and  O_7 
ROOT
ATOM      1  C   UNL d   1       4.888  -5.966   5.954  0.00  0.00    -0.033 A 
ATOM      2  C1  UNL d   1       3.569  -5.518   5.853  0.00  0.00     0.039 A 
ATOM      3  C2  UNL d   1       3.300  -4.151   5.759  0.00  0.00    -0.080 A 
ATOM      4  C3  UNL d   1       4.357  -3.245   5.765  0.00  0.00     0.150 A 
ATOM      5  C4  UNL d   1       5.673  -3.685   5.861  0.00  0.00    -0.007 A 
ATOM      6  C5  UNL d   1       5.940  -5.050   5.956  0.00  0.00     0.039 A 
ENDROOT
BRANCH   4   7
ATOM      7  O   UNL d   1       4.143  -1.901   5.680  0.00  0.00    -0.526 OA
ATOM      8  H5  UNL d   1       3.185  -1.743   5.648  0.00  0.00     0.418 HD
ENDBRANCH   4   7
TORSDOF 1
ENDMDL
