MODEL 1
REMARK minimizedAffinity 9.04860973
REMARK minimizedRMSD -1
REMARK  1 active torsions:
REMARK  status: ('A' for Active; 'I' for Inactive)
REMARK    1  A    between atoms: C3_4  and  O_7 
ROOT
ATOM      1  C   UNL d   1       0.776  -1.062   2.998  0.00  0.00    -0.033 A 
ATOM      2  C1  UNL d   1      -0.219  -1.959   2.606  0.00  0.00     0.039 A 
ATOM      3  C2  UNL d   1       0.118  -3.111   1.893  0.00  0.00    -0.080 A 
ATOM      4  C3  UNL d   1       1.452  -3.354   1.578  0.00  0.00     0.150 A 
ATOM      5  C4  UNL d   1       2.450  -2.466   1.968  0.00  0.00    -0.007 A 
ATOM      6  C5  UNL d   1       2.111  -1.316   2.680  0.00  0.00     0.039 A 
ENDROOT
BRANCH   4   7
ATOM      7  O   UNL d   1       1.829  -4.462   0.879  0.00  0.00    -0.526 OA
ATOM      8  H5  UNL d   1       1.032  -4.968   0.652  0.00  0.00     0.418 HD
ENDBRANCH   4   7
TORSDOF 1
ENDMDL
