MODEL 1
REMARK minimizedAffinity 0.707569242
REMARK minimizedRMSD -1
REMARK  1 active torsions:
REMARK  status: ('A' for Active; 'I' for Inactive)
REMARK    1  A    between atoms: C3_4  and  O_7 
ROOT
ATOM      1  C   UNL d   1       2.145  -3.743   0.679  0.00  0.00    -0.033 A 
ATOM      2  C1  UNL d   1       2.343  -2.368   0.819  0.00  0.00     0.039 A 
ATOM      3  C2  UNL d   1       1.517  -1.624   1.663  0.00  0.00    -0.080 A 
ATOM      4  C3  UNL d   1       0.498  -2.266   2.361  0.00  0.00     0.150 A 
ATOM      5  C4  UNL d   1       0.297  -3.636   2.230  0.00  0.00    -0.007 A 
ATOM      6  C5  UNL d   1       1.123  -4.377   1.386  0.00  0.00     0.039 A 
ENDROOT
BRANCH   4   7
ATOM      7  O   UNL d   1      -0.337  -1.581   3.193  0.00  0.00    -0.526 OA
ATOM      8  H5  UNL d   1      -0.098  -0.639   3.162  0.00  0.00     0.418 HD
ENDBRANCH   4   7
TORSDOF 1
ENDMDL
