MODEL 1
REMARK minimizedAffinity 8.443573
REMARK minimizedRMSD -1
REMARK  1 active torsions:
REMARK  status: ('A' for Active; 'I' for Inactive)
REMARK    1  A    between atoms: C3_4  and  O_7 
ROOT
ATOM      1  C   UNL d   1      -3.884   1.343  -3.762  0.00  0.00    -0.033 A 
ATOM      2  C1  UNL d   1      -2.950   2.075  -3.027  0.00  0.00     0.039 A 
ATOM      3  C2  UNL d   1      -2.952   3.470  -3.083  0.00  0.00    -0.080 A 
ATOM      4  C3  UNL d   1      -3.894   4.120  -3.876  0.00  0.00     0.150 A 
ATOM      5  C4  UNL d   1      -4.830   3.398  -4.608  0.00  0.00    -0.007 A 
ATOM      6  C5  UNL d   1      -4.825   2.005  -4.552  0.00  0.00     0.039 A 
ENDROOT
BRANCH   4   7
ATOM      7  O   UNL d   1      -3.933   5.480  -3.966  0.00  0.00    -0.526 OA
ATOM      8  H5  UNL d   1      -3.209   5.845  -3.430  0.00  0.00     0.418 HD
ENDBRANCH   4   7
TORSDOF 1
ENDMDL
