MODEL 1
REMARK minimizedAffinity 4.14759588
REMARK minimizedRMSD -1
REMARK  1 active torsions:
REMARK  status: ('A' for Active; 'I' for Inactive)
REMARK    1  A    between atoms: C3_4  and  O_7 
ROOT
ATOM      1  C   UNL d   1       0.903  -2.389   0.517  0.00  0.00    -0.033 A 
ATOM      2  C1  UNL d   1      -0.063  -1.997   1.446  0.00  0.00     0.039 A 
ATOM      3  C2  UNL d   1       0.320  -1.357   2.626  0.00  0.00    -0.080 A 
ATOM      4  C3  UNL d   1       1.670  -1.114   2.864  0.00  0.00     0.150 A 
ATOM      5  C4  UNL d   1       2.638  -1.498   1.941  0.00  0.00    -0.007 A 
ATOM      6  C5  UNL d   1       2.253  -2.138   0.764  0.00  0.00     0.039 A 
ENDROOT
BRANCH   4   7
ATOM      7  O   UNL d   1       2.093  -0.496   4.004  0.00  0.00    -0.526 OA
ATOM      8  H5  UNL d   1       1.318  -0.314   4.560  0.00  0.00     0.418 HD
ENDBRANCH   4   7
TORSDOF 1
ENDMDL
