MODEL 1
REMARK minimizedAffinity 5.39001179
REMARK minimizedRMSD -1
REMARK  1 active torsions:
REMARK  status: ('A' for Active; 'I' for Inactive)
REMARK    1  A    between atoms: C3_4  and  O_7 
ROOT
ATOM      1  C   UNL d   1       2.634  -1.174   1.315  0.00  0.00    -0.033 A 
ATOM      2  C1  UNL d   1       1.586  -1.751   0.594  0.00  0.00     0.039 A 
ATOM      3  C2  UNL d   1       0.318  -1.858   1.167  0.00  0.00    -0.080 A 
ATOM      4  C3  UNL d   1       0.110  -1.385   2.460  0.00  0.00     0.150 A 
ATOM      5  C4  UNL d   1       1.148  -0.805   3.182  0.00  0.00    -0.007 A 
ATOM      6  C5  UNL d   1       2.414  -0.700   2.608  0.00  0.00     0.039 A 
ENDROOT
BRANCH   4   7
ATOM      7  O   UNL d   1      -1.110  -1.472   3.063  0.00  0.00    -0.526 OA
ATOM      8  H5  UNL d   1      -1.722  -1.920   2.456  0.00  0.00     0.418 HD
ENDBRANCH   4   7
TORSDOF 1
ENDMDL
