MODEL 1
REMARK minimizedAffinity 9.09039307
REMARK minimizedRMSD -1
REMARK  1 active torsions:
REMARK  status: ('A' for Active; 'I' for Inactive)
REMARK    1  A    between atoms: C3_4  and  O_7 
ROOT
ATOM      1  C   UNL d   1       2.495  -1.063   2.128  0.00  0.00    -0.033 A 
ATOM      2  C1  UNL d   1       1.266  -1.451   1.593  0.00  0.00     0.039 A 
ATOM      3  C2  UNL d   1       1.184  -2.577   0.771  0.00  0.00    -0.080 A 
ATOM      4  C3  UNL d   1       2.338  -3.305   0.493  0.00  0.00     0.150 A 
ATOM      5  C4  UNL d   1       3.566  -2.926   1.026  0.00  0.00    -0.007 A 
ATOM      6  C5  UNL d   1       3.645  -1.801   1.846  0.00  0.00     0.039 A 
ENDROOT
BRANCH   4   7
ATOM      7  O   UNL d   1       2.309  -4.408  -0.307  0.00  0.00    -0.526 OA
ATOM      8  H5  UNL d   1       1.400  -4.533  -0.626  0.00  0.00     0.418 HD
ENDBRANCH   4   7
TORSDOF 1
ENDMDL
