MODEL 1
REMARK minimizedAffinity 6.90585327
REMARK minimizedRMSD -1
REMARK  1 active torsions:
REMARK  status: ('A' for Active; 'I' for Inactive)
REMARK    1  A    between atoms: C3_4  and  O_7 
ROOT
ATOM      1  C   UNL d   1       3.588  -2.623   5.365  0.00  0.00    -0.033 A 
ATOM      2  C1  UNL d   1       2.973  -3.806   5.780  0.00  0.00     0.039 A 
ATOM      3  C2  UNL d   1       3.738  -4.953   6.000  0.00  0.00    -0.080 A 
ATOM      4  C3  UNL d   1       5.115  -4.904   5.803  0.00  0.00     0.150 A 
ATOM      5  C4  UNL d   1       5.735  -3.729   5.393  0.00  0.00    -0.007 A 
ATOM      6  C5  UNL d   1       4.970  -2.584   5.173  0.00  0.00     0.039 A 
ENDROOT
BRANCH   4   7
ATOM      7  O   UNL d   1       5.902  -6.000   6.000  0.00  0.00    -0.526 OA
ATOM      8  H5  UNL d   1       5.334  -6.746   6.253  0.00  0.00     0.418 HD
ENDBRANCH   4   7
TORSDOF 1
ENDMDL
