MODEL 1
REMARK minimizedAffinity 8.3543272
REMARK minimizedRMSD -1
REMARK  1 active torsions:
REMARK  status: ('A' for Active; 'I' for Inactive)
REMARK    1  A    between atoms: C3_4  and  O_7 
ROOT
ATOM      1  C   UNL d   1      -2.924   1.822  -2.577  0.00  0.00    -0.033 A 
ATOM      2  C1  UNL d   1      -2.908   2.776  -3.596  0.00  0.00     0.039 A 
ATOM      3  C2  UNL d   1      -1.698   3.334  -4.013  0.00  0.00    -0.080 A 
ATOM      4  C3  UNL d   1      -0.513   2.929  -3.405  0.00  0.00     0.150 A 
ATOM      5  C4  UNL d   1      -0.521   1.976  -2.392  0.00  0.00    -0.007 A 
ATOM      6  C5  UNL d   1      -1.730   1.421  -1.976  0.00  0.00     0.039 A 
ENDROOT
BRANCH   4   7
ATOM      7  O   UNL d   1       0.691   3.449  -3.776  0.00  0.00    -0.526 OA
ATOM      8  H5  UNL d   1       0.540   4.116  -4.466  0.00  0.00     0.418 HD
ENDBRANCH   4   7
TORSDOF 1
ENDMDL
