MODEL 1
REMARK minimizedAffinity 4.07499456
REMARK minimizedRMSD -1
REMARK  0 active torsions:
REMARK  status: ('A' for Active; 'I' for Inactive)
ROOT
ATOM      1  O1  BZF d   1       3.189   5.986  -5.976  0.00  0.00    -0.204 OA
ATOM      2  C2  BZF d   1       4.571   5.961  -5.998  0.00  0.00     0.174 A 
ATOM      3  C3  BZF d   1       5.027   4.693  -5.956  0.00  0.00    -0.012 A 
ATOM      4  C3A BZF d   1       3.857   3.870  -5.998  0.00  0.00    -0.107 A 
ATOM      5  C4  BZF d   1       3.658   2.519  -6.000  0.00  0.00     0.055 A 
ATOM      6  C5  BZF d   1       2.388   2.038  -5.973  0.00  0.00    -0.016 A 
ATOM      7  C6  BZF d   1       1.294   2.878  -5.937  0.00  0.00     0.022 A 
ATOM      8  C7  BZF d   1       1.440   4.225  -5.939  0.00  0.00     0.029 A 
ATOM      9  C7A BZF d   1       2.722   4.715  -6.000  0.00  0.00     0.058 A 
ENDROOT
TORSDOF 0
ENDMDL
