MODEL 1
REMARK minimizedAffinity 2.71587515
REMARK minimizedRMSD -1
REMARK  0 active torsions:
REMARK  status: ('A' for Active; 'I' for Inactive)
ROOT
ATOM      1  O1  BZF d   1       1.942   2.124  -5.910  0.00  0.00    -0.204 OA
ATOM      2  C2  BZF d   1       3.181   1.513  -5.910  0.00  0.00     0.174 A 
ATOM      3  C3  BZF d   1       4.166   2.430  -5.989  0.00  0.00    -0.012 A 
ATOM      4  C3A BZF d   1       3.504   3.698  -5.950  0.00  0.00    -0.107 A 
ATOM      5  C4  BZF d   1       3.947   4.990  -5.978  0.00  0.00     0.055 A 
ATOM      6  C5  BZF d   1       3.038   5.999  -5.998  0.00  0.00    -0.016 A 
ATOM      7  C6  BZF d   1       1.680   5.754  -5.997  0.00  0.00     0.022 A 
ATOM      8  C7  BZF d   1       1.193   4.490  -5.964  0.00  0.00     0.029 A 
ATOM      9  C7A BZF d   1       2.110   3.468  -5.911  0.00  0.00     0.058 A 
ENDROOT
TORSDOF 0
ENDMDL
