MODEL 1
REMARK minimizedAffinity 10.6743565
REMARK minimizedRMSD -1
REMARK  0 active torsions:
REMARK  status: ('A' for Active; 'I' for Inactive)
ROOT
ATOM      1  O1  BZF d   1       3.435  -1.441   3.938  0.00  0.00    -0.204 OA
ATOM      2  C2  BZF d   1       4.495  -2.300   4.157  0.00  0.00     0.174 A 
ATOM      3  C3  BZF d   1       4.625  -3.170   3.135  0.00  0.00    -0.012 A 
ATOM      4  C3A BZF d   1       3.639  -2.774   2.176  0.00  0.00    -0.107 A 
ATOM      5  C4  BZF d   1       3.287  -3.244   0.943  0.00  0.00     0.055 A 
ATOM      6  C5  BZF d   1       2.231  -2.680   0.299  0.00  0.00    -0.016 A 
ATOM      7  C6  BZF d   1       1.503  -1.651   0.859  0.00  0.00     0.022 A 
ATOM      8  C7  BZF d   1       1.818  -1.149   2.078  0.00  0.00     0.029 A 
ATOM      9  C7A BZF d   1       2.904  -1.694   2.717  0.00  0.00     0.058 A 
ENDROOT
TORSDOF 0
ENDMDL
