MODEL 1
REMARK minimizedAffinity 3.03559995
REMARK minimizedRMSD -1
REMARK  0 active torsions:
REMARK  status: ('A' for Active; 'I' for Inactive)
ROOT
ATOM      1  O1  BZF d   1       4.557  -5.147  -2.999  0.00  0.00    -0.204 OA
ATOM      2  C2  BZF d   1       5.623  -6.000  -2.794  0.00  0.00     0.174 A 
ATOM      3  C3  BZF d   1       6.000  -5.992  -1.499  0.00  0.00    -0.012 A 
ATOM      4  C3A BZF d   1       5.054  -5.146  -0.837  0.00  0.00    -0.107 A 
ATOM      5  C4  BZF d   1       4.891  -4.757   0.462  0.00  0.00     0.055 A 
ATOM      6  C5  BZF d   1       3.911  -3.865   0.765  0.00  0.00    -0.016 A 
ATOM      7  C6  BZF d   1       3.082  -3.339  -0.204  0.00  0.00     0.022 A 
ATOM      8  C7  BZF d   1       3.202  -3.700  -1.505  0.00  0.00     0.029 A 
ATOM      9  C7A BZF d   1       4.170  -4.626  -1.810  0.00  0.00     0.058 A 
ENDROOT
TORSDOF 0
ENDMDL
