MODEL 1
REMARK minimizedAffinity -0.267236829
REMARK minimizedRMSD -1
REMARK  0 active torsions:
REMARK  status: ('A' for Active; 'I' for Inactive)
ROOT
ATOM      1  O1  BZF d   1       5.420   3.622  -5.952  0.00  0.00    -0.204 OA
ATOM      2  C2  BZF d   1       5.807   2.295  -5.927  0.00  0.00     0.174 A 
ATOM      3  C3  BZF d   1       4.731   1.484  -5.877  0.00  0.00    -0.012 A 
ATOM      4  C3A BZF d   1       3.599   2.355  -5.964  0.00  0.00    -0.107 A 
ATOM      5  C4  BZF d   1       2.250   2.143  -5.981  0.00  0.00     0.055 A 
ATOM      6  C5  BZF d   1       1.413   3.214  -6.000  0.00  0.00    -0.016 A 
ATOM      7  C6  BZF d   1       1.890   4.508  -5.996  0.00  0.00     0.022 A 
ATOM      8  C7  BZF d   1       3.220   4.769  -5.985  0.00  0.00     0.029 A 
ATOM      9  C7A BZF d   1       4.068   3.689  -5.999  0.00  0.00     0.058 A 
ENDROOT
TORSDOF 0
ENDMDL
