MODEL 1
REMARK minimizedAffinity 7.43159771
REMARK minimizedRMSD -1
REMARK  0 active torsions:
REMARK  status: ('A' for Active; 'I' for Inactive)
ROOT
ATOM      1  O1  BZF d   1       4.652   3.919  -5.984  0.00  0.00    -0.204 OA
ATOM      2  C2  BZF d   1       5.274   2.685  -5.996  0.00  0.00     0.174 A 
ATOM      3  C3  BZF d   1       4.365   1.691  -5.938  0.00  0.00    -0.012 A 
ATOM      4  C3A BZF d   1       3.091   2.342  -5.980  0.00  0.00    -0.107 A 
ATOM      5  C4  BZF d   1       1.804   1.888  -5.971  0.00  0.00     0.055 A 
ATOM      6  C5  BZF d   1       0.786   2.788  -5.948  0.00  0.00    -0.016 A 
ATOM      7  C6  BZF d   1       1.019   4.148  -5.929  0.00  0.00     0.022 A 
ATOM      8  C7  BZF d   1       2.280   4.646  -5.942  0.00  0.00     0.029 A 
ATOM      9  C7A BZF d   1       3.310   3.739  -5.999  0.00  0.00     0.058 A 
ENDROOT
TORSDOF 0
ENDMDL
