MODEL 1
REMARK minimizedAffinity -0.173350558
REMARK minimizedRMSD -1
REMARK  0 active torsions:
REMARK  status: ('A' for Active; 'I' for Inactive)
ROOT
ATOM      1  O1  BZF d   1       5.235   2.272  -5.780  0.00  0.00    -0.204 OA
ATOM      2  C2  BZF d   1       4.083   1.524  -5.923  0.00  0.00     0.174 A 
ATOM      3  C3  BZF d   1       2.997   2.322  -5.978  0.00  0.00    -0.012 A 
ATOM      4  C3A BZF d   1       3.511   3.658  -5.954  0.00  0.00    -0.107 A 
ATOM      5  C4  BZF d   1       2.924   4.890  -6.000  0.00  0.00     0.055 A 
ATOM      6  C5  BZF d   1       3.704   5.997  -5.883  0.00  0.00    -0.016 A 
ATOM      7  C6  BZF d   1       5.070   5.908  -5.715  0.00  0.00     0.022 A 
ATOM      8  C7  BZF d   1       5.698   4.708  -5.669  0.00  0.00     0.029 A 
ATOM      9  C7A BZF d   1       4.917   3.588  -5.820  0.00  0.00     0.058 A 
ENDROOT
TORSDOF 0
ENDMDL
