MODEL 1
REMARK minimizedAffinity 4.47411346
REMARK minimizedRMSD -1
REMARK  0 active torsions:
REMARK  status: ('A' for Active; 'I' for Inactive)
ROOT
ATOM      1  O1  BZF d   1       2.253  -2.540   0.000  0.00  0.00    -0.204 OA
ATOM      2  C2  BZF d   1       1.335  -1.954   0.850  0.00  0.00     0.174 A 
ATOM      3  C3  BZF d   1       1.586  -2.291   2.132  0.00  0.00    -0.012 A 
ATOM      4  C3A BZF d   1       2.788  -3.066   2.088  0.00  0.00    -0.107 A 
ATOM      5  C4  BZF d   1       3.549  -3.672   3.047  0.00  0.00     0.055 A 
ATOM      6  C5  BZF d   1       4.623  -4.413   2.666  0.00  0.00    -0.016 A 
ATOM      7  C6  BZF d   1       4.961  -4.573   1.338  0.00  0.00     0.022 A 
ATOM      8  C7  BZF d   1       4.239  -3.987   0.352  0.00  0.00     0.029 A 
ATOM      9  C7A BZF d   1       3.173  -3.210   0.735  0.00  0.00     0.058 A 
ENDROOT
TORSDOF 0
ENDMDL
