MODEL 1
REMARK minimizedAffinity 4.48206186
REMARK minimizedRMSD -1
REMARK  0 active torsions:
REMARK  status: ('A' for Active; 'I' for Inactive)
ROOT
ATOM      1  O1  BZF d   1      -3.341   4.013  -3.045  0.00  0.00    -0.204 OA
ATOM      2  C2  BZF d   1      -2.728   3.008  -2.322  0.00  0.00     0.174 A 
ATOM      3  C3  BZF d   1      -3.284   1.811  -2.599  0.00  0.00    -0.012 A 
ATOM      4  C3A BZF d   1      -4.247   2.072  -3.624  0.00  0.00    -0.107 A 
ATOM      5  C4  BZF d   1      -5.111   1.279  -4.324  0.00  0.00     0.055 A 
ATOM      6  C5  BZF d   1      -5.971   1.856  -5.205  0.00  0.00    -0.016 A 
ATOM      7  C6  BZF d   1      -5.998   3.221  -5.405  0.00  0.00     0.022 A 
ATOM      8  C7  BZF d   1      -5.156   4.047  -4.737  0.00  0.00     0.029 A 
ATOM      9  C7A BZF d   1      -4.264   3.464  -3.871  0.00  0.00     0.058 A 
ENDROOT
TORSDOF 0
ENDMDL
