MODEL 1
REMARK minimizedAffinity 1.70714724
REMARK minimizedRMSD -1
REMARK  0 active torsions:
REMARK  status: ('A' for Active; 'I' for Inactive)
ROOT
ATOM      1  O1  BZF d   1       1.439   1.633  -5.912  0.00  0.00    -0.204 OA
ATOM      2  C2  BZF d   1       0.391   2.533  -5.911  0.00  0.00     0.174 A 
ATOM      3  C3  BZF d   1       0.849   3.801  -5.886  0.00  0.00    -0.012 A 
ATOM      4  C3A BZF d   1       2.273   3.688  -5.964  0.00  0.00    -0.107 A 
ATOM      5  C4  BZF d   1       3.287   4.603  -5.996  0.00  0.00     0.055 A 
ATOM      6  C5  BZF d   1       4.573   4.163  -6.000  0.00  0.00    -0.016 A 
ATOM      7  C6  BZF d   1       4.881   2.819  -5.967  0.00  0.00     0.022 A 
ATOM      8  C7  BZF d   1       3.909   1.875  -5.939  0.00  0.00     0.029 A 
ATOM      9  C7A BZF d   1       2.609   2.315  -5.969  0.00  0.00     0.058 A 
ENDROOT
TORSDOF 0
ENDMDL
