MODEL 1
REMARK minimizedAffinity 4.06015348
REMARK minimizedRMSD -1
REMARK  0 active torsions:
REMARK  status: ('A' for Active; 'I' for Inactive)
ROOT
ATOM      1  C2' OXE d   1      -2.911   1.870   2.679  0.00  0.00     0.078 C 
ATOM      2  C1' OXE d   1      -1.997   3.786   0.841  0.00  0.00     0.078 C 
ATOM      3  C1  OXE d   1      -1.068   2.652   1.197  0.00  0.00    -0.078 A 
ATOM      4  C2  OXE d   1      -1.505   1.746   2.132  0.00  0.00    -0.078 A 
ATOM      5  C3  OXE d   1      -0.709   0.651   2.456  0.00  0.00     0.003 A 
ATOM      6  C4  OXE d   1       0.594   0.548   1.954  0.00  0.00    -0.002 A 
ATOM      7  C5  OXE d   1       1.074   1.483   1.030  0.00  0.00    -0.002 A 
ATOM      8  C6  OXE d   1       0.242   2.515   0.610  0.00  0.00     0.003 A 
ENDROOT
TORSDOF 0
ENDMDL
