MODEL 1
REMARK minimizedAffinity -4.67186785
REMARK minimizedRMSD -1
REMARK  0 active torsions:
REMARK  status: ('A' for Active; 'I' for Inactive)
ROOT
ATOM      1  C2' OXE d   1      -3.016   2.266   2.339  0.00  0.00     0.078 C 
ATOM      2  C1' OXE d   1      -3.062  -0.539   2.446  0.00  0.00     0.078 C 
ATOM      3  C1  OXE d   1      -1.819   0.124   1.907  0.00  0.00    -0.078 A 
ATOM      4  C2  OXE d   1      -1.823   1.495   1.815  0.00  0.00    -0.078 A 
ATOM      5  C3  OXE d   1      -0.682   2.160   1.377  0.00  0.00     0.003 A 
ATOM      6  C4  OXE d   1       0.413   1.439   0.885  0.00  0.00    -0.002 A 
ATOM      7  C5  OXE d   1       0.423   0.041   0.933  0.00  0.00    -0.002 A 
ATOM      8  C6  OXE d   1      -0.666  -0.629   1.479  0.00  0.00     0.003 A 
ENDROOT
TORSDOF 0
ENDMDL
