MODEL 1
REMARK minimizedAffinity -3.49200702
REMARK minimizedRMSD -1
REMARK  0 active torsions:
REMARK  status: ('A' for Active; 'I' for Inactive)
ROOT
ATOM      1  C2' OXE d   1      -2.605  -0.737   3.395  0.00  0.00     0.078 C 
ATOM      2  C1' OXE d   1      -3.439   1.904   2.939  0.00  0.00     0.078 C 
ATOM      3  C1  OXE d   1      -2.111   1.477   2.366  0.00  0.00    -0.078 A 
ATOM      4  C2  OXE d   1      -1.689   0.197   2.634  0.00  0.00    -0.078 A 
ATOM      5  C3  OXE d   1      -0.497  -0.266   2.084  0.00  0.00     0.003 A 
ATOM      6  C4  OXE d   1       0.349   0.607   1.390  0.00  0.00    -0.002 A 
ATOM      7  C5  OXE d   1      -0.043   1.927   1.139  0.00  0.00    -0.002 A 
ATOM      8  C6  OXE d   1      -1.286   2.364   1.583  0.00  0.00     0.003 A 
ENDROOT
TORSDOF 0
ENDMDL
