MODEL 1
REMARK minimizedAffinity 2.72500348
REMARK minimizedRMSD -1
REMARK  0 active torsions:
REMARK  status: ('A' for Active; 'I' for Inactive)
ROOT
ATOM      1  C2' OXE d   1       0.550   3.081   1.309  0.00  0.00     0.078 C 
ATOM      2  C1' OXE d   1       1.989   0.810   2.117  0.00  0.00     0.078 C 
ATOM      3  C1  OXE d   1       0.483   0.725   2.115  0.00  0.00    -0.078 A 
ATOM      4  C2  OXE d   1      -0.214   1.856   1.762  0.00  0.00    -0.078 A 
ATOM      5  C3  OXE d   1      -1.603   1.815   1.690  0.00  0.00     0.003 A 
ATOM      6  C4  OXE d   1      -2.302   0.681   2.121  0.00  0.00    -0.002 A 
ATOM      7  C5  OXE d   1      -1.613  -0.469   2.522  0.00  0.00    -0.002 A 
ATOM      8  C6  OXE d   1      -0.223  -0.477   2.484  0.00  0.00     0.003 A 
ENDROOT
TORSDOF 0
ENDMDL
