MODEL 1
REMARK minimizedAffinity 0.737875104
REMARK minimizedRMSD -1
REMARK  0 active torsions:
REMARK  status: ('A' for Active; 'I' for Inactive)
ROOT
ATOM      1  C2' OXE d   1      -1.288  -1.238   2.343  0.00  0.00     0.078 C 
ATOM      2  C1' OXE d   1       1.323  -0.548   1.578  0.00  0.00     0.078 C 
ATOM      3  C1  OXE d   1       0.303   0.558   1.672  0.00  0.00    -0.078 A 
ATOM      4  C2  OXE d   1      -0.983   0.205   2.002  0.00  0.00    -0.078 A 
ATOM      5  C3  OXE d   1      -1.951   1.193   2.157  0.00  0.00     0.003 A 
ATOM      6  C4  OXE d   1      -1.664   2.524   1.830  0.00  0.00    -0.002 A 
ATOM      7  C5  OXE d   1      -0.370   2.899   1.453  0.00  0.00    -0.002 A 
ATOM      8  C6  OXE d   1       0.633   1.937   1.411  0.00  0.00     0.003 A 
ENDROOT
TORSDOF 0
ENDMDL
