MODEL 1
REMARK minimizedAffinity 7.02823639
REMARK minimizedRMSD -1
REMARK  0 active torsions:
REMARK  status: ('A' for Active; 'I' for Inactive)
ROOT
ATOM      1  C2' OXE d   1      -2.156   1.930   3.174  0.00  0.00     0.078 C 
ATOM      2  C1' OXE d   1      -1.147   3.665   1.211  0.00  0.00     0.078 C 
ATOM      3  C1  OXE d   1      -0.467   2.330   1.387  0.00  0.00    -0.078 A 
ATOM      4  C2  OXE d   1      -0.938   1.507   2.382  0.00  0.00    -0.078 A 
ATOM      5  C3  OXE d   1      -0.382   0.242   2.551  0.00  0.00     0.003 A 
ATOM      6  C4  OXE d   1       0.751  -0.137   1.821  0.00  0.00    -0.002 A 
ATOM      7  C5  OXE d   1       1.272   0.702   0.831  0.00  0.00    -0.002 A 
ATOM      8  C6  OXE d   1       0.650   1.919   0.573  0.00  0.00     0.003 A 
ENDROOT
TORSDOF 0
ENDMDL
