MODEL 1
REMARK minimizedAffinity 0.0455274209
REMARK minimizedRMSD -1
REMARK  0 active torsions:
REMARK  status: ('A' for Active; 'I' for Inactive)
ROOT
ATOM      1  C2' OXE d   1       0.464   0.011   2.580  0.00  0.00     0.078 C 
ATOM      2  C1' OXE d   1      -2.332   0.127   2.351  0.00  0.00     0.078 C 
ATOM      3  C1  OXE d   1      -1.532   1.279   1.796  0.00  0.00    -0.078 A 
ATOM      4  C2  OXE d   1      -0.168   1.236   1.955  0.00  0.00    -0.078 A 
ATOM      5  C3  OXE d   1       0.621   2.247   1.413  0.00  0.00     0.003 A 
ATOM      6  C4  OXE d   1       0.029   3.381   0.845  0.00  0.00    -0.002 A 
ATOM      7  C5  OXE d   1      -1.361   3.464   0.709  0.00  0.00    -0.002 A 
ATOM      8  C6  OXE d   1      -2.152   2.404   1.141  0.00  0.00     0.003 A 
ENDROOT
TORSDOF 0
ENDMDL
