MODEL 1
REMARK minimizedAffinity -0.466666996
REMARK minimizedRMSD -1
REMARK  0 active torsions:
REMARK  status: ('A' for Active; 'I' for Inactive)
ROOT
ATOM      1  C2' OXE d   1      -2.214  -0.124   1.584  0.00  0.00     0.078 C 
ATOM      2  C1' OXE d   1       0.149  -1.616   1.853  0.00  0.00     0.078 C 
ATOM      3  C1  OXE d   1       0.272  -0.175   1.427  0.00  0.00    -0.078 A 
ATOM      4  C2  OXE d   1      -0.892   0.534   1.252  0.00  0.00    -0.078 A 
ATOM      5  C3  OXE d   1      -0.833   1.883   0.913  0.00  0.00     0.003 A 
ATOM      6  C4  OXE d   1       0.393   2.482   0.599  0.00  0.00    -0.002 A 
ATOM      7  C5  OXE d   1       1.587   1.766   0.732  0.00  0.00    -0.002 A 
ATOM      8  C6  OXE d   1       1.548   0.452   1.185  0.00  0.00     0.003 A 
ENDROOT
TORSDOF 0
ENDMDL
