MODEL 1
REMARK minimizedAffinity 7.63391209
REMARK minimizedRMSD -1
REMARK  0 active torsions:
REMARK  status: ('A' for Active; 'I' for Inactive)
ROOT
ATOM      1  C2' OXE d   1      -1.901   3.311   0.480  0.00  0.00     0.078 C 
ATOM      2  C1' OXE d   1      -2.487   1.026   2.001  0.00  0.00     0.078 C 
ATOM      3  C1  OXE d   1      -1.073   1.199   1.507  0.00  0.00    -0.078 A 
ATOM      4  C2  OXE d   1      -0.806   2.296   0.725  0.00  0.00    -0.078 A 
ATOM      5  C3  OXE d   1       0.495   2.533   0.289  0.00  0.00     0.003 A 
ATOM      6  C4  OXE d   1       1.500   1.584   0.511  0.00  0.00    -0.002 A 
ATOM      7  C5  OXE d   1       1.240   0.439   1.273  0.00  0.00    -0.002 A 
ATOM      8  C6  OXE d   1      -0.027   0.253   1.813  0.00  0.00     0.003 A 
ENDROOT
TORSDOF 0
ENDMDL
