MODEL 1
REMARK minimizedAffinity 4.82595444
REMARK minimizedRMSD -1
REMARK  0 active torsions:
REMARK  status: ('A' for Active; 'I' for Inactive)
ROOT
ATOM      1  C2' OXE d   1      -1.897  -5.579  -1.357  0.00  0.00     0.078 C 
ATOM      2  C1' OXE d   1       0.413  -4.405  -0.276  0.00  0.00     0.078 C 
ATOM      3  C1  OXE d   1      -0.882  -3.639  -0.167  0.00  0.00    -0.078 A 
ATOM      4  C2  OXE d   1      -1.998  -4.200  -0.740  0.00  0.00    -0.078 A 
ATOM      5  C3  OXE d   1      -3.229  -3.561  -0.621  0.00  0.00     0.003 A 
ATOM      6  C4  OXE d   1      -3.312  -2.282  -0.058  0.00  0.00    -0.002 A 
ATOM      7  C5  OXE d   1      -2.180  -1.675   0.496  0.00  0.00    -0.002 A 
ATOM      8  C6  OXE d   1      -0.968  -2.357   0.488  0.00  0.00     0.003 A 
ENDROOT
TORSDOF 0
ENDMDL
