MODEL 1
REMARK minimizedAffinity 5.49368238
REMARK minimizedRMSD -1
REMARK  0 active torsions:
REMARK  status: ('A' for Active; 'I' for Inactive)
ROOT
ATOM      1  C2' OXE d   1      -2.097  -5.999  -1.688  0.00  0.00     0.078 C 
ATOM      2  C1' OXE d   1      -0.706  -4.820   0.446  0.00  0.00     0.078 C 
ATOM      3  C1  OXE d   1      -1.816  -4.025  -0.195  0.00  0.00    -0.078 A 
ATOM      4  C2  OXE d   1      -2.460  -4.591  -1.268  0.00  0.00    -0.078 A 
ATOM      5  C3  OXE d   1      -3.528  -3.924  -1.862  0.00  0.00     0.003 A 
ATOM      6  C4  OXE d   1      -3.851  -2.618  -1.474  0.00  0.00    -0.002 A 
ATOM      7  C5  OXE d   1      -3.181  -2.007  -0.409  0.00  0.00    -0.002 A 
ATOM      8  C6  OXE d   1      -2.191  -2.712   0.267  0.00  0.00     0.003 A 
ENDROOT
TORSDOF 0
ENDMDL
