MODEL 1
REMARK minimizedAffinity 4.88843918
REMARK minimizedRMSD -1
REMARK  0 active torsions:
REMARK  status: ('A' for Active; 'I' for Inactive)
ROOT
ATOM      1  C2' OXE d   1      -3.231   1.416   2.844  0.00  0.00     0.078 C 
ATOM      2  C1' OXE d   1      -1.872  -1.035   2.677  0.00  0.00     0.078 C 
ATOM      3  C1  OXE d   1      -1.161   0.199   2.180  0.00  0.00    -0.078 A 
ATOM      4  C2  OXE d   1      -1.851   1.387   2.222  0.00  0.00    -0.078 A 
ATOM      5  C3  OXE d   1      -1.223   2.564   1.827  0.00  0.00     0.003 A 
ATOM      6  C4  OXE d   1       0.050   2.527   1.243  0.00  0.00    -0.002 A 
ATOM      7  C5  OXE d   1       0.755   1.321   1.154  0.00  0.00    -0.002 A 
ATOM      8  C6  OXE d   1       0.181   0.158   1.656  0.00  0.00     0.003 A 
ENDROOT
TORSDOF 0
ENDMDL
