MODEL 1
REMARK minimizedAffinity 6.11822987
REMARK minimizedRMSD -1
REMARK  0 active torsions:
REMARK  status: ('A' for Active; 'I' for Inactive)
ROOT
ATOM      1  C2' OXE d   1       1.859   0.134   1.201  0.00  0.00     0.078 C 
ATOM      2  C1' OXE d   1       1.870   2.904   0.744  0.00  0.00     0.078 C 
ATOM      3  C1  OXE d   1       0.592   2.279   1.243  0.00  0.00    -0.078 A 
ATOM      4  C2  OXE d   1       0.581   0.916   1.420  0.00  0.00    -0.078 A 
ATOM      5  C3  OXE d   1      -0.555   0.296   1.931  0.00  0.00     0.003 A 
ATOM      6  C4  OXE d   1      -1.735   1.025   2.121  0.00  0.00    -0.002 A 
ATOM      7  C5  OXE d   1      -1.758   2.408   1.910  0.00  0.00    -0.002 A 
ATOM      8  C6  OXE d   1      -0.593   3.055   1.512  0.00  0.00     0.003 A 
ENDROOT
TORSDOF 0
ENDMDL
