MODEL 1
REMARK minimizedAffinity 3.80843472
REMARK minimizedRMSD -1
REMARK  0 active torsions:
REMARK  status: ('A' for Active; 'I' for Inactive)
ROOT
ATOM      1  C2' OXE d   1      -3.293   1.712   2.870  0.00  0.00     0.078 C 
ATOM      2  C1' OXE d   1      -2.287   3.653   1.110  0.00  0.00     0.078 C 
ATOM      3  C1  OXE d   1      -1.377   2.514   1.495  0.00  0.00    -0.078 A 
ATOM      4  C2  OXE d   1      -1.862   1.594   2.393  0.00  0.00    -0.078 A 
ATOM      5  C3  OXE d   1      -1.083   0.493   2.740  0.00  0.00     0.003 A 
ATOM      6  C4  OXE d   1       0.243   0.397   2.303  0.00  0.00    -0.002 A 
ATOM      7  C5  OXE d   1       0.770   1.345   1.419  0.00  0.00    -0.002 A 
ATOM      8  C6  OXE d   1      -0.039   2.384   0.973  0.00  0.00     0.003 A 
ENDROOT
TORSDOF 0
ENDMDL
