MODEL 1
REMARK minimizedAffinity 5.41218472
REMARK minimizedRMSD -1
REMARK  0 active torsions:
REMARK  status: ('A' for Active; 'I' for Inactive)
ROOT
ATOM      1  C2' OXE d   1      -2.752  -0.960   2.645  0.00  0.00     0.078 C 
ATOM      2  C1' OXE d   1      -0.088  -1.838   2.749  0.00  0.00     0.078 C 
ATOM      3  C1  OXE d   1      -0.345  -0.423   2.296  0.00  0.00    -0.078 A 
ATOM      4  C2  OXE d   1      -1.655  -0.016   2.203  0.00  0.00    -0.078 A 
ATOM      5  C3  OXE d   1      -1.945   1.296   1.843  0.00  0.00     0.003 A 
ATOM      6  C4  OXE d   1      -0.925   2.160   1.427  0.00  0.00    -0.002 A 
ATOM      7  C5  OXE d   1       0.413   1.753   1.476  0.00  0.00    -0.002 A 
ATOM      8  C6  OXE d   1       0.722   0.482   1.947  0.00  0.00     0.003 A 
ENDROOT
TORSDOF 0
ENDMDL
