MODEL 1
REMARK minimizedAffinity 9.44057846
REMARK minimizedRMSD -1
REMARK  0 active torsions:
REMARK  status: ('A' for Active; 'I' for Inactive)
ROOT
ATOM      1  C2' OXE d   1      -2.942  -2.055  -0.736  0.00  0.00     0.078 C 
ATOM      2  C1' OXE d   1      -2.547  -1.004   1.837  0.00  0.00     0.078 C 
ATOM      3  C1  OXE d   1      -1.736  -2.212   1.438  0.00  0.00    -0.078 A 
ATOM      4  C2  OXE d   1      -1.970  -2.748   0.194  0.00  0.00    -0.078 A 
ATOM      5  C3  OXE d   1      -1.210  -3.829  -0.244  0.00  0.00     0.003 A 
ATOM      6  C4  OXE d   1      -0.320  -4.469   0.626  0.00  0.00    -0.002 A 
ATOM      7  C5  OXE d   1      -0.096  -3.964   1.911  0.00  0.00    -0.002 A 
ATOM      8  C6  OXE d   1      -0.763  -2.813   2.317  0.00  0.00     0.003 A 
ENDROOT
TORSDOF 0
ENDMDL
