MODEL 1
REMARK minimizedAffinity 2.66269803
REMARK minimizedRMSD -1
REMARK  0 active torsions:
REMARK  status: ('A' for Active; 'I' for Inactive)
ROOT
ATOM      1  C2' OXE d   1      -3.842  -0.550  -2.027  0.00  0.00     0.078 C 
ATOM      2  C1' OXE d   1      -2.895  -2.316  -3.993  0.00  0.00     0.078 C 
ATOM      3  C1  OXE d   1      -3.034  -2.840  -2.585  0.00  0.00    -0.078 A 
ATOM      4  C2  OXE d   1      -3.454  -1.956  -1.620  0.00  0.00    -0.078 A 
ATOM      5  C3  OXE d   1      -3.652  -2.401  -0.317  0.00  0.00     0.003 A 
ATOM      6  C4  OXE d   1      -3.281  -3.700   0.053  0.00  0.00    -0.002 A 
ATOM      7  C5  OXE d   1      -2.814  -4.605  -0.906  0.00  0.00    -0.002 A 
ATOM      8  C6  OXE d   1      -2.725  -4.204  -2.235  0.00  0.00     0.003 A 
ENDROOT
TORSDOF 0
ENDMDL
