MODEL 1
REMARK minimizedAffinity 11.9092999
REMARK minimizedRMSD -1
REMARK  0 active torsions:
REMARK  status: ('A' for Active; 'I' for Inactive)
ROOT
ATOM      1  C2' OXE d   1       3.418   5.796  -1.868  0.00  0.00     0.078 C 
ATOM      2  C1' OXE d   1       1.602   4.733  -3.726  0.00  0.00     0.078 C 
ATOM      3  C1  OXE d   1       2.974   5.114  -4.223  0.00  0.00    -0.078 A 
ATOM      4  C2  OXE d   1       3.841   5.676  -3.316  0.00  0.00    -0.078 A 
ATOM      5  C3  OXE d   1       5.138   5.995  -3.709  0.00  0.00     0.003 A 
ATOM      6  C4  OXE d   1       5.517   5.891  -5.052  0.00  0.00    -0.002 A 
ATOM      7  C5  OXE d   1       4.637   5.357  -6.000  0.00  0.00    -0.002 A 
ATOM      8  C6  OXE d   1       3.379   4.925  -5.594  0.00  0.00     0.003 A 
ENDROOT
TORSDOF 0
ENDMDL
