MODEL 1
REMARK minimizedAffinity -1.48022759
REMARK minimizedRMSD -1
REMARK  0 active torsions:
REMARK  status: ('A' for Active; 'I' for Inactive)
ROOT
ATOM      1  C2' OXE d   1       2.519  -0.120   3.138  0.00  0.00     0.078 C 
ATOM      2  C1' OXE d   1       1.172   1.561   1.337  0.00  0.00     0.078 C 
ATOM      3  C1  OXE d   1       0.362   0.518   2.067  0.00  0.00    -0.078 A 
ATOM      4  C2  OXE d   1       1.037  -0.330   2.911  0.00  0.00    -0.078 A 
ATOM      5  C3  OXE d   1       0.330  -1.274   3.650  0.00  0.00     0.003 A 
ATOM      6  C4  OXE d   1      -1.039  -1.469   3.427  0.00  0.00    -0.002 A 
ATOM      7  C5  OXE d   1      -1.738  -0.642   2.542  0.00  0.00    -0.002 A 
ATOM      8  C6  OXE d   1      -1.062   0.382   1.887  0.00  0.00     0.003 A 
ENDROOT
TORSDOF 0
ENDMDL
