MODEL 1
REMARK minimizedAffinity -3.09393215
REMARK minimizedRMSD -1
REMARK  1 active torsions:
REMARK  status: ('A' for Active; 'I' for Inactive)
REMARK    1  A    between atoms: C1_2  and  C2_3 
ROOT
ATOM      1  C2  UNL d   1       0.514  -0.653   0.908  0.00  0.00    -0.077 A 
ATOM      2  C3  UNL d   1      -0.798  -0.261   0.608  0.00  0.00     0.002 A 
ATOM      3  C4  UNL d   1      -1.199  -0.090  -0.719  0.00  0.00     0.002 A 
ATOM      4  C5  UNL d   1      -0.295  -0.313  -1.755  0.00  0.00    -0.004 A 
ATOM      5  C6  UNL d   1       1.013  -0.701  -1.467  0.00  0.00     0.002 A 
ATOM      6  C7  UNL d   1       1.415  -0.871  -0.142  0.00  0.00     0.002 A 
ENDROOT
BRANCH   1   7
ATOM      7  C1  UNL d   1       0.934  -0.885   2.336  0.00  0.00     0.055 C 
ATOM      8  C   UNL d   1       0.089  -1.966   2.992  0.00  0.00     0.019 C 
ENDBRANCH   1   7
TORSDOF 1
ENDMDL
