MODEL 1
REMARK minimizedAffinity -5.77612877
REMARK minimizedRMSD -1
REMARK  1 active torsions:
REMARK  status: ('A' for Active; 'I' for Inactive)
REMARK    1  A    between atoms: C1_2  and  C2_3 
ROOT
ATOM      1  C2  UNL d   1      -0.434   0.165  -0.119  0.00  0.00    -0.077 A 
ATOM      2  C3  UNL d   1       0.873   0.163   0.388  0.00  0.00     0.002 A 
ATOM      3  C4  UNL d   1       1.133  -0.323   1.671  0.00  0.00     0.002 A 
ATOM      4  C5  UNL d   1       0.091  -0.814   2.456  0.00  0.00    -0.004 A 
ATOM      5  C6  UNL d   1      -1.213  -0.814   1.962  0.00  0.00     0.002 A 
ATOM      6  C7  UNL d   1      -1.474  -0.327   0.680  0.00  0.00     0.002 A 
ENDROOT
BRANCH   1   7
ATOM      7  C1  UNL d   1      -0.708   0.643  -1.521  0.00  0.00     0.055 C 
ATOM      8  C   UNL d   1       0.049   1.927  -1.826  0.00  0.00     0.019 C 
ENDBRANCH   1   7
TORSDOF 1
ENDMDL
