MODEL 1
REMARK minimizedAffinity -5.3227253
REMARK minimizedRMSD -1
REMARK  1 active torsions:
REMARK  status: ('A' for Active; 'I' for Inactive)
REMARK    1  A    between atoms: C1_2  and  C2_3 
ROOT
ATOM      1  C2  UNL d   1       0.143  -0.263   0.251  0.00  0.00    -0.077 A 
ATOM      2  C3  UNL d   1      -1.065  -0.364   0.954  0.00  0.00     0.002 A 
ATOM      3  C4  UNL d   1      -1.066  -0.662   2.318  0.00  0.00     0.002 A 
ATOM      4  C5  UNL d   1       0.138  -0.858   2.991  0.00  0.00    -0.004 A 
ATOM      5  C6  UNL d   1       1.345  -0.762   2.299  0.00  0.00     0.002 A 
ATOM      6  C7  UNL d   1       1.348  -0.465   0.936  0.00  0.00     0.002 A 
ENDROOT
BRANCH   1   7
ATOM      7  C1  UNL d   1       0.148   0.108  -1.209  0.00  0.00     0.055 C 
ATOM      8  C   UNL d   1      -0.930   1.135  -1.523  0.00  0.00     0.019 C 
ENDBRANCH   1   7
TORSDOF 1
ENDMDL
