MODEL 1
REMARK minimizedAffinity -3.11202693
REMARK minimizedRMSD -1
REMARK  1 active torsions:
REMARK  status: ('A' for Active; 'I' for Inactive)
REMARK    1  A    between atoms: C1_2  and  C2_3 
ROOT
ATOM      1  C2  UNL d   1      -0.156  -0.438   0.337  0.00  0.00    -0.077 A 
ATOM      2  C3  UNL d   1      -0.966  -0.743   1.440  0.00  0.00     0.002 A 
ATOM      3  C4  UNL d   1      -0.409  -0.853   2.716  0.00  0.00     0.002 A 
ATOM      4  C5  UNL d   1       0.958  -0.656   2.901  0.00  0.00    -0.004 A 
ATOM      5  C6  UNL d   1       1.772  -0.353   1.810  0.00  0.00     0.002 A 
ATOM      6  C7  UNL d   1       1.217  -0.244   0.534  0.00  0.00     0.002 A 
ENDROOT
BRANCH   1   7
ATOM      7  C1  UNL d   1      -0.763  -0.270  -1.031  0.00  0.00     0.055 C 
ATOM      8  C   UNL d   1      -0.681   1.176  -1.500  0.00  0.00     0.019 C 
ENDBRANCH   1   7
TORSDOF 1
ENDMDL
