MODEL 1
REMARK minimizedAffinity -4.52363062
REMARK minimizedRMSD -1
REMARK  1 active torsions:
REMARK  status: ('A' for Active; 'I' for Inactive)
REMARK    1  A    between atoms: C1_2  and  C2_3 
ROOT
ATOM      1  C2  UNL d   1      -0.297  -0.078   0.082  0.00  0.00    -0.077 A 
ATOM      2  C3  UNL d   1       0.790  -0.236   0.954  0.00  0.00     0.002 A 
ATOM      3  C4  UNL d   1       0.576  -0.519   2.305  0.00  0.00     0.002 A 
ATOM      4  C5  UNL d   1      -0.721  -0.651   2.794  0.00  0.00    -0.004 A 
ATOM      5  C6  UNL d   1      -1.809  -0.495   1.935  0.00  0.00     0.002 A 
ATOM      6  C7  UNL d   1      -1.597  -0.211   0.586  0.00  0.00     0.002 A 
ENDROOT
BRANCH   1   7
ATOM      7  C1  UNL d   1      -0.068   0.178  -1.384  0.00  0.00     0.055 C 
ATOM      8  C   UNL d   1      -0.566   1.558  -1.789  0.00  0.00     0.019 C 
ENDBRANCH   1   7
TORSDOF 1
ENDMDL
