MODEL 1
REMARK minimizedAffinity -4.23019886
REMARK minimizedRMSD -1
REMARK  1 active torsions:
REMARK  status: ('A' for Active; 'I' for Inactive)
REMARK    1  A    between atoms: C1_2  and  C2_3 
ROOT
ATOM      1  C2  UNL d   1      -0.846   0.974  -1.513  0.00  0.00    -0.077 A 
ATOM      2  C3  UNL d   1      -2.107   1.196  -2.084  0.00  0.00     0.002 A 
ATOM      3  C4  UNL d   1      -2.301   2.248  -2.981  0.00  0.00     0.002 A 
ATOM      4  C5  UNL d   1      -1.238   3.083  -3.319  0.00  0.00    -0.004 A 
ATOM      5  C6  UNL d   1       0.020   2.872  -2.755  0.00  0.00     0.002 A 
ATOM      6  C7  UNL d   1       0.215   1.822  -1.856  0.00  0.00     0.002 A 
ENDROOT
BRANCH   1   7
ATOM      7  C1  UNL d   1      -0.623  -0.189  -0.582  0.00  0.00     0.055 C 
ATOM      8  C   UNL d   1       0.857  -0.389  -0.291  0.00  0.00     0.019 C 
ENDBRANCH   1   7
TORSDOF 1
ENDMDL
