MODEL 1
REMARK minimizedAffinity 3.63359308
REMARK minimizedRMSD -1
REMARK  0 active torsions:
REMARK  status: ('A' for Active; 'I' for Inactive)
ROOT
ATOM      1  C2' OXE d   1       1.003   3.803   1.489  0.00  0.00     0.078 C 
ATOM      2  C1' OXE d   1       1.924   1.194   1.015  0.00  0.00     0.078 C 
ATOM      3  C1  OXE d   1       1.448   1.998  -0.169  0.00  0.00    -0.078 A 
ATOM      4  C2  OXE d   1       0.956   3.257   0.079  0.00  0.00    -0.078 A 
ATOM      5  C3  OXE d   1       0.554   4.062  -0.984  0.00  0.00     0.003 A 
ATOM      6  C4  OXE d   1       0.504   3.546  -2.284  0.00  0.00    -0.002 A 
ATOM      7  C5  OXE d   1       0.964   2.252  -2.553  0.00  0.00    -0.002 A 
ATOM      8  C6  OXE d   1       1.477   1.482  -1.515  0.00  0.00     0.003 A 
ENDROOT
TORSDOF 0
ENDMDL
