MODEL 1
REMARK minimizedAffinity 0.0890065879
REMARK minimizedRMSD -1
REMARK  0 active torsions:
REMARK  status: ('A' for Active; 'I' for Inactive)
ROOT
ATOM      1  C2' OXE d   1       0.854   3.752  -1.545  0.00  0.00     0.078 C 
ATOM      2  C1' OXE d   1       0.310   2.804   1.041  0.00  0.00     0.078 C 
ATOM      3  C1  OXE d   1       0.770   1.806   0.008  0.00  0.00    -0.078 A 
ATOM      4  C2  OXE d   1       0.989   2.270  -1.267  0.00  0.00    -0.078 A 
ATOM      5  C3  OXE d   1       1.467   1.402  -2.244  0.00  0.00     0.003 A 
ATOM      6  C4  OXE d   1       1.579   0.031  -1.981  0.00  0.00    -0.002 A 
ATOM      7  C5  OXE d   1       1.323  -0.469  -0.700  0.00  0.00    -0.002 A 
ATOM      8  C6  OXE d   1       0.959   0.409   0.314  0.00  0.00     0.003 A 
ENDROOT
TORSDOF 0
ENDMDL
