MODEL 1
REMARK minimizedAffinity -2.20636296
REMARK minimizedRMSD -1
REMARK  0 active torsions:
REMARK  status: ('A' for Active; 'I' for Inactive)
ROOT
ATOM      1  C2' OXE d   1       0.864   3.675  -1.572  0.00  0.00     0.078 C 
ATOM      2  C1' OXE d   1       0.860   3.484   1.229  0.00  0.00     0.078 C 
ATOM      3  C1  OXE d   1       0.958   2.204   0.437  0.00  0.00    -0.078 A 
ATOM      4  C2  OXE d   1       0.912   2.303  -0.933  0.00  0.00    -0.078 A 
ATOM      5  C3  OXE d   1       1.052   1.159  -1.712  0.00  0.00     0.003 A 
ATOM      6  C4  OXE d   1       1.086  -0.107  -1.114  0.00  0.00    -0.002 A 
ATOM      7  C5  OXE d   1       1.094  -0.233   0.280  0.00  0.00    -0.002 A 
ATOM      8  C6  OXE d   1       1.073   0.912   1.068  0.00  0.00     0.003 A 
ENDROOT
TORSDOF 0
ENDMDL
