MODEL 1
REMARK minimizedAffinity 7.08716106
REMARK minimizedRMSD -1
REMARK  0 active torsions:
REMARK  status: ('A' for Active; 'I' for Inactive)
ROOT
ATOM      1  C2' OXE d   1      -2.833   1.850   5.466  0.00  0.00     0.078 C 
ATOM      2  C1' OXE d   1      -1.906   4.131   4.117  0.00  0.00     0.078 C 
ATOM      3  C1  OXE d   1      -2.599   3.065   3.304  0.00  0.00    -0.078 A 
ATOM      4  C2  OXE d   1      -3.007   1.932   3.965  0.00  0.00    -0.078 A 
ATOM      5  C3  OXE d   1      -3.700   0.942   3.273  0.00  0.00     0.003 A 
ATOM      6  C4  OXE d   1      -3.848   1.021   1.883  0.00  0.00    -0.002 A 
ATOM      7  C5  OXE d   1      -3.404   2.149   1.184  0.00  0.00    -0.002 A 
ATOM      8  C6  OXE d   1      -2.817   3.197   1.885  0.00  0.00     0.003 A 
ENDROOT
TORSDOF 0
ENDMDL
