MODEL 1
REMARK minimizedAffinity -0.494066268
REMARK minimizedRMSD -1
REMARK  0 active torsions:
REMARK  status: ('A' for Active; 'I' for Inactive)
ROOT
ATOM      1  C2' OXE d   1       0.619   3.694  -1.293  0.00  0.00     0.078 C 
ATOM      2  C1' OXE d   1       1.196   2.961   1.354  0.00  0.00     0.078 C 
ATOM      3  C1  OXE d   1       1.253   1.886   0.298  0.00  0.00    -0.078 A 
ATOM      4  C2  OXE d   1       0.923   2.244  -0.987  0.00  0.00    -0.078 A 
ATOM      5  C3  OXE d   1       1.013   1.303  -2.009  0.00  0.00     0.003 A 
ATOM      6  C4  OXE d   1       1.285  -0.039  -1.716  0.00  0.00    -0.002 A 
ATOM      7  C5  OXE d   1       1.585  -0.433  -0.407  0.00  0.00    -0.002 A 
ATOM      8  C6  OXE d   1       1.615   0.523   0.602  0.00  0.00     0.003 A 
ENDROOT
TORSDOF 0
ENDMDL
