MODEL 1
REMARK minimizedAffinity 4.76717615
REMARK minimizedRMSD -1
REMARK  0 active torsions:
REMARK  status: ('A' for Active; 'I' for Inactive)
ROOT
ATOM      1  C2' OXE d   1       0.729   4.317  -0.842  0.00  0.00     0.078 C 
ATOM      2  C1' OXE d   1       1.575   3.100   1.542  0.00  0.00     0.078 C 
ATOM      3  C1  OXE d   1       1.444   2.231   0.316  0.00  0.00    -0.078 A 
ATOM      4  C2  OXE d   1       0.984   2.825  -0.834  0.00  0.00    -0.078 A 
ATOM      5  C3  OXE d   1       0.897   2.081  -2.008  0.00  0.00     0.003 A 
ATOM      6  C4  OXE d   1       1.125   0.700  -1.990  0.00  0.00    -0.002 A 
ATOM      7  C5  OXE d   1       1.555   0.067  -0.819  0.00  0.00    -0.002 A 
ATOM      8  C6  OXE d   1       1.760   0.824   0.329  0.00  0.00     0.003 A 
ENDROOT
TORSDOF 0
ENDMDL
