MODEL 1
REMARK minimizedAffinity -0.967686892
REMARK minimizedRMSD -1
REMARK  0 active torsions:
REMARK  status: ('A' for Active; 'I' for Inactive)
ROOT
ATOM      1  C2' OXE d   1       0.801   3.811  -1.602  0.00  0.00     0.078 C 
ATOM      2  C1' OXE d   1       0.788   2.982   1.079  0.00  0.00     0.078 C 
ATOM      3  C1  OXE d   1       0.903   1.919   0.015  0.00  0.00    -0.078 A 
ATOM      4  C2  OXE d   1       0.861   2.330  -1.295  0.00  0.00    -0.078 A 
ATOM      5  C3  OXE d   1       1.019   1.396  -2.316  0.00  0.00     0.003 A 
ATOM      6  C4  OXE d   1       1.064   0.028  -2.024  0.00  0.00    -0.002 A 
ATOM      7  C5  OXE d   1       1.068  -0.415  -0.697  0.00  0.00    -0.002 A 
ATOM      8  C6  OXE d   1       1.031   0.518   0.333  0.00  0.00     0.003 A 
ENDROOT
TORSDOF 0
ENDMDL
