MODEL 1
REMARK minimizedAffinity -5.27263832
REMARK minimizedRMSD -1
REMARK  0 active torsions:
REMARK  status: ('A' for Active; 'I' for Inactive)
ROOT
ATOM      1  C2' OXE d   1       1.364   0.410  -2.690  0.00  0.00     0.078 C 
ATOM      2  C1' OXE d   1       2.352  -0.500  -0.226  0.00  0.00     0.078 C 
ATOM      3  C1  OXE d   1       1.847   0.919  -0.300  0.00  0.00    -0.078 A 
ATOM      4  C2  OXE d   1       1.408   1.371  -1.522  0.00  0.00    -0.078 A 
ATOM      5  C3  OXE d   1       0.881   2.654  -1.633  0.00  0.00     0.003 A 
ATOM      6  C4  OXE d   1       0.935   3.539  -0.550  0.00  0.00    -0.002 A 
ATOM      7  C5  OXE d   1       1.414   3.112   0.693  0.00  0.00    -0.002 A 
ATOM      8  C6  OXE d   1       1.834   1.795   0.845  0.00  0.00     0.003 A 
ENDROOT
TORSDOF 0
ENDMDL
