MODEL 1
REMARK minimizedAffinity 1.73214567
REMARK minimizedRMSD -1
REMARK  0 active torsions:
REMARK  status: ('A' for Active; 'I' for Inactive)
ROOT
ATOM      1  C2' OXE d   1       1.162   2.947  -1.763  0.00  0.00     0.078 C 
ATOM      2  C1' OXE d   1       1.168   2.785   1.040  0.00  0.00     0.078 C 
ATOM      3  C1  OXE d   1       0.966   1.509   0.262  0.00  0.00    -0.078 A 
ATOM      4  C2  OXE d   1       0.917   1.604  -1.108  0.00  0.00    -0.078 A 
ATOM      5  C3  OXE d   1       0.787   0.450  -1.875  0.00  0.00     0.003 A 
ATOM      6  C4  OXE d   1       0.552  -0.786  -1.262  0.00  0.00    -0.002 A 
ATOM      7  C5  OXE d   1       0.557  -0.899   0.133  0.00  0.00    -0.002 A 
ATOM      8  C6  OXE d   1       0.805   0.229   0.907  0.00  0.00     0.003 A 
ENDROOT
TORSDOF 0
ENDMDL
