MODEL 1
REMARK minimizedAffinity 6.66951752
REMARK minimizedRMSD -1
REMARK  0 active torsions:
REMARK  status: ('A' for Active; 'I' for Inactive)
ROOT
ATOM      1  C2' OXE d   1       1.438   3.995  -1.043  0.00  0.00     0.078 C 
ATOM      2  C1' OXE d   1      -0.105   2.956  -3.145  0.00  0.00     0.078 C 
ATOM      3  C1  OXE d   1       0.696   1.985  -2.315  0.00  0.00    -0.078 A 
ATOM      4  C2  OXE d   1       1.485   2.507  -1.318  0.00  0.00    -0.078 A 
ATOM      5  C3  OXE d   1       2.202   1.651  -0.487  0.00  0.00     0.003 A 
ATOM      6  C4  OXE d   1       2.249   0.278  -0.754  0.00  0.00    -0.002 A 
ATOM      7  C5  OXE d   1       1.484  -0.270  -1.790  0.00  0.00    -0.002 A 
ATOM      8  C6  OXE d   1       0.671   0.563  -2.551  0.00  0.00     0.003 A 
ENDROOT
TORSDOF 0
ENDMDL
