MODEL 1
REMARK minimizedAffinity 4.1210022
REMARK minimizedRMSD -1
REMARK  0 active torsions:
REMARK  status: ('A' for Active; 'I' for Inactive)
ROOT
ATOM      1  C2' OXE d   1       0.726   3.556  -1.755  0.00  0.00     0.078 C 
ATOM      2  C1' OXE d   1       1.099   3.701   1.024  0.00  0.00     0.078 C 
ATOM      3  C1  OXE d   1       1.515   2.432   0.323  0.00  0.00    -0.078 A 
ATOM      4  C2  OXE d   1       1.286   2.352  -1.029  0.00  0.00    -0.078 A 
ATOM      5  C3  OXE d   1       1.700   1.225  -1.733  0.00  0.00     0.003 A 
ATOM      6  C4  OXE d   1       2.208   0.111  -1.053  0.00  0.00    -0.002 A 
ATOM      7  C5  OXE d   1       2.413   0.157   0.330  0.00  0.00    -0.002 A 
ATOM      8  C6  OXE d   1       2.112   1.322   1.025  0.00  0.00     0.003 A 
ENDROOT
TORSDOF 0
ENDMDL
