MODEL 1
REMARK minimizedAffinity 12.6596012
REMARK minimizedRMSD -1
REMARK  0 active torsions:
REMARK  status: ('A' for Active; 'I' for Inactive)
ROOT
ATOM      1  C2' OXE d   1      -1.170   3.745  -2.996  0.00  0.00     0.078 C 
ATOM      2  C1' OXE d   1       0.874   4.680  -1.314  0.00  0.00     0.078 C 
ATOM      3  C1  OXE d   1       0.846   3.207  -1.635  0.00  0.00    -0.078 A 
ATOM      4  C2  OXE d   1      -0.185   2.751  -2.421  0.00  0.00    -0.078 A 
ATOM      5  C3  OXE d   1      -0.227   1.410  -2.792  0.00  0.00     0.003 A 
ATOM      6  C4  OXE d   1       0.682   0.494  -2.247  0.00  0.00    -0.002 A 
ATOM      7  C5  OXE d   1       1.716   0.932  -1.413  0.00  0.00    -0.002 A 
ATOM      8  C6  OXE d   1       1.837   2.288  -1.132  0.00  0.00     0.003 A 
ENDROOT
TORSDOF 0
ENDMDL
