MODEL 1
REMARK minimizedAffinity 3.95618224
REMARK minimizedRMSD -1
REMARK  0 active torsions:
REMARK  status: ('A' for Active; 'I' for Inactive)
ROOT
ATOM      1  C2' OXE d   1       1.649   5.559  -0.819  0.00  0.00     0.078 C 
ATOM      2  C1' OXE d   1       1.551   4.067   1.557  0.00  0.00     0.078 C 
ATOM      3  C1  OXE d   1       1.277   3.345   0.261  0.00  0.00    -0.078 A 
ATOM      4  C2  OXE d   1       1.281   4.093  -0.892  0.00  0.00    -0.078 A 
ATOM      5  C3  OXE d   1       1.087   3.467  -2.120  0.00  0.00     0.003 A 
ATOM      6  C4  OXE d   1       0.737   2.112  -2.178  0.00  0.00    -0.002 A 
ATOM      7  C5  OXE d   1       0.688   1.341  -1.012  0.00  0.00    -0.002 A 
ATOM      8  C6  OXE d   1       0.997   1.931   0.209  0.00  0.00     0.003 A 
ENDROOT
TORSDOF 0
ENDMDL
