MODEL 1
REMARK minimizedAffinity -0.264894754
REMARK minimizedRMSD -1
REMARK  0 active torsions:
REMARK  status: ('A' for Active; 'I' for Inactive)
ROOT
ATOM      1  C2' OXE d   1       0.760  -3.059   0.318  0.00  0.00     0.078 C 
ATOM      2  C1' OXE d   1      -0.468  -2.686  -2.179  0.00  0.00     0.078 C 
ATOM      3  C1  OXE d   1       0.414  -1.580  -1.656  0.00  0.00    -0.078 A 
ATOM      4  C2  OXE d   1       0.974  -1.751  -0.413  0.00  0.00    -0.078 A 
ATOM      5  C3  OXE d   1       1.840  -0.785   0.092  0.00  0.00     0.003 A 
ATOM      6  C4  OXE d   1       2.024   0.426  -0.585  0.00  0.00    -0.002 A 
ATOM      7  C5  OXE d   1       1.431   0.637  -1.835  0.00  0.00    -0.002 A 
ATOM      8  C6  OXE d   1       0.660  -0.370  -2.403  0.00  0.00     0.003 A 
ENDROOT
TORSDOF 0
ENDMDL
