MODEL 1
REMARK minimizedAffinity 6.23664093
REMARK minimizedRMSD -1
REMARK  0 active torsions:
REMARK  status: ('A' for Active; 'I' for Inactive)
ROOT
ATOM      1  C2' OXE d   1       1.072   4.138  -0.810  0.00  0.00     0.078 C 
ATOM      2  C1' OXE d   1      -0.636   3.230  -2.845  0.00  0.00     0.078 C 
ATOM      3  C1  OXE d   1       0.151   2.199  -2.074  0.00  0.00    -0.078 A 
ATOM      4  C2  OXE d   1       1.019   2.656  -1.112  0.00  0.00    -0.078 A 
ATOM      5  C3  OXE d   1       1.728   1.744  -0.335  0.00  0.00     0.003 A 
ATOM      6  C4  OXE d   1       1.681   0.376  -0.628  0.00  0.00    -0.002 A 
ATOM      7  C5  OXE d   1       0.833  -0.107  -1.630  0.00  0.00    -0.002 A 
ATOM      8  C6  OXE d   1       0.031   0.786  -2.333  0.00  0.00     0.003 A 
ENDROOT
TORSDOF 0
ENDMDL
