MODEL 1
REMARK minimizedAffinity 12.3021164
REMARK minimizedRMSD -1
REMARK  0 active torsions:
REMARK  status: ('A' for Active; 'I' for Inactive)
ROOT
ATOM      1  C2' OXE d   1       0.909   4.529  -1.872  0.00  0.00     0.078 C 
ATOM      2  C1' OXE d   1      -1.639   3.426  -2.284  0.00  0.00     0.078 C 
ATOM      3  C1  OXE d   1      -0.507   2.482  -1.965  0.00  0.00    -0.078 A 
ATOM      4  C2  OXE d   1       0.745   3.025  -1.811  0.00  0.00    -0.078 A 
ATOM      5  C3  OXE d   1       1.814   2.205  -1.461  0.00  0.00     0.003 A 
ATOM      6  C4  OXE d   1       1.656   0.815  -1.416  0.00  0.00    -0.002 A 
ATOM      7  C5  OXE d   1       0.397   0.237  -1.609  0.00  0.00    -0.002 A 
ATOM      8  C6  OXE d   1      -0.701   1.058  -1.841  0.00  0.00     0.003 A 
ENDROOT
TORSDOF 0
ENDMDL
