MODEL 1
REMARK minimizedAffinity 6.0329566
REMARK minimizedRMSD -1
REMARK  0 active torsions:
REMARK  status: ('A' for Active; 'I' for Inactive)
ROOT
ATOM      1  C2' OXE d   1       0.808  -0.281  -1.513  0.00  0.00     0.078 C 
ATOM      2  C1' OXE d   1       1.656   1.090   0.785  0.00  0.00     0.078 C 
ATOM      3  C1  OXE d   1       1.188   1.911  -0.391  0.00  0.00    -0.078 A 
ATOM      4  C2  OXE d   1       0.819   1.233  -1.528  0.00  0.00    -0.078 A 
ATOM      5  C3  OXE d   1       0.327   1.938  -2.622  0.00  0.00     0.003 A 
ATOM      6  C4  OXE d   1       0.350   3.338  -2.632  0.00  0.00    -0.002 A 
ATOM      7  C5  OXE d   1       0.760   4.049  -1.498  0.00  0.00    -0.002 A 
ATOM      8  C6  OXE d   1       1.140   3.351  -0.357  0.00  0.00     0.003 A 
ENDROOT
TORSDOF 0
ENDMDL
