MODEL 1
REMARK minimizedAffinity -0.183011472
REMARK minimizedRMSD -1
REMARK  0 active torsions:
REMARK  status: ('A' for Active; 'I' for Inactive)
ROOT
ATOM      1  N1  IND d   1      -1.167   0.233  -0.122  0.00  0.00    -0.196 N 
ATOM      2  C2  IND d   1      -1.746  -0.964  -0.441  0.00  0.00     0.054 A 
ATOM      3  C3  IND d   1      -0.804  -1.928  -0.548  0.00  0.00    -0.031 A 
ATOM      4  C4  IND d   1       1.734  -1.787  -0.141  0.00  0.00     0.051 A 
ATOM      5  C5  IND d   1       2.733  -0.896   0.134  0.00  0.00    -0.031 A 
ATOM      6  C6  IND d   1       2.477   0.443   0.346  0.00  0.00     0.015 A 
ATOM      7  C7  IND d   1       1.206   0.942   0.300  0.00  0.00    -0.016 A 
ATOM      8  C8  IND d   1       0.190   0.041   0.014  0.00  0.00    -0.047 A 
ATOM      9  C9  IND d   1       0.448  -1.311  -0.244  0.00  0.00    -0.096 A 
ATOM     10  HN1 IND d   1      -1.582   0.980  -0.022  0.00  0.00     0.298 HD
ENDROOT
TORSDOF 0
ENDMDL
