MODEL 1
REMARK minimizedAffinity -2.09621119
REMARK minimizedRMSD -1
REMARK  0 active torsions:
REMARK  status: ('A' for Active; 'I' for Inactive)
ROOT
ATOM      1  N1  IND d   1       1.706   1.887  -0.027  0.00  0.00    -0.196 N 
ATOM      2  C2  IND d   1       3.062   1.784  -0.165  0.00  0.00     0.054 A 
ATOM      3  C3  IND d   1       3.422   0.490  -0.315  0.00  0.00    -0.031 A 
ATOM      4  C4  IND d   1       1.943  -1.612  -0.469  0.00  0.00     0.051 A 
ATOM      5  C5  IND d   1       0.645  -2.026  -0.362  0.00  0.00    -0.031 A 
ATOM      6  C6  IND d   1      -0.387  -1.139  -0.136  0.00  0.00     0.015 A 
ATOM      7  C7  IND d   1      -0.159   0.204  -0.019  0.00  0.00    -0.016 A 
ATOM      8  C8  IND d   1       1.158   0.627  -0.121  0.00  0.00    -0.047 A 
ATOM      9  C9  IND d   1       2.215  -0.274  -0.308  0.00  0.00    -0.096 A 
ATOM     10  HN1 IND d   1       1.268   2.617   0.097  0.00  0.00     0.298 HD
ENDROOT
TORSDOF 0
ENDMDL
