MODEL 1
REMARK minimizedAffinity -3.77096629
REMARK minimizedRMSD -1
REMARK  0 active torsions:
REMARK  status: ('A' for Active; 'I' for Inactive)
ROOT
ATOM      1  N1  IND d   1      -0.345   1.051  -0.081  0.00  0.00    -0.196 N 
ATOM      2  C2  IND d   1      -1.191   0.013  -0.353  0.00  0.00     0.054 A 
ATOM      3  C3  IND d   1      -0.488  -1.120  -0.579  0.00  0.00    -0.031 A 
ATOM      4  C4  IND d   1       2.052  -1.520  -0.454  0.00  0.00     0.051 A 
ATOM      5  C5  IND d   1       3.238  -0.865  -0.277  0.00  0.00    -0.031 A 
ATOM      6  C6  IND d   1       3.292   0.489  -0.018  0.00  0.00     0.015 A 
ATOM      7  C7  IND d   1       2.155   1.240   0.086  0.00  0.00    -0.016 A 
ATOM      8  C8  IND d   1       0.949   0.579  -0.100  0.00  0.00    -0.047 A 
ATOM      9  C9  IND d   1       0.890  -0.786  -0.406  0.00  0.00    -0.096 A 
ATOM     10  HN1 IND d   1      -0.581   1.863   0.076  0.00  0.00     0.298 HD
ENDROOT
TORSDOF 0
ENDMDL
