MODEL 1
REMARK minimizedAffinity -5.05573797
REMARK minimizedRMSD -1
REMARK  0 active torsions:
REMARK  status: ('A' for Active; 'I' for Inactive)
ROOT
ATOM      1  N1  IND d   1      -0.515   1.329  -0.247  0.00  0.00    -0.196 N 
ATOM      2  C2  IND d   1      -1.343   0.255  -0.420  0.00  0.00     0.054 A 
ATOM      3  C3  IND d   1      -0.627  -0.892  -0.447  0.00  0.00    -0.031 A 
ATOM      4  C4  IND d   1       1.902  -1.249  -0.124  0.00  0.00     0.051 A 
ATOM      5  C5  IND d   1       3.076  -0.565   0.028  0.00  0.00    -0.031 A 
ATOM      6  C6  IND d   1       3.113   0.813   0.100  0.00  0.00     0.015 A 
ATOM      7  C7  IND d   1       1.972   1.560   0.034  0.00  0.00    -0.016 A 
ATOM      8  C8  IND d   1       0.779   0.870  -0.127  0.00  0.00    -0.047 A 
ATOM      9  C9  IND d   1       0.739  -0.526  -0.244  0.00  0.00    -0.096 A 
ATOM     10  HN1 IND d   1      -0.760   2.152  -0.218  0.00  0.00     0.298 HD
ENDROOT
TORSDOF 0
ENDMDL
