MODEL 1
REMARK minimizedAffinity -0.227565929
REMARK minimizedRMSD -1
REMARK  0 active torsions:
REMARK  status: ('A' for Active; 'I' for Inactive)
ROOT
ATOM      1  N1  IND d   1       0.172   1.329  -0.250  0.00  0.00    -0.196 N 
ATOM      2  C2  IND d   1      -1.085   0.904  -0.579  0.00  0.00     0.054 A 
ATOM      3  C3  IND d   1      -1.080  -0.423  -0.839  0.00  0.00    -0.031 A 
ATOM      4  C4  IND d   1       0.856  -2.112  -0.685  0.00  0.00     0.051 A 
ATOM      5  C5  IND d   1       2.202  -2.191  -0.460  0.00  0.00    -0.031 A 
ATOM      6  C6  IND d   1       2.955  -1.078  -0.144  0.00  0.00     0.015 A 
ATOM      7  C7  IND d   1       2.385   0.158  -0.030  0.00  0.00    -0.016 A 
ATOM      8  C8  IND d   1       1.020   0.243  -0.265  0.00  0.00    -0.047 A 
ATOM      9  C9  IND d   1       0.258  -0.876  -0.627  0.00  0.00    -0.096 A 
ATOM     10  HN1 IND d   1       0.396   2.138  -0.064  0.00  0.00     0.298 HD
ENDROOT
TORSDOF 0
ENDMDL
