MODEL 1
REMARK minimizedAffinity -3.97638035
REMARK minimizedRMSD -1
REMARK  0 active torsions:
REMARK  status: ('A' for Active; 'I' for Inactive)
ROOT
ATOM      1  N1  IND d   1       1.848   1.768  -0.082  0.00  0.00    -0.196 N 
ATOM      2  C2  IND d   1       3.159   1.532   0.223  0.00  0.00     0.054 A 
ATOM      3  C3  IND d   1       3.430   0.210   0.142  0.00  0.00    -0.031 A 
ATOM      4  C4  IND d   1       1.900  -1.733  -0.573  0.00  0.00     0.051 A 
ATOM      5  C5  IND d   1       0.606  -2.017  -0.910  0.00  0.00    -0.031 A 
ATOM      6  C6  IND d   1      -0.359  -1.034  -0.992  0.00  0.00     0.015 A 
ATOM      7  C7  IND d   1      -0.062   0.277  -0.751  0.00  0.00    -0.016 A 
ATOM      8  C8  IND d   1       1.249   0.569  -0.402  0.00  0.00    -0.047 A 
ATOM      9  C9  IND d   1       2.223  -0.430  -0.275  0.00  0.00    -0.096 A 
ATOM     10  HN1 IND d   1       1.461   2.536  -0.075  0.00  0.00     0.298 HD
ENDROOT
TORSDOF 0
ENDMDL
