MODEL 1
REMARK minimizedAffinity -2.57690096
REMARK minimizedRMSD -1
REMARK  0 active torsions:
REMARK  status: ('A' for Active; 'I' for Inactive)
ROOT
ATOM      1  N1  IND d   1       2.226   0.898  -0.495  0.00  0.00    -0.196 N 
ATOM      2  C2  IND d   1       1.367   1.961  -0.507  0.00  0.00     0.054 A 
ATOM      3  C3  IND d   1       0.096   1.538  -0.688  0.00  0.00    -0.031 A 
ATOM      4  C4  IND d   1      -0.816  -0.862  -0.885  0.00  0.00     0.051 A 
ATOM      5  C5  IND d   1      -0.411  -2.164  -0.967  0.00  0.00    -0.031 A 
ATOM      6  C6  IND d   1       0.920  -2.521  -0.892  0.00  0.00     0.015 A 
ATOM      7  C7  IND d   1       1.899  -1.584  -0.719  0.00  0.00    -0.016 A 
ATOM      8  C8  IND d   1       1.493  -0.259  -0.643  0.00  0.00    -0.047 A 
ATOM      9  C9  IND d   1       0.147   0.112  -0.761  0.00  0.00    -0.096 A 
ATOM     10  HN1 IND d   1       3.080   0.943  -0.410  0.00  0.00     0.298 HD
ENDROOT
TORSDOF 0
ENDMDL
