MODEL 1
REMARK minimizedAffinity -1.58615601
REMARK minimizedRMSD -1
REMARK  0 active torsions:
REMARK  status: ('A' for Active; 'I' for Inactive)
ROOT
ATOM      1  N1  IND d   1       2.090   1.692  -0.149  0.00  0.00    -0.196 N 
ATOM      2  C2  IND d   1       0.810   2.140  -0.317  0.00  0.00     0.054 A 
ATOM      3  C3  IND d   1      -0.031   1.099  -0.511  0.00  0.00    -0.031 A 
ATOM      4  C4  IND d   1       0.462  -1.428  -0.489  0.00  0.00     0.051 A 
ATOM      5  C5  IND d   1       1.490  -2.324  -0.410  0.00  0.00    -0.031 A 
ATOM      6  C6  IND d   1       2.798  -1.920  -0.233  0.00  0.00     0.015 A 
ATOM      7  C7  IND d   1       3.125  -0.598  -0.117  0.00  0.00    -0.016 A 
ATOM      8  C8  IND d   1       2.084   0.315  -0.204  0.00  0.00    -0.047 A 
ATOM      9  C9  IND d   1       0.760  -0.087  -0.426  0.00  0.00    -0.096 A 
ATOM     10  HN1 IND d   1       2.783   2.186  -0.029  0.00  0.00     0.298 HD
ENDROOT
TORSDOF 0
ENDMDL
