MODEL 1
REMARK minimizedAffinity -3.75010967
REMARK minimizedRMSD -1
REMARK  0 active torsions:
REMARK  status: ('A' for Active; 'I' for Inactive)
ROOT
ATOM      1  N1  IND d   1       0.478   1.339  -0.212  0.00  0.00    -0.196 N 
ATOM      2  C2  IND d   1      -0.555   0.455  -0.352  0.00  0.00     0.054 A 
ATOM      3  C3  IND d   1      -0.092  -0.816  -0.339  0.00  0.00    -0.031 A 
ATOM      4  C4  IND d   1       2.310  -1.678   0.001  0.00  0.00     0.051 A 
ATOM      5  C5  IND d   1       3.600  -1.247   0.133  0.00  0.00    -0.031 A 
ATOM      6  C6  IND d   1       3.922   0.095   0.160  0.00  0.00     0.015 A 
ATOM      7  C7  IND d   1       2.960   1.060   0.067  0.00  0.00    -0.016 A 
ATOM      8  C8  IND d   1       1.649   0.626  -0.074  0.00  0.00    -0.047 A 
ATOM      9  C9  IND d   1       1.321  -0.734  -0.145  0.00  0.00    -0.096 A 
ATOM     10  HN1 IND d   1       0.408   2.196  -0.211  0.00  0.00     0.298 HD
ENDROOT
TORSDOF 0
ENDMDL
