MODEL 1
REMARK minimizedAffinity -2.08280587
REMARK minimizedRMSD -1
REMARK  0 active torsions:
REMARK  status: ('A' for Active; 'I' for Inactive)
ROOT
ATOM      1  N1  IND d   1       0.966   2.249  -0.111  0.00  0.00    -0.196 N 
ATOM      2  C2  IND d   1      -0.390   2.202  -0.279  0.00  0.00     0.054 A 
ATOM      3  C3  IND d   1      -0.798   0.925  -0.454  0.00  0.00    -0.031 A 
ATOM      4  C4  IND d   1       0.575  -1.252  -0.400  0.00  0.00     0.051 A 
ATOM      5  C5  IND d   1       1.858  -1.715  -0.313  0.00  0.00    -0.031 A 
ATOM      6  C6  IND d   1       2.931  -0.863  -0.149  0.00  0.00     0.015 A 
ATOM      7  C7  IND d   1       2.758   0.489  -0.053  0.00  0.00    -0.016 A 
ATOM      8  C8  IND d   1       1.457   0.963  -0.148  0.00  0.00    -0.047 A 
ATOM      9  C9  IND d   1       0.369   0.106  -0.357  0.00  0.00    -0.096 A 
ATOM     10  HN1 IND d   1       1.433   2.963  -0.001  0.00  0.00     0.298 HD
ENDROOT
TORSDOF 0
ENDMDL
