MODEL 1
REMARK minimizedAffinity -2.55386686
REMARK minimizedRMSD -1
REMARK  0 active torsions:
REMARK  status: ('A' for Active; 'I' for Inactive)
ROOT
ATOM      1  N1  IND d   1       0.347   1.087  -0.718  0.00  0.00    -0.196 N 
ATOM      2  C2  IND d   1      -0.790   0.380  -0.994  0.00  0.00     0.054 A 
ATOM      3  C3  IND d   1      -0.527  -0.946  -1.012  0.00  0.00    -0.031 A 
ATOM      4  C4  IND d   1       1.675  -2.183  -0.514  0.00  0.00     0.051 A 
ATOM      5  C5  IND d   1       2.998  -1.963  -0.248  0.00  0.00    -0.031 A 
ATOM      6  C6  IND d   1       3.514  -0.690  -0.119  0.00  0.00     0.015 A 
ATOM      7  C7  IND d   1       2.721   0.416  -0.242  0.00  0.00    -0.016 A 
ATOM      8  C8  IND d   1       1.379   0.197  -0.519  0.00  0.00    -0.047 A 
ATOM      9  C9  IND d   1       0.858  -1.092  -0.693  0.00  0.00    -0.096 A 
ATOM     10  HN1 IND d   1       0.407   1.944  -0.675  0.00  0.00     0.298 HD
ENDROOT
TORSDOF 0
ENDMDL
