MODEL 1
REMARK minimizedAffinity -2.15767121
REMARK minimizedRMSD -1
REMARK  2 active torsions:
REMARK  status: ('A' for Active; 'I' for Inactive)
REMARK    1  A    between atoms: C2'_3  and  C1'_4 
REMARK    2  A    between atoms: C1'_4  and  C1_5 
ROOT
ATOM      1  C1  I4B d   1       0.021  -0.519  -0.198  0.00  0.00    -0.075 A 
ATOM      2  C2  I4B d   1       1.137   0.158  -0.621  0.00  0.00     0.003 A 
ATOM      3  C3  I4B d   1       1.562   1.326   0.058  0.00  0.00     0.002 A 
ATOM      4  C4  I4B d   1       0.818   1.806   1.116  0.00  0.00    -0.004 A 
ATOM      5  C5  I4B d   1      -0.301   1.105   1.558  0.00  0.00     0.002 A 
ATOM      6  C6  I4B d   1      -0.695  -0.071   0.905  0.00  0.00     0.003 A 
ENDROOT
BRANCH   1   7
ATOM      7  C1' I4B d   1      -0.418  -1.730  -0.958  0.00  0.00     0.060 C 
BRANCH   7   8
ATOM      8  C2' I4B d   1      -1.695  -1.381  -1.695  0.00  0.00    -0.013 C 
ATOM      9  C4' I4B d   1      -1.419  -1.047  -3.137  0.00  0.00     0.013 C 
ATOM     10  C3' I4B d   1      -2.631  -2.547  -1.578  0.00  0.00     0.013 C 
ENDBRANCH   7   8
ENDBRANCH   1   7
TORSDOF 2
ENDMDL
