MODEL 1
REMARK minimizedAffinity -4.79740429
REMARK minimizedRMSD -1
REMARK  2 active torsions:
REMARK  status: ('A' for Active; 'I' for Inactive)
REMARK    1  A    between atoms: C2'_3  and  C1'_4 
REMARK    2  A    between atoms: C1'_4  and  C1_5 
ROOT
ATOM      1  C1  I4B d   1      -0.370  -0.837  -0.735  0.00  0.00    -0.075 A 
ATOM      2  C2  I4B d   1       0.921  -1.301  -0.714  0.00  0.00     0.003 A 
ATOM      3  C3  I4B d   1       1.967  -0.480  -0.227  0.00  0.00     0.002 A 
ATOM      4  C4  I4B d   1       1.686   0.809   0.179  0.00  0.00    -0.004 A 
ATOM      5  C5  I4B d   1       0.372   1.270   0.178  0.00  0.00     0.002 A 
ATOM      6  C6  I4B d   1      -0.664   0.439  -0.270  0.00  0.00     0.003 A 
ENDROOT
BRANCH   1   7
ATOM      7  C1' I4B d   1      -1.444  -1.719  -1.286  0.00  0.00     0.060 C 
BRANCH   7   8
ATOM      8  C2' I4B d   1      -2.070  -1.009  -2.470  0.00  0.00    -0.013 C 
ATOM      9  C4' I4B d   1      -1.451  -1.462  -3.766  0.00  0.00     0.013 C 
ATOM     10  C3' I4B d   1      -3.544  -1.284  -2.448  0.00  0.00     0.013 C 
ENDBRANCH   7   8
ENDBRANCH   1   7
TORSDOF 2
ENDMDL
