MODEL 1
REMARK minimizedAffinity -4.47318029
REMARK minimizedRMSD -1
REMARK  2 active torsions:
REMARK  status: ('A' for Active; 'I' for Inactive)
REMARK    1  A    between atoms: C2'_3  and  C1'_4 
REMARK    2  A    between atoms: C1'_4  and  C1_5 
ROOT
ATOM      1  C1  I4B d   1       0.346  -0.254   0.026  0.00  0.00    -0.075 A 
ATOM      2  C2  I4B d   1       1.553   0.291  -0.336  0.00  0.00     0.003 A 
ATOM      3  C3  I4B d   1       1.998   1.495   0.261  0.00  0.00     0.002 A 
ATOM      4  C4  I4B d   1       1.188   2.143   1.172  0.00  0.00    -0.004 A 
ATOM      5  C5  I4B d   1      -0.025   1.576   1.554  0.00  0.00     0.002 A 
ATOM      6  C6  I4B d   1      -0.443   0.364   0.987  0.00  0.00     0.003 A 
ENDROOT
BRANCH   1   7
ATOM      7  C1' I4B d   1      -0.108  -1.510  -0.649  0.00  0.00     0.060 C 
BRANCH   7   8
ATOM      8  C2' I4B d   1      -1.406  -1.208  -1.371  0.00  0.00    -0.013 C 
ATOM      9  C4' I4B d   1      -1.189  -1.090  -2.856  0.00  0.00     0.013 C 
ATOM     10  C3' I4B d   1      -2.379  -2.304  -1.051  0.00  0.00     0.013 C 
ENDBRANCH   7   8
ENDBRANCH   1   7
TORSDOF 2
ENDMDL
