MODEL 1
REMARK minimizedAffinity -2.58683538
REMARK minimizedRMSD -1
REMARK  2 active torsions:
REMARK  status: ('A' for Active; 'I' for Inactive)
REMARK    1  A    between atoms: C2'_3  and  C1'_4 
REMARK    2  A    between atoms: C1'_4  and  C1_5 
ROOT
ATOM      1  C1  I4B d   1       0.198  -0.491  -0.554  0.00  0.00    -0.075 A 
ATOM      2  C2  I4B d   1       1.550  -0.654  -0.721  0.00  0.00     0.003 A 
ATOM      3  C3  I4B d   1       2.419   0.461  -0.632  0.00  0.00     0.002 A 
ATOM      4  C4  I4B d   1       1.891   1.719  -0.427  0.00  0.00    -0.004 A 
ATOM      5  C5  I4B d   1       0.522   1.879  -0.235  0.00  0.00     0.002 A 
ATOM      6  C6  I4B d   1      -0.330   0.766  -0.286  0.00  0.00     0.003 A 
ENDROOT
BRANCH   1   7
ATOM      7  C1' I4B d   1      -0.694  -1.685  -0.687  0.00  0.00     0.060 C 
BRANCH   7   8
ATOM      8  C2' I4B d   1      -1.885  -1.286  -1.533  0.00  0.00    -0.013 C 
ATOM      9  C4' I4B d   1      -1.465  -0.939  -2.937  0.00  0.00     0.013 C 
ATOM     10  C3' I4B d   1      -2.861  -2.425  -1.526  0.00  0.00     0.013 C 
ENDBRANCH   7   8
ENDBRANCH   1   7
TORSDOF 2
ENDMDL
