MODEL 1
REMARK minimizedAffinity -3.9466548
REMARK minimizedRMSD -1
REMARK  2 active torsions:
REMARK  status: ('A' for Active; 'I' for Inactive)
REMARK    1  A    between atoms: C2'_3  and  C1'_4 
REMARK    2  A    between atoms: C1'_4  and  C1_5 
ROOT
ATOM      1  C1  I4B d   1      -0.154   0.016  -0.051  0.00  0.00    -0.075 A 
ATOM      2  C2  I4B d   1      -0.738   0.089   1.190  0.00  0.00     0.003 A 
ATOM      3  C3  I4B d   1      -0.501   1.208   2.024  0.00  0.00     0.002 A 
ATOM      4  C4  I4B d   1       0.361   2.200   1.602  0.00  0.00    -0.004 A 
ATOM      5  C5  I4B d   1       0.933   2.136   0.335  0.00  0.00     0.002 A 
ATOM      6  C6  I4B d   1       0.665   1.043  -0.502  0.00  0.00     0.003 A 
ENDROOT
BRANCH   1   7
ATOM      7  C1' I4B d   1      -0.400  -1.196  -0.892  0.00  0.00     0.060 C 
BRANCH   7   8
ATOM      8  C2' I4B d   1      -1.623  -0.930  -1.747  0.00  0.00    -0.013 C 
ATOM      9  C4' I4B d   1      -1.246  -0.733  -3.192  0.00  0.00     0.013 C 
ATOM     10  C3' I4B d   1      -2.561  -2.089  -1.586  0.00  0.00     0.013 C 
ENDBRANCH   7   8
ENDBRANCH   1   7
TORSDOF 2
ENDMDL
