MODEL 1
REMARK minimizedAffinity -6.05322695
REMARK minimizedRMSD -1
REMARK  2 active torsions:
REMARK  status: ('A' for Active; 'I' for Inactive)
REMARK    1  A    between atoms: C2'_3  and  C1'_4 
REMARK    2  A    between atoms: C1'_4  and  C1_5 
ROOT
ATOM      1  C1  I4B d   1       0.266   0.022   0.089  0.00  0.00    -0.075 A 
ATOM      2  C2  I4B d   1       1.273   0.846  -0.348  0.00  0.00     0.003 A 
ATOM      3  C3  I4B d   1       1.469   2.113   0.255  0.00  0.00     0.002 A 
ATOM      4  C4  I4B d   1       0.609   2.532   1.249  0.00  0.00    -0.004 A 
ATOM      5  C5  I4B d   1      -0.397   1.686   1.706  0.00  0.00     0.002 A 
ATOM      6  C6  I4B d   1      -0.562   0.417   1.131  0.00  0.00     0.003 A 
ENDROOT
BRANCH   1   7
ATOM      7  C1' I4B d   1       0.067  -1.295  -0.592  0.00  0.00     0.060 C 
BRANCH   7   8
ATOM      8  C2' I4B d   1      -1.309  -1.289  -1.227  0.00  0.00    -0.013 C 
ATOM      9  C4' I4B d   1      -1.244  -0.840  -2.663  0.00  0.00     0.013 C 
ATOM     10  C3' I4B d   1      -1.875  -2.674  -1.118  0.00  0.00     0.013 C 
ENDBRANCH   7   8
ENDBRANCH   1   7
TORSDOF 2
ENDMDL
