MODEL 1
REMARK minimizedAffinity -5.09503126
REMARK minimizedRMSD -1
REMARK  2 active torsions:
REMARK  status: ('A' for Active; 'I' for Inactive)
REMARK    1  A    between atoms: C2'_3  and  C1'_4 
REMARK    2  A    between atoms: C1'_4  and  C1_5 
ROOT
ATOM      1  C1  I4B d   1      -0.006   0.657   0.746  0.00  0.00    -0.075 A 
ATOM      2  C2  I4B d   1       0.489   1.337  -0.339  0.00  0.00     0.003 A 
ATOM      3  C3  I4B d   1       1.121   2.592  -0.167  0.00  0.00     0.002 A 
ATOM      4  C4  I4B d   1       1.192   3.150   1.093  0.00  0.00    -0.004 A 
ATOM      5  C5  I4B d   1       0.710   2.449   2.195  0.00  0.00     0.002 A 
ATOM      6  C6  I4B d   1       0.119   1.189   2.023  0.00  0.00     0.003 A 
ENDROOT
BRANCH   1   7
ATOM      7  C1' I4B d   1      -0.697  -0.651   0.524  0.00  0.00     0.060 C 
BRANCH   7   8
ATOM      8  C2' I4B d   1      -0.228  -1.207  -0.805  0.00  0.00    -0.013 C 
ATOM      9  C4' I4B d   1       0.916  -2.170  -0.620  0.00  0.00     0.013 C 
ATOM     10  C3' I4B d   1      -1.396  -1.874  -1.466  0.00  0.00     0.013 C 
ENDBRANCH   7   8
ENDBRANCH   1   7
TORSDOF 2
ENDMDL
