MODEL 1
REMARK minimizedAffinity 2.38514972
REMARK minimizedRMSD -1
REMARK  2 active torsions:
REMARK  status: ('A' for Active; 'I' for Inactive)
REMARK    1  A    between atoms: C2'_3  and  C1'_4 
REMARK    2  A    between atoms: C1'_4  and  C1_5 
ROOT
ATOM      1  C1  I4B d   1       2.471  -1.690   2.976  0.00  0.00    -0.075 A 
ATOM      2  C2  I4B d   1       3.209  -2.843   3.080  0.00  0.00     0.003 A 
ATOM      3  C3  I4B d   1       3.608  -3.322   4.351  0.00  0.00     0.002 A 
ATOM      4  C4  I4B d   1       3.292  -2.595   5.481  0.00  0.00    -0.004 A 
ATOM      5  C5  I4B d   1       2.525  -1.438   5.376  0.00  0.00     0.002 A 
ATOM      6  C6  I4B d   1       2.100  -0.989   4.117  0.00  0.00     0.003 A 
ENDROOT
BRANCH   1   7
ATOM      7  C1' I4B d   1       2.094  -1.195   1.616  0.00  0.00     0.060 C 
BRANCH   7   8
ATOM      8  C2' I4B d   1       3.133  -0.180   1.184  0.00  0.00    -0.013 C 
ATOM      9  C4' I4B d   1       3.102   1.040   2.067  0.00  0.00     0.013 C 
ATOM     10  C3' I4B d   1       4.476  -0.845   1.227  0.00  0.00     0.013 C 
ENDBRANCH   7   8
ENDBRANCH   1   7
TORSDOF 2
ENDMDL
