MODEL 1
REMARK minimizedAffinity 13.7303715
REMARK minimizedRMSD -1
REMARK  2 active torsions:
REMARK  status: ('A' for Active; 'I' for Inactive)
REMARK    1  A    between atoms: C2'_3  and  C1'_4 
REMARK    2  A    between atoms: C1'_4  and  C1_5 
ROOT
ATOM      1  C1  I4B d   1      -5.626  -4.364  -3.414  0.00  0.00    -0.075 A 
ATOM      2  C2  I4B d   1      -4.967  -3.468  -4.219  0.00  0.00     0.003 A 
ATOM      3  C3  I4B d   1      -4.610  -3.826  -5.541  0.00  0.00     0.002 A 
ATOM      4  C4  I4B d   1      -4.885  -5.099  -5.999  0.00  0.00    -0.004 A 
ATOM      5  C5  I4B d   1      -5.573  -5.998  -5.189  0.00  0.00     0.002 A 
ATOM      6  C6  I4B d   1      -5.958  -5.625  -3.893  0.00  0.00     0.003 A 
ENDROOT
BRANCH   1   7
ATOM      7  C1' I4B d   1      -5.959  -3.964  -2.012  0.00  0.00     0.060 C 
BRANCH   7   8
ATOM      8  C2' I4B d   1      -5.129  -2.745  -1.665  0.00  0.00    -0.013 C 
ATOM      9  C4' I4B d   1      -5.995  -1.521  -1.517  0.00  0.00     0.013 C 
ATOM     10  C3' I4B d   1      -4.384  -3.037  -0.397  0.00  0.00     0.013 C 
ENDBRANCH   7   8
ENDBRANCH   1   7
TORSDOF 2
ENDMDL
