MODEL 1
REMARK minimizedAffinity 8.96609592
REMARK minimizedRMSD -1
REMARK  2 active torsions:
REMARK  status: ('A' for Active; 'I' for Inactive)
REMARK    1  A    between atoms: C2'_3  and  C1'_4 
REMARK    2  A    between atoms: C1'_4  and  C1_5 
ROOT
ATOM      1  C1  I4B d   1      -4.145  -4.938  -3.619  0.00  0.00    -0.075 A 
ATOM      2  C2  I4B d   1      -3.336  -5.138  -2.528  0.00  0.00     0.003 A 
ATOM      3  C3  I4B d   1      -3.662  -4.549  -1.282  0.00  0.00     0.002 A 
ATOM      4  C4  I4B d   1      -4.770  -3.734  -1.184  0.00  0.00    -0.004 A 
ATOM      5  C5  I4B d   1      -5.602  -3.551  -2.286  0.00  0.00     0.002 A 
ATOM      6  C6  I4B d   1      -5.294  -4.167  -3.508  0.00  0.00     0.003 A 
ENDROOT
BRANCH   1   7
ATOM      7  C1' I4B d   1      -3.753  -5.547  -4.927  0.00  0.00     0.060 C 
BRANCH   7   8
ATOM      8  C2' I4B d   1      -4.670  -4.988  -5.996  0.00  0.00    -0.013 C 
ATOM      9  C4' I4B d   1      -5.999  -5.695  -5.999  0.00  0.00     0.013 C 
ATOM     10  C3' I4B d   1      -4.838  -3.520  -5.739  0.00  0.00     0.013 C 
ENDBRANCH   7   8
ENDBRANCH   1   7
TORSDOF 2
ENDMDL
