MODEL 1
REMARK minimizedAffinity 7.92141008
REMARK minimizedRMSD -1
REMARK  2 active torsions:
REMARK  status: ('A' for Active; 'I' for Inactive)
REMARK    1  A    between atoms: C2'_3  and  C1'_4 
REMARK    2  A    between atoms: C1'_4  and  C1_5 
ROOT
ATOM      1  C1  I4B d   1       1.387  -2.109   2.218  0.00  0.00    -0.075 A 
ATOM      2  C2  I4B d   1       0.354  -3.007   2.330  0.00  0.00     0.003 A 
ATOM      3  C3  I4B d   1       0.548  -4.236   3.004  0.00  0.00     0.002 A 
ATOM      4  C4  I4B d   1       1.796  -4.548   3.504  0.00  0.00    -0.004 A 
ATOM      5  C5  I4B d   1       2.836  -3.627   3.410  0.00  0.00     0.002 A 
ATOM      6  C6  I4B d   1       2.627  -2.395   2.774  0.00  0.00     0.003 A 
ENDROOT
BRANCH   1   7
ATOM      7  C1' I4B d   1       1.157  -0.834   1.471  0.00  0.00     0.060 C 
BRANCH   7   8
ATOM      8  C2' I4B d   1       2.490  -0.128   1.330  0.00  0.00    -0.013 C 
ATOM      9  C4' I4B d   1       3.035  -0.265  -0.067  0.00  0.00     0.013 C 
ATOM     10  C3' I4B d   1       2.291   1.313   1.695  0.00  0.00     0.013 C 
ENDBRANCH   7   8
ENDBRANCH   1   7
TORSDOF 2
ENDMDL
