MODEL 1
REMARK minimizedAffinity 12.1487465
REMARK minimizedRMSD -1
REMARK  2 active torsions:
REMARK  status: ('A' for Active; 'I' for Inactive)
REMARK    1  A    between atoms: C2'_3  and  C1'_4 
REMARK    2  A    between atoms: C1'_4  and  C1_5 
ROOT
ATOM      1  C1  I4B d   1       2.856  -3.437   3.883  0.00  0.00    -0.075 A 
ATOM      2  C2  I4B d   1       2.805  -2.092   3.613  0.00  0.00     0.003 A 
ATOM      3  C3  I4B d   1       1.803  -1.575   2.757  0.00  0.00     0.002 A 
ATOM      4  C4  I4B d   1       0.909  -2.438   2.157  0.00  0.00    -0.004 A 
ATOM      5  C5  I4B d   1       0.948  -3.798   2.450  0.00  0.00     0.002 A 
ATOM      6  C6  I4B d   1       1.920  -4.300   3.328  0.00  0.00     0.003 A 
ENDROOT
BRANCH   1   7
ATOM      7  C1' I4B d   1       3.948  -3.954   4.765  0.00  0.00     0.060 C 
BRANCH   7   8
ATOM      8  C2' I4B d   1       5.195  -3.138   4.491  0.00  0.00    -0.013 C 
ATOM      9  C4' I4B d   1       5.999  -2.932   5.748  0.00  0.00     0.013 C 
ATOM     10  C3' I4B d   1       5.997  -3.855   3.447  0.00  0.00     0.013 C 
ENDBRANCH   7   8
ENDBRANCH   1   7
TORSDOF 2
ENDMDL
