MODEL 1
REMARK minimizedAffinity 9.50723743
REMARK minimizedRMSD -1
REMARK  2 active torsions:
REMARK  status: ('A' for Active; 'I' for Inactive)
REMARK    1  A    between atoms: C2'_3  and  C1'_4 
REMARK    2  A    between atoms: C1'_4  and  C1_5 
ROOT
ATOM      1  C1  I4B d   1       2.790  -2.691   3.028  0.00  0.00    -0.075 A 
ATOM      2  C2  I4B d   1       1.568  -3.208   2.679  0.00  0.00     0.003 A 
ATOM      3  C3  I4B d   1       0.655  -2.432   1.924  0.00  0.00     0.002 A 
ATOM      4  C4  I4B d   1       0.984  -1.135   1.585  0.00  0.00    -0.004 A 
ATOM      5  C5  I4B d   1       2.233  -0.621   1.920  0.00  0.00     0.002 A 
ATOM      6  C6  I4B d   1       3.148  -1.408   2.635  0.00  0.00     0.003 A 
ENDROOT
BRANCH   1   7
ATOM      7  C1' I4B d   1       3.717  -3.527   3.854  0.00  0.00     0.060 C 
BRANCH   7   8
ATOM      8  C2' I4B d   1       4.925  -2.681   4.199  0.00  0.00    -0.013 C 
ATOM      9  C4' I4B d   1       5.400  -2.956   5.602  0.00  0.00     0.013 C 
ATOM     10  C3' I4B d   1       6.000  -2.977   3.196  0.00  0.00     0.013 C 
ENDBRANCH   7   8
ENDBRANCH   1   7
TORSDOF 2
ENDMDL
