MODEL 1
REMARK minimizedAffinity 3.40320778
REMARK minimizedRMSD -1
REMARK  2 active torsions:
REMARK  status: ('A' for Active; 'I' for Inactive)
REMARK    1  A    between atoms: C2'_3  and  C1'_4 
REMARK    2  A    between atoms: C1'_4  and  C1_5 
ROOT
ATOM      1  C1  I4B d   1       2.653  -3.407   3.500  0.00  0.00    -0.075 A 
ATOM      2  C2  I4B d   1       1.836  -4.349   2.927  0.00  0.00     0.003 A 
ATOM      3  C3  I4B d   1       0.634  -3.957   2.289  0.00  0.00     0.002 A 
ATOM      4  C4  I4B d   1       0.265  -2.628   2.292  0.00  0.00    -0.004 A 
ATOM      5  C5  I4B d   1       1.106  -1.671   2.854  0.00  0.00     0.002 A 
ATOM      6  C6  I4B d   1       2.314  -2.061   3.451  0.00  0.00     0.003 A 
ENDROOT
BRANCH   1   7
ATOM      7  C1' I4B d   1       3.899  -3.859   4.194  0.00  0.00     0.060 C 
BRANCH   7   8
ATOM      8  C2' I4B d   1       5.025  -2.933   3.783  0.00  0.00    -0.013 C 
ATOM      9  C4' I4B d   1       5.991  -2.712   4.916  0.00  0.00     0.013 C 
ATOM     10  C3' I4B d   1       5.712  -3.538   2.595  0.00  0.00     0.013 C 
ENDBRANCH   7   8
ENDBRANCH   1   7
TORSDOF 2
ENDMDL
