MODEL 1
REMARK minimizedAffinity -3.06014609
REMARK minimizedRMSD -1
REMARK  0 active torsions:
REMARK  status: ('A' for Active; 'I' for Inactive)
ROOT
ATOM      1  C   UNL d   1       1.469   0.352  -0.222  0.00  0.00     0.172 C 
ATOM      2  N   UNL d   1       0.406  -0.205   0.581  0.00  0.00    -0.070 N 
ATOM      3  C1  UNL d   1      -0.865   0.294   0.681  0.00  0.00    -0.004 A 
ATOM      4  C2  UNL d   1      -1.572  -0.519   1.541  0.00  0.00    -0.047 A 
ATOM      5  C3  UNL d   1      -0.694  -1.541   1.974  0.00  0.00    -0.047 A 
ATOM      6  C4  UNL d   1       0.523  -1.323   1.365  0.00  0.00    -0.004 A 
ENDROOT
TORSDOF 0
ENDMDL
