MODEL 1
REMARK minimizedAffinity -0.734030962
REMARK minimizedRMSD -1
REMARK  0 active torsions:
REMARK  status: ('A' for Active; 'I' for Inactive)
ROOT
ATOM      1  C   UNL d   1       1.123   0.191  -0.073  0.00  0.00     0.172 C 
ATOM      2  N   UNL d   1       1.900   1.173   0.647  0.00  0.00    -0.070 N 
ATOM      3  C1  UNL d   1       2.194   1.134   1.984  0.00  0.00    -0.004 A 
ATOM      4  C2  UNL d   1       2.951   2.246   2.282  0.00  0.00    -0.047 A 
ATOM      5  C3  UNL d   1       3.117   2.979   1.084  0.00  0.00    -0.047 A 
ATOM      6  C4  UNL d   1       2.456   2.293   0.087  0.00  0.00    -0.004 A 
ENDROOT
TORSDOF 0
ENDMDL
