MODEL 1
REMARK minimizedAffinity -2.55172992
REMARK minimizedRMSD -1
REMARK  0 active torsions:
REMARK  status: ('A' for Active; 'I' for Inactive)
ROOT
ATOM      1  C   UNL d   1      -0.445   0.090   0.346  0.00  0.00     0.172 C 
ATOM      2  N   UNL d   1      -1.341  -1.042   0.310  0.00  0.00    -0.070 N 
ATOM      3  C1  UNL d   1      -2.403  -1.193  -0.540  0.00  0.00    -0.004 A 
ATOM      4  C2  UNL d   1      -3.001  -2.402  -0.257  0.00  0.00    -0.047 A 
ATOM      5  C3  UNL d   1      -2.274  -2.998   0.800  0.00  0.00    -0.047 A 
ATOM      6  C4  UNL d   1      -1.251  -2.134   1.133  0.00  0.00    -0.004 A 
ENDROOT
TORSDOF 0
ENDMDL
