MODEL 1
REMARK minimizedAffinity -2.7337203
REMARK minimizedRMSD -1
REMARK  0 active torsions:
REMARK  status: ('A' for Active; 'I' for Inactive)
ROOT
ATOM      1  C   UNL d   1       1.540   1.287   0.561  0.00  0.00     0.172 C 
ATOM      2  N   UNL d   1       0.374   0.994  -0.240  0.00  0.00    -0.070 N 
ATOM      3  C1  UNL d   1      -0.162   1.811  -1.199  0.00  0.00    -0.004 A 
ATOM      4  C2  UNL d   1      -1.262   1.174  -1.730  0.00  0.00    -0.047 A 
ATOM      5  C3  UNL d   1      -1.392  -0.070  -1.067  0.00  0.00    -0.047 A 
ATOM      6  C4  UNL d   1      -0.367  -0.155  -0.149  0.00  0.00    -0.004 A 
ENDROOT
TORSDOF 0
ENDMDL
