MODEL 1
REMARK minimizedAffinity -2.51916814
REMARK minimizedRMSD -1
REMARK  0 active torsions:
REMARK  status: ('A' for Active; 'I' for Inactive)
ROOT
ATOM      1  C   UNL d   1       3.012   3.803  -1.564  0.00  0.00     0.172 C 
ATOM      2  N   UNL d   1       2.596   3.078  -0.386  0.00  0.00    -0.070 N 
ATOM      3  C1  UNL d   1       2.780   3.485   0.908  0.00  0.00    -0.004 A 
ATOM      4  C2  UNL d   1       2.244   2.521   1.734  0.00  0.00    -0.047 A 
ATOM      5  C3  UNL d   1       1.721   1.498   0.908  0.00  0.00    -0.047 A 
ATOM      6  C4  UNL d   1       1.953   1.869  -0.400  0.00  0.00    -0.004 A 
ENDROOT
TORSDOF 0
ENDMDL
