MODEL 1
REMARK minimizedAffinity 0.207192302
REMARK minimizedRMSD -1
REMARK  0 active torsions:
REMARK  status: ('A' for Active; 'I' for Inactive)
ROOT
ATOM      1  C   UNL d   1       3.149   2.045  -0.033  0.00  0.00     0.172 C 
ATOM      2  N   UNL d   1       1.923   1.289   0.060  0.00  0.00    -0.070 N 
ATOM      3  C1  UNL d   1       1.315   0.894   1.222  0.00  0.00    -0.004 A 
ATOM      4  C2  UNL d   1       0.173   0.199   0.886  0.00  0.00    -0.047 A 
ATOM      5  C3  UNL d   1       0.093   0.173  -0.526  0.00  0.00    -0.047 A 
ATOM      6  C4  UNL d   1       1.189   0.855  -1.012  0.00  0.00    -0.004 A 
ENDROOT
TORSDOF 0
ENDMDL
