MODEL 1
REMARK minimizedAffinity -2.40118361
REMARK minimizedRMSD -1
REMARK  0 active torsions:
REMARK  status: ('A' for Active; 'I' for Inactive)
ROOT
ATOM      1  C   UNL d   1      -2.064  -0.700   1.225  0.00  0.00     0.172 C 
ATOM      2  N   UNL d   1      -0.752  -0.667   0.621  0.00  0.00    -0.070 N 
ATOM      3  C1  UNL d   1      -0.413   0.020  -0.514  0.00  0.00    -0.004 A 
ATOM      4  C2  UNL d   1       0.925  -0.203  -0.759  0.00  0.00    -0.047 A 
ATOM      5  C3  UNL d   1       1.406  -1.055   0.264  0.00  0.00    -0.047 A 
ATOM      6  C4  UNL d   1       0.347  -1.327   1.104  0.00  0.00    -0.004 A 
ENDROOT
TORSDOF 0
ENDMDL
