MODEL 1
REMARK minimizedAffinity -3.60696244
REMARK minimizedRMSD -1
REMARK  0 active torsions:
REMARK  status: ('A' for Active; 'I' for Inactive)
ROOT
ATOM      1  C   UNL d   1       1.213   0.546   0.046  0.00  0.00     0.172 C 
ATOM      2  N   UNL d   1      -0.053   0.173  -0.538  0.00  0.00    -0.070 N 
ATOM      3  C1  UNL d   1      -0.432   0.399  -1.834  0.00  0.00    -0.004 A 
ATOM      4  C2  UNL d   1      -1.705  -0.104  -1.996  0.00  0.00    -0.047 A 
ATOM      5  C3  UNL d   1      -2.105  -0.650  -0.754  0.00  0.00    -0.047 A 
ATOM      6  C4  UNL d   1      -1.064  -0.465   0.131  0.00  0.00    -0.004 A 
ENDROOT
TORSDOF 0
ENDMDL
