MODEL 1
REMARK minimizedAffinity -2.53699732
REMARK minimizedRMSD -1
REMARK  0 active torsions:
REMARK  status: ('A' for Active; 'I' for Inactive)
ROOT
ATOM      1  C   UNL d   1      -1.807  -0.092  -0.660  0.00  0.00     0.172 C 
ATOM      2  N   UNL d   1      -0.482  -0.275  -0.117  0.00  0.00    -0.070 N 
ATOM      3  C1  UNL d   1      -0.153  -1.102   0.924  0.00  0.00    -0.004 A 
ATOM      4  C2  UNL d   1       1.205  -0.994   1.136  0.00  0.00    -0.047 A 
ATOM      5  C3  UNL d   1       1.709  -0.071   0.189  0.00  0.00    -0.047 A 
ATOM      6  C4  UNL d   1       0.644   0.359  -0.573  0.00  0.00    -0.004 A 
ENDROOT
TORSDOF 0
ENDMDL
