MODEL 1
REMARK minimizedAffinity -1.62846613
REMARK minimizedRMSD -1
REMARK  0 active torsions:
REMARK  status: ('A' for Active; 'I' for Inactive)
ROOT
ATOM      1  C   UNL d   1      -0.015   1.268   0.674  0.00  0.00     0.172 C 
ATOM      2  N   UNL d   1      -0.334   0.670  -0.601  0.00  0.00    -0.070 N 
ATOM      3  C1  UNL d   1       0.557   0.423  -1.611  0.00  0.00    -0.004 A 
ATOM      4  C2  UNL d   1      -0.137  -0.152  -2.654  0.00  0.00    -0.047 A 
ATOM      5  C3  UNL d   1      -1.491  -0.254  -2.257  0.00  0.00    -0.047 A 
ATOM      6  C4  UNL d   1      -1.585   0.263  -0.982  0.00  0.00    -0.004 A 
ENDROOT
TORSDOF 0
ENDMDL
