MODEL 1
REMARK minimizedAffinity -1.55471814
REMARK minimizedRMSD -1
REMARK  0 active torsions:
REMARK  status: ('A' for Active; 'I' for Inactive)
ROOT
ATOM      1  C   UNL d   1      -0.192   0.376  -0.160  0.00  0.00     0.172 C 
ATOM      2  N   UNL d   1       1.023   1.029   0.268  0.00  0.00    -0.070 N 
ATOM      3  C1  UNL d   1       1.093   2.158   1.041  0.00  0.00    -0.004 A 
ATOM      4  C2  UNL d   1       2.425   2.459   1.227  0.00  0.00    -0.047 A 
ATOM      5  C3  UNL d   1       3.181   1.478   0.542  0.00  0.00    -0.047 A 
ATOM      6  C4  UNL d   1       2.288   0.605  -0.042  0.00  0.00    -0.004 A 
ENDROOT
TORSDOF 0
ENDMDL
