MODEL 1
REMARK minimizedAffinity -3.54022694
REMARK minimizedRMSD -1
REMARK  0 active torsions:
REMARK  status: ('A' for Active; 'I' for Inactive)
ROOT
ATOM      1  C   UNL d   1       0.333   0.016   0.004  0.00  0.00     0.172 C 
ATOM      2  N   UNL d   1      -0.776  -0.896  -0.151  0.00  0.00    -0.070 N 
ATOM      3  C1  UNL d   1      -1.727  -0.836  -1.135  0.00  0.00    -0.004 A 
ATOM      4  C2  UNL d   1      -2.606  -1.878  -0.935  0.00  0.00    -0.047 A 
ATOM      5  C3  UNL d   1      -2.169  -2.588   0.208  0.00  0.00    -0.047 A 
ATOM      6  C4  UNL d   1      -1.034  -1.959   0.674  0.00  0.00    -0.004 A 
ENDROOT
TORSDOF 0
ENDMDL
