MODEL 1
REMARK minimizedAffinity -2.77914858
REMARK minimizedRMSD -1
REMARK  0 active torsions:
REMARK  status: ('A' for Active; 'I' for Inactive)
ROOT
ATOM      1  C   UNL d   1       1.311  -0.376   0.431  0.00  0.00     0.172 C 
ATOM      2  N   UNL d   1       1.569   1.018   0.710  0.00  0.00    -0.070 N 
ATOM      3  C1  UNL d   1       1.744   1.563   1.953  0.00  0.00    -0.004 A 
ATOM      4  C2  UNL d   1       1.967   2.914   1.794  0.00  0.00    -0.047 A 
ATOM      5  C3  UNL d   1       1.923   3.190   0.407  0.00  0.00    -0.047 A 
ATOM      6  C4  UNL d   1       1.676   1.998  -0.241  0.00  0.00    -0.004 A 
ENDROOT
TORSDOF 0
ENDMDL
