MODEL 1
REMARK minimizedAffinity -1.63662958
REMARK minimizedRMSD -1
REMARK  0 active torsions:
REMARK  status: ('A' for Active; 'I' for Inactive)
ROOT
ATOM      1  C   UNL d   1      -2.616  -2.425  -0.291  0.00  0.00     0.172 C 
ATOM      2  N   UNL d   1      -1.939  -1.253  -0.795  0.00  0.00    -0.070 N 
ATOM      3  C1  UNL d   1      -0.868  -0.635  -0.206  0.00  0.00    -0.004 A 
ATOM      4  C2  UNL d   1      -0.517   0.441  -0.992  0.00  0.00    -0.047 A 
ATOM      5  C3  UNL d   1      -1.407   0.471  -2.092  0.00  0.00    -0.047 A 
ATOM      6  C4  UNL d   1      -2.277  -0.589  -1.944  0.00  0.00    -0.004 A 
ENDROOT
TORSDOF 0
ENDMDL
