MODEL 1
REMARK minimizedAffinity -2.69724274
REMARK minimizedRMSD -1
REMARK  0 active torsions:
REMARK  status: ('A' for Active; 'I' for Inactive)
ROOT
ATOM      1  C   UNL d   1       2.116   2.788   1.290  0.00  0.00     0.172 C 
ATOM      2  N   UNL d   1       1.513   1.482   1.165  0.00  0.00    -0.070 N 
ATOM      3  C1  UNL d   1       1.447   0.740   0.015  0.00  0.00    -0.004 A 
ATOM      4  C2  UNL d   1       0.798  -0.439   0.311  0.00  0.00    -0.047 A 
ATOM      5  C3  UNL d   1       0.462  -0.405   1.685  0.00  0.00    -0.047 A 
ATOM      6  C4  UNL d   1       0.917   0.795   2.189  0.00  0.00    -0.004 A 
ENDROOT
TORSDOF 0
ENDMDL
