MODEL 1
REMARK minimizedAffinity -5.52978373
REMARK minimizedRMSD -1
REMARK  0 active torsions:
REMARK  status: ('A' for Active; 'I' for Inactive)
ROOT
ATOM      1  C   UNL d   1       1.500   0.412  -1.497  0.00  0.00     0.077 C 
ATOM      2  C1  UNL d   1       0.534   0.649  -0.375  0.00  0.00    -0.074 A 
ATOM      3  C2  UNL d   1       0.362  -0.299   0.638  0.00  0.00    -0.005 A 
ATOM      4  C3  UNL d   1      -0.533  -0.060   1.681  0.00  0.00     0.006 A 
ATOM      5  C4  UNL d   1      -1.264   1.128   1.721  0.00  0.00    -0.005 A 
ATOM      6  C5  UNL d   1      -1.105   2.089   0.717  0.00  0.00    -0.074 A 
ATOM      7  C6  UNL d   1      -1.875   3.375   0.750  0.00  0.00     0.077 C 
ATOM      8  C7  UNL d   1      -0.198   1.844  -0.324  0.00  0.00    -0.001 A 
ENDROOT
TORSDOF 0
ENDMDL
