MODEL 1
REMARK minimizedAffinity -4.78377295
REMARK minimizedRMSD -1
REMARK  0 active torsions:
REMARK  status: ('A' for Active; 'I' for Inactive)
ROOT
ATOM      1  C   UNL d   1      -2.920   1.638   0.965  0.00  0.00     0.077 C 
ATOM      2  C1  UNL d   1      -1.718   0.743   1.009  0.00  0.00    -0.074 A 
ATOM      3  C2  UNL d   1      -1.355   0.084   2.188  0.00  0.00    -0.005 A 
ATOM      4  C3  UNL d   1      -0.239  -0.753   2.211  0.00  0.00     0.006 A 
ATOM      5  C4  UNL d   1       0.523  -0.940   1.057  0.00  0.00    -0.005 A 
ATOM      6  C5  UNL d   1       0.174  -0.290  -0.132  0.00  0.00    -0.074 A 
ATOM      7  C6  UNL d   1       0.977  -0.488  -1.383  0.00  0.00     0.077 C 
ATOM      8  C7  UNL d   1      -0.952   0.544  -0.148  0.00  0.00    -0.001 A 
ENDROOT
TORSDOF 0
ENDMDL
