MODEL 1
REMARK minimizedAffinity -4.89779377
REMARK minimizedRMSD -1
REMARK  0 active torsions:
REMARK  status: ('A' for Active; 'I' for Inactive)
ROOT
ATOM      1  C   UNL d   1      -2.489   2.358   1.202  0.00  0.00     0.077 C 
ATOM      2  C1  UNL d   1      -1.471   1.260   1.111  0.00  0.00    -0.074 A 
ATOM      3  C2  UNL d   1      -1.341   0.314   2.133  0.00  0.00    -0.005 A 
ATOM      4  C3  UNL d   1      -0.396  -0.707   2.031  0.00  0.00     0.006 A 
ATOM      5  C4  UNL d   1       0.426  -0.793   0.907  0.00  0.00    -0.005 A 
ATOM      6  C5  UNL d   1       0.310   0.143  -0.126  0.00  0.00    -0.074 A 
ATOM      7  C6  UNL d   1       1.179   0.060  -1.345  0.00  0.00     0.077 C 
ATOM      8  C7  UNL d   1      -0.647   1.162  -0.019  0.00  0.00    -0.001 A 
ENDROOT
TORSDOF 0
ENDMDL
