MODEL 1
REMARK minimizedAffinity -4.09765577
REMARK minimizedRMSD -1
REMARK  0 active torsions:
REMARK  status: ('A' for Active; 'I' for Inactive)
ROOT
ATOM      1  C   UNL d   1      -2.668   2.004   1.006  0.00  0.00     0.077 C 
ATOM      2  C1  UNL d   1      -1.624   0.936   1.140  0.00  0.00    -0.074 A 
ATOM      3  C2  UNL d   1      -1.640   0.046   2.219  0.00  0.00    -0.005 A 
ATOM      4  C3  UNL d   1      -0.668  -0.949   2.325  0.00  0.00     0.006 A 
ATOM      5  C4  UNL d   1       0.329  -1.063   1.355  0.00  0.00    -0.005 A 
ATOM      6  C5  UNL d   1       0.361  -0.183   0.269  0.00  0.00    -0.074 A 
ATOM      7  C6  UNL d   1       1.420  -0.298  -0.787  0.00  0.00     0.077 C 
ATOM      8  C7  UNL d   1      -0.624   0.810   0.166  0.00  0.00    -0.001 A 
ENDROOT
TORSDOF 0
ENDMDL
