MODEL 1
REMARK minimizedAffinity -5.58256197
REMARK minimizedRMSD -1
REMARK  0 active torsions:
REMARK  status: ('A' for Active; 'I' for Inactive)
ROOT
ATOM      1  C   UNL d   1      -2.885   2.002   0.567  0.00  0.00     0.077 C 
ATOM      2  C1  UNL d   1      -1.659   1.142   0.651  0.00  0.00    -0.074 A 
ATOM      3  C2  UNL d   1      -1.122   0.774   1.889  0.00  0.00    -0.005 A 
ATOM      4  C3  UNL d   1       0.013  -0.034   1.951  0.00  0.00     0.006 A 
ATOM      5  C4  UNL d   1       0.622  -0.481   0.778  0.00  0.00    -0.005 A 
ATOM      6  C5  UNL d   1       0.099  -0.123  -0.469  0.00  0.00    -0.074 A 
ATOM      7  C6  UNL d   1       0.736  -0.603  -1.740  0.00  0.00     0.077 C 
ATOM      8  C7  UNL d   1      -1.046   0.683  -0.523  0.00  0.00    -0.001 A 
ENDROOT
TORSDOF 0
ENDMDL
