MODEL 1
REMARK minimizedAffinity -4.26050043
REMARK minimizedRMSD -1
REMARK  0 active torsions:
REMARK  status: ('A' for Active; 'I' for Inactive)
ROOT
ATOM      1  C   UNL d   1       0.469  -0.331  -0.628  0.00  0.00     0.077 C 
ATOM      2  C1  UNL d   1       0.445  -1.618  -1.397  0.00  0.00    -0.074 A 
ATOM      3  C2  UNL d   1       0.057  -1.645  -2.741  0.00  0.00    -0.005 A 
ATOM      4  C3  UNL d   1       0.049  -2.848  -3.446  0.00  0.00     0.006 A 
ATOM      5  C4  UNL d   1       0.427  -4.034  -2.817  0.00  0.00    -0.005 A 
ATOM      6  C5  UNL d   1       0.818  -4.027  -1.474  0.00  0.00    -0.074 A 
ATOM      7  C6  UNL d   1       1.237  -5.291  -0.785  0.00  0.00     0.077 C 
ATOM      8  C7  UNL d   1       0.831  -2.813  -0.774  0.00  0.00    -0.001 A 
ENDROOT
TORSDOF 0
ENDMDL
