MODEL 1
REMARK minimizedAffinity -1.09425116
REMARK minimizedRMSD -1
REMARK  0 active torsions:
REMARK  status: ('A' for Active; 'I' for Inactive)
ROOT
ATOM      1  C   UNL d   1      -0.756   0.958   1.597  0.00  0.00     0.077 C 
ATOM      2  C1  UNL d   1      -0.076   0.495   0.343  0.00  0.00    -0.074 A 
ATOM      3  C2  UNL d   1       0.188   1.386  -0.702  0.00  0.00    -0.005 A 
ATOM      4  C3  UNL d   1       0.830   0.943  -1.859  0.00  0.00     0.006 A 
ATOM      5  C4  UNL d   1       1.212  -0.393  -1.982  0.00  0.00    -0.005 A 
ATOM      6  C5  UNL d   1       0.957  -1.299  -0.947  0.00  0.00    -0.074 A 
ATOM      7  C6  UNL d   1       1.370  -2.736  -1.059  0.00  0.00     0.077 C 
ATOM      8  C7  UNL d   1       0.318  -0.844   0.215  0.00  0.00    -0.001 A 
ENDROOT
TORSDOF 0
ENDMDL
