MODEL 1
REMARK minimizedAffinity -3.25757861
REMARK minimizedRMSD -1
REMARK  0 active torsions:
REMARK  status: ('A' for Active; 'I' for Inactive)
ROOT
ATOM      1  C   UNL d   1      -2.453   2.226   0.719  0.00  0.00     0.077 C 
ATOM      2  C1  UNL d   1      -1.417   1.153   0.873  0.00  0.00    -0.074 A 
ATOM      3  C2  UNL d   1      -1.028   0.706   2.139  0.00  0.00    -0.005 A 
ATOM      4  C3  UNL d   1      -0.069  -0.300   2.267  0.00  0.00     0.006 A 
ATOM      5  C4  UNL d   1       0.508  -0.868   1.130  0.00  0.00    -0.005 A 
ATOM      6  C5  UNL d   1       0.131  -0.434  -0.144  0.00  0.00    -0.074 A 
ATOM      7  C6  UNL d   1       0.735  -1.041  -1.376  0.00  0.00     0.077 C 
ATOM      8  C7  UNL d   1      -0.838   0.572  -0.264  0.00  0.00    -0.001 A 
ENDROOT
TORSDOF 0
ENDMDL
