MODEL 1
REMARK minimizedAffinity -4.64177513
REMARK minimizedRMSD -1
REMARK  0 active torsions:
REMARK  status: ('A' for Active; 'I' for Inactive)
ROOT
ATOM      1  C   UNL d   1      -2.264   2.756   0.956  0.00  0.00     0.077 C 
ATOM      2  C1  UNL d   1      -1.298   1.615   0.833  0.00  0.00    -0.074 A 
ATOM      3  C2  UNL d   1      -1.240   0.614   1.808  0.00  0.00    -0.005 A 
ATOM      4  C3  UNL d   1      -0.344  -0.446   1.675  0.00  0.00     0.006 A 
ATOM      5  C4  UNL d   1       0.502  -0.516   0.568  0.00  0.00    -0.005 A 
ATOM      6  C5  UNL d   1       0.458   0.475  -0.418  0.00  0.00    -0.074 A 
ATOM      7  C6  UNL d   1       1.354   0.409  -1.619  0.00  0.00     0.077 C 
ATOM      8  C7  UNL d   1      -0.451   1.533  -0.281  0.00  0.00    -0.001 A 
ENDROOT
TORSDOF 0
ENDMDL
