MODEL 1
REMARK minimizedAffinity -4.20617008
REMARK minimizedRMSD -1
REMARK  0 active torsions:
REMARK  status: ('A' for Active; 'I' for Inactive)
ROOT
ATOM      1  C   UNL d   1       1.200   2.068  -1.792  0.00  0.00     0.077 C 
ATOM      2  C1  UNL d   1       0.502   1.251  -0.746  0.00  0.00    -0.074 A 
ATOM      3  C2  UNL d   1       1.034   0.032  -0.312  0.00  0.00    -0.005 A 
ATOM      4  C3  UNL d   1       0.378  -0.712   0.668  0.00  0.00     0.006 A 
ATOM      5  C4  UNL d   1      -0.815  -0.247   1.223  0.00  0.00    -0.005 A 
ATOM      6  C5  UNL d   1      -1.362   0.970   0.802  0.00  0.00    -0.074 A 
ATOM      7  C6  UNL d   1      -2.638   1.489   1.395  0.00  0.00     0.077 C 
ATOM      8  C7  UNL d   1      -0.693   1.715  -0.178  0.00  0.00    -0.001 A 
ENDROOT
TORSDOF 0
ENDMDL
