MODEL 1
REMARK minimizedAffinity -4.31776571
REMARK minimizedRMSD -1
REMARK  0 active torsions:
REMARK  status: ('A' for Active; 'I' for Inactive)
ROOT
ATOM      1  C   UNL d   1      -2.245   2.777   0.912  0.00  0.00     0.077 C 
ATOM      2  C1  UNL d   1      -1.360   1.566   0.926  0.00  0.00    -0.074 A 
ATOM      3  C2  UNL d   1      -1.537   0.557   1.879  0.00  0.00    -0.005 A 
ATOM      4  C3  UNL d   1      -0.712  -0.567   1.874  0.00  0.00     0.006 A 
ATOM      5  C4  UNL d   1       0.297  -0.694   0.918  0.00  0.00    -0.005 A 
ATOM      6  C5  UNL d   1       0.488   0.304  -0.043  0.00  0.00    -0.074 A 
ATOM      7  C6  UNL d   1       1.561   0.178  -1.083  0.00  0.00     0.077 C 
ATOM      8  C7  UNL d   1      -0.349   1.428  -0.035  0.00  0.00    -0.001 A 
ENDROOT
TORSDOF 0
ENDMDL
