MODEL 1
REMARK minimizedAffinity -5.78535891
REMARK minimizedRMSD -1
REMARK  0 active torsions:
REMARK  status: ('A' for Active; 'I' for Inactive)
ROOT
ATOM      1  C   UNL d   1       0.318  -1.342   2.865  0.00  0.00     0.077 C 
ATOM      2  C1  UNL d   1      -0.014  -0.439   1.715  0.00  0.00    -0.074 A 
ATOM      3  C2  UNL d   1       0.461  -0.710   0.427  0.00  0.00    -0.005 A 
ATOM      4  C3  UNL d   1       0.136   0.135  -0.634  0.00  0.00     0.006 A 
ATOM      5  C4  UNL d   1      -0.666   1.257  -0.420  0.00  0.00    -0.005 A 
ATOM      6  C5  UNL d   1      -1.150   1.543   0.860  0.00  0.00    -0.074 A 
ATOM      7  C6  UNL d   1      -2.021   2.739   1.106  0.00  0.00     0.077 C 
ATOM      8  C7  UNL d   1      -0.825   0.686   1.921  0.00  0.00    -0.001 A 
ENDROOT
TORSDOF 0
ENDMDL
