MODEL 1
REMARK minimizedAffinity -5.88518763
REMARK minimizedRMSD -1
REMARK  0 active torsions:
REMARK  status: ('A' for Active; 'I' for Inactive)
ROOT
ATOM      1  C   UNL d   1       0.346   3.655  -1.566  0.00  0.00     0.077 C 
ATOM      2  C1  UNL d   1      -0.339   2.811  -0.532  0.00  0.00    -0.074 A 
ATOM      3  C2  UNL d   1      -1.383   3.329   0.241  0.00  0.00    -0.005 A 
ATOM      4  C3  UNL d   1      -2.017   2.530   1.192  0.00  0.00     0.006 A 
ATOM      5  C4  UNL d   1      -1.614   1.207   1.379  0.00  0.00    -0.005 A 
ATOM      6  C5  UNL d   1      -0.573   0.672   0.615  0.00  0.00    -0.074 A 
ATOM      7  C6  UNL d   1      -0.134  -0.751   0.797  0.00  0.00     0.077 C 
ATOM      8  C7  UNL d   1       0.055   1.479  -0.343  0.00  0.00    -0.001 A 
ENDROOT
TORSDOF 0
ENDMDL
