MODEL 1
REMARK minimizedAffinity -4.77776766
REMARK minimizedRMSD -1
REMARK  0 active torsions:
REMARK  status: ('A' for Active; 'I' for Inactive)
ROOT
ATOM      1  C   UNL d   1      -2.079   2.433   0.867  0.00  0.00     0.077 C 
ATOM      2  C1  UNL d   1      -1.214   1.214   0.992  0.00  0.00    -0.074 A 
ATOM      3  C2  UNL d   1      -0.909   0.674   2.246  0.00  0.00    -0.005 A 
ATOM      4  C3  UNL d   1      -0.111  -0.465   2.346  0.00  0.00     0.006 A 
ATOM      5  C4  UNL d   1       0.390  -1.075   1.195  0.00  0.00    -0.005 A 
ATOM      6  C5  UNL d   1       0.095  -0.550  -0.067  0.00  0.00    -0.074 A 
ATOM      7  C6  UNL d   1       0.618  -1.199  -1.314  0.00  0.00     0.077 C 
ATOM      8  C7  UNL d   1      -0.713   0.591  -0.159  0.00  0.00    -0.001 A 
ENDROOT
TORSDOF 0
ENDMDL
