MODEL 1
REMARK minimizedAffinity -5.52161789
REMARK minimizedRMSD -1
REMARK  0 active torsions:
REMARK  status: ('A' for Active; 'I' for Inactive)
ROOT
ATOM      1  C   UNL d   1      -3.077   1.641   0.362  0.00  0.00     0.077 C 
ATOM      2  C1  UNL d   1      -1.902   2.191  -0.390  0.00  0.00    -0.074 A 
ATOM      3  C2  UNL d   1      -1.833   3.547  -0.724  0.00  0.00    -0.005 A 
ATOM      4  C3  UNL d   1      -0.729   4.046  -1.416  0.00  0.00     0.006 A 
ATOM      5  C4  UNL d   1       0.316   3.195  -1.779  0.00  0.00    -0.005 A 
ATOM      6  C5  UNL d   1       0.265   1.836  -1.453  0.00  0.00    -0.074 A 
ATOM      7  C6  UNL d   1       1.383   0.910  -1.827  0.00  0.00     0.077 C 
ATOM      8  C7  UNL d   1      -0.845   1.344  -0.752  0.00  0.00    -0.001 A 
ENDROOT
TORSDOF 0
ENDMDL
