MODEL 1
REMARK minimizedAffinity 0.923452258
REMARK minimizedRMSD -1
REMARK  0 active torsions:
REMARK  status: ('A' for Active; 'I' for Inactive)
ROOT
ATOM      1  C   UNL d   1      -2.364  -2.152  -4.198  0.00  0.00     0.020 A 
ATOM      2  C1  UNL d   1      -2.591  -3.484  -3.855  0.00  0.00     0.020 A 
ATOM      3  C2  UNL d   1      -2.437  -3.900  -2.530  0.00  0.00     0.034 A 
ATOM      4  C3  UNL d   1      -2.055  -2.983  -1.544  0.00  0.00     0.017 A 
ATOM      5  C4  UNL d   1      -1.827  -1.646  -1.890  0.00  0.00     0.017 A 
ATOM      6  C5  UNL d   1      -1.983  -1.235  -3.217  0.00  0.00     0.034 A 
ATOM      7 Cl   UNL d   1      -1.354  -0.456  -0.729  0.00  0.00    -0.070 Cl
ATOM      8 Cl1  UNL d   1      -1.884  -3.567   0.073  0.00  0.00    -0.070 Cl
ENDROOT
TORSDOF 0
ENDMDL
