MODEL 1
REMARK minimizedAffinity -4.05491352
REMARK minimizedRMSD -1
REMARK  0 active torsions:
REMARK  status: ('A' for Active; 'I' for Inactive)
ROOT
ATOM      1  C   UNL d   1      -4.926   3.964   6.000  0.00  0.00     0.020 A 
ATOM      2  C1  UNL d   1      -5.304   5.263   5.661  0.00  0.00     0.020 A 
ATOM      3  C2  UNL d   1      -5.356   5.647   4.320  0.00  0.00     0.034 A 
ATOM      4  C3  UNL d   1      -5.029   4.732   3.312  0.00  0.00     0.017 A 
ATOM      5  C4  UNL d   1      -4.650   3.429   3.653  0.00  0.00     0.017 A 
ATOM      6  C5  UNL d   1      -4.600   3.049   4.998  0.00  0.00     0.034 A 
ATOM      7 Cl   UNL d   1      -4.233   2.244   2.466  0.00  0.00    -0.070 Cl
ATOM      8 Cl1  UNL d   1      -5.116   5.276   1.674  0.00  0.00    -0.070 Cl
ENDROOT
TORSDOF 0
ENDMDL
