MODEL 1
REMARK minimizedAffinity 0.406136543
REMARK minimizedRMSD -1
REMARK  0 active torsions:
REMARK  status: ('A' for Active; 'I' for Inactive)
ROOT
ATOM      1  C   UNL d   1      -2.921  -2.431  -3.731  0.00  0.00     0.020 A 
ATOM      2  C1  UNL d   1      -2.824  -3.281  -2.631  0.00  0.00     0.020 A 
ATOM      3  C2  UNL d   1      -2.084  -2.894  -1.512  0.00  0.00     0.034 A 
ATOM      4  C3  UNL d   1      -1.437  -1.653  -1.491  0.00  0.00     0.017 A 
ATOM      5  C4  UNL d   1      -1.534  -0.800  -2.596  0.00  0.00     0.017 A 
ATOM      6  C5  UNL d   1      -2.277  -1.193  -3.714  0.00  0.00     0.034 A 
ATOM      7 Cl   UNL d   1      -0.764   0.746  -2.644  0.00  0.00    -0.070 Cl
ATOM      8 Cl1  UNL d   1      -0.539  -1.239  -0.074  0.00  0.00    -0.070 Cl
ENDROOT
TORSDOF 0
ENDMDL
