MODEL 1
REMARK minimizedAffinity 1.99554586
REMARK minimizedRMSD -1
REMARK  0 active torsions:
REMARK  status: ('A' for Active; 'I' for Inactive)
ROOT
ATOM      1  C   UNL d   1      -5.166   5.599   4.836  0.00  0.00     0.020 A 
ATOM      2  C1  UNL d   1      -4.336   4.482   4.923  0.00  0.00     0.020 A 
ATOM      3  C2  UNL d   1      -4.007   3.765   3.771  0.00  0.00     0.034 A 
ATOM      4  C3  UNL d   1      -4.508   4.163   2.527  0.00  0.00     0.017 A 
ATOM      5  C4  UNL d   1      -5.341   5.285   2.440  0.00  0.00     0.017 A 
ATOM      6  C5  UNL d   1      -5.667   6.000   3.597  0.00  0.00     0.034 A 
ATOM      7 Cl   UNL d   1      -5.998   5.838   0.940  0.00  0.00    -0.070 Cl
ATOM      8 Cl1  UNL d   1      -4.061   3.230   1.144  0.00  0.00    -0.070 Cl
ENDROOT
TORSDOF 0
ENDMDL
