MODEL 1
REMARK minimizedAffinity 5.75405073
REMARK minimizedRMSD -1
REMARK  0 active torsions:
REMARK  status: ('A' for Active; 'I' for Inactive)
ROOT
ATOM      1  C   UNL d   1       0.702   1.934   3.914  0.00  0.00     0.020 A 
ATOM      2  C1  UNL d   1       1.424   3.127   3.896  0.00  0.00     0.020 A 
ATOM      3  C2  UNL d   1       2.107   3.512   2.741  0.00  0.00     0.034 A 
ATOM      4  C3  UNL d   1       2.069   2.705   1.598  0.00  0.00     0.017 A 
ATOM      5  C4  UNL d   1       1.344   1.508   1.617  0.00  0.00     0.017 A 
ATOM      6  C5  UNL d   1       0.662   1.127   2.776  0.00  0.00     0.034 A 
ATOM      7 Cl   UNL d   1       1.251   0.460   0.246  0.00  0.00    -0.070 Cl
ATOM      8 Cl1  UNL d   1       2.937   3.244   0.204  0.00  0.00    -0.070 Cl
ENDROOT
TORSDOF 0
ENDMDL
