MODEL 1
REMARK minimizedAffinity 2.10435176
REMARK minimizedRMSD -1
REMARK  0 active torsions:
REMARK  status: ('A' for Active; 'I' for Inactive)
ROOT
ATOM      1  C   UNL d   1      -5.501   4.133   0.027  0.00  0.00     0.020 A 
ATOM      2  C1  UNL d   1      -5.919   5.441   0.270  0.00  0.00     0.020 A 
ATOM      3  C2  UNL d   1      -5.771   5.996   1.543  0.00  0.00     0.034 A 
ATOM      4  C3  UNL d   1      -5.202   5.244   2.577  0.00  0.00     0.017 A 
ATOM      5  C4  UNL d   1      -4.782   3.932   2.333  0.00  0.00     0.017 A 
ATOM      6  C5  UNL d   1      -4.933   3.381   1.057  0.00  0.00     0.034 A 
ATOM      7 Cl   UNL d   1      -4.072   2.942   3.559  0.00  0.00    -0.070 Cl
ATOM      8 Cl1  UNL d   1      -5.049   5.995   4.126  0.00  0.00    -0.070 Cl
ENDROOT
TORSDOF 0
ENDMDL
