MODEL 1
REMARK minimizedAffinity 0.945557833
REMARK minimizedRMSD -1
REMARK  0 active torsions:
REMARK  status: ('A' for Active; 'I' for Inactive)
ROOT
ATOM      1  C   UNL d   1      -0.819   0.667  -1.980  0.00  0.00     0.020 A 
ATOM      2  C1  UNL d   1      -0.150   0.402  -0.786  0.00  0.00     0.020 A 
ATOM      3  C2  UNL d   1       1.165  -0.066  -0.811  0.00  0.00     0.034 A 
ATOM      4  C3  UNL d   1       1.816  -0.271  -2.033  0.00  0.00     0.017 A 
ATOM      5  C4  UNL d   1       1.144  -0.004  -3.231  0.00  0.00     0.017 A 
ATOM      6  C5  UNL d   1      -0.173   0.464  -3.200  0.00  0.00     0.034 A 
ATOM      7 Cl   UNL d   1       1.882  -0.232  -4.778  0.00  0.00    -0.070 Cl
ATOM      8 Cl1  UNL d   1       3.443  -0.851  -1.989  0.00  0.00    -0.070 Cl
ENDROOT
TORSDOF 0
ENDMDL
