MODEL 1
REMARK minimizedAffinity 1.47404921
REMARK minimizedRMSD -1
REMARK  0 active torsions:
REMARK  status: ('A' for Active; 'I' for Inactive)
ROOT
ATOM      1  C   UNL d   1      -1.050   0.074  -1.942  0.00  0.00     0.020 A 
ATOM      2  C1  UNL d   1      -1.554  -0.282  -0.691  0.00  0.00     0.020 A 
ATOM      3  C2  UNL d   1      -0.679  -0.572   0.357  0.00  0.00     0.034 A 
ATOM      4  C3  UNL d   1       0.705  -0.506   0.157  0.00  0.00     0.017 A 
ATOM      5  C4  UNL d   1       1.210  -0.149  -1.098  0.00  0.00     0.017 A 
ATOM      6  C5  UNL d   1       0.329   0.141  -2.145  0.00  0.00     0.034 A 
ATOM      7 Cl   UNL d   1       2.905  -0.047  -1.421  0.00  0.00    -0.070 Cl
ATOM      8 Cl1  UNL d   1       1.729  -0.878   1.499  0.00  0.00    -0.070 Cl
ENDROOT
TORSDOF 0
ENDMDL
