MODEL 1
REMARK minimizedAffinity 5.77680111
REMARK minimizedRMSD -1
REMARK  0 active torsions:
REMARK  status: ('A' for Active; 'I' for Inactive)
ROOT
ATOM      1  C   UNL d   1      -5.524   5.643   0.445  0.00  0.00     0.020 A 
ATOM      2  C1  UNL d   1      -4.394   4.836   0.321  0.00  0.00     0.020 A 
ATOM      3  C2  UNL d   1      -3.739   4.372   1.464  0.00  0.00     0.034 A 
ATOM      4  C3  UNL d   1      -4.212   4.715   2.735  0.00  0.00     0.017 A 
ATOM      5  C4  UNL d   1      -5.346   5.526   2.859  0.00  0.00     0.017 A 
ATOM      6  C5  UNL d   1      -5.999   5.987   1.712  0.00  0.00     0.034 A 
ATOM      7 Cl   UNL d   1      -5.990   5.991   4.394  0.00  0.00    -0.070 Cl
ATOM      8 Cl1  UNL d   1      -3.352   4.105   4.104  0.00  0.00    -0.070 Cl
ENDROOT
TORSDOF 0
ENDMDL
