MODEL 1
REMARK minimizedAffinity 7.1046133
REMARK minimizedRMSD -1
REMARK  0 active torsions:
REMARK  status: ('A' for Active; 'I' for Inactive)
ROOT
ATOM      1  C   UNL d   1       1.833  -0.143  -5.204  0.00  0.00     0.020 A 
ATOM      2  C1  UNL d   1       0.691   0.335  -4.561  0.00  0.00     0.020 A 
ATOM      3  C2  UNL d   1       0.582   0.243  -3.172  0.00  0.00     0.034 A 
ATOM      4  C3  UNL d   1       1.616  -0.327  -2.421  0.00  0.00     0.017 A 
ATOM      5  C4  UNL d   1       2.762  -0.806  -3.067  0.00  0.00     0.017 A 
ATOM      6  C5  UNL d   1       2.866  -0.712  -4.458  0.00  0.00     0.034 A 
ATOM      7 Cl   UNL d   1       4.079  -1.523  -2.207  0.00  0.00    -0.070 Cl
ATOM      8 Cl1  UNL d   1       1.414  -0.407  -0.707  0.00  0.00    -0.070 Cl
ENDROOT
TORSDOF 0
ENDMDL
