MODEL 1
REMARK minimizedAffinity -0.807526171
REMARK minimizedRMSD -1
REMARK  0 active torsions:
REMARK  status: ('A' for Active; 'I' for Inactive)
ROOT
ATOM      1  C   UNL d   1      -2.341  -3.056  -0.787  0.00  0.00     0.020 A 
ATOM      2  C1  UNL d   1      -2.862  -2.380  -1.889  0.00  0.00     0.020 A 
ATOM      3  C2  UNL d   1      -2.288  -1.177  -2.306  0.00  0.00     0.034 A 
ATOM      4  C3  UNL d   1      -1.190  -0.646  -1.620  0.00  0.00     0.017 A 
ATOM      5  C4  UNL d   1      -0.667  -1.325  -0.514  0.00  0.00     0.017 A 
ATOM      6  C5  UNL d   1      -1.246  -2.529  -0.101  0.00  0.00     0.034 A 
ATOM      7 Cl   UNL d   1       0.686  -0.732   0.383  0.00  0.00    -0.070 Cl
ATOM      8 Cl1  UNL d   1      -0.530   0.846  -2.192  0.00  0.00    -0.070 Cl
ENDROOT
TORSDOF 0
ENDMDL
