MODEL 1
REMARK minimizedAffinity 0.468674779
REMARK minimizedRMSD -1
REMARK  0 active torsions:
REMARK  status: ('A' for Active; 'I' for Inactive)
ROOT
ATOM      1  C   UNL d   1      -4.914   5.995   5.992  0.00  0.00     0.020 A 
ATOM      2  C1  UNL d   1      -6.000   6.000   5.117  0.00  0.00     0.020 A 
ATOM      3  C2  UNL d   1      -5.799   5.773   3.753  0.00  0.00     0.034 A 
ATOM      4  C3  UNL d   1      -4.510   5.541   3.261  0.00  0.00     0.017 A 
ATOM      5  C4  UNL d   1      -3.420   5.536   4.140  0.00  0.00     0.017 A 
ATOM      6  C5  UNL d   1      -3.627   5.764   5.504  0.00  0.00     0.034 A 
ATOM      7 Cl   UNL d   1      -1.800   5.257   3.607  0.00  0.00    -0.070 Cl
ATOM      8 Cl1  UNL d   1      -4.335   5.268   1.564  0.00  0.00    -0.070 Cl
ENDROOT
TORSDOF 0
ENDMDL
