MODEL 1
REMARK minimizedAffinity -3.44372678
REMARK minimizedRMSD -1
REMARK  0 active torsions:
REMARK  status: ('A' for Active; 'I' for Inactive)
ROOT
ATOM      1  C   UNL d   1      -2.815  -1.815  -0.754  0.00  0.00     0.020 A 
ATOM      2  C1  UNL d   1      -2.036  -2.925  -1.079  0.00  0.00     0.020 A 
ATOM      3  C2  UNL d   1      -2.476  -4.208  -0.746  0.00  0.00     0.034 A 
ATOM      4  C3  UNL d   1      -3.697  -4.384  -0.086  0.00  0.00     0.017 A 
ATOM      5  C4  UNL d   1      -4.478  -3.270   0.240  0.00  0.00     0.017 A 
ATOM      6  C5  UNL d   1      -4.034  -1.987  -0.096  0.00  0.00     0.034 A 
ATOM      7 Cl   UNL d   1      -5.997  -3.408   1.054  0.00  0.00    -0.070 Cl
ATOM      8 Cl1  UNL d   1      -4.179  -5.999   0.295  0.00  0.00    -0.070 Cl
ENDROOT
TORSDOF 0
ENDMDL
