MODEL 1
REMARK minimizedAffinity 7.35539818
REMARK minimizedRMSD -1
REMARK  0 active torsions:
REMARK  status: ('A' for Active; 'I' for Inactive)
ROOT
ATOM      1  C   UNL d   1      -2.963  -2.556   4.770  0.00  0.00     0.020 A 
ATOM      2  C1  UNL d   1      -3.072  -1.875   5.982  0.00  0.00     0.020 A 
ATOM      3  C2  UNL d   1      -3.119  -0.479   5.997  0.00  0.00     0.034 A 
ATOM      4  C3  UNL d   1      -3.057   0.240   4.798  0.00  0.00     0.017 A 
ATOM      5  C4  UNL d   1      -2.948  -0.444   3.582  0.00  0.00     0.017 A 
ATOM      6  C5  UNL d   1      -2.902  -1.842   3.573  0.00  0.00     0.034 A 
ATOM      7 Cl   UNL d   1      -2.867   0.374   2.062  0.00  0.00    -0.070 Cl
ATOM      8 Cl1  UNL d   1      -3.121   1.964   4.891  0.00  0.00    -0.070 Cl
ENDROOT
TORSDOF 0
ENDMDL
