MODEL 1
REMARK minimizedAffinity -5.37064075
REMARK minimizedRMSD -1
REMARK  0 active torsions:
REMARK  status: ('A' for Active; 'I' for Inactive)
ROOT
ATOM      1  C   UNL d   1      -2.426  -2.525  -0.727  0.00  0.00     0.020 A 
ATOM      2  C1  UNL d   1      -2.798  -1.539   0.185  0.00  0.00     0.020 A 
ATOM      3  C2  UNL d   1      -3.905  -1.736   1.014  0.00  0.00     0.034 A 
ATOM      4  C3  UNL d   1      -4.643  -2.922   0.933  0.00  0.00     0.017 A 
ATOM      5  C4  UNL d   1      -4.268  -3.912   0.017  0.00  0.00     0.017 A 
ATOM      6  C5  UNL d   1      -3.160  -3.709  -0.811  0.00  0.00     0.034 A 
ATOM      7 Cl   UNL d   1      -5.130  -5.402  -0.141  0.00  0.00    -0.070 Cl
ATOM      8 Cl1  UNL d   1      -5.999  -3.099   1.989  0.00  0.00    -0.070 Cl
ENDROOT
TORSDOF 0
ENDMDL
