MODEL 1
REMARK minimizedAffinity 1.78202009
REMARK minimizedRMSD -1
REMARK  0 active torsions:
REMARK  status: ('A' for Active; 'I' for Inactive)
ROOT
ATOM      1  C   UNL d   1      -4.455   5.960   4.039  0.00  0.00     0.020 A 
ATOM      2  C1  UNL d   1      -3.813   4.845   4.578  0.00  0.00     0.020 A 
ATOM      3  C2  UNL d   1      -3.475   3.769   3.755  0.00  0.00     0.034 A 
ATOM      4  C3  UNL d   1      -3.778   3.805   2.389  0.00  0.00     0.017 A 
ATOM      5  C4  UNL d   1      -4.422   4.925   1.849  0.00  0.00     0.017 A 
ATOM      6  C5  UNL d   1      -4.758   5.999   2.678  0.00  0.00     0.034 A 
ATOM      7 Cl   UNL d   1      -4.829   5.042   0.173  0.00  0.00    -0.070 Cl
ATOM      8 Cl1  UNL d   1      -3.330   2.439   1.430  0.00  0.00    -0.070 Cl
ENDROOT
TORSDOF 0
ENDMDL
