MODEL 1
REMARK minimizedAffinity 4.46054268
REMARK minimizedRMSD -1
REMARK  0 active torsions:
REMARK  status: ('A' for Active; 'I' for Inactive)
ROOT
ATOM      1  C   UNL d   1       2.033  -0.452   5.175  0.00  0.00     0.020 A 
ATOM      2  C1  UNL d   1       2.807  -0.459   4.016  0.00  0.00     0.020 A 
ATOM      3  C2  UNL d   1       2.883   0.686   3.220  0.00  0.00     0.034 A 
ATOM      4  C3  UNL d   1       2.184   1.843   3.582  0.00  0.00     0.017 A 
ATOM      5  C4  UNL d   1       1.407   1.849   4.746  0.00  0.00     0.017 A 
ATOM      6  C5  UNL d   1       1.334   0.700   5.539  0.00  0.00     0.034 A 
ATOM      7 Cl   UNL d   1       0.516   3.239   5.258  0.00  0.00    -0.070 Cl
ATOM      8 Cl1  UNL d   1       2.324   3.222   2.551  0.00  0.00    -0.070 Cl
ENDROOT
TORSDOF 0
ENDMDL
