MODEL 1
REMARK minimizedAffinity 10.6224298
REMARK minimizedRMSD -1
REMARK  0 active torsions:
REMARK  status: ('A' for Active; 'I' for Inactive)
ROOT
ATOM      1  C   UNL d   1      -2.790  -3.869  -2.918  0.00  0.00     0.020 A 
ATOM      2  C1  UNL d   1      -2.748  -3.513  -4.265  0.00  0.00     0.020 A 
ATOM      3  C2  UNL d   1      -2.170  -2.301  -4.650  0.00  0.00     0.034 A 
ATOM      4  C3  UNL d   1      -1.633  -1.440  -3.685  0.00  0.00     0.017 A 
ATOM      5  C4  UNL d   1      -1.676  -1.798  -2.333  0.00  0.00     0.017 A 
ATOM      6  C5  UNL d   1      -2.255  -3.013  -1.954  0.00  0.00     0.034 A 
ATOM      7 Cl   UNL d   1      -1.034  -0.789  -1.086  0.00  0.00    -0.070 Cl
ATOM      8 Cl1  UNL d   1      -0.934   0.042  -4.232  0.00  0.00    -0.070 Cl
ENDROOT
TORSDOF 0
ENDMDL
