MODEL 1
REMARK minimizedAffinity 1.77368546
REMARK minimizedRMSD -1
REMARK  0 active torsions:
REMARK  status: ('A' for Active; 'I' for Inactive)
ROOT
ATOM      1  C   UNL d   1       2.114  -0.497   0.416  0.00  0.00     0.023 A 
ATOM      2  C1  UNL d   1       1.208  -1.121   1.275  0.00  0.00     0.003 A 
ATOM      3  C2  UNL d   1       0.047  -0.454   1.672  0.00  0.00     0.048 A 
ATOM      4  C3  UNL d   1      -0.203   0.835   1.204  0.00  0.00     0.023 A 
ATOM      5  C4  UNL d   1       0.699   1.463   0.344  0.00  0.00     0.048 A 
ATOM      6  C5  UNL d   1       1.859   0.793  -0.049  0.00  0.00     0.003 A 
ATOM      7  I   UNL d   1      -1.931   1.829   1.793  0.00  0.00    -0.146 I 
ENDROOT
TORSDOF 0
ENDMDL
