MODEL 1
REMARK minimizedAffinity -1.12398458
REMARK minimizedRMSD -1
REMARK  0 active torsions:
REMARK  status: ('A' for Active; 'I' for Inactive)
ROOT
ATOM      1  C   UNL d   1      -4.770  -5.997   0.670  0.00  0.00     0.023 A 
ATOM      2  C1  UNL d   1      -5.619  -4.893   0.758  0.00  0.00     0.003 A 
ATOM      3  C2  UNL d   1      -5.419  -3.789  -0.073  0.00  0.00     0.048 A 
ATOM      4  C3  UNL d   1      -4.370  -3.796  -0.992  0.00  0.00     0.023 A 
ATOM      5  C4  UNL d   1      -3.519  -4.899  -1.084  0.00  0.00     0.048 A 
ATOM      6  C5  UNL d   1      -3.722  -6.000  -0.250  0.00  0.00     0.003 A 
ATOM      7  I   UNL d   1      -4.071  -2.154  -2.230  0.00  0.00    -0.146 I 
ENDROOT
TORSDOF 0
ENDMDL
