MODEL 1
REMARK minimizedAffinity 2.60750413
REMARK minimizedRMSD -1
REMARK  0 active torsions:
REMARK  status: ('A' for Active; 'I' for Inactive)
ROOT
ATOM      1  C   UNL d   1       0.625   0.466   0.815  0.00  0.00     0.023 A 
ATOM      2  C1  UNL d   1       0.431   1.810   1.135  0.00  0.00     0.003 A 
ATOM      3  C2  UNL d   1      -0.767   2.223   1.721  0.00  0.00     0.048 A 
ATOM      4  C3  UNL d   1      -1.767   1.287   1.985  0.00  0.00     0.023 A 
ATOM      5  C4  UNL d   1      -1.577  -0.058   1.667  0.00  0.00     0.048 A 
ATOM      6  C5  UNL d   1      -0.377  -0.467   1.081  0.00  0.00     0.003 A 
ATOM      7  I   UNL d   1      -3.551   1.900   2.856  0.00  0.00    -0.146 I 
ENDROOT
TORSDOF 0
ENDMDL
