MODEL 1
REMARK minimizedAffinity 9.53393936
REMARK minimizedRMSD -1
REMARK  0 active torsions:
REMARK  status: ('A' for Active; 'I' for Inactive)
ROOT
ATOM      1  C   UNL d   1       0.035   2.384   0.653  0.00  0.00     0.023 A 
ATOM      2  C1  UNL d   1      -0.955   3.355   0.495  0.00  0.00     0.003 A 
ATOM      3  C2  UNL d   1      -2.078   3.350   1.325  0.00  0.00     0.048 A 
ATOM      4  C3  UNL d   1      -2.204   2.372   2.311  0.00  0.00     0.023 A 
ATOM      5  C4  UNL d   1      -1.216   1.399   2.473  0.00  0.00     0.048 A 
ATOM      6  C5  UNL d   1      -0.096   1.408   1.640  0.00  0.00     0.003 A 
ATOM      7  I   UNL d   1      -3.875   2.362   3.548  0.00  0.00    -0.146 I 
ENDROOT
TORSDOF 0
ENDMDL
