MODEL 1
REMARK minimizedAffinity -0.88063401
REMARK minimizedRMSD -1
REMARK  0 active torsions:
REMARK  status: ('A' for Active; 'I' for Inactive)
ROOT
ATOM      1  C   UNL d   1      -0.079   0.462   0.709  0.00  0.00     0.023 A 
ATOM      2  C1  UNL d   1      -0.202   1.763   1.197  0.00  0.00     0.003 A 
ATOM      3  C2  UNL d   1      -1.347   2.140   1.902  0.00  0.00     0.048 A 
ATOM      4  C3  UNL d   1      -2.365   1.211   2.115  0.00  0.00     0.023 A 
ATOM      5  C4  UNL d   1      -2.246  -0.092   1.628  0.00  0.00     0.048 A 
ATOM      6  C5  UNL d   1      -1.100  -0.464   0.924  0.00  0.00     0.003 A 
ATOM      7  I   UNL d   1      -4.071   1.770   3.163  0.00  0.00    -0.146 I 
ENDROOT
TORSDOF 0
ENDMDL
