MODEL 1
REMARK minimizedAffinity 0.846267045
REMARK minimizedRMSD -1
REMARK  0 active torsions:
REMARK  status: ('A' for Active; 'I' for Inactive)
ROOT
ATOM      1  C   UNL d   1       0.381   0.528   1.177  0.00  0.00     0.023 A 
ATOM      2  C1  UNL d   1       0.060   1.885   1.169  0.00  0.00     0.003 A 
ATOM      3  C2  UNL d   1      -1.119   2.328   1.773  0.00  0.00     0.048 A 
ATOM      4  C3  UNL d   1      -1.971   1.408   2.384  0.00  0.00     0.023 A 
ATOM      5  C4  UNL d   1      -1.652   0.049   2.394  0.00  0.00     0.048 A 
ATOM      6  C5  UNL d   1      -0.473  -0.389   1.788  0.00  0.00     0.003 A 
ATOM      7  I   UNL d   1      -3.725   2.064   3.283  0.00  0.00    -0.146 I 
ENDROOT
TORSDOF 0
ENDMDL
