MODEL 1
REMARK minimizedAffinity 0.128354415
REMARK minimizedRMSD -1
REMARK  0 active torsions:
REMARK  status: ('A' for Active; 'I' for Inactive)
ROOT
ATOM      1  C   UNL d   1       0.478   1.082   1.070  0.00  0.00     0.023 A 
ATOM      2  C1  UNL d   1      -0.515   0.103   1.037  0.00  0.00     0.003 A 
ATOM      3  C2  UNL d   1      -1.782   0.373   1.560  0.00  0.00     0.048 A 
ATOM      4  C3  UNL d   1      -2.049   1.625   2.112  0.00  0.00     0.023 A 
ATOM      5  C4  UNL d   1      -1.059   2.608   2.146  0.00  0.00     0.048 A 
ATOM      6  C5  UNL d   1       0.206   2.334   1.624  0.00  0.00     0.003 A 
ATOM      7  I   UNL d   1      -3.934   2.029   2.890  0.00  0.00    -0.146 I 
ENDROOT
TORSDOF 0
ENDMDL
