MODEL 1
REMARK minimizedAffinity 2.70383096
REMARK minimizedRMSD -1
REMARK  0 active torsions:
REMARK  status: ('A' for Active; 'I' for Inactive)
ROOT
ATOM      1  C   UNL d   1      -1.344  -0.115   1.804  0.00  0.00     0.023 A 
ATOM      2  C1  UNL d   1      -0.360  -1.099   1.902  0.00  0.00     0.003 A 
ATOM      3  C2  UNL d   1       0.827  -0.976   1.177  0.00  0.00     0.048 A 
ATOM      4  C3  UNL d   1       1.024   0.134   0.357  0.00  0.00     0.023 A 
ATOM      5  C4  UNL d   1       0.043   1.122   0.256  0.00  0.00     0.048 A 
ATOM      6  C5  UNL d   1      -1.142   0.994   0.982  0.00  0.00     0.003 A 
ATOM      7  I   UNL d   1       2.790   0.319  -0.724  0.00  0.00    -0.146 I 
ENDROOT
TORSDOF 0
ENDMDL
