MODEL 1
REMARK minimizedAffinity 1.34902787
REMARK minimizedRMSD -1
REMARK  0 active torsions:
REMARK  status: ('A' for Active; 'I' for Inactive)
ROOT
ATOM      1  C   UNL d   1       0.517   1.037   0.632  0.00  0.00     0.023 A 
ATOM      2  C1  UNL d   1       0.494  -0.226   1.225  0.00  0.00     0.003 A 
ATOM      3  C2  UNL d   1      -0.667  -0.685   1.849  0.00  0.00     0.048 A 
ATOM      4  C3  UNL d   1      -1.803   0.124   1.877  0.00  0.00     0.023 A 
ATOM      5  C4  UNL d   1      -1.786   1.387   1.285  0.00  0.00     0.048 A 
ATOM      6  C5  UNL d   1      -0.622   1.843   0.662  0.00  0.00     0.003 A 
ATOM      7  I   UNL d   1      -3.533  -0.558   2.806  0.00  0.00    -0.146 I 
ENDROOT
TORSDOF 0
ENDMDL
