MODEL 1
REMARK minimizedAffinity 3.7644155
REMARK minimizedRMSD -1
REMARK  0 active torsions:
REMARK  status: ('A' for Active; 'I' for Inactive)
ROOT
ATOM      1  C   UNL d   1      -0.420   2.383   1.784  0.00  0.00     0.023 A 
ATOM      2  C1  UNL d   1       0.192   2.812   0.607  0.00  0.00     0.003 A 
ATOM      3  C2  UNL d   1       1.216   2.055   0.035  0.00  0.00     0.048 A 
ATOM      4  C3  UNL d   1       1.623   0.869   0.645  0.00  0.00     0.023 A 
ATOM      5  C4  UNL d   1       1.013   0.435   1.824  0.00  0.00     0.048 A 
ATOM      6  C5  UNL d   1      -0.010   1.196   2.392  0.00  0.00     0.003 A 
ATOM      7  I   UNL d   1       3.147  -0.260  -0.204  0.00  0.00    -0.146 I 
ENDROOT
TORSDOF 0
ENDMDL
