MODEL 1
REMARK minimizedAffinity 1.87670863
REMARK minimizedRMSD -1
REMARK  0 active torsions:
REMARK  status: ('A' for Active; 'I' for Inactive)
ROOT
ATOM      1  C   UNL d   1      -4.137  -1.221  -2.677  0.00  0.00     0.023 A 
ATOM      2  C1  UNL d   1      -4.456  -1.538  -1.356  0.00  0.00     0.003 A 
ATOM      3  C2  UNL d   1      -4.189  -2.815  -0.859  0.00  0.00     0.048 A 
ATOM      4  C3  UNL d   1      -3.601  -3.770  -1.687  0.00  0.00     0.023 A 
ATOM      5  C4  UNL d   1      -3.279  -3.457  -3.009  0.00  0.00     0.048 A 
ATOM      6  C5  UNL d   1      -3.549  -2.179  -3.502  0.00  0.00     0.003 A 
ATOM      7  I   UNL d   1      -3.202  -5.672  -0.950  0.00  0.00    -0.146 I 
ENDROOT
TORSDOF 0
ENDMDL
