MODEL 1
REMARK minimizedAffinity -1.21792471
REMARK minimizedRMSD -1
REMARK  0 active torsions:
REMARK  status: ('A' for Active; 'I' for Inactive)
ROOT
ATOM      1  C   UNL d   1       2.651   0.228   1.282  0.00  0.00     0.023 A 
ATOM      2  C1  UNL d   1       1.935   0.704   0.184  0.00  0.00     0.003 A 
ATOM      3  C2  UNL d   1       0.633   1.178   0.351  0.00  0.00     0.048 A 
ATOM      4  C3  UNL d   1       0.053   1.175   1.619  0.00  0.00     0.023 A 
ATOM      5  C4  UNL d   1       0.766   0.701   2.721  0.00  0.00     0.048 A 
ATOM      6  C5  UNL d   1       2.067   0.226   2.549  0.00  0.00     0.003 A 
ATOM      7  I   UNL d   1      -1.886   1.882   1.869  0.00  0.00    -0.146 I 
ENDROOT
TORSDOF 0
ENDMDL
