MODEL 1
REMARK minimizedAffinity -1.1866734
REMARK minimizedRMSD -1
REMARK  0 active torsions:
REMARK  status: ('A' for Active; 'I' for Inactive)
ROOT
ATOM      1  C   UNL d   1      -2.320   1.303   2.167  0.00  0.00     0.023 A 
ATOM      2  C1  UNL d   1      -1.846   0.029   1.850  0.00  0.00     0.003 A 
ATOM      3  C2  UNL d   1      -0.583  -0.125   1.274  0.00  0.00     0.048 A 
ATOM      4  C3  UNL d   1       0.201   0.999   1.018  0.00  0.00     0.023 A 
ATOM      5  C4  UNL d   1      -0.268   2.276   1.334  0.00  0.00     0.048 A 
ATOM      6  C5  UNL d   1      -1.531   2.424   1.909  0.00  0.00     0.003 A 
ATOM      7  I   UNL d   1       2.081   0.773   0.161  0.00  0.00    -0.146 I 
ENDROOT
TORSDOF 0
ENDMDL
