MODEL 1
REMARK minimizedAffinity 3.26026082
REMARK minimizedRMSD -1
REMARK  0 active torsions:
REMARK  status: ('A' for Active; 'I' for Inactive)
ROOT
ATOM      1  C   UNL d   1       1.225   1.184   1.048  0.00  0.00     0.023 A 
ATOM      2  C1  UNL d   1       0.927  -0.170   0.891  0.00  0.00     0.003 A 
ATOM      3  C2  UNL d   1      -0.357  -0.641   1.172  0.00  0.00     0.048 A 
ATOM      4  C3  UNL d   1      -1.339   0.248   1.608  0.00  0.00     0.023 A 
ATOM      5  C4  UNL d   1      -1.046   1.603   1.766  0.00  0.00     0.048 A 
ATOM      6  C5  UNL d   1       0.240   2.069   1.485  0.00  0.00     0.003 A 
ATOM      7  I   UNL d   1      -3.251  -0.450   2.027  0.00  0.00    -0.146 I 
ENDROOT
TORSDOF 0
ENDMDL
