MODEL 1
REMARK minimizedAffinity -2.27614498
REMARK minimizedRMSD -1
REMARK  1 active torsions:
REMARK  status: ('A' for Active; 'I' for Inactive)
REMARK    1  A    between atoms: C1_2  and  C2_3 
ROOT
ATOM      1  C2  UNL d   1       5.676  -4.528  -1.364  0.00  0.00    -0.076 A 
ATOM      2  C3  UNL d   1       6.000  -5.766  -1.947  0.00  0.00     0.004 A 
ATOM      3  C4  UNL d   1       5.779  -6.000  -3.303  0.00  0.00    -0.003 A 
ATOM      4  C5  UNL d   1       5.232  -4.999  -4.099  0.00  0.00     0.000 A 
ATOM      5  C6  UNL d   1       4.921  -3.760  -3.541  0.00  0.00     0.000 A 
ATOM      6  C7  UNL d   1       5.153  -3.502  -2.179  0.00  0.00    -0.073 A 
ATOM      7  C8  UNL d   1       4.793  -2.149  -1.629  0.00  0.00     0.078 C 
ENDROOT
BRANCH   1   8
ATOM      8  C1  UNL d   1       5.913  -4.342   0.118  0.00  0.00     0.053 C 
ATOM      9  C   UNL d   1       5.976  -5.663   0.869  0.00  0.00     0.018 C 
ENDBRANCH   1   8
TORSDOF 1
ENDMDL
