MODEL 1
REMARK minimizedAffinity -2.03418851
REMARK minimizedRMSD -1
REMARK  1 active torsions:
REMARK  status: ('A' for Active; 'I' for Inactive)
REMARK    1  A    between atoms: C1_2  and  C2_3 
ROOT
ATOM      1  C2  UNL d   1       5.216  -3.962   4.523  0.00  0.00    -0.076 A 
ATOM      2  C3  UNL d   1       5.240  -4.886   3.464  0.00  0.00     0.004 A 
ATOM      3  C4  UNL d   1       5.628  -4.499   2.182  0.00  0.00    -0.003 A 
ATOM      4  C5  UNL d   1       6.000  -3.181   1.939  0.00  0.00     0.000 A 
ATOM      5  C6  UNL d   1       5.999  -2.255   2.982  0.00  0.00     0.000 A 
ATOM      6  C7  UNL d   1       5.626  -2.633   4.283  0.00  0.00    -0.073 A 
ATOM      7  C8  UNL d   1       5.637  -1.591   5.368  0.00  0.00     0.078 C 
ENDROOT
BRANCH   1   8
ATOM      8  C1  UNL d   1       4.760  -4.433   5.885  0.00  0.00     0.053 C 
ATOM      9  C   UNL d   1       4.710  -5.949   5.991  0.00  0.00     0.018 C 
ENDBRANCH   1   8
TORSDOF 1
ENDMDL
