MODEL 1
REMARK minimizedAffinity 6.64739084
REMARK minimizedRMSD -1
REMARK  1 active torsions:
REMARK  status: ('A' for Active; 'I' for Inactive)
REMARK    1  A    between atoms: C1_2  and  C2_3 
ROOT
ATOM      1  C2  UNL d   1       5.939  -3.685  -3.036  0.00  0.00    -0.076 A 
ATOM      2  C3  UNL d   1       5.962  -2.895  -1.873  0.00  0.00     0.004 A 
ATOM      3  C4  UNL d   1       5.991  -3.481  -0.608  0.00  0.00    -0.003 A 
ATOM      4  C5  UNL d   1       5.999  -4.866  -0.486  0.00  0.00     0.000 A 
ATOM      5  C6  UNL d   1       5.994  -5.665  -1.629  0.00  0.00     0.000 A 
ATOM      6  C7  UNL d   1       5.981  -5.090  -2.912  0.00  0.00    -0.073 A 
ATOM      7  C8  UNL d   1       5.971  -5.999  -4.110  0.00  0.00     0.078 C 
ENDROOT
BRANCH   1   8
ATOM      8  C1  UNL d   1       5.880  -2.994  -4.379  0.00  0.00     0.053 C 
ATOM      9  C   UNL d   1       4.498  -3.063  -5.010  0.00  0.00     0.018 C 
ENDBRANCH   1   8
TORSDOF 1
ENDMDL
