MODEL 1
REMARK minimizedAffinity 0.289027095
REMARK minimizedRMSD -1
REMARK  1 active torsions:
REMARK  status: ('A' for Active; 'I' for Inactive)
REMARK    1  A    between atoms: C1_2  and  C2_3 
ROOT
ATOM      1  C2  UNL d   1       5.812  -4.883  -3.900  0.00  0.00    -0.076 A 
ATOM      2  C3  UNL d   1       5.999  -5.275  -2.563  0.00  0.00     0.004 A 
ATOM      3  C4  UNL d   1       5.875  -4.357  -1.522  0.00  0.00    -0.003 A 
ATOM      4  C5  UNL d   1       5.560  -3.032  -1.800  0.00  0.00     0.000 A 
ATOM      5  C6  UNL d   1       5.353  -2.629  -3.119  0.00  0.00     0.000 A 
ATOM      6  C7  UNL d   1       5.459  -3.545  -4.179  0.00  0.00    -0.073 A 
ATOM      7  C8  UNL d   1       5.231  -3.054  -5.583  0.00  0.00     0.078 C 
ENDROOT
BRANCH   1   8
ATOM      8  C1  UNL d   1       5.986  -5.916  -4.990  0.00  0.00     0.053 C 
ATOM      9  C   UNL d   1       4.782  -5.997  -5.915  0.00  0.00     0.018 C 
ENDBRANCH   1   8
TORSDOF 1
ENDMDL
