MODEL 1
REMARK minimizedAffinity -3.43755889
REMARK minimizedRMSD -1
REMARK  1 active torsions:
REMARK  status: ('A' for Active; 'I' for Inactive)
REMARK    1  A    between atoms: C1_2  and  C2_3 
ROOT
ATOM      1  C2  UNL d   1       5.973  -4.521   3.510  0.00  0.00    -0.076 A 
ATOM      2  C3  UNL d   1       5.989  -5.625   2.640  0.00  0.00     0.004 A 
ATOM      3  C4  UNL d   1       5.997  -5.449   1.257  0.00  0.00    -0.003 A 
ATOM      4  C5  UNL d   1       5.990  -4.165   0.722  0.00  0.00     0.000 A 
ATOM      5  C6  UNL d   1       5.992  -3.058   1.570  0.00  0.00     0.000 A 
ATOM      6  C7  UNL d   1       6.000  -3.219   2.967  0.00  0.00    -0.073 A 
ATOM      7  C8  UNL d   1       5.996  -1.990   3.834  0.00  0.00     0.078 C 
ENDROOT
BRANCH   1   8
ATOM      8  C1  UNL d   1       5.937  -4.774   5.000  0.00  0.00     0.053 C 
ATOM      9  C   UNL d   1       4.519  -4.885   5.539  0.00  0.00     0.018 C 
ENDBRANCH   1   8
TORSDOF 1
ENDMDL
