MODEL 1
REMARK minimizedAffinity 7.68896532
REMARK minimizedRMSD -1
REMARK  1 active torsions:
REMARK  status: ('A' for Active; 'I' for Inactive)
REMARK    1  A    between atoms: C1_2  and  C2_3 
ROOT
ATOM      1  C2  UNL d   1       3.920  -3.885   3.773  0.00  0.00    -0.076 A 
ATOM      2  C3  UNL d   1       3.309  -3.531   4.989  0.00  0.00     0.004 A 
ATOM      3  C4  UNL d   1       4.032  -2.898   5.998  0.00  0.00    -0.003 A 
ATOM      4  C5  UNL d   1       5.379  -2.608   5.808  0.00  0.00     0.000 A 
ATOM      5  C6  UNL d   1       5.997  -2.936   4.602  0.00  0.00     0.000 A 
ATOM      6  C7  UNL d   1       5.278  -3.560   3.568  0.00  0.00    -0.073 A 
ATOM      7  C8  UNL d   1       5.997  -3.896   2.290  0.00  0.00     0.078 C 
ENDROOT
BRANCH   1   8
ATOM      8  C1  UNL d   1       3.093  -4.594   2.726  0.00  0.00     0.053 C 
ATOM      9  C   UNL d   1       2.209  -3.640   1.937  0.00  0.00     0.018 C 
ENDBRANCH   1   8
TORSDOF 1
ENDMDL
