MODEL 1
REMARK minimizedAffinity -2.72553635
REMARK minimizedRMSD -1
REMARK  1 active torsions:
REMARK  status: ('A' for Active; 'I' for Inactive)
REMARK    1  A    between atoms: C1_2  and  C2_3 
ROOT
ATOM      1  C2  UNL d   1       5.264  -3.858   4.463  0.00  0.00    -0.076 A 
ATOM      2  C3  UNL d   1       5.251  -3.321   3.164  0.00  0.00     0.004 A 
ATOM      3  C4  UNL d   1       5.616  -4.095   2.063  0.00  0.00    -0.003 A 
ATOM      4  C5  UNL d   1       5.999  -5.420   2.244  0.00  0.00     0.000 A 
ATOM      5  C6  UNL d   1       6.000  -5.974   3.524  0.00  0.00     0.000 A 
ATOM      6  C7  UNL d   1       5.619  -5.212   4.642  0.00  0.00    -0.073 A 
ATOM      7  C8  UNL d   1       5.645  -5.859   5.999  0.00  0.00     0.078 C 
ENDROOT
BRANCH   1   8
ATOM      8  C1  UNL d   1       4.884  -2.963   5.620  0.00  0.00     0.053 C 
ATOM      9  C   UNL d   1       5.997  -1.998   6.000  0.00  0.00     0.018 C 
ENDBRANCH   1   8
TORSDOF 1
ENDMDL
