MODEL 1
REMARK minimizedAffinity -1.96563566
REMARK minimizedRMSD -1
REMARK  1 active torsions:
REMARK  status: ('A' for Active; 'I' for Inactive)
REMARK    1  A    between atoms: C1_2  and  C2_3 
ROOT
ATOM      1  C2  UNL d   1       5.705  -4.387   3.920  0.00  0.00    -0.076 A 
ATOM      2  C3  UNL d   1       6.000  -3.109   3.414  0.00  0.00     0.004 A 
ATOM      3  C4  UNL d   1       5.774  -1.965   4.177  0.00  0.00    -0.003 A 
ATOM      4  C5  UNL d   1       5.251  -2.080   5.460  0.00  0.00     0.000 A 
ATOM      5  C6  UNL d   1       4.969  -3.341   5.985  0.00  0.00     0.000 A 
ATOM      6  C7  UNL d   1       5.205  -4.505   5.235  0.00  0.00    -0.073 A 
ATOM      7  C8  UNL d   1       4.877  -5.839   5.848  0.00  0.00     0.078 C 
ENDROOT
BRANCH   1   8
ATOM      8  C1  UNL d   1       5.944  -5.590   3.036  0.00  0.00     0.053 C 
ATOM      9  C   UNL d   1       6.000  -5.226   1.560  0.00  0.00     0.018 C 
ENDBRANCH   1   8
TORSDOF 1
ENDMDL
