MODEL 1
REMARK minimizedAffinity -3.50228381
REMARK minimizedRMSD -1
REMARK  1 active torsions:
REMARK  status: ('A' for Active; 'I' for Inactive)
REMARK    1  A    between atoms: C1_2  and  C2_3 
ROOT
ATOM      1  C2  UNL d   1       5.982  -4.477   3.434  0.00  0.00    -0.076 A 
ATOM      2  C3  UNL d   1       5.998  -5.329   2.316  0.00  0.00     0.004 A 
ATOM      3  C4  UNL d   1       5.995  -4.812   1.021  0.00  0.00    -0.003 A 
ATOM      4  C5  UNL d   1       5.977  -3.436   0.823  0.00  0.00     0.000 A 
ATOM      5  C6  UNL d   1       5.980  -2.576   1.921  0.00  0.00     0.000 A 
ATOM      6  C7  UNL d   1       5.999  -3.080   3.233  0.00  0.00    -0.073 A 
ATOM      7  C8  UNL d   1       5.994  -2.107   4.380  0.00  0.00     0.078 C 
ENDROOT
BRANCH   1   8
ATOM      8  C1  UNL d   1       5.959  -5.094   4.814  0.00  0.00     0.053 C 
ATOM      9  C   UNL d   1       4.549  -5.226   5.369  0.00  0.00     0.018 C 
ENDBRANCH   1   8
TORSDOF 1
ENDMDL
