MODEL 1
REMARK minimizedAffinity -3.51904917
REMARK minimizedRMSD -1
REMARK  1 active torsions:
REMARK  status: ('A' for Active; 'I' for Inactive)
REMARK    1  A    between atoms: C1_2  and  C2_3 
ROOT
ATOM      1  C2  UNL d   1       5.769  -4.442   4.453  0.00  0.00    -0.076 A 
ATOM      2  C3  UNL d   1       5.790  -4.966   3.149  0.00  0.00     0.004 A 
ATOM      3  C4  UNL d   1       5.903  -4.128   2.041  0.00  0.00    -0.003 A 
ATOM      4  C5  UNL d   1       5.996  -2.753   2.219  0.00  0.00     0.000 A 
ATOM      5  C6  UNL d   1       5.994  -2.217   3.506  0.00  0.00     0.000 A 
ATOM      6  C7  UNL d   1       5.897  -3.049   4.635  0.00  0.00    -0.073 A 
ATOM      7  C8  UNL d   1       5.894  -2.416   6.000  0.00  0.00     0.078 C 
ENDROOT
BRANCH   1   8
ATOM      8  C1  UNL d   1       5.618  -5.398   5.615  0.00  0.00     0.053 C 
ATOM      9  C   UNL d   1       4.163  -5.633   5.991  0.00  0.00     0.018 C 
ENDBRANCH   1   8
TORSDOF 1
ENDMDL
