MODEL 1
REMARK minimizedAffinity 0.305699527
REMARK minimizedRMSD -1
REMARK  1 active torsions:
REMARK  status: ('A' for Active; 'I' for Inactive)
REMARK    1  A    between atoms: C1_2  and  C2_3 
ROOT
ATOM      1  C2  UNL d   1       5.972  -3.259   1.460  0.00  0.00    -0.076 A 
ATOM      2  C3  UNL d   1       5.940  -1.872   1.231  0.00  0.00     0.004 A 
ATOM      3  C4  UNL d   1       5.947  -1.359  -0.065  0.00  0.00    -0.003 A 
ATOM      4  C5  UNL d   1       5.985  -2.223  -1.153  0.00  0.00     0.000 A 
ATOM      5  C6  UNL d   1       6.000  -3.602  -0.945  0.00  0.00     0.000 A 
ATOM      6  C7  UNL d   1       5.977  -4.137   0.355  0.00  0.00    -0.073 A 
ATOM      7  C8  UNL d   1       6.000  -5.632   0.521  0.00  0.00     0.078 C 
ENDROOT
BRANCH   1   8
ATOM      8  C1  UNL d   1       5.991  -3.757   2.887  0.00  0.00     0.053 C 
ATOM      9  C   UNL d   1       4.998  -3.022   3.774  0.00  0.00     0.018 C 
ENDBRANCH   1   8
TORSDOF 1
ENDMDL
