MODEL 1
REMARK minimizedAffinity 1.24911177
REMARK minimizedRMSD -1
REMARK  1 active torsions:
REMARK  status: ('A' for Active; 'I' for Inactive)
REMARK    1  A    between atoms: C1_2  and  C2_3 
ROOT
ATOM      1  C2  UNL d   1       5.233  -3.765   3.708  0.00  0.00    -0.076 A 
ATOM      2  C3  UNL d   1       4.488  -4.957   3.721  0.00  0.00     0.004 A 
ATOM      3  C4  UNL d   1       3.785  -5.351   4.858  0.00  0.00    -0.003 A 
ATOM      4  C5  UNL d   1       3.814  -4.559   6.000  0.00  0.00     0.000 A 
ATOM      5  C6  UNL d   1       4.534  -3.364   5.999  0.00  0.00     0.000 A 
ATOM      6  C7  UNL d   1       5.235  -2.945   4.856  0.00  0.00    -0.073 A 
ATOM      7  C8  UNL d   1       6.000  -1.650   4.913  0.00  0.00     0.078 C 
ENDROOT
BRANCH   1   8
ATOM      8  C1  UNL d   1       5.999  -3.403   2.455  0.00  0.00     0.053 C 
ATOM      9  C   UNL d   1       5.850  -4.447   1.359  0.00  0.00     0.018 C 
ENDBRANCH   1   8
TORSDOF 1
ENDMDL
