MODEL 1
REMARK minimizedAffinity -0.674078226
REMARK minimizedRMSD -1
REMARK  1 active torsions:
REMARK  status: ('A' for Active; 'I' for Inactive)
REMARK    1  A    between atoms: N_2  and  C1_3 
ROOT
ATOM      1  C1  UNL d   1      -0.698   3.586   0.651  0.00  0.00     0.143 A 
ATOM      2  C2  UNL d   1       0.326   3.241  -0.238  0.00  0.00    -0.057 A 
ATOM      3  C3  UNL d   1       0.382   3.783  -1.527  0.00  0.00     0.033 A 
ATOM      4  C4  UNL d   1      -0.605   4.661  -1.962  0.00  0.00    -0.042 A 
ATOM      5  C5  UNL d   1      -1.646   5.000  -1.105  0.00  0.00     0.033 A 
ATOM      6  C6  UNL d   1      -1.693   4.460   0.184  0.00  0.00    -0.057 A 
ENDROOT
BRANCH   1   7
ATOM      7  N   UNL d   1      -0.864   3.006   1.911  0.00  0.00    -0.732 N 
ATOM      8  C   UNL d   1       0.218   2.273   2.533  0.00  0.00     0.284 C 
ATOM      9  H3  UNL d   1      -1.381   3.605   2.549  0.00  0.00     0.395 HD
ENDBRANCH   1   7
TORSDOF 1
ENDMDL
