MODEL 1
REMARK minimizedAffinity 1.83431745
REMARK minimizedRMSD -1
REMARK  1 active torsions:
REMARK  status: ('A' for Active; 'I' for Inactive)
REMARK    1  A    between atoms: N_2  and  C1_3 
ROOT
ATOM      1  C1  UNL d   1      -0.298   3.859  -0.765  0.00  0.00     0.143 A 
ATOM      2  C2  UNL d   1      -0.341   3.812  -2.163  0.00  0.00    -0.057 A 
ATOM      3  C3  UNL d   1      -0.915   4.849  -2.908  0.00  0.00     0.033 A 
ATOM      4  C4  UNL d   1      -1.486   5.942  -2.264  0.00  0.00    -0.042 A 
ATOM      5  C5  UNL d   1      -1.477   5.999  -0.875  0.00  0.00     0.033 A 
ATOM      6  C6  UNL d   1      -0.896   4.963  -0.137  0.00  0.00    -0.057 A 
ENDROOT
BRANCH   1   7
ATOM      7  N   UNL d   1       0.170   2.815   0.035  0.00  0.00    -0.732 N 
ATOM      8  C   UNL d   1      -0.236   2.707   1.420  0.00  0.00     0.284 C 
ATOM      9  H3  UNL d   1       0.195   1.927  -0.461  0.00  0.00     0.395 HD
ENDBRANCH   1   7
TORSDOF 1
ENDMDL
