MODEL 1
REMARK minimizedAffinity 2.81960964
REMARK minimizedRMSD -1
REMARK  1 active torsions:
REMARK  status: ('A' for Active; 'I' for Inactive)
REMARK    1  A    between atoms: N_2  and  C1_3 
ROOT
ATOM      1  C1  UNL d   1       2.736  -3.720  -0.486  0.00  0.00     0.143 A 
ATOM      2  C2  UNL d   1       3.223  -2.420  -0.306  0.00  0.00    -0.057 A 
ATOM      3  C3  UNL d   1       4.566  -2.108  -0.549  0.00  0.00     0.033 A 
ATOM      4  C4  UNL d   1       5.456  -3.100  -0.950  0.00  0.00    -0.042 A 
ATOM      5  C5  UNL d   1       4.999  -4.403  -1.111  0.00  0.00     0.033 A 
ATOM      6  C6  UNL d   1       3.656  -4.707  -0.873  0.00  0.00    -0.057 A 
ENDROOT
BRANCH   1   7
ATOM      7  N   UNL d   1       1.435  -4.114  -0.167  0.00  0.00    -0.732 N 
ATOM      8  C   UNL d   1       0.393  -4.100  -1.171  0.00  0.00     0.284 C 
ATOM      9  H3  UNL d   1       1.414  -4.928   0.443  0.00  0.00     0.395 HD
ENDBRANCH   1   7
TORSDOF 1
ENDMDL
