MODEL 1
REMARK minimizedAffinity 15.0990238
REMARK minimizedRMSD -1
REMARK  1 active torsions:
REMARK  status: ('A' for Active; 'I' for Inactive)
REMARK    1  A    between atoms: N_2  and  C1_3 
ROOT
ATOM      1  C1  UNL d   1      -0.047   3.984  -0.622  0.00  0.00     0.143 A 
ATOM      2  C2  UNL d   1      -0.143   3.945  -2.017  0.00  0.00    -0.057 A 
ATOM      3  C3  UNL d   1      -0.859   4.920  -2.723  0.00  0.00     0.033 A 
ATOM      4  C4  UNL d   1      -1.517   5.938  -2.041  0.00  0.00    -0.042 A 
ATOM      5  C5  UNL d   1      -1.456   5.982  -0.652  0.00  0.00     0.033 A 
ATOM      6  C6  UNL d   1      -0.734   5.009   0.046  0.00  0.00    -0.057 A 
ENDROOT
BRANCH   1   7
ATOM      7  N   UNL d   1       0.567   2.989   0.143  0.00  0.00    -0.732 N 
ATOM      8  C   UNL d   1      -0.022   2.549   1.390  0.00  0.00     0.284 C 
ATOM      9  H3  UNL d   1       0.942   2.235  -0.428  0.00  0.00     0.395 HD
ENDBRANCH   1   7
TORSDOF 1
ENDMDL
