MODEL 1
REMARK minimizedAffinity 8.99597263
REMARK minimizedRMSD -1
REMARK  1 active torsions:
REMARK  status: ('A' for Active; 'I' for Inactive)
REMARK    1  A    between atoms: N_2  and  C1_3 
ROOT
ATOM      1  C1  UNL d   1      -0.132   0.693   3.814  0.00  0.00     0.143 A 
ATOM      2  C2  UNL d   1       1.107   1.032   3.260  0.00  0.00    -0.057 A 
ATOM      3  C3  UNL d   1       1.207   1.960   2.216  0.00  0.00     0.033 A 
ATOM      4  C4  UNL d   1       0.062   2.545   1.687  0.00  0.00    -0.042 A 
ATOM      5  C5  UNL d   1      -1.183   2.204   2.205  0.00  0.00     0.033 A 
ATOM      6  C6  UNL d   1      -1.275   1.282   3.251  0.00  0.00    -0.057 A 
ENDROOT
BRANCH   1   7
ATOM      7  N   UNL d   1      -0.306  -0.296   4.785  0.00  0.00    -0.732 N 
ATOM      8  C   UNL d   1       0.666  -1.356   4.940  0.00  0.00     0.284 C 
ATOM      9  H3  UNL d   1      -0.654   0.080   5.664  0.00  0.00     0.395 HD
ENDBRANCH   1   7
TORSDOF 1
ENDMDL
