MODEL 1
REMARK minimizedAffinity 0.321675241
REMARK minimizedRMSD -1
REMARK  1 active torsions:
REMARK  status: ('A' for Active; 'I' for Inactive)
REMARK    1  A    between atoms: N_2  and  C1_3 
ROOT
ATOM      1  C1  UNL d   1      -0.311   4.120  -0.681  0.00  0.00     0.143 A 
ATOM      2  C2  UNL d   1      -0.765   5.074   0.235  0.00  0.00    -0.057 A 
ATOM      3  C3  UNL d   1      -1.760   5.997  -0.110  0.00  0.00     0.033 A 
ATOM      4  C4  UNL d   1      -2.299   6.000  -1.392  0.00  0.00    -0.042 A 
ATOM      5  C5  UNL d   1      -1.845   5.076  -2.327  0.00  0.00     0.033 A 
ATOM      6  C6  UNL d   1      -0.856   4.153  -1.974  0.00  0.00    -0.057 A 
ENDROOT
BRANCH   1   7
ATOM      7  N   UNL d   1       0.745   3.241  -0.429  0.00  0.00    -0.732 N 
ATOM      8  C   UNL d   1       0.729   2.385   0.737  0.00  0.00     0.284 C 
ATOM      9  H3  UNL d   1       1.081   2.785  -1.275  0.00  0.00     0.395 HD
ENDBRANCH   1   7
TORSDOF 1
ENDMDL
