MODEL 1
REMARK minimizedAffinity 11.0420341
REMARK minimizedRMSD -1
REMARK  1 active torsions:
REMARK  status: ('A' for Active; 'I' for Inactive)
REMARK    1  A    between atoms: N_2  and  C1_3 
ROOT
ATOM      1  C1  UNL d   1      -1.470  -4.162  -3.849  0.00  0.00     0.143 A 
ATOM      2  C2  UNL d   1      -0.620  -4.300  -4.952  0.00  0.00    -0.057 A 
ATOM      3  C3  UNL d   1      -0.926  -5.178  -5.998  0.00  0.00     0.033 A 
ATOM      4  C4  UNL d   1      -2.076  -5.958  -5.946  0.00  0.00    -0.042 A 
ATOM      5  C5  UNL d   1      -2.923  -5.856  -4.848  0.00  0.00     0.033 A 
ATOM      6  C6  UNL d   1      -2.615  -4.972  -3.810  0.00  0.00    -0.057 A 
ENDROOT
BRANCH   1   7
ATOM      7  N   UNL d   1      -1.172  -3.379  -2.731  0.00  0.00    -0.732 N 
ATOM      8  C   UNL d   1      -0.302  -3.882  -1.689  0.00  0.00     0.284 C 
ATOM      9  H3  UNL d   1      -1.011  -2.403  -2.972  0.00  0.00     0.395 HD
ENDBRANCH   1   7
TORSDOF 1
ENDMDL
