MODEL 1
REMARK minimizedAffinity 8.61808014
REMARK minimizedRMSD -1
REMARK  1 active torsions:
REMARK  status: ('A' for Active; 'I' for Inactive)
REMARK    1  A    between atoms: N_2  and  C1_3 
ROOT
ATOM      1  C1  UNL d   1       1.247  -2.870  -0.177  0.00  0.00     0.143 A 
ATOM      2  C2  UNL d   1       0.201  -2.274  -0.890  0.00  0.00    -0.057 A 
ATOM      3  C3  UNL d   1      -0.621  -3.027  -1.738  0.00  0.00     0.033 A 
ATOM      4  C4  UNL d   1      -0.392  -4.388  -1.910  0.00  0.00    -0.042 A 
ATOM      5  C5  UNL d   1       0.657  -4.996  -1.230  0.00  0.00     0.033 A 
ATOM      6  C6  UNL d   1       1.470  -4.241  -0.380  0.00  0.00    -0.057 A 
ENDROOT
BRANCH   1   7
ATOM      7  N   UNL d   1       2.159  -2.158   0.605  0.00  0.00    -0.732 N 
ATOM      8  C   UNL d   1       3.530  -1.992   0.170  0.00  0.00     0.284 C 
ATOM      9  H3  UNL d   1       1.750  -1.322   1.016  0.00  0.00     0.395 HD
ENDBRANCH   1   7
TORSDOF 1
ENDMDL
