MODEL 1
REMARK minimizedAffinity 3.05874872
REMARK minimizedRMSD -1
REMARK  0 active torsions:
REMARK  status: ('A' for Active; 'I' for Inactive)
ROOT
ATOM      1  C1  BNZ d   1       2.428   0.295   0.124  0.00  0.00     0.000 A 
ATOM      2  C2  BNZ d   1       3.154   1.456   0.075  0.00  0.00     0.000 A 
ATOM      3  C3  BNZ d   1       4.488   1.435  -0.223  0.00  0.00     0.000 A 
ATOM      4  C4  BNZ d   1       5.102   0.253  -0.433  0.00  0.00     0.000 A 
ATOM      5  C5  BNZ d   1       4.386  -0.926  -0.378  0.00  0.00     0.000 A 
ATOM      6  C6  BNZ d   1       3.036  -0.899  -0.116  0.00  0.00     0.000 A 
ENDROOT
TORSDOF 0
ENDMDL
