MODEL 1
REMARK minimizedAffinity 3.23641109
REMARK minimizedRMSD -1
REMARK  0 active torsions:
REMARK  status: ('A' for Active; 'I' for Inactive)
ROOT
ATOM      1  C1  BNZ d   1      -2.582   2.003   3.774  0.00  0.00     0.000 A 
ATOM      2  C2  BNZ d   1      -1.312   2.478   3.962  0.00  0.00     0.000 A 
ATOM      3  C3  BNZ d   1      -0.716   3.276   3.026  0.00  0.00     0.000 A 
ATOM      4  C4  BNZ d   1      -1.376   3.564   1.885  0.00  0.00     0.000 A 
ATOM      5  C5  BNZ d   1      -2.653   3.085   1.676  0.00  0.00     0.000 A 
ATOM      6  C6  BNZ d   1      -3.264   2.315   2.638  0.00  0.00     0.000 A 
ENDROOT
TORSDOF 0
ENDMDL
