MODEL 1
REMARK minimizedAffinity 7.11862993
REMARK minimizedRMSD -1
REMARK  0 active torsions:
REMARK  status: ('A' for Active; 'I' for Inactive)
ROOT
ATOM      1  C1  BNZ d   1      -3.760  -0.003  -0.400  0.00  0.00     0.000 A 
ATOM      2  C2  BNZ d   1      -3.773   0.005  -1.769  0.00  0.00     0.000 A 
ATOM      3  C3  BNZ d   1      -4.901  -0.340  -2.460  0.00  0.00     0.000 A 
ATOM      4  C4  BNZ d   1      -6.000  -0.730  -1.783  0.00  0.00     0.000 A 
ATOM      5  C5  BNZ d   1      -6.000  -0.753  -0.403  0.00  0.00     0.000 A 
ATOM      6  C6  BNZ d   1      -4.875  -0.368   0.290  0.00  0.00     0.000 A 
ENDROOT
TORSDOF 0
ENDMDL
