MODEL 1
REMARK minimizedAffinity 5.74831104
REMARK minimizedRMSD -1
REMARK  0 active torsions:
REMARK  status: ('A' for Active; 'I' for Inactive)
ROOT
ATOM      1  C1  BNZ d   1       3.040   5.932   5.995  0.00  0.00     0.000 A 
ATOM      2  C2  BNZ d   1       3.692   4.727   5.997  0.00  0.00     0.000 A 
ATOM      3  C3  BNZ d   1       2.992   3.553   5.974  0.00  0.00     0.000 A 
ATOM      4  C4  BNZ d   1       1.644   3.584   5.989  0.00  0.00     0.000 A 
ATOM      5  C5  BNZ d   1       0.972   4.790   5.996  0.00  0.00     0.000 A 
ATOM      6  C6  BNZ d   1       1.680   5.970   5.980  0.00  0.00     0.000 A 
ENDROOT
TORSDOF 0
ENDMDL
