MODEL 1
REMARK minimizedAffinity 0.621027887
REMARK minimizedRMSD -1
REMARK  0 active torsions:
REMARK  status: ('A' for Active; 'I' for Inactive)
ROOT
ATOM      1  C1  BNZ d   1       0.634  -4.022   4.829  0.00  0.00     0.000 A 
ATOM      2  C2  BNZ d   1      -0.594  -4.045   4.225  0.00  0.00     0.000 A 
ATOM      3  C3  BNZ d   1      -1.501  -5.024   4.521  0.00  0.00     0.000 A 
ATOM      4  C4  BNZ d   1      -1.164  -6.000   5.388  0.00  0.00     0.000 A 
ATOM      5  C5  BNZ d   1       0.074  -5.996   5.999  0.00  0.00     0.000 A 
ATOM      6  C6  BNZ d   1       0.970  -4.987   5.728  0.00  0.00     0.000 A 
ENDROOT
TORSDOF 0
ENDMDL
