MODEL 1
REMARK minimizedAffinity 5.1249671
REMARK minimizedRMSD -1
REMARK  0 active torsions:
REMARK  status: ('A' for Active; 'I' for Inactive)
ROOT
ATOM      1  C1  BNZ d   1       0.493  -3.764   5.112  0.00  0.00     0.000 A 
ATOM      2  C2  BNZ d   1      -0.876  -3.764   5.082  0.00  0.00     0.000 A 
ATOM      3  C3  BNZ d   1      -1.586  -4.842   5.531  0.00  0.00     0.000 A 
ATOM      4  C4  BNZ d   1      -0.927  -5.933   5.972  0.00  0.00     0.000 A 
ATOM      5  C5  BNZ d   1       0.453  -5.952   5.999  0.00  0.00     0.000 A 
ATOM      6  C6  BNZ d   1       1.164  -4.850   5.583  0.00  0.00     0.000 A 
ENDROOT
TORSDOF 0
ENDMDL
