MODEL 1
REMARK minimizedAffinity 7.27863598
REMARK minimizedRMSD -1
REMARK  0 active torsions:
REMARK  status: ('A' for Active; 'I' for Inactive)
ROOT
ATOM      1  C1  BNZ d   1       0.761   1.157   0.167  0.00  0.00     0.000 A 
ATOM      2  C2  BNZ d   1      -0.092   0.810  -0.846  0.00  0.00     0.000 A 
ATOM      3  C3  BNZ d   1      -0.458  -0.493  -1.037  0.00  0.00     0.000 A 
ATOM      4  C4  BNZ d   1       0.059  -1.451  -0.241  0.00  0.00     0.000 A 
ATOM      5  C5  BNZ d   1       0.928  -1.118   0.779  0.00  0.00     0.000 A 
ATOM      6  C6  BNZ d   1       1.264   0.199   0.993  0.00  0.00     0.000 A 
ENDROOT
TORSDOF 0
ENDMDL
