MODEL 1
REMARK minimizedAffinity 1.15133035
REMARK minimizedRMSD -1
REMARK  0 active torsions:
REMARK  status: ('A' for Active; 'I' for Inactive)
ROOT
ATOM      1  C1  BNZ d   1       0.431  -4.221   4.977  0.00  0.00     0.000 A 
ATOM      2  C2  BNZ d   1      -0.480  -4.248   6.000  0.00  0.00     0.000 A 
ATOM      3  C3  BNZ d   1      -1.506  -5.152   5.999  0.00  0.00     0.000 A 
ATOM      4  C4  BNZ d   1      -1.643  -5.998   4.958  0.00  0.00     0.000 A 
ATOM      5  C5  BNZ d   1      -0.739  -5.976   3.915  0.00  0.00     0.000 A 
ATOM      6  C6  BNZ d   1       0.315  -5.092   3.938  0.00  0.00     0.000 A 
ENDROOT
TORSDOF 0
ENDMDL
