MODEL 1
REMARK minimizedAffinity -1.72457349
REMARK minimizedRMSD -1
REMARK  1 active torsions:
REMARK  status: ('A' for Active; 'I' for Inactive)
REMARK    1  A    between atoms: C3_4  and  O_7 
ROOT
ATOM      1  C   UNL d   1      -1.163   0.410   0.434  0.00  0.00    -0.033 A 
ATOM      2  C1  UNL d   1      -0.226   1.227  -0.202  0.00  0.00     0.039 A 
ATOM      3  C2  UNL d   1       0.940   0.673  -0.733  0.00  0.00    -0.080 A 
ATOM      4  C3  UNL d   1       1.157  -0.698  -0.623  0.00  0.00     0.150 A 
ATOM      5  C4  UNL d   1       0.226  -1.519   0.005  0.00  0.00    -0.007 A 
ATOM      6  C5  UNL d   1      -0.938  -0.964   0.536  0.00  0.00     0.039 A 
ENDROOT
BRANCH   4   7
ATOM      7  O   UNL d   1       2.282  -1.284  -1.122  0.00  0.00    -0.526 OA
ATOM      8  H5  UNL d   1       2.847  -0.591  -1.502  0.00  0.00     0.418 HD
ENDBRANCH   4   7
TORSDOF 1
ENDMDL
