MODEL 1
REMARK minimizedAffinity -4.91422701
REMARK minimizedRMSD -1
REMARK  1 active torsions:
REMARK  status: ('A' for Active; 'I' for Inactive)
REMARK    1  A    between atoms: C3_4  and  O_7 
ROOT
ATOM      1  C   UNL d   1       2.349  -0.079  -2.419  0.00  0.00    -0.033 A 
ATOM      2  C1  UNL d   1       2.033  -1.013  -1.430  0.00  0.00     0.039 A 
ATOM      3  C2  UNL d   1       0.940  -0.797  -0.587  0.00  0.00    -0.080 A 
ATOM      4  C3  UNL d   1       0.173   0.353  -0.745  0.00  0.00     0.150 A 
ATOM      5  C4  UNL d   1       0.479   1.286  -1.731  0.00  0.00    -0.007 A 
ATOM      6  C5  UNL d   1       1.571   1.069  -2.570  0.00  0.00     0.039 A 
ENDROOT
BRANCH   4   7
ATOM      7  O   UNL d   1      -0.900   0.610   0.056  0.00  0.00    -0.526 OA
ATOM      8  H5  UNL d   1      -0.975  -0.106   0.709  0.00  0.00     0.418 HD
ENDBRANCH   4   7
TORSDOF 1
ENDMDL
