MODEL 1
REMARK minimizedAffinity -4.27278328
REMARK minimizedRMSD -1
REMARK  1 active torsions:
REMARK  status: ('A' for Active; 'I' for Inactive)
REMARK    1  A    between atoms: C3_4  and  O_7 
ROOT
ATOM      1  C   UNL d   1      -0.326  -1.067   0.036  0.00  0.00    -0.033 A 
ATOM      2  C1  UNL d   1       0.312  -1.846   1.004  0.00  0.00     0.039 A 
ATOM      3  C2  UNL d   1       0.168  -1.537   2.357  0.00  0.00    -0.080 A 
ATOM      4  C3  UNL d   1      -0.617  -0.449   2.730  0.00  0.00     0.150 A 
ATOM      5  C4  UNL d   1      -1.258   0.329   1.772  0.00  0.00    -0.007 A 
ATOM      6  C5  UNL d   1      -1.112   0.019   0.420  0.00  0.00     0.039 A 
ENDROOT
BRANCH   4   7
ATOM      7  O   UNL d   1      -0.783  -0.105   4.039  0.00  0.00    -0.526 OA
ATOM      8  H5  UNL d   1      -0.258  -0.714   4.586  0.00  0.00     0.418 HD
ENDBRANCH   4   7
TORSDOF 1
ENDMDL
