MODEL 1
REMARK minimizedAffinity -2.54520535
REMARK minimizedRMSD -1
REMARK  1 active torsions:
REMARK  status: ('A' for Active; 'I' for Inactive)
REMARK    1  A    between atoms: C3_4  and  O_7 
ROOT
ATOM      1  C   UNL d   1       1.041  -1.686  -0.087  0.00  0.00    -0.033 A 
ATOM      2  C1  UNL d   1      -0.057  -0.985   0.416  0.00  0.00     0.039 A 
ATOM      3  C2  UNL d   1      -0.406   0.253  -0.128  0.00  0.00    -0.080 A 
ATOM      4  C3  UNL d   1       0.349   0.777  -1.173  0.00  0.00     0.150 A 
ATOM      5  C4  UNL d   1       1.442   0.082  -1.682  0.00  0.00    -0.007 A 
ATOM      6  C5  UNL d   1       1.789  -1.154  -1.137  0.00  0.00     0.039 A 
ENDROOT
BRANCH   4   7
ATOM      7  O   UNL d   1       0.050   1.983  -1.733  0.00  0.00    -0.526 OA
ATOM      8  H5  UNL d   1      -0.711   2.361  -1.262  0.00  0.00     0.418 HD
ENDBRANCH   4   7
TORSDOF 1
ENDMDL
