MODEL 1
REMARK minimizedAffinity -1.61725295
REMARK minimizedRMSD -1
REMARK  1 active torsions:
REMARK  status: ('A' for Active; 'I' for Inactive)
REMARK    1  A    between atoms: C3_4  and  O_7 
ROOT
ATOM      1  C   UNL d   1      -1.010   0.712   0.330  0.00  0.00    -0.033 A 
ATOM      2  C1  UNL d   1      -0.282   1.266  -0.724  0.00  0.00     0.039 A 
ATOM      3  C2  UNL d   1       0.742   0.534  -1.329  0.00  0.00    -0.080 A 
ATOM      4  C3  UNL d   1       1.027  -0.749  -0.870  0.00  0.00     0.150 A 
ATOM      5  C4  UNL d   1       0.303  -1.309   0.177  0.00  0.00    -0.007 A 
ATOM      6  C5  UNL d   1      -0.719  -0.577   0.780  0.00  0.00     0.039 A 
ENDROOT
BRANCH   4   7
ATOM      7  O   UNL d   1       2.020  -1.500  -1.425  0.00  0.00    -0.526 OA
ATOM      8  H5  UNL d   1       2.453  -0.974  -2.118  0.00  0.00     0.418 HD
ENDBRANCH   4   7
TORSDOF 1
ENDMDL
