MODEL 1
REMARK minimizedAffinity -3.95760894
REMARK minimizedRMSD -1
REMARK  1 active torsions:
REMARK  status: ('A' for Active; 'I' for Inactive)
REMARK    1  A    between atoms: C3_4  and  O_7 
ROOT
ATOM      1  C   UNL d   1       1.126  -1.335  -0.742  0.00  0.00    -0.033 A 
ATOM      2  C1  UNL d   1       2.022  -1.046  -1.773  0.00  0.00     0.039 A 
ATOM      3  C2  UNL d   1       1.949   0.177  -2.442  0.00  0.00    -0.080 A 
ATOM      4  C3  UNL d   1       0.978   1.103  -2.070  0.00  0.00     0.150 A 
ATOM      5  C4  UNL d   1       0.084   0.823  -1.041  0.00  0.00    -0.007 A 
ATOM      6  C5  UNL d   1       0.158  -0.399  -0.375  0.00  0.00     0.039 A 
ENDROOT
BRANCH   4   7
ATOM      7  O   UNL d   1       0.865   2.308  -2.697  0.00  0.00    -0.526 OA
ATOM      8  H5  UNL d   1       1.529   2.350  -3.405  0.00  0.00     0.418 HD
ENDBRANCH   4   7
TORSDOF 1
ENDMDL
