MODEL 1
REMARK minimizedAffinity -2.47989535
REMARK minimizedRMSD -1
REMARK  1 active torsions:
REMARK  status: ('A' for Active; 'I' for Inactive)
REMARK    1  A    between atoms: C3_4  and  O_7 
ROOT
ATOM      1  C   UNL d   1      -1.122  -0.175   0.511  0.00  0.00    -0.033 A 
ATOM      2  C1  UNL d   1      -0.390   0.765  -0.218  0.00  0.00     0.039 A 
ATOM      3  C2  UNL d   1       0.799   0.391  -0.847  0.00  0.00    -0.080 A 
ATOM      4  C3  UNL d   1       1.243  -0.924  -0.742  0.00  0.00     0.150 A 
ATOM      5  C4  UNL d   1       0.517  -1.867  -0.022  0.00  0.00    -0.007 A 
ATOM      6  C5  UNL d   1      -0.669  -1.491   0.607  0.00  0.00     0.039 A 
ENDROOT
BRANCH   4   7
ATOM      7  O   UNL d   1       2.400  -1.335  -1.335  0.00  0.00    -0.526 OA
ATOM      8  H5  UNL d   1       2.809  -0.570  -1.774  0.00  0.00     0.418 HD
ENDBRANCH   4   7
TORSDOF 1
ENDMDL
