MODEL 1
REMARK minimizedAffinity -2.05505562
REMARK minimizedRMSD -1
REMARK  1 active torsions:
REMARK  status: ('A' for Active; 'I' for Inactive)
REMARK    1  A    between atoms: C3_4  and  O_7 
ROOT
ATOM      1  C   UNL d   1       2.151  -0.995  -1.447  0.00  0.00    -0.033 A 
ATOM      2  C1  UNL d   1       1.601  -2.004  -0.655  0.00  0.00     0.039 A 
ATOM      3  C2  UNL d   1       0.439  -1.762   0.081  0.00  0.00    -0.080 A 
ATOM      4  C3  UNL d   1      -0.162  -0.508   0.015  0.00  0.00     0.150 A 
ATOM      5  C4  UNL d   1       0.378   0.501  -0.775  0.00  0.00    -0.007 A 
ATOM      6  C5  UNL d   1       1.539   0.258  -1.509  0.00  0.00     0.039 A 
ENDROOT
BRANCH   4   7
ATOM      7  O   UNL d   1      -1.294  -0.223   0.719  0.00  0.00    -0.526 OA
ATOM      8  H5  UNL d   1      -1.536  -1.005   1.242  0.00  0.00     0.418 HD
ENDBRANCH   4   7
TORSDOF 1
ENDMDL
