MODEL 1
REMARK minimizedAffinity -0.92408973
REMARK minimizedRMSD -1
REMARK  1 active torsions:
REMARK  status: ('A' for Active; 'I' for Inactive)
REMARK    1  A    between atoms: C3_4  and  O_7 
ROOT
ATOM      1  C   UNL d   1       1.928  -1.088  -1.676  0.00  0.00    -0.033 A 
ATOM      2  C1  UNL d   1       1.500   0.222  -1.901  0.00  0.00     0.039 A 
ATOM      3  C2  UNL d   1       0.546   0.801  -1.061  0.00  0.00    -0.080 A 
ATOM      4  C3  UNL d   1       0.030   0.060  -0.002  0.00  0.00     0.150 A 
ATOM      5  C4  UNL d   1       0.454  -1.244   0.230  0.00  0.00    -0.007 A 
ATOM      6  C5  UNL d   1       1.406  -1.820  -0.610  0.00  0.00     0.039 A 
ENDROOT
BRANCH   4   7
ATOM      7  O   UNL d   1      -0.907   0.580   0.842  0.00  0.00    -0.526 OA
ATOM      8  H5  UNL d   1      -1.125   1.478   0.542  0.00  0.00     0.418 HD
ENDBRANCH   4   7
TORSDOF 1
ENDMDL
