MODEL 1
REMARK minimizedAffinity -3.04446411
REMARK minimizedRMSD -1
REMARK  1 active torsions:
REMARK  status: ('A' for Active; 'I' for Inactive)
REMARK    1  A    between atoms: C3_4  and  O_7 
ROOT
ATOM      1  C   UNL d   1       0.501  -1.159   0.113  0.00  0.00    -0.033 A 
ATOM      2  C1  UNL d   1       1.521  -1.409  -0.807  0.00  0.00     0.039 A 
ATOM      3  C2  UNL d   1       1.805  -0.479  -1.808  0.00  0.00    -0.080 A 
ATOM      4  C3  UNL d   1       1.063   0.698  -1.878  0.00  0.00     0.150 A 
ATOM      5  C4  UNL d   1       0.048   0.955  -0.962  0.00  0.00    -0.007 A 
ATOM      6  C5  UNL d   1      -0.234   0.024   0.036  0.00  0.00     0.039 A 
ENDROOT
BRANCH   4   7
ATOM      7  O   UNL d   1       1.300   1.634  -2.840  0.00  0.00    -0.526 OA
ATOM      8  H5  UNL d   1       2.009   1.307  -3.419  0.00  0.00     0.418 HD
ENDBRANCH   4   7
TORSDOF 1
ENDMDL
