MODEL 1
REMARK minimizedAffinity -3.58669472
REMARK minimizedRMSD -1
REMARK  1 active torsions:
REMARK  status: ('A' for Active; 'I' for Inactive)
REMARK    1  A    between atoms: C3_4  and  O_7 
ROOT
ATOM      1  C   UNL d   1       0.362  -1.495   0.150  0.00  0.00    -0.033 A 
ATOM      2  C1  UNL d   1       1.557  -1.698  -0.543  0.00  0.00     0.039 A 
ATOM      3  C2  UNL d   1       1.994  -0.755  -1.476  0.00  0.00    -0.080 A 
ATOM      4  C3  UNL d   1       1.228   0.384  -1.706  0.00  0.00     0.150 A 
ATOM      5  C4  UNL d   1       0.039   0.595  -1.016  0.00  0.00    -0.007 A 
ATOM      6  C5  UNL d   1      -0.396  -0.348  -0.086  0.00  0.00     0.039 A 
ENDROOT
BRANCH   4   7
ATOM      7  O   UNL d   1       1.611   1.330  -2.611  0.00  0.00    -0.526 OA
ATOM      8  H5  UNL d   1       2.437   1.037  -3.031  0.00  0.00     0.418 HD
ENDBRANCH   4   7
TORSDOF 1
ENDMDL
