MODEL 1
REMARK minimizedAffinity -3.09602284
REMARK minimizedRMSD -1
REMARK  1 active torsions:
REMARK  status: ('A' for Active; 'I' for Inactive)
REMARK    1  A    between atoms: C3_4  and  O_7 
ROOT
ATOM      1  C   UNL d   1      -1.796   1.388   3.295  0.00  0.00    -0.033 A 
ATOM      2  C1  UNL d   1      -2.706   1.385   2.236  0.00  0.00     0.039 A 
ATOM      3  C2  UNL d   1      -2.349   0.823   1.008  0.00  0.00    -0.080 A 
ATOM      4  C3  UNL d   1      -1.082   0.268   0.854  0.00  0.00     0.150 A 
ATOM      5  C4  UNL d   1      -0.172   0.264   1.906  0.00  0.00    -0.007 A 
ATOM      6  C5  UNL d   1      -0.529   0.826   3.130  0.00  0.00     0.039 A 
ENDROOT
BRANCH   4   7
ATOM      7  O   UNL d   1      -0.687  -0.287  -0.327  0.00  0.00    -0.526 OA
ATOM      8  H5  UNL d   1      -1.408  -0.187  -0.971  0.00  0.00     0.418 HD
ENDBRANCH   4   7
TORSDOF 1
ENDMDL
