MODEL 1
REMARK minimizedAffinity -2.93687487
REMARK minimizedRMSD -1
REMARK  1 active torsions:
REMARK  status: ('A' for Active; 'I' for Inactive)
REMARK    1  A    between atoms: C3_4  and  O_7 
ROOT
ATOM      1  C   UNL d   1       2.130  -0.954  -2.425  0.00  0.00    -0.033 A 
ATOM      2  C1  UNL d   1       1.359  -0.928  -1.262  0.00  0.00     0.039 A 
ATOM      3  C2  UNL d   1       0.579   0.190  -0.963  0.00  0.00    -0.080 A 
ATOM      4  C3  UNL d   1       0.578   1.275  -1.836  0.00  0.00     0.150 A 
ATOM      5  C4  UNL d   1       1.340   1.255  -2.999  0.00  0.00    -0.007 A 
ATOM      6  C5  UNL d   1       2.119   0.137  -3.295  0.00  0.00     0.039 A 
ENDROOT
BRANCH   4   7
ATOM      7  O   UNL d   1      -0.164   2.391  -1.585  0.00  0.00    -0.526 OA
ATOM      8  H5  UNL d   1      -0.617   2.274  -0.733  0.00  0.00     0.418 HD
ENDBRANCH   4   7
TORSDOF 1
ENDMDL
