MODEL 1
REMARK minimizedAffinity -3.02554679
REMARK minimizedRMSD -1
REMARK  1 active torsions:
REMARK  status: ('A' for Active; 'I' for Inactive)
REMARK    1  A    between atoms: C3_4  and  O_7 
ROOT
ATOM      1  C   UNL d   1       1.015  -1.575   0.158  0.00  0.00    -0.033 A 
ATOM      2  C1  UNL d   1       0.303  -0.377   0.241  0.00  0.00     0.039 A 
ATOM      3  C2  UNL d   1       0.366   0.549  -0.803  0.00  0.00    -0.080 A 
ATOM      4  C3  UNL d   1       1.144   0.264  -1.922  0.00  0.00     0.150 A 
ATOM      5  C4  UNL d   1       1.853  -0.929  -2.013  0.00  0.00    -0.007 A 
ATOM      6  C5  UNL d   1       1.789  -1.852  -0.969  0.00  0.00     0.039 A 
ENDROOT
BRANCH   4   7
ATOM      7  O   UNL d   1       1.241   1.139  -2.963  0.00  0.00    -0.526 OA
ATOM      8  H5  UNL d   1       0.721   1.931  -2.749  0.00  0.00     0.418 HD
ENDBRANCH   4   7
TORSDOF 1
ENDMDL
