MODEL 1
REMARK minimizedAffinity -3.48805809
REMARK minimizedRMSD -1
REMARK  1 active torsions:
REMARK  status: ('A' for Active; 'I' for Inactive)
REMARK    1  A    between atoms: C3_4  and  O_7 
ROOT
ATOM      1  C   UNL d   1      -1.160  -0.228   0.934  0.00  0.00    -0.033 A 
ATOM      2  C1  UNL d   1      -0.750  -1.554   1.088  0.00  0.00     0.039 A 
ATOM      3  C2  UNL d   1       0.213  -2.093   0.233  0.00  0.00    -0.080 A 
ATOM      4  C3  UNL d   1       0.760  -1.297  -0.769  0.00  0.00     0.150 A 
ATOM      5  C4  UNL d   1       0.360   0.026  -0.926  0.00  0.00    -0.007 A 
ATOM      6  C5  UNL d   1      -0.603   0.562  -0.072  0.00  0.00     0.039 A 
ENDROOT
BRANCH   4   7
ATOM      7  O   UNL d   1       1.699  -1.780  -1.631  0.00  0.00    -0.526 OA
ATOM      8  H5  UNL d   1       1.857  -2.716  -1.421  0.00  0.00     0.418 HD
ENDBRANCH   4   7
TORSDOF 1
ENDMDL
