MODEL 1
REMARK minimizedAffinity -4.41459131
REMARK minimizedRMSD -1
REMARK  1 active torsions:
REMARK  status: ('A' for Active; 'I' for Inactive)
REMARK    1  A    between atoms: C3_4  and  O_7 
ROOT
ATOM      1  C   UNL d   1      -0.895   0.958  -0.778  0.00  0.00    -0.033 A 
ATOM      2  C1  UNL d   1       0.347   1.274  -1.330  0.00  0.00     0.039 A 
ATOM      3  C2  UNL d   1       1.370   0.323  -1.343  0.00  0.00    -0.080 A 
ATOM      4  C3  UNL d   1       1.136  -0.938  -0.801  0.00  0.00     0.150 A 
ATOM      5  C4  UNL d   1      -0.101  -1.261  -0.253  0.00  0.00    -0.007 A 
ATOM      6  C5  UNL d   1      -1.120  -0.309  -0.240  0.00  0.00     0.039 A 
ENDROOT
BRANCH   4   7
ATOM      7  O   UNL d   1       2.105  -1.897  -0.787  0.00  0.00    -0.526 OA
ATOM      8  H5  UNL d   1       2.914  -1.523  -1.173  0.00  0.00     0.418 HD
ENDBRANCH   4   7
TORSDOF 1
ENDMDL
