MODEL 1
REMARK minimizedAffinity -0.17277199
REMARK minimizedRMSD -1
REMARK  1 active torsions:
REMARK  status: ('A' for Active; 'I' for Inactive)
REMARK    1  A    between atoms: C3_4  and  O_7 
ROOT
ATOM      1  C   UNL d   1      -1.948  -0.326   0.503  0.00  0.00    -0.033 A 
ATOM      2  C1  UNL d   1      -1.157   0.782   0.193  0.00  0.00     0.039 A 
ATOM      3  C2  UNL d   1      -0.953   1.784   1.143  0.00  0.00    -0.080 A 
ATOM      4  C3  UNL d   1      -1.544   1.667   2.398  0.00  0.00     0.150 A 
ATOM      5  C4  UNL d   1      -2.330   0.564   2.715  0.00  0.00    -0.007 A 
ATOM      6  C5  UNL d   1      -2.533  -0.436   1.765  0.00  0.00     0.039 A 
ENDROOT
BRANCH   4   7
ATOM      7  O   UNL d   1      -1.377   2.622   3.356  0.00  0.00    -0.526 OA
ATOM      8  H5  UNL d   1      -0.835   3.338   2.986  0.00  0.00     0.418 HD
ENDBRANCH   4   7
TORSDOF 1
ENDMDL
