MODEL 1
REMARK minimizedAffinity -3.1311729
REMARK minimizedRMSD -1
REMARK  1 active torsions:
REMARK  status: ('A' for Active; 'I' for Inactive)
REMARK    1  A    between atoms: C3_4  and  O_7 
ROOT
ATOM      1  C   UNL d   1       2.207  -1.038  -1.488  0.00  0.00    -0.033 A 
ATOM      2  C1  UNL d   1       1.883  -1.840  -0.392  0.00  0.00     0.039 A 
ATOM      3  C2  UNL d   1       0.767  -1.539   0.390  0.00  0.00    -0.080 A 
ATOM      4  C3  UNL d   1      -0.018  -0.436   0.066  0.00  0.00     0.150 A 
ATOM      5  C4  UNL d   1       0.296   0.365  -1.027  0.00  0.00    -0.007 A 
ATOM      6  C5  UNL d   1       1.412   0.064  -1.806  0.00  0.00     0.039 A 
ENDROOT
BRANCH   4   7
ATOM      7  O   UNL d   1      -1.114  -0.100   0.803  0.00  0.00    -0.526 OA
ATOM      8  H5  UNL d   1      -1.191  -0.725   1.543  0.00  0.00     0.418 HD
ENDBRANCH   4   7
TORSDOF 1
ENDMDL
