MODEL 1
REMARK minimizedAffinity -3.92173624
REMARK minimizedRMSD -1
REMARK  1 active torsions:
REMARK  status: ('A' for Active; 'I' for Inactive)
REMARK    1  A    between atoms: C1_2  and  C2_3 
ROOT
ATOM      1  C2  UNL d   1      -0.508   0.003   0.549  0.00  0.00    -0.077 A 
ATOM      2  C3  UNL d   1      -0.986   0.205   1.851  0.00  0.00     0.002 A 
ATOM      3  C4  UNL d   1      -1.334  -0.884   2.653  0.00  0.00     0.002 A 
ATOM      4  C5  UNL d   1      -1.204  -2.181   2.164  0.00  0.00    -0.004 A 
ATOM      5  C6  UNL d   1      -0.732  -2.393   0.869  0.00  0.00     0.002 A 
ATOM      6  C7  UNL d   1      -0.384  -1.306   0.066  0.00  0.00     0.002 A 
ENDROOT
BRANCH   1   7
ATOM      7  C1  UNL d   1      -0.085   1.173  -0.300  0.00  0.00     0.055 C 
ATOM      8  C   UNL d   1       1.017   1.977   0.375  0.00  0.00     0.019 C 
ENDBRANCH   1   7
TORSDOF 1
ENDMDL
