MODEL 1
REMARK minimizedAffinity -5.07313204
REMARK minimizedRMSD -1
REMARK  1 active torsions:
REMARK  status: ('A' for Active; 'I' for Inactive)
REMARK    1  A    between atoms: C1_2  and  C2_3 
ROOT
ATOM      1  C2  UNL d   1      -0.541  -0.947   0.410  0.00  0.00    -0.077 A 
ATOM      2  C3  UNL d   1       0.085  -0.750  -0.829  0.00  0.00     0.002 A 
ATOM      3  C4  UNL d   1       0.579  -1.837  -1.552  0.00  0.00     0.002 A 
ATOM      4  C5  UNL d   1       0.450  -3.129  -1.046  0.00  0.00    -0.004 A 
ATOM      5  C6  UNL d   1      -0.168  -3.335   0.187  0.00  0.00     0.002 A 
ATOM      6  C7  UNL d   1      -0.662  -2.249   0.911  0.00  0.00     0.002 A 
ENDROOT
BRANCH   1   7
ATOM      7  C1  UNL d   1      -1.119   0.220   1.167  0.00  0.00     0.055 C 
ATOM      8  C   UNL d   1      -2.175  -0.236   2.164  0.00  0.00     0.019 C 
ENDBRANCH   1   7
TORSDOF 1
ENDMDL
