MODEL 1
REMARK minimizedAffinity -3.9563632
REMARK minimizedRMSD -1
REMARK  1 active torsions:
REMARK  status: ('A' for Active; 'I' for Inactive)
REMARK    1  A    between atoms: C1_2  and  C2_3 
ROOT
ATOM      1  C2  UNL d   1       0.606   2.554  -0.014  0.00  0.00    -0.077 A 
ATOM      2  C3  UNL d   1       1.968   2.871  -0.102  0.00  0.00     0.002 A 
ATOM      3  C4  UNL d   1       2.622   3.481   0.970  0.00  0.00     0.002 A 
ATOM      4  C5  UNL d   1       1.923   3.775   2.139  0.00  0.00    -0.004 A 
ATOM      5  C6  UNL d   1       0.567   3.465   2.236  0.00  0.00     0.002 A 
ATOM      6  C7  UNL d   1      -0.088   2.856   1.165  0.00  0.00     0.002 A 
ENDROOT
BRANCH   1   7
ATOM      7  C1  UNL d   1      -0.090   1.851  -1.150  0.00  0.00     0.055 C 
ATOM      8  C   UNL d   1      -0.138   0.347  -0.924  0.00  0.00     0.019 C 
ENDBRANCH   1   7
TORSDOF 1
ENDMDL
