MODEL 1
REMARK minimizedAffinity 7.32555532
REMARK minimizedRMSD -1
REMARK  1 active torsions:
REMARK  status: ('A' for Active; 'I' for Inactive)
REMARK    1  A    between atoms: C1_2  and  C2_3 
ROOT
ATOM      1  C2  UNL d   1       2.478  -2.154  -4.579  0.00  0.00    -0.077 A 
ATOM      2  C3  UNL d   1       3.533  -2.131  -5.502  0.00  0.00     0.002 A 
ATOM      3  C4  UNL d   1       4.524  -3.113  -5.467  0.00  0.00     0.002 A 
ATOM      4  C5  UNL d   1       4.469  -4.127  -4.513  0.00  0.00    -0.004 A 
ATOM      5  C6  UNL d   1       3.425  -4.158  -3.589  0.00  0.00     0.002 A 
ATOM      6  C7  UNL d   1       2.434  -3.176  -3.622  0.00  0.00     0.002 A 
ENDROOT
BRANCH   1   7
ATOM      7  C1  UNL d   1       1.381  -1.123  -4.647  0.00  0.00     0.055 C 
ATOM      8  C   UNL d   1       1.288  -0.328  -3.352  0.00  0.00     0.019 C 
ENDBRANCH   1   7
TORSDOF 1
ENDMDL
