MODEL 1
REMARK minimizedAffinity -4.75658226
REMARK minimizedRMSD -1
REMARK  1 active torsions:
REMARK  status: ('A' for Active; 'I' for Inactive)
REMARK    1  A    between atoms: C1_2  and  C2_3 
ROOT
ATOM      1  C2  UNL d   1      -0.100  -2.508  -0.665  0.00  0.00    -0.077 A 
ATOM      2  C3  UNL d   1      -0.858  -2.779   0.483  0.00  0.00     0.002 A 
ATOM      3  C4  UNL d   1      -1.028  -1.800   1.464  0.00  0.00     0.002 A 
ATOM      4  C5  UNL d   1      -0.448  -0.543   1.305  0.00  0.00    -0.004 A 
ATOM      5  C6  UNL d   1       0.310  -0.265   0.168  0.00  0.00     0.002 A 
ATOM      6  C7  UNL d   1       0.482  -1.242  -0.813  0.00  0.00     0.002 A 
ENDROOT
BRANCH   1   7
ATOM      7  C1  UNL d   1       0.044  -3.546  -1.747  0.00  0.00     0.055 C 
ATOM      8  C   UNL d   1       0.543  -2.927  -3.045  0.00  0.00     0.019 C 
ENDBRANCH   1   7
TORSDOF 1
ENDMDL
