MODEL 1
REMARK minimizedAffinity 0.763944983
REMARK minimizedRMSD -1
REMARK  1 active torsions:
REMARK  status: ('A' for Active; 'I' for Inactive)
REMARK    1  A    between atoms: C1_2  and  C2_3 
ROOT
ATOM      1  C2  UNL d   1      -0.547  -0.802   2.561  0.00  0.00    -0.077 A 
ATOM      2  C3  UNL d   1      -1.400  -1.915   2.572  0.00  0.00     0.002 A 
ATOM      3  C4  UNL d   1      -2.388  -2.058   1.597  0.00  0.00     0.002 A 
ATOM      4  C5  UNL d   1      -2.531  -1.094   0.601  0.00  0.00    -0.004 A 
ATOM      5  C6  UNL d   1      -1.689   0.018   0.582  0.00  0.00     0.002 A 
ATOM      6  C7  UNL d   1      -0.702   0.163   1.558  0.00  0.00     0.002 A 
ENDROOT
BRANCH   1   7
ATOM      7  C1  UNL d   1       0.551  -0.672   3.584  0.00  0.00     0.055 C 
ATOM      8  C   UNL d   1       1.670  -1.670   3.325  0.00  0.00     0.019 C 
ENDBRANCH   1   7
TORSDOF 1
ENDMDL
