MODEL 1
REMARK minimizedAffinity 2.12223196
REMARK minimizedRMSD -1
REMARK  1 active torsions:
REMARK  status: ('A' for Active; 'I' for Inactive)
REMARK    1  A    between atoms: C1_2  and  C2_3 
ROOT
ATOM      1  C2  UNL d   1       0.868   5.273   2.373  0.00  0.00    -0.077 A 
ATOM      2  C3  UNL d   1       0.318   5.381   1.088  0.00  0.00     0.002 A 
ATOM      3  C4  UNL d   1       0.874   4.676   0.019  0.00  0.00     0.002 A 
ATOM      4  C5  UNL d   1       1.981   3.855   0.225  0.00  0.00    -0.004 A 
ATOM      5  C6  UNL d   1       2.537   3.742   1.499  0.00  0.00     0.002 A 
ATOM      6  C7  UNL d   1       1.983   4.447   2.568  0.00  0.00     0.002 A 
ENDROOT
BRANCH   1   7
ATOM      7  C1  UNL d   1       0.239   5.994   3.536  0.00  0.00     0.055 C 
ATOM      8  C   UNL d   1      -1.279   6.000   3.429  0.00  0.00     0.019 C 
ENDBRANCH   1   7
TORSDOF 1
ENDMDL
