MODEL 1
REMARK minimizedAffinity 2.91217661
REMARK minimizedRMSD -1
REMARK  1 active torsions:
REMARK  status: ('A' for Active; 'I' for Inactive)
REMARK    1  A    between atoms: C1_2  and  C2_3 
ROOT
ATOM      1  C2  UNL d   1      -1.085  -0.468  -0.149  0.00  0.00    -0.077 A 
ATOM      2  C3  UNL d   1      -1.401  -0.490   1.217  0.00  0.00     0.002 A 
ATOM      3  C4  UNL d   1      -1.868  -1.663   1.814  0.00  0.00     0.002 A 
ATOM      4  C5  UNL d   1      -2.019  -2.821   1.055  0.00  0.00    -0.004 A 
ATOM      5  C6  UNL d   1      -1.709  -2.808  -0.304  0.00  0.00     0.002 A 
ATOM      6  C7  UNL d   1      -1.243  -1.637  -0.903  0.00  0.00     0.002 A 
ENDROOT
BRANCH   1   7
ATOM      7  C1  UNL d   1      -0.535   0.782  -0.784  0.00  0.00     0.055 C 
ATOM      8  C   UNL d   1      -0.055   1.773   0.267  0.00  0.00     0.019 C 
ENDBRANCH   1   7
TORSDOF 1
ENDMDL
