MODEL 1
REMARK minimizedAffinity -4.89058161
REMARK minimizedRMSD -1
REMARK  1 active torsions:
REMARK  status: ('A' for Active; 'I' for Inactive)
REMARK    1  A    between atoms: C1_2  and  C2_3 
ROOT
ATOM      1  C2  UNL d   1      -0.055  -2.051  -0.268  0.00  0.00    -0.077 A 
ATOM      2  C3  UNL d   1      -0.832  -2.391   0.848  0.00  0.00     0.002 A 
ATOM      3  C4  UNL d   1      -1.397  -1.393   1.645  0.00  0.00     0.002 A 
ATOM      4  C5  UNL d   1      -1.193  -0.051   1.333  0.00  0.00    -0.004 A 
ATOM      5  C6  UNL d   1      -0.420   0.297   0.226  0.00  0.00     0.002 A 
ATOM      6  C7  UNL d   1       0.146  -0.698  -0.572  0.00  0.00     0.002 A 
ENDROOT
BRANCH   1   7
ATOM      7  C1  UNL d   1       0.514  -3.125  -1.158  0.00  0.00     0.055 C 
ATOM      8  C   UNL d   1       0.666  -2.635  -2.591  0.00  0.00     0.019 C 
ENDBRANCH   1   7
TORSDOF 1
ENDMDL
