MODEL 1
REMARK minimizedAffinity -5.00971746
REMARK minimizedRMSD -1
REMARK  1 active torsions:
REMARK  status: ('A' for Active; 'I' for Inactive)
REMARK    1  A    between atoms: C1_2  and  C2_3 
ROOT
ATOM      1  C2  UNL d   1      -0.251  -2.096  -0.888  0.00  0.00    -0.077 A 
ATOM      2  C3  UNL d   1      -0.491  -2.934   0.210  0.00  0.00     0.002 A 
ATOM      3  C4  UNL d   1      -0.911  -2.397   1.429  0.00  0.00     0.002 A 
ATOM      4  C5  UNL d   1      -1.098  -1.023   1.560  0.00  0.00    -0.004 A 
ATOM      5  C6  UNL d   1      -0.860  -0.181   0.474  0.00  0.00     0.002 A 
ATOM      6  C7  UNL d   1      -0.439  -0.715  -0.744  0.00  0.00     0.002 A 
ENDROOT
BRANCH   1   7
ATOM      7  C1  UNL d   1       0.155  -2.677  -2.217  0.00  0.00     0.055 C 
ATOM      8  C   UNL d   1       0.502  -1.583  -3.217  0.00  0.00     0.019 C 
ENDBRANCH   1   7
TORSDOF 1
ENDMDL
