MODEL 1
REMARK minimizedAffinity -5.91087341
REMARK minimizedRMSD -1
REMARK  1 active torsions:
REMARK  status: ('A' for Active; 'I' for Inactive)
REMARK    1  A    between atoms: C1_2  and  C2_3 
ROOT
ATOM      1  C2  UNL d   1       0.387   3.793   2.039  0.00  0.00    -0.077 A 
ATOM      2  C3  UNL d   1       1.718   4.135   1.764  0.00  0.00     0.002 A 
ATOM      3  C4  UNL d   1       2.312   3.746   0.561  0.00  0.00     0.002 A 
ATOM      4  C5  UNL d   1       1.583   3.018  -0.375  0.00  0.00    -0.004 A 
ATOM      5  C6  UNL d   1       0.258   2.671  -0.110  0.00  0.00     0.002 A 
ATOM      6  C7  UNL d   1      -0.337   3.058   1.092  0.00  0.00     0.002 A 
ENDROOT
BRANCH   1   7
ATOM      7  C1  UNL d   1      -0.272   4.253   3.314  0.00  0.00     0.055 C 
ATOM      8  C   UNL d   1      -1.129   5.488   3.079  0.00  0.00     0.019 C 
ENDBRANCH   1   7
TORSDOF 1
ENDMDL
