MODEL 1
REMARK minimizedAffinity -5.90050602
REMARK minimizedRMSD -1
REMARK  1 active torsions:
REMARK  status: ('A' for Active; 'I' for Inactive)
REMARK    1  A    between atoms: C1_2  and  C2_3 
ROOT
ATOM      1  C2  UNL d   1      -0.463  -1.895   0.672  0.00  0.00    -0.077 A 
ATOM      2  C3  UNL d   1      -1.642  -1.577   1.361  0.00  0.00     0.002 A 
ATOM      3  C4  UNL d   1      -1.995  -0.243   1.578  0.00  0.00     0.002 A 
ATOM      4  C5  UNL d   1      -1.177   0.782   1.108  0.00  0.00    -0.004 A 
ATOM      5  C6  UNL d   1      -0.001   0.476   0.424  0.00  0.00     0.002 A 
ATOM      6  C7  UNL d   1       0.354  -0.856   0.206  0.00  0.00     0.002 A 
ENDROOT
BRANCH   1   7
ATOM      7  C1  UNL d   1      -0.105  -3.331   0.393  0.00  0.00     0.055 C 
ATOM      8  C   UNL d   1      -0.020  -3.600  -1.102  0.00  0.00     0.019 C 
ENDBRANCH   1   7
TORSDOF 1
ENDMDL
