MODEL 1
REMARK minimizedAffinity 6.06162119
REMARK minimizedRMSD -1
REMARK  3 active torsions:
REMARK  status: ('A' for Active; 'I' for Inactive)
REMARK    1  A    between atoms: C3'_2  and  C2'_3 
REMARK    2  A    between atoms: C2'_3  and  C1'_4 
REMARK    3  A    between atoms: C1'_4  and  C1_5 
ROOT
ATOM      1  C1  N4B d   1       2.744  -5.252   2.453  0.00  0.00    -0.075 A 
ATOM      2  C2  N4B d   1       2.221  -4.461   1.406  0.00  0.00     0.002 A 
ATOM      3  C3  N4B d   1       0.870  -4.456   1.159  0.00  0.00     0.002 A 
ATOM      4  C4  N4B d   1       0.029  -5.245   1.929  0.00  0.00    -0.004 A 
ATOM      5  C5  N4B d   1       0.539  -5.986   2.955  0.00  0.00     0.002 A 
ATOM      6  C6  N4B d   1       1.894  -5.998   3.217  0.00  0.00     0.002 A 
ENDROOT
BRANCH   1   7
ATOM      7  C1' N4B d   1       4.223  -5.356   2.706  0.00  0.00     0.057 C 
BRANCH   7   8
ATOM      8  C2' N4B d   1       4.453  -5.959   4.089  0.00  0.00     0.009 C 
BRANCH   8   9
ATOM      9  C3' N4B d   1       5.875  -5.739   4.575  0.00  0.00     0.004 C 
ATOM     10  C4' N4B d   1       5.937  -5.274   6.000  0.00  0.00     0.003 C 
ENDBRANCH   8   9
ENDBRANCH   7   8
ENDBRANCH   1   7
TORSDOF 3
ENDMDL
