MODEL 1
REMARK minimizedAffinity -1.52508426
REMARK minimizedRMSD -1
REMARK  3 active torsions:
REMARK  status: ('A' for Active; 'I' for Inactive)
REMARK    1  A    between atoms: C3'_2  and  C2'_3 
REMARK    2  A    between atoms: C2'_3  and  C1'_4 
REMARK    3  A    between atoms: C1'_4  and  C1_5 
ROOT
ATOM      1  C1  N4B d   1       3.228  -5.554   2.368  0.00  0.00    -0.075 A 
ATOM      2  C2  N4B d   1       2.293  -5.998   3.329  0.00  0.00     0.002 A 
ATOM      3  C3  N4B d   1       0.961  -5.703   3.177  0.00  0.00     0.002 A 
ATOM      4  C4  N4B d   1       0.544  -4.953   2.088  0.00  0.00    -0.004 A 
ATOM      5  C5  N4B d   1       1.450  -4.550   1.151  0.00  0.00     0.002 A 
ATOM      6  C6  N4B d   1       2.792  -4.842   1.289  0.00  0.00     0.002 A 
ENDROOT
BRANCH   1   7
ATOM      7  C1' N4B d   1       4.706  -5.778   2.536  0.00  0.00     0.057 C 
BRANCH   7   8
ATOM      8  C2' N4B d   1       5.015  -6.000   4.014  0.00  0.00     0.009 C 
BRANCH   8   9
ATOM      9  C3' N4B d   1       5.989  -4.966   4.552  0.00  0.00     0.004 C 
ATOM     10  C4' N4B d   1       5.730  -4.615   5.987  0.00  0.00     0.003 C 
ENDBRANCH   8   9
ENDBRANCH   7   8
ENDBRANCH   1   7
TORSDOF 3
ENDMDL
