MODEL 1
REMARK minimizedAffinity -3.80720234
REMARK minimizedRMSD -1
REMARK  3 active torsions:
REMARK  status: ('A' for Active; 'I' for Inactive)
REMARK    1  A    between atoms: C3'_2  and  C2'_3 
REMARK    2  A    between atoms: C2'_3  and  C1'_4 
REMARK    3  A    between atoms: C1'_4  and  C1_5 
ROOT
ATOM      1  C1  N4B d   1       5.954  -2.962   2.769  0.00  0.00    -0.075 A 
ATOM      2  C2  N4B d   1       5.943  -1.635   2.287  0.00  0.00     0.002 A 
ATOM      3  C3  N4B d   1       5.950  -0.584   3.171  0.00  0.00     0.002 A 
ATOM      4  C4  N4B d   1       5.949  -0.834   4.535  0.00  0.00    -0.004 A 
ATOM      5  C5  N4B d   1       5.985  -2.119   4.992  0.00  0.00     0.002 A 
ATOM      6  C6  N4B d   1       5.983  -3.186   4.115  0.00  0.00     0.002 A 
ENDROOT
BRANCH   1   7
ATOM      7  C1' N4B d   1       5.860  -4.144   1.843  0.00  0.00     0.057 C 
BRANCH   7   8
ATOM      8  C2' N4B d   1       4.866  -5.151   2.414  0.00  0.00     0.009 C 
BRANCH   8   9
ATOM      9  C3' N4B d   1       3.871  -5.622   1.368  0.00  0.00     0.004 C 
ATOM     10  C4' N4B d   1       2.474  -5.731   1.904  0.00  0.00     0.003 C 
ENDBRANCH   8   9
ENDBRANCH   7   8
ENDBRANCH   1   7
TORSDOF 3
ENDMDL
