MODEL 1
REMARK minimizedAffinity -0.138797402
REMARK minimizedRMSD -1
REMARK  3 active torsions:
REMARK  status: ('A' for Active; 'I' for Inactive)
REMARK    1  A    between atoms: C3'_2  and  C2'_3 
REMARK    2  A    between atoms: C2'_3  and  C1'_4 
REMARK    3  A    between atoms: C1'_4  and  C1_5 
ROOT
ATOM      1  C1  N4B d   1       5.905  -3.234   4.653  0.00  0.00    -0.075 A 
ATOM      2  C2  N4B d   1       5.867  -3.957   3.440  0.00  0.00     0.002 A 
ATOM      3  C3  N4B d   1       5.885  -5.330   3.459  0.00  0.00     0.002 A 
ATOM      4  C4  N4B d   1       5.959  -5.999   4.672  0.00  0.00    -0.004 A 
ATOM      5  C5  N4B d   1       5.969  -5.294   5.840  0.00  0.00     0.002 A 
ATOM      6  C6  N4B d   1       5.947  -3.913   5.836  0.00  0.00     0.002 A 
ENDROOT
BRANCH   1   7
ATOM      7  C1' N4B d   1       5.973  -1.732   4.680  0.00  0.00     0.057 C 
BRANCH   7   8
ATOM      8  C2' N4B d   1       5.033  -1.168   3.618  0.00  0.00     0.009 C 
BRANCH   8   9
ATOM      9  C3' N4B d   1       5.584   0.099   2.987  0.00  0.00     0.004 C 
ATOM     10  C4' N4B d   1       5.742  -0.015   1.500  0.00  0.00     0.003 C 
ENDBRANCH   8   9
ENDBRANCH   7   8
ENDBRANCH   1   7
TORSDOF 3
ENDMDL
