MODEL 1
REMARK minimizedAffinity -1.04627585
REMARK minimizedRMSD -1
REMARK  3 active torsions:
REMARK  status: ('A' for Active; 'I' for Inactive)
REMARK    1  A    between atoms: C3'_2  and  C2'_3 
REMARK    2  A    between atoms: C2'_3  and  C1'_4 
REMARK    3  A    between atoms: C1'_4  and  C1_5 
ROOT
ATOM      1  C1  N4B d   1      -2.779   3.394   2.696  0.00  0.00    -0.075 A 
ATOM      2  C2  N4B d   1      -1.632   4.134   3.059  0.00  0.00     0.002 A 
ATOM      3  C3  N4B d   1      -0.392   3.734   2.626  0.00  0.00     0.002 A 
ATOM      4  C4  N4B d   1      -0.272   2.593   1.848  0.00  0.00    -0.004 A 
ATOM      5  C5  N4B d   1      -1.387   1.898   1.481  0.00  0.00     0.002 A 
ATOM      6  C6  N4B d   1      -2.640   2.291   1.905  0.00  0.00     0.002 A 
ENDROOT
BRANCH   1   7
ATOM      7  C1' N4B d   1      -4.147   3.743   3.216  0.00  0.00     0.057 C 
BRANCH   7   8
ATOM      8  C2' N4B d   1      -5.167   3.571   2.095  0.00  0.00     0.009 C 
BRANCH   8   9
ATOM      9  C3' N4B d   1      -5.981   4.834   1.868  0.00  0.00     0.004 C 
ATOM     10  C4' N4B d   1      -5.996   5.266   0.432  0.00  0.00     0.003 C 
ENDBRANCH   8   9
ENDBRANCH   7   8
ENDBRANCH   1   7
TORSDOF 3
ENDMDL
