MODEL 1
REMARK minimizedAffinity -0.63923955
REMARK minimizedRMSD -1
REMARK  3 active torsions:
REMARK  status: ('A' for Active; 'I' for Inactive)
REMARK    1  A    between atoms: C3'_2  and  C2'_3 
REMARK    2  A    between atoms: C2'_3  and  C1'_4 
REMARK    3  A    between atoms: C1'_4  and  C1_5 
ROOT
ATOM      1  C1  N4B d   1      -4.659   4.189   2.825  0.00  0.00    -0.075 A 
ATOM      2  C2  N4B d   1      -3.368   4.131   2.257  0.00  0.00     0.002 A 
ATOM      3  C3  N4B d   1      -2.831   2.920   1.894  0.00  0.00     0.002 A 
ATOM      4  C4  N4B d   1      -3.557   1.757   2.106  0.00  0.00    -0.004 A 
ATOM      5  C5  N4B d   1      -4.814   1.824   2.633  0.00  0.00     0.002 A 
ATOM      6  C6  N4B d   1      -5.367   3.035   2.998  0.00  0.00     0.002 A 
ENDROOT
BRANCH   1   7
ATOM      7  C1' N4B d   1      -5.252   5.481   3.317  0.00  0.00     0.057 C 
BRANCH   7   8
ATOM      8  C2' N4B d   1      -6.000   5.224   4.622  0.00  0.00     0.009 C 
BRANCH   8   9
ATOM      9  C3' N4B d   1      -5.375   5.967   5.791  0.00  0.00     0.004 C 
ATOM     10  C4' N4B d   1      -3.877   6.000   5.724  0.00  0.00     0.003 C 
ENDBRANCH   8   9
ENDBRANCH   7   8
ENDBRANCH   1   7
TORSDOF 3
ENDMDL
