MODEL 1
REMARK minimizedAffinity -3.5662663
REMARK minimizedRMSD -1
REMARK  3 active torsions:
REMARK  status: ('A' for Active; 'I' for Inactive)
REMARK    1  A    between atoms: C3'_2  and  C2'_3 
REMARK    2  A    between atoms: C2'_3  and  C1'_4 
REMARK    3  A    between atoms: C1'_4  and  C1_5 
ROOT
ATOM      1  C1  N4B d   1       0.490  -5.534   2.253  0.00  0.00    -0.075 A 
ATOM      2  C2  N4B d   1       0.159  -4.891   1.040  0.00  0.00     0.002 A 
ATOM      3  C3  N4B d   1      -1.157  -4.749   0.675  0.00  0.00     0.002 A 
ATOM      4  C4  N4B d   1      -2.155  -5.256   1.494  0.00  0.00    -0.004 A 
ATOM      5  C5  N4B d   1      -1.828  -5.853   2.676  0.00  0.00     0.002 A 
ATOM      6  C6  N4B d   1      -0.509  -5.999   3.057  0.00  0.00     0.002 A 
ENDROOT
BRANCH   1   7
ATOM      7  C1' N4B d   1       1.917  -5.789   2.653  0.00  0.00     0.057 C 
BRANCH   7   8
ATOM      8  C2' N4B d   1       2.817  -5.623   1.432  0.00  0.00     0.009 C 
BRANCH   8   9
ATOM      9  C3' N4B d   1       4.096  -4.875   1.766  0.00  0.00     0.004 C 
ATOM     10  C4' N4B d   1       5.271  -5.788   1.952  0.00  0.00     0.003 C 
ENDBRANCH   8   9
ENDBRANCH   7   8
ENDBRANCH   1   7
TORSDOF 3
ENDMDL
