MODEL 1
REMARK minimizedAffinity 6.74067831
REMARK minimizedRMSD -1
REMARK  3 active torsions:
REMARK  status: ('A' for Active; 'I' for Inactive)
REMARK    1  A    between atoms: C3'_2  and  C2'_3 
REMARK    2  A    between atoms: C2'_3  and  C1'_4 
REMARK    3  A    between atoms: C1'_4  and  C1_5 
ROOT
ATOM      1  C1  N4B d   1       3.940   2.960  -0.076  0.00  0.00    -0.075 A 
ATOM      2  C2  N4B d   1       5.277   2.893  -0.524  0.00  0.00     0.002 A 
ATOM      3  C3  N4B d   1       5.998   4.048  -0.708  0.00  0.00     0.002 A 
ATOM      4  C4  N4B d   1       5.398   5.276  -0.470  0.00  0.00    -0.004 A 
ATOM      5  C5  N4B d   1       4.114   5.330  -0.013  0.00  0.00     0.002 A 
ATOM      6  C6  N4B d   1       3.379   4.178   0.181  0.00  0.00     0.002 A 
ENDROOT
BRANCH   1   7
ATOM      7  C1' N4B d   1       3.085   1.729   0.058  0.00  0.00     0.057 C 
BRANCH   7   8
ATOM      8  C2' N4B d   1       3.374   1.062   1.399  0.00  0.00     0.009 C 
BRANCH   8   9
ATOM      9  C3' N4B d   1       2.147   1.028   2.294  0.00  0.00     0.004 C 
ATOM     10  C4' N4B d   1       0.894   1.432   1.576  0.00  0.00     0.003 C 
ENDBRANCH   8   9
ENDBRANCH   7   8
ENDBRANCH   1   7
TORSDOF 3
ENDMDL
