MODEL 1
REMARK minimizedAffinity 10.5856771
REMARK minimizedRMSD -1
REMARK  2 active torsions:
REMARK  status: ('A' for Active; 'I' for Inactive)
REMARK    1  A    between atoms: C1_2  and  C2_3 
REMARK    2  A    between atoms: C2_3  and  C3_4 
ROOT
ATOM      1  C3  UNL d   1      -3.615  -3.600  -2.663  0.00  0.00    -0.075 A 
ATOM      2  C4  UNL d   1      -4.680  -3.043  -3.385  0.00  0.00     0.002 A 
ATOM      3  C5  UNL d   1      -5.809  -3.806  -3.684  0.00  0.00     0.002 A 
ATOM      4  C6  UNL d   1      -5.883  -5.135  -3.274  0.00  0.00    -0.004 A 
ATOM      5  C7  UNL d   1      -4.824  -5.704  -2.570  0.00  0.00     0.002 A 
ATOM      6  C8  UNL d   1      -3.695  -4.941  -2.266  0.00  0.00     0.002 A 
ENDROOT
BRANCH   1   7
ATOM      7  C2  UNL d   1      -2.403  -2.770  -2.311  0.00  0.00     0.056 C 
BRANCH   7   8
ATOM      8  C1  UNL d   1      -2.653  -1.738  -1.206  0.00  0.00     0.007 C 
ATOM      9  C   UNL d   1      -2.147  -2.186   0.159  0.00  0.00     0.009 C 
ENDBRANCH   7   8
ENDBRANCH   1   7
TORSDOF 2
ENDMDL
