MODEL 1
REMARK minimizedAffinity 12.7101583
REMARK minimizedRMSD -1
REMARK  2 active torsions:
REMARK  status: ('A' for Active; 'I' for Inactive)
REMARK    1  A    between atoms: C1_2  and  C2_3 
REMARK    2  A    between atoms: C2_3  and  C3_4 
ROOT
ATOM      1  C3  UNL d   1       2.303   1.153   1.050  0.00  0.00    -0.075 A 
ATOM      2  C4  UNL d   1       3.500   0.554   1.470  0.00  0.00     0.002 A 
ATOM      3  C5  UNL d   1       3.682   0.199   2.807  0.00  0.00     0.002 A 
ATOM      4  C6  UNL d   1       2.678   0.446   3.740  0.00  0.00    -0.004 A 
ATOM      5  C7  UNL d   1       1.492   1.056   3.337  0.00  0.00     0.002 A 
ATOM      6  C8  UNL d   1       1.305   1.409   1.999  0.00  0.00     0.002 A 
ENDROOT
BRANCH   1   7
ATOM      7  C2  UNL d   1       2.088   1.513  -0.401  0.00  0.00     0.056 C 
BRANCH   7   8
ATOM      8  C1  UNL d   1       3.381   1.803  -1.170  0.00  0.00     0.007 C 
ATOM      9  C   UNL d   1       3.157   2.019  -2.661  0.00  0.00     0.009 C 
ENDBRANCH   7   8
ENDBRANCH   1   7
TORSDOF 2
ENDMDL
