MODEL 1
REMARK minimizedAffinity 9.09643078
REMARK minimizedRMSD -1
REMARK  2 active torsions:
REMARK  status: ('A' for Active; 'I' for Inactive)
REMARK    1  A    between atoms: C1_2  and  C2_3 
REMARK    2  A    between atoms: C2_3  and  C3_4 
ROOT
ATOM      1  C3  UNL d   1      -3.739  -4.954  -1.777  0.00  0.00    -0.075 A 
ATOM      2  C4  UNL d   1      -2.641  -5.665  -2.284  0.00  0.00     0.002 A 
ATOM      3  C5  UNL d   1      -1.727  -5.043  -3.135  0.00  0.00     0.002 A 
ATOM      4  C6  UNL d   1      -1.904  -3.710  -3.498  0.00  0.00    -0.004 A 
ATOM      5  C7  UNL d   1      -3.000  -2.999  -3.014  0.00  0.00     0.002 A 
ATOM      6  C8  UNL d   1      -3.913  -3.617  -2.158  0.00  0.00     0.002 A 
ENDROOT
BRANCH   1   7
ATOM      7  C2  UNL d   1      -4.715  -5.613  -0.832  0.00  0.00     0.056 C 
BRANCH   7   8
ATOM      8  C1  UNL d   1      -4.396  -5.389   0.650  0.00  0.00     0.007 C 
ATOM      9  C   UNL d   1      -5.431  -6.000   1.586  0.00  0.00     0.009 C 
ENDBRANCH   7   8
ENDBRANCH   1   7
TORSDOF 2
ENDMDL
