MODEL 1
REMARK minimizedAffinity 9.82018852
REMARK minimizedRMSD -1
REMARK  2 active torsions:
REMARK  status: ('A' for Active; 'I' for Inactive)
REMARK    1  A    between atoms: C1_2  and  C2_3 
REMARK    2  A    between atoms: C2_3  and  C3_4 
ROOT
ATOM      1  C3  UNL d   1      -2.137  -2.978  -2.917  0.00  0.00    -0.075 A 
ATOM      2  C4  UNL d   1      -1.618  -4.259  -3.151  0.00  0.00     0.002 A 
ATOM      3  C5  UNL d   1      -0.837  -4.512  -4.279  0.00  0.00     0.002 A 
ATOM      4  C6  UNL d   1      -0.574  -3.492  -5.191  0.00  0.00    -0.004 A 
ATOM      5  C7  UNL d   1      -1.098  -2.219  -4.977  0.00  0.00     0.002 A 
ATOM      6  C8  UNL d   1      -1.876  -1.962  -3.846  0.00  0.00     0.002 A 
ENDROOT
BRANCH   1   7
ATOM      7  C2  UNL d   1      -2.958  -2.691  -1.682  0.00  0.00     0.056 C 
BRANCH   7   8
ATOM      8  C1  UNL d   1      -2.138  -2.184  -0.492  0.00  0.00     0.007 C 
ATOM      9  C   UNL d   1      -2.866  -2.318   0.839  0.00  0.00     0.009 C 
ENDBRANCH   7   8
ENDBRANCH   1   7
TORSDOF 2
ENDMDL
