MODEL 1
REMARK minimizedAffinity 8.99259281
REMARK minimizedRMSD -1
REMARK  2 active torsions:
REMARK  status: ('A' for Active; 'I' for Inactive)
REMARK    1  A    between atoms: C1_2  and  C2_3 
REMARK    2  A    between atoms: C2_3  and  C3_4 
ROOT
ATOM      1  C3  UNL d   1       2.941   0.482   1.080  0.00  0.00    -0.075 A 
ATOM      2  C4  UNL d   1       3.409   0.810  -0.201  0.00  0.00     0.002 A 
ATOM      3  C5  UNL d   1       4.609   0.278  -0.674  0.00  0.00     0.002 A 
ATOM      4  C6  UNL d   1       5.360  -0.578   0.128  0.00  0.00    -0.004 A 
ATOM      5  C7  UNL d   1       4.913  -0.898   1.408  0.00  0.00     0.002 A 
ATOM      6  C8  UNL d   1       3.711  -0.370   1.883  0.00  0.00     0.002 A 
ENDROOT
BRANCH   1   7
ATOM      7  C2  UNL d   1       1.629   1.031   1.588  0.00  0.00     0.056 C 
BRANCH   7   8
ATOM      8  C1  UNL d   1       0.994   0.196   2.704  0.00  0.00     0.007 C 
ATOM      9  C   UNL d   1      -0.093  -0.747   2.204  0.00  0.00     0.009 C 
ENDBRANCH   7   8
ENDBRANCH   1   7
TORSDOF 2
ENDMDL
