MODEL 1
REMARK minimizedAffinity 10.9080305
REMARK minimizedRMSD -1
REMARK  2 active torsions:
REMARK  status: ('A' for Active; 'I' for Inactive)
REMARK    1  A    between atoms: C1_2  and  C2_3 
REMARK    2  A    between atoms: C2_3  and  C3_4 
ROOT
ATOM      1  C3  UNL d   1      -3.283  -3.460  -3.312  0.00  0.00    -0.075 A 
ATOM      2  C4  UNL d   1      -2.881  -4.736  -2.891  0.00  0.00     0.002 A 
ATOM      3  C5  UNL d   1      -1.602  -5.209  -3.186  0.00  0.00     0.002 A 
ATOM      4  C6  UNL d   1      -0.715  -4.418  -3.914  0.00  0.00    -0.004 A 
ATOM      5  C7  UNL d   1      -1.110  -3.156  -4.352  0.00  0.00     0.002 A 
ATOM      6  C8  UNL d   1      -2.387  -2.679  -4.054  0.00  0.00     0.002 A 
ENDROOT
BRANCH   1   7
ATOM      7  C2  UNL d   1      -4.656  -2.931  -2.970  0.00  0.00     0.056 C 
BRANCH   7   8
ATOM      8  C1  UNL d   1      -5.785  -3.535  -3.811  0.00  0.00     0.007 C 
ATOM      9  C   UNL d   1      -5.999  -2.814  -5.135  0.00  0.00     0.009 C 
ENDBRANCH   7   8
ENDBRANCH   1   7
TORSDOF 2
ENDMDL
