MODEL 1
REMARK minimizedAffinity 7.24217033
REMARK minimizedRMSD -1
REMARK  2 active torsions:
REMARK  status: ('A' for Active; 'I' for Inactive)
REMARK    1  A    between atoms: C1_2  and  C2_3 
REMARK    2  A    between atoms: C2_3  and  C3_4 
ROOT
ATOM      1  C3  UNL d   1       3.085   1.018   0.824  0.00  0.00    -0.075 A 
ATOM      2  C4  UNL d   1       3.625   1.801  -0.206  0.00  0.00     0.002 A 
ATOM      3  C5  UNL d   1       4.895   1.526  -0.714  0.00  0.00     0.002 A 
ATOM      4  C6  UNL d   1       5.644   0.473  -0.192  0.00  0.00    -0.004 A 
ATOM      5  C7  UNL d   1       5.124  -0.301   0.843  0.00  0.00     0.002 A 
ATOM      6  C8  UNL d   1       3.852  -0.030   1.350  0.00  0.00     0.002 A 
ENDROOT
BRANCH   1   7
ATOM      7  C2  UNL d   1       1.700   1.293   1.358  0.00  0.00     0.056 C 
BRANCH   7   8
ATOM      8  C1  UNL d   1       1.007   0.064   1.957  0.00  0.00     0.007 C 
ATOM      9  C   UNL d   1       0.024   0.411   3.067  0.00  0.00     0.009 C 
ENDBRANCH   7   8
ENDBRANCH   1   7
TORSDOF 2
ENDMDL
