MODEL 1
REMARK minimizedAffinity 13.2200994
REMARK minimizedRMSD -1
REMARK  2 active torsions:
REMARK  status: ('A' for Active; 'I' for Inactive)
REMARK    1  A    between atoms: C1_2  and  C2_3 
REMARK    2  A    between atoms: C2_3  and  C3_4 
ROOT
ATOM      1  C3  UNL d   1      -1.084  -1.532   1.374  0.00  0.00    -0.075 A 
ATOM      2  C4  UNL d   1      -0.258  -0.558   0.794  0.00  0.00     0.002 A 
ATOM      3  C5  UNL d   1       0.587   0.218   1.587  0.00  0.00     0.002 A 
ATOM      4  C6  UNL d   1       0.609   0.039   2.969  0.00  0.00    -0.004 A 
ATOM      5  C7  UNL d   1      -0.219  -0.914   3.558  0.00  0.00     0.002 A 
ATOM      6  C8  UNL d   1      -1.062  -1.695   2.766  0.00  0.00     0.002 A 
ENDROOT
BRANCH   1   7
ATOM      7  C2  UNL d   1      -1.979  -2.396   0.518  0.00  0.00     0.056 C 
BRANCH   7   8
ATOM      8  C1  UNL d   1      -2.133  -1.898  -0.923  0.00  0.00     0.007 C 
ATOM      9  C   UNL d   1      -2.599  -2.982  -1.886  0.00  0.00     0.009 C 
ENDBRANCH   7   8
ENDBRANCH   1   7
TORSDOF 2
ENDMDL
