MODEL 1
REMARK minimizedAffinity 10.272603
REMARK minimizedRMSD -1
REMARK  2 active torsions:
REMARK  status: ('A' for Active; 'I' for Inactive)
REMARK    1  A    between atoms: C1_2  and  C2_3 
REMARK    2  A    between atoms: C2_3  and  C3_4 
ROOT
ATOM      1  C3  UNL d   1       2.960   1.575  -0.266  0.00  0.00    -0.075 A 
ATOM      2  C4  UNL d   1       3.605   0.365   0.030  0.00  0.00     0.002 A 
ATOM      3  C5  UNL d   1       3.014  -0.560   0.891  0.00  0.00     0.002 A 
ATOM      4  C6  UNL d   1       1.779  -0.284   1.474  0.00  0.00    -0.004 A 
ATOM      5  C7  UNL d   1       1.137   0.922   1.200  0.00  0.00     0.002 A 
ATOM      6  C8  UNL d   1       1.724   1.848   0.335  0.00  0.00     0.002 A 
ENDROOT
BRANCH   1   7
ATOM      7  C2  UNL d   1       3.580   2.567  -1.220  0.00  0.00     0.056 C 
BRANCH   7   8
ATOM      8  C1  UNL d   1       3.225   2.324  -2.691  0.00  0.00     0.007 C 
ATOM      9  C   UNL d   1       2.241   3.345  -3.247  0.00  0.00     0.009 C 
ENDBRANCH   7   8
ENDBRANCH   1   7
TORSDOF 2
ENDMDL
