MODEL 1
REMARK minimizedAffinity 11.8216476
REMARK minimizedRMSD -1
REMARK  2 active torsions:
REMARK  status: ('A' for Active; 'I' for Inactive)
REMARK    1  A    between atoms: C1_2  and  C2_3 
REMARK    2  A    between atoms: C2_3  and  C3_4 
ROOT
ATOM      1  C3  UNL d   1       3.456  -0.314   1.770  0.00  0.00    -0.075 A 
ATOM      2  C4  UNL d   1       3.431  -0.744   3.105  0.00  0.00     0.002 A 
ATOM      3  C5  UNL d   1       2.343  -0.445   3.925  0.00  0.00     0.002 A 
ATOM      4  C6  UNL d   1       1.273   0.295   3.426  0.00  0.00    -0.004 A 
ATOM      5  C7  UNL d   1       1.295   0.741   2.107  0.00  0.00     0.002 A 
ATOM      6  C8  UNL d   1       2.380   0.439   1.282  0.00  0.00     0.002 A 
ENDROOT
BRANCH   1   7
ATOM      7  C2  UNL d   1       4.617  -0.660   0.868  0.00  0.00     0.056 C 
BRANCH   7   8
ATOM      8  C1  UNL d   1       4.248  -0.751  -0.617  0.00  0.00     0.007 C 
ATOM      9  C   UNL d   1       4.860   0.363  -1.456  0.00  0.00     0.009 C 
ENDBRANCH   7   8
ENDBRANCH   1   7
TORSDOF 2
ENDMDL
