MODEL 1
REMARK minimizedAffinity 14.5430965
REMARK minimizedRMSD -1
REMARK  2 active torsions:
REMARK  status: ('A' for Active; 'I' for Inactive)
REMARK    1  A    between atoms: C1_2  and  C2_3 
REMARK    2  A    between atoms: C2_3  and  C3_4 
ROOT
ATOM      1  C3  UNL d   1       3.061   1.881  -1.099  0.00  0.00    -0.075 A 
ATOM      2  C4  UNL d   1       3.757   0.667  -1.016  0.00  0.00     0.002 A 
ATOM      3  C5  UNL d   1       3.555  -0.193   0.064  0.00  0.00     0.002 A 
ATOM      4  C6  UNL d   1       2.666   0.155   1.078  0.00  0.00    -0.004 A 
ATOM      5  C7  UNL d   1       1.982   1.367   1.015  0.00  0.00     0.002 A 
ATOM      6  C8  UNL d   1       2.178   2.227  -0.067  0.00  0.00     0.002 A 
ENDROOT
BRANCH   1   7
ATOM      7  C2  UNL d   1       3.252   2.802  -2.280  0.00  0.00     0.056 C 
BRANCH   7   8
ATOM      8  C1  UNL d   1       1.945   3.356  -2.858  0.00  0.00     0.007 C 
ATOM      9  C   UNL d   1       2.145   4.146  -4.144  0.00  0.00     0.009 C 
ENDBRANCH   7   8
ENDBRANCH   1   7
TORSDOF 2
ENDMDL
