MODEL 1
REMARK minimizedAffinity 20.5710793
REMARK minimizedRMSD -1
REMARK  2 active torsions:
REMARK  status: ('A' for Active; 'I' for Inactive)
REMARK    1  A    between atoms: C1_2  and  C2_3 
REMARK    2  A    between atoms: C2_3  and  C3_4 
ROOT
ATOM      1  C3  UNL d   1      -4.648  -4.807  -2.050  0.00  0.00    -0.075 A 
ATOM      2  C4  UNL d   1      -3.372  -4.227  -2.019  0.00  0.00     0.002 A 
ATOM      3  C5  UNL d   1      -3.081  -3.112  -2.806  0.00  0.00     0.002 A 
ATOM      4  C6  UNL d   1      -4.057  -2.570  -3.640  0.00  0.00    -0.004 A 
ATOM      5  C7  UNL d   1      -5.323  -3.149  -3.691  0.00  0.00     0.002 A 
ATOM      6  C8  UNL d   1      -5.618  -4.262  -2.902  0.00  0.00     0.002 A 
ENDROOT
BRANCH   1   7
ATOM      7  C2  UNL d   1      -4.978  -5.996  -1.180  0.00  0.00     0.056 C 
BRANCH   7   8
ATOM      8  C1  UNL d   1      -4.256  -5.998   0.172  0.00  0.00     0.007 C 
ATOM      9  C   UNL d   1      -5.208  -5.976   1.361  0.00  0.00     0.009 C 
ENDBRANCH   7   8
ENDBRANCH   1   7
TORSDOF 2
ENDMDL
