MODEL 1
REMARK minimizedAffinity 16.6245918
REMARK minimizedRMSD -1
REMARK  2 active torsions:
REMARK  status: ('A' for Active; 'I' for Inactive)
REMARK    1  A    between atoms: C1_2  and  C2_3 
REMARK    2  A    between atoms: C2_3  and  C3_4 
ROOT
ATOM      1  C3  UNL d   1       3.807   0.502   0.756  0.00  0.00    -0.075 A 
ATOM      2  C4  UNL d   1       4.899  -0.372   0.859  0.00  0.00     0.002 A 
ATOM      3  C5  UNL d   1       5.991  -0.246  -0.001  0.00  0.00     0.002 A 
ATOM      4  C6  UNL d   1       6.000   0.745  -0.980  0.00  0.00    -0.004 A 
ATOM      5  C7  UNL d   1       4.913   1.608  -1.102  0.00  0.00     0.002 A 
ATOM      6  C8  UNL d   1       3.821   1.487  -0.240  0.00  0.00     0.002 A 
ENDROOT
BRANCH   1   7
ATOM      7  C2  UNL d   1       2.636   0.389   1.702  0.00  0.00     0.056 C 
BRANCH   7   8
ATOM      8  C1  UNL d   1       1.881   1.705   1.919  0.00  0.00     0.007 C 
ATOM      9  C   UNL d   1       0.819   1.616   3.007  0.00  0.00     0.009 C 
ENDBRANCH   7   8
ENDBRANCH   1   7
TORSDOF 2
ENDMDL
