MODEL 1
REMARK minimizedAffinity 15.058321
REMARK minimizedRMSD -1
REMARK  0 active torsions:
REMARK  status: ('A' for Active; 'I' for Inactive)
ROOT
ATOM      1  C1  DEN d   1       6.000   4.821  -0.815  0.00  0.00     0.130 A 
ATOM      2  C2  DEN d   1       5.472   5.999  -0.132  0.00  0.00    -0.031 A 
ATOM      3  C3  DEN d   1       4.872   5.557   1.143  0.00  0.00     0.027 A 
ATOM      4  C4  DEN d   1       4.716   3.176   2.123  0.00  0.00     0.027 A 
ATOM      5  C5  DEN d   1       5.014   1.849   1.902  0.00  0.00    -0.003 A 
ATOM      6  C6  DEN d   1       5.625   1.420   0.754  0.00  0.00     0.001 A 
ATOM      7  C7  DEN d   1       6.000   2.331  -0.197  0.00  0.00     0.017 A 
ATOM      8  C8  DEN d   1       5.697   3.669   0.015  0.00  0.00    -0.094 A 
ATOM      9  C9  DEN d   1       5.089   4.086   1.188  0.00  0.00    -0.072 A 
ENDROOT
TORSDOF 0
ENDMDL
