MODEL 1
REMARK minimizedAffinity 19.5540752
REMARK minimizedRMSD -1
REMARK  0 active torsions:
REMARK  status: ('A' for Active; 'I' for Inactive)
ROOT
ATOM      1  C1  DEN d   1       6.000   0.382   2.248  0.00  0.00     0.130 A 
ATOM      2  C2  DEN d   1       5.201   0.382   3.471  0.00  0.00    -0.031 A 
ATOM      3  C3  DEN d   1       4.239   1.499   3.388  0.00  0.00     0.027 A 
ATOM      4  C4  DEN d   1       3.907   3.217   1.492  0.00  0.00     0.027 A 
ATOM      5  C5  DEN d   1       4.358   3.627   0.257  0.00  0.00    -0.003 A 
ATOM      6  C6  DEN d   1       5.401   3.010  -0.381  0.00  0.00     0.001 A 
ATOM      7  C7  DEN d   1       6.000   1.920   0.195  0.00  0.00     0.017 A 
ATOM      8  C8  DEN d   1       5.556   1.506   1.443  0.00  0.00    -0.094 A 
ATOM      9  C9  DEN d   1       4.491   2.135   2.066  0.00  0.00    -0.072 A 
ENDROOT
TORSDOF 0
ENDMDL
