MODEL 1
REMARK minimizedAffinity 6.0353117
REMARK minimizedRMSD -1
REMARK  0 active torsions:
REMARK  status: ('A' for Active; 'I' for Inactive)
ROOT
ATOM      1  C1  DEN d   1       6.000   0.219   2.306  0.00  0.00     0.130 A 
ATOM      2  C2  DEN d   1       4.992  -0.069   3.322  0.00  0.00    -0.031 A 
ATOM      3  C3  DEN d   1       3.791   0.734   3.015  0.00  0.00     0.027 A 
ATOM      4  C4  DEN d   1       3.396   2.383   1.072  0.00  0.00     0.027 A 
ATOM      5  C5  DEN d   1       3.964   2.966  -0.039  0.00  0.00    -0.003 A 
ATOM      6  C6  DEN d   1       5.252   2.702  -0.424  0.00  0.00     0.001 A 
ATOM      7  C7  DEN d   1       6.000   1.798   0.283  0.00  0.00     0.017 A 
ATOM      8  C8  DEN d   1       5.436   1.211   1.408  0.00  0.00    -0.094 A 
ATOM      9  C9  DEN d   1       4.128   1.482   1.774  0.00  0.00    -0.072 A 
ENDROOT
TORSDOF 0
ENDMDL
