MODEL 1
REMARK minimizedAffinity 13.0165634
REMARK minimizedRMSD -1
REMARK  0 active torsions:
REMARK  status: ('A' for Active; 'I' for Inactive)
ROOT
ATOM      1  C1  DEN d   1       4.795   2.942   0.729  0.00  0.00     0.130 A 
ATOM      2  C2  DEN d   1       3.398   2.785   1.125  0.00  0.00    -0.031 A 
ATOM      3  C3  DEN d   1       2.642   2.306  -0.049  0.00  0.00     0.027 A 
ATOM      4  C4  DEN d   1       3.495   1.791  -2.428  0.00  0.00     0.027 A 
ATOM      5  C5  DEN d   1       4.603   1.784  -3.247  0.00  0.00    -0.003 A 
ATOM      6  C6  DEN d   1       5.835   2.191  -2.810  0.00  0.00     0.001 A 
ATOM      7  C7  DEN d   1       5.999   2.581  -1.507  0.00  0.00     0.017 A 
ATOM      8  C8  DEN d   1       4.886   2.597  -0.678  0.00  0.00    -0.094 A 
ATOM      9  C9  DEN d   1       3.650   2.170  -1.135  0.00  0.00    -0.072 A 
ENDROOT
TORSDOF 0
ENDMDL
