MODEL 1
REMARK minimizedAffinity 20.2019882
REMARK minimizedRMSD -1
REMARK  0 active torsions:
REMARK  status: ('A' for Active; 'I' for Inactive)
ROOT
ATOM      1  C1  DEN d   1      -2.155   3.847  -4.482  0.00  0.00     0.130 A 
ATOM      2  C2  DEN d   1      -1.662   2.490  -4.703  0.00  0.00    -0.031 A 
ATOM      3  C3  DEN d   1      -2.743   1.709  -5.337  0.00  0.00     0.027 A 
ATOM      4  C4  DEN d   1      -5.118   2.466  -5.999  0.00  0.00     0.027 A 
ATOM      5  C5  DEN d   1      -6.000   3.524  -6.000  0.00  0.00    -0.003 A 
ATOM      6  C6  DEN d   1      -5.676   4.744  -5.468  0.00  0.00     0.001 A 
ATOM      7  C7  DEN d   1      -4.423   4.950  -4.954  0.00  0.00     0.017 A 
ATOM      8  C8  DEN d   1      -3.532   3.886  -4.943  0.00  0.00    -0.094 A 
ATOM      9  C9  DEN d   1      -3.873   2.663  -5.497  0.00  0.00    -0.072 A 
ENDROOT
TORSDOF 0
ENDMDL
