MODEL 1
REMARK minimizedAffinity 22.1557121
REMARK minimizedRMSD -1
REMARK  0 active torsions:
REMARK  status: ('A' for Active; 'I' for Inactive)
ROOT
ATOM      1  C1  DEN d   1      -0.772  -3.292  -3.270  0.00  0.00     0.130 A 
ATOM      2  C2  DEN d   1      -1.278  -1.997  -3.717  0.00  0.00    -0.031 A 
ATOM      3  C3  DEN d   1      -1.490  -1.153  -2.523  0.00  0.00     0.027 A 
ATOM      4  C4  DEN d   1      -1.079  -1.720  -0.041  0.00  0.00     0.027 A 
ATOM      5  C5  DEN d   1      -0.665  -2.702   0.832  0.00  0.00    -0.003 A 
ATOM      6  C6  DEN d   1      -0.293  -3.949   0.406  0.00  0.00     0.001 A 
ATOM      7  C7  DEN d   1      -0.284  -4.234  -0.934  0.00  0.00     0.017 A 
ATOM      8  C8  DEN d   1      -0.708  -3.252  -1.820  0.00  0.00    -0.094 A 
ATOM      9  C9  DEN d   1      -1.069  -1.993  -1.370  0.00  0.00    -0.072 A 
ENDROOT
TORSDOF 0
ENDMDL
