MODEL 1
REMARK minimizedAffinity 11.2879066
REMARK minimizedRMSD -1
REMARK  0 active torsions:
REMARK  status: ('A' for Active; 'I' for Inactive)
ROOT
ATOM      1  C1  DEN d   1       4.742   1.931   3.513  0.00  0.00     0.130 A 
ATOM      2  C2  DEN d   1       5.386   0.621   3.551  0.00  0.00    -0.031 A 
ATOM      3  C3  DEN d   1       5.992   0.371   2.228  0.00  0.00     0.027 A 
ATOM      4  C4  DEN d   1       6.000   1.879   0.136  0.00  0.00     0.027 A 
ATOM      5  C5  DEN d   1       5.572   3.081  -0.383  0.00  0.00    -0.003 A 
ATOM      6  C6  DEN d   1       4.814   3.961   0.343  0.00  0.00     0.001 A 
ATOM      7  C7  DEN d   1       4.500   3.673   1.645  0.00  0.00     0.017 A 
ATOM      8  C8  DEN d   1       4.921   2.460   2.173  0.00  0.00    -0.094 A 
ATOM      9  C9  DEN d   1       5.696   1.589   1.426  0.00  0.00    -0.072 A 
ENDROOT
TORSDOF 0
ENDMDL
