MODEL 1
REMARK minimizedAffinity 15.0107126
REMARK minimizedRMSD -1
REMARK  0 active torsions:
REMARK  status: ('A' for Active; 'I' for Inactive)
ROOT
ATOM      1  C1  DEN d   1      -1.160  -2.588  -0.937  0.00  0.00     0.130 A 
ATOM      2  C2  DEN d   1      -2.062  -1.440  -0.978  0.00  0.00    -0.031 A 
ATOM      3  C3  DEN d   1      -2.613  -1.245   0.378  0.00  0.00     0.027 A 
ATOM      4  C4  DEN d   1      -2.157  -2.598   2.526  0.00  0.00     0.027 A 
ATOM      5  C5  DEN d   1      -1.472  -3.671   3.052  0.00  0.00    -0.003 A 
ATOM      6  C6  DEN d   1      -0.668  -4.472   2.285  0.00  0.00     0.001 A 
ATOM      7  C7  DEN d   1      -0.493  -4.185   0.957  0.00  0.00     0.017 A 
ATOM      8  C8  DEN d   1      -1.186  -3.109   0.417  0.00  0.00    -0.094 A 
ATOM      9  C9  DEN d   1      -1.985  -2.305   1.212  0.00  0.00    -0.072 A 
ENDROOT
TORSDOF 0
ENDMDL
