MODEL 1
REMARK minimizedAffinity 17.9653358
REMARK minimizedRMSD -1
REMARK  0 active torsions:
REMARK  status: ('A' for Active; 'I' for Inactive)
ROOT
ATOM      1  C1  DEN d   1       2.699  -0.840  -1.834  0.00  0.00     0.130 A 
ATOM      2  C2  DEN d   1       1.966   0.380  -1.507  0.00  0.00    -0.031 A 
ATOM      3  C3  DEN d   1       2.740   1.529  -2.019  0.00  0.00     0.027 A 
ATOM      4  C4  DEN d   1       4.989   1.536  -3.281  0.00  0.00     0.027 A 
ATOM      5  C5  DEN d   1       6.000   0.743  -3.779  0.00  0.00    -0.003 A 
ATOM      6  C6  DEN d   1       5.998  -0.619  -3.635  0.00  0.00     0.001 A 
ATOM      7  C7  DEN d   1       4.942  -1.234  -3.016  0.00  0.00     0.017 A 
ATOM      8  C8  DEN d   1       3.923  -0.441  -2.505  0.00  0.00    -0.094 A 
ATOM      9  C9  DEN d   1       3.937   0.933  -2.672  0.00  0.00    -0.072 A 
ENDROOT
TORSDOF 0
ENDMDL
