MODEL 1
REMARK minimizedAffinity 6.40690088
REMARK minimizedRMSD -1
REMARK  0 active torsions:
REMARK  status: ('A' for Active; 'I' for Inactive)
ROOT
ATOM      1  C1  DEN d   1      -6.000   5.802  -0.699  0.00  0.00     0.130 A 
ATOM      2  C2  DEN d   1      -4.964   5.585   0.308  0.00  0.00    -0.031 A 
ATOM      3  C3  DEN d   1      -3.664   5.501  -0.387  0.00  0.00     0.027 A 
ATOM      4  C4  DEN d   1      -3.155   5.689  -2.908  0.00  0.00     0.027 A 
ATOM      5  C5  DEN d   1      -3.712   5.863  -4.156  0.00  0.00    -0.003 A 
ATOM      6  C6  DEN d   1      -5.063   5.993  -4.340  0.00  0.00     0.001 A 
ATOM      7  C7  DEN d   1      -5.899   5.998  -3.255  0.00  0.00     0.017 A 
ATOM      8  C8  DEN d   1      -5.345   5.815  -1.995  0.00  0.00    -0.094 A 
ATOM      9  C9  DEN d   1      -3.976   5.697  -1.828  0.00  0.00    -0.072 A 
ENDROOT
TORSDOF 0
ENDMDL
