MODEL 1
REMARK minimizedAffinity 6.60169172
REMARK minimizedRMSD -1
REMARK  0 active torsions:
REMARK  status: ('A' for Active; 'I' for Inactive)
ROOT
ATOM      1  C1  DEN d   1      -1.034  -2.650  -0.960  0.00  0.00     0.130 A 
ATOM      2  C2  DEN d   1      -1.962  -1.532  -1.109  0.00  0.00    -0.031 A 
ATOM      3  C3  DEN d   1      -2.615  -1.304   0.196  0.00  0.00     0.027 A 
ATOM      4  C4  DEN d   1      -2.278  -2.562   2.422  0.00  0.00     0.027 A 
ATOM      5  C5  DEN d   1      -1.602  -3.593   3.037  0.00  0.00    -0.003 A 
ATOM      6  C6  DEN d   1      -0.723  -4.396   2.361  0.00  0.00     0.001 A 
ATOM      7  C7  DEN d   1      -0.461  -4.154   1.039  0.00  0.00     0.017 A 
ATOM      8  C8  DEN d   1      -1.143  -3.121   0.409  0.00  0.00    -0.094 A 
ATOM      9  C9  DEN d   1      -2.019  -2.312   1.113  0.00  0.00    -0.072 A 
ENDROOT
TORSDOF 0
ENDMDL
