MODEL 1
REMARK minimizedAffinity 15.7024593
REMARK minimizedRMSD -1
REMARK  0 active torsions:
REMARK  status: ('A' for Active; 'I' for Inactive)
ROOT
ATOM      1  C1  DEN d   1       5.998   0.328   2.307  0.00  0.00     0.130 A 
ATOM      2  C2  DEN d   1       5.136   0.246   3.483  0.00  0.00    -0.031 A 
ATOM      3  C3  DEN d   1       4.102   1.293   3.364  0.00  0.00     0.027 A 
ATOM      4  C4  DEN d   1       3.751   3.021   1.482  0.00  0.00     0.027 A 
ATOM      5  C5  DEN d   1       4.238   3.487   0.281  0.00  0.00    -0.003 A 
ATOM      6  C6  DEN d   1       5.356   2.960  -0.307  0.00  0.00     0.001 A 
ATOM      7  C7  DEN d   1       6.000   1.904   0.283  0.00  0.00     0.017 A 
ATOM      8  C8  DEN d   1       5.519   1.433   1.497  0.00  0.00    -0.094 A 
ATOM      9  C9  DEN d   1       4.379   1.972   2.070  0.00  0.00    -0.072 A 
ENDROOT
TORSDOF 0
ENDMDL
