MODEL 1
REMARK minimizedAffinity 17.6113644
REMARK minimizedRMSD -1
REMARK  0 active torsions:
REMARK  status: ('A' for Active; 'I' for Inactive)
ROOT
ATOM      1  C1  DEN d   1       4.125   3.298   2.456  0.00  0.00     0.130 A 
ATOM      2  C2  DEN d   1       4.503   1.911   2.201  0.00  0.00    -0.031 A 
ATOM      3  C3  DEN d   1       5.305   1.876   0.962  0.00  0.00     0.027 A 
ATOM      4  C4  DEN d   1       5.998   3.827  -0.577  0.00  0.00     0.027 A 
ATOM      5  C5  DEN d   1       5.904   5.186  -0.778  0.00  0.00    -0.003 A 
ATOM      6  C6  DEN d   1       5.188   6.000   0.059  0.00  0.00     0.001 A 
ATOM      7  C7  DEN d   1       4.574   5.468   1.162  0.00  0.00     0.017 A 
ATOM      8  C8  DEN d   1       4.659   4.097   1.368  0.00  0.00    -0.094 A 
ATOM      9  C9  DEN d   1       5.398   3.293   0.517  0.00  0.00    -0.072 A 
ENDROOT
TORSDOF 0
ENDMDL
