MODEL 1
REMARK minimizedAffinity 11.8219738
REMARK minimizedRMSD -1
REMARK  0 active torsions:
REMARK  status: ('A' for Active; 'I' for Inactive)
ROOT
ATOM      1  C1  DEN d   1       5.986   0.355   2.188  0.00  0.00     0.130 A 
ATOM      2  C2  DEN d   1       5.327   0.473   3.486  0.00  0.00    -0.031 A 
ATOM      3  C3  DEN d   1       4.536   1.719   3.485  0.00  0.00     0.027 A 
ATOM      4  C4  DEN d   1       4.265   3.468   1.608  0.00  0.00     0.027 A 
ATOM      5  C5  DEN d   1       4.641   3.806   0.327  0.00  0.00    -0.003 A 
ATOM      6  C6  DEN d   1       5.511   3.043  -0.405  0.00  0.00     0.001 A 
ATOM      7  C7  DEN d   1       6.000   1.877   0.122  0.00  0.00     0.017 A 
ATOM      8  C8  DEN d   1       5.631   1.532   1.416  0.00  0.00    -0.094 A 
ATOM      9  C9  DEN d   1       4.741   2.311   2.135  0.00  0.00    -0.072 A 
ENDROOT
TORSDOF 0
ENDMDL
