MODEL 1
REMARK minimizedAffinity 9.79282951
REMARK minimizedRMSD -1
REMARK  0 active torsions:
REMARK  status: ('A' for Active; 'I' for Inactive)
ROOT
ATOM      1  C1  DEN d   1      -1.965  -1.145   2.820  0.00  0.00     0.130 A 
ATOM      2  C2  DEN d   1      -1.977  -2.234   3.793  0.00  0.00    -0.031 A 
ATOM      3  C3  DEN d   1      -1.900  -3.509   3.053  0.00  0.00     0.027 A 
ATOM      4  C4  DEN d   1      -1.757  -3.901   0.507  0.00  0.00     0.027 A 
ATOM      5  C5  DEN d   1      -1.727  -3.284  -0.724  0.00  0.00    -0.003 A 
ATOM      6  C6  DEN d   1      -1.808  -1.923  -0.860  0.00  0.00     0.001 A 
ATOM      7  C7  DEN d   1      -1.877  -1.132   0.256  0.00  0.00     0.017 A 
ATOM      8  C8  DEN d   1      -1.915  -1.747   1.500  0.00  0.00    -0.094 A 
ATOM      9  C9  DEN d   1      -1.820  -3.124   1.618  0.00  0.00    -0.072 A 
ENDROOT
TORSDOF 0
ENDMDL
