MODEL 1
REMARK minimizedAffinity 4.16002131
REMARK minimizedRMSD -1
REMARK  0 active torsions:
REMARK  status: ('A' for Active; 'I' for Inactive)
ROOT
ATOM      1  C1  DEN d   1      -2.923  -1.368   0.030  0.00  0.00     0.130 A 
ATOM      2  C2  DEN d   1      -1.987  -1.377  -1.091  0.00  0.00    -0.031 A 
ATOM      3  C3  DEN d   1      -0.942  -2.381  -0.805  0.00  0.00     0.027 A 
ATOM      4  C4  DEN d   1      -0.688  -3.918   1.250  0.00  0.00     0.027 A 
ATOM      5  C5  DEN d   1      -1.232  -4.265   2.467  0.00  0.00    -0.003 A 
ATOM      6  C6  DEN d   1      -2.349  -3.651   2.968  0.00  0.00     0.001 A 
ATOM      7  C7  DEN d   1      -2.985  -2.689   2.229  0.00  0.00     0.017 A 
ATOM      8  C8  DEN d   1      -2.438  -2.330   1.004  0.00  0.00    -0.094 A 
ATOM      9  C9  DEN d   1      -1.315  -2.970   0.509  0.00  0.00    -0.072 A 
ENDROOT
TORSDOF 0
ENDMDL
