MODEL 1
REMARK minimizedAffinity 16.047905
REMARK minimizedRMSD -1
REMARK  0 active torsions:
REMARK  status: ('A' for Active; 'I' for Inactive)
ROOT
ATOM      1  C1  DEN d   1      -4.107   2.087   5.960  0.00  0.00     0.130 A 
ATOM      2  C2  DEN d   1      -5.556   1.911   5.997  0.00  0.00    -0.031 A 
ATOM      3  C3  DEN d   1      -5.846   0.473   5.824  0.00  0.00     0.027 A 
ATOM      4  C4  DEN d   1      -4.199  -1.488   5.511  0.00  0.00     0.027 A 
ATOM      5  C5  DEN d   1      -2.870  -1.831   5.402  0.00  0.00    -0.003 A 
ATOM      6  C6  DEN d   1      -1.869  -0.896   5.437  0.00  0.00     0.001 A 
ATOM      7  C7  DEN d   1      -2.180   0.424   5.630  0.00  0.00     0.017 A 
ATOM      8  C8  DEN d   1      -3.519   0.779   5.733  0.00  0.00    -0.094 A 
ATOM      9  C9  DEN d   1      -4.515  -0.183   5.708  0.00  0.00    -0.072 A 
ENDROOT
TORSDOF 0
ENDMDL
