MODEL 1
REMARK minimizedAffinity 11.2135725
REMARK minimizedRMSD -1
REMARK  0 active torsions:
REMARK  status: ('A' for Active; 'I' for Inactive)
ROOT
ATOM      1  C1  DEN d   1      -0.697  -4.746   0.757  0.00  0.00     0.130 A 
ATOM      2  C2  DEN d   1      -0.052  -5.088  -0.508  0.00  0.00    -0.031 A 
ATOM      3  C3  DEN d   1      -0.321  -3.999  -1.467  0.00  0.00     0.027 A 
ATOM      4  C4  DEN d   1      -1.661  -1.823  -1.118  0.00  0.00     0.027 A 
ATOM      5  C5  DEN d   1      -2.405  -1.095  -0.215  0.00  0.00    -0.003 A 
ATOM      6  C6  DEN d   1      -2.658  -1.546   1.054  0.00  0.00     0.001 A 
ATOM      7  C7  DEN d   1      -2.125  -2.737   1.470  0.00  0.00     0.017 A 
ATOM      8  C8  DEN d   1      -1.380  -3.479   0.563  0.00  0.00    -0.094 A 
ATOM      9  C9  DEN d   1      -1.125  -3.001  -0.711  0.00  0.00    -0.072 A 
ENDROOT
TORSDOF 0
ENDMDL
