MODEL 1
REMARK minimizedAffinity -0.692678392
REMARK minimizedRMSD -1
REMARK  1 active torsions:
REMARK  status: ('A' for Active; 'I' for Inactive)
REMARK    1  A    between atoms: C1_2  and  C2_3 
ROOT
ATOM      1  C2  UNL d   1       4.234   2.478  -0.455  0.00  0.00    -0.081 A 
ATOM      2  C3  UNL d   1       4.503   1.305   0.261  0.00  0.00     0.006 A 
ATOM      3  C4  UNL d   1       3.625   0.864   1.253  0.00  0.00     0.002 A 
ATOM      4  C5  UNL d   1       2.460   1.582   1.541  0.00  0.00    -0.080 A 
ATOM      5  C6  UNL d   1       1.493   1.103   2.583  0.00  0.00     0.076 C 
ATOM      6  C7  UNL d   1       2.199   2.763   0.838  0.00  0.00     0.002 A 
ATOM      7  C8  UNL d   1       3.077   3.206  -0.154  0.00  0.00     0.006 A 
ENDROOT
BRANCH   1   8
ATOM      8  C1  UNL d   1       5.146   2.922  -1.570  0.00  0.00     0.054 C 
ATOM      9  C   UNL d   1       5.994   1.768  -2.084  0.00  0.00     0.018 C 
ENDBRANCH   1   8
TORSDOF 1
ENDMDL
