MODEL 1
REMARK minimizedAffinity 9.06095982
REMARK minimizedRMSD -1
REMARK  1 active torsions:
REMARK  status: ('A' for Active; 'I' for Inactive)
REMARK    1  A    between atoms: C1_2  and  C2_3 
ROOT
ATOM      1  C2  UNL d   1      -1.884  -1.491  -1.127  0.00  0.00    -0.081 A 
ATOM      2  C3  UNL d   1      -0.666  -1.897  -0.569  0.00  0.00     0.006 A 
ATOM      3  C4  UNL d   1      -0.477  -1.871   0.814  0.00  0.00     0.002 A 
ATOM      4  C5  UNL d   1      -1.504  -1.445   1.663  0.00  0.00    -0.080 A 
ATOM      5  C6  UNL d   1      -1.324  -1.440   3.152  0.00  0.00     0.076 C 
ATOM      6  C7  UNL d   1      -2.715  -1.022   1.105  0.00  0.00     0.002 A 
ATOM      7  C8  UNL d   1      -2.905  -1.048  -0.278  0.00  0.00     0.006 A 
ENDROOT
BRANCH   1   8
ATOM      8  C1  UNL d   1      -2.114  -1.580  -2.614  0.00  0.00     0.054 C 
ATOM      9  C   UNL d   1      -2.207  -3.028  -3.074  0.00  0.00     0.018 C 
ENDBRANCH   1   8
TORSDOF 1
ENDMDL
