MODEL 1
REMARK minimizedAffinity 2.51153517
REMARK minimizedRMSD -1
REMARK  1 active torsions:
REMARK  status: ('A' for Active; 'I' for Inactive)
REMARK    1  A    between atoms: C1_2  and  C2_3 
ROOT
ATOM      1  C2  UNL d   1      -2.204  -2.088  -2.105  0.00  0.00    -0.081 A 
ATOM      2  C3  UNL d   1      -2.959  -3.261  -2.227  0.00  0.00     0.006 A 
ATOM      3  C4  UNL d   1      -3.226  -3.803  -3.487  0.00  0.00     0.002 A 
ATOM      4  C5  UNL d   1      -2.737  -3.186  -4.643  0.00  0.00    -0.080 A 
ATOM      5  C6  UNL d   1      -2.990  -3.774  -6.000  0.00  0.00     0.076 C 
ATOM      6  C7  UNL d   1      -1.998  -2.004  -4.522  0.00  0.00     0.002 A 
ATOM      7  C8  UNL d   1      -1.731  -1.462  -3.263  0.00  0.00     0.006 A 
ENDROOT
BRANCH   1   8
ATOM      8  C1  UNL d   1      -1.860  -1.537  -0.744  0.00  0.00     0.054 C 
ATOM      9  C   UNL d   1      -0.423  -1.863  -0.363  0.00  0.00     0.018 C 
ENDBRANCH   1   8
TORSDOF 1
ENDMDL
