MODEL 1
REMARK minimizedAffinity 7.02027369
REMARK minimizedRMSD -1
REMARK  1 active torsions:
REMARK  status: ('A' for Active; 'I' for Inactive)
REMARK    1  A    between atoms: C1_2  and  C2_3 
ROOT
ATOM      1  C2  UNL d   1      -1.252  -2.130   1.342  0.00  0.00    -0.081 A 
ATOM      2  C3  UNL d   1      -0.175  -2.511   0.533  0.00  0.00     0.006 A 
ATOM      3  C4  UNL d   1      -0.344  -2.662  -0.846  0.00  0.00     0.002 A 
ATOM      4  C5  UNL d   1      -1.590  -2.428  -1.438  0.00  0.00    -0.080 A 
ATOM      5  C6  UNL d   1      -1.778  -2.558  -2.920  0.00  0.00     0.076 C 
ATOM      6  C7  UNL d   1      -2.670  -2.065  -0.627  0.00  0.00     0.002 A 
ATOM      7  C8  UNL d   1      -2.502  -1.914   0.752  0.00  0.00     0.006 A 
ENDROOT
BRANCH   1   8
ATOM      8  C1  UNL d   1      -1.057  -1.903   2.820  0.00  0.00     0.054 C 
ATOM      9  C   UNL d   1      -2.377  -1.589   3.510  0.00  0.00     0.018 C 
ENDBRANCH   1   8
TORSDOF 1
ENDMDL
