MODEL 1
REMARK minimizedAffinity 9.63049793
REMARK minimizedRMSD -1
REMARK  1 active torsions:
REMARK  status: ('A' for Active; 'I' for Inactive)
REMARK    1  A    between atoms: C1_2  and  C2_3 
ROOT
ATOM      1  C2  UNL d   1      -1.557  -2.000   2.342  0.00  0.00    -0.081 A 
ATOM      2  C3  UNL d   1      -1.705  -3.244   2.968  0.00  0.00     0.006 A 
ATOM      3  C4  UNL d   1      -1.178  -4.398   2.383  0.00  0.00     0.002 A 
ATOM      4  C5  UNL d   1      -0.489  -4.327   1.167  0.00  0.00    -0.080 A 
ATOM      5  C6  UNL d   1       0.107  -5.554   0.544  0.00  0.00     0.076 C 
ATOM      6  C7  UNL d   1      -0.357  -3.087   0.533  0.00  0.00     0.002 A 
ATOM      7  C8  UNL d   1      -0.884  -1.933   1.117  0.00  0.00     0.006 A 
ENDROOT
BRANCH   1   8
ATOM      8  C1  UNL d   1      -2.067  -0.745   3.002  0.00  0.00     0.054 C 
ATOM      9  C   UNL d   1      -2.922  -1.068   4.218  0.00  0.00     0.018 C 
ENDBRANCH   1   8
TORSDOF 1
ENDMDL
