MODEL 1
REMARK minimizedAffinity 21.6028843
REMARK minimizedRMSD -1
REMARK  1 active torsions:
REMARK  status: ('A' for Active; 'I' for Inactive)
REMARK    1  A    between atoms: C1_2  and  C2_3 
ROOT
ATOM      1  C2  UNL d   1       1.024  -0.187   1.918  0.00  0.00    -0.081 A 
ATOM      2  C3  UNL d   1       0.419  -1.095   1.041  0.00  0.00     0.006 A 
ATOM      3  C4  UNL d   1      -0.671  -1.863   1.458  0.00  0.00     0.002 A 
ATOM      4  C5  UNL d   1      -1.178  -1.730   2.754  0.00  0.00    -0.080 A 
ATOM      5  C6  UNL d   1      -2.367  -2.527   3.205  0.00  0.00     0.076 C 
ATOM      6  C7  UNL d   1      -0.563  -0.835   3.636  0.00  0.00     0.002 A 
ATOM      7  C8  UNL d   1       0.527  -0.068   3.220  0.00  0.00     0.006 A 
ENDROOT
BRANCH   1   8
ATOM      8  C1  UNL d   1       2.158   0.689   1.451  0.00  0.00     0.054 C 
ATOM      9  C   UNL d   1       3.459  -0.095   1.351  0.00  0.00     0.018 C 
ENDBRANCH   1   8
TORSDOF 1
ENDMDL
