MODEL 1
REMARK minimizedAffinity 5.61709976
REMARK minimizedRMSD -1
REMARK  1 active torsions:
REMARK  status: ('A' for Active; 'I' for Inactive)
REMARK    1  A    between atoms: C1_2  and  C2_3 
ROOT
ATOM      1  C2  UNL d   1       3.566   2.764  -4.233  0.00  0.00    -0.081 A 
ATOM      2  C3  UNL d   1       3.894   4.094  -3.943  0.00  0.00     0.006 A 
ATOM      3  C4  UNL d   1       3.176   5.144  -4.521  0.00  0.00     0.002 A 
ATOM      4  C5  UNL d   1       2.113   4.881  -5.392  0.00  0.00    -0.080 A 
ATOM      5  C6  UNL d   1       1.314   5.998  -5.996  0.00  0.00     0.076 C 
ATOM      6  C7  UNL d   1       1.796   3.553  -5.696  0.00  0.00     0.002 A 
ATOM      7  C8  UNL d   1       2.514   2.503  -5.119  0.00  0.00     0.006 A 
ENDROOT
BRANCH   1   8
ATOM      8  C1  UNL d   1       4.296   1.630  -3.561  0.00  0.00     0.054 C 
ATOM      9  C   UNL d   1       4.608   1.957  -2.108  0.00  0.00     0.018 C 
ENDBRANCH   1   8
TORSDOF 1
ENDMDL
