MODEL 1
REMARK minimizedAffinity 0.865466356
REMARK minimizedRMSD -1
REMARK  1 active torsions:
REMARK  status: ('A' for Active; 'I' for Inactive)
REMARK    1  A    between atoms: C1_2  and  C2_3 
ROOT
ATOM      1  C2  UNL d   1      -2.370  -2.928  -1.122  0.00  0.00    -0.081 A 
ATOM      2  C3  UNL d   1      -2.506  -4.016  -1.993  0.00  0.00     0.006 A 
ATOM      3  C4  UNL d   1      -3.644  -4.824  -1.945  0.00  0.00     0.002 A 
ATOM      4  C5  UNL d   1      -4.668  -4.553  -1.032  0.00  0.00    -0.080 A 
ATOM      5  C6  UNL d   1      -5.909  -5.395  -0.990  0.00  0.00     0.076 C 
ATOM      6  C7  UNL d   1      -4.525  -3.477  -0.149  0.00  0.00     0.002 A 
ATOM      7  C8  UNL d   1      -3.387  -2.669  -0.197  0.00  0.00     0.006 A 
ENDROOT
BRANCH   1   8
ATOM      8  C1  UNL d   1      -1.173  -2.016  -1.215  0.00  0.00     0.054 C 
ATOM      9  C   UNL d   1       0.022  -2.594  -0.471  0.00  0.00     0.018 C 
ENDBRANCH   1   8
TORSDOF 1
ENDMDL
