MODEL 1
REMARK minimizedAffinity 6.71102285
REMARK minimizedRMSD -1
REMARK  1 active torsions:
REMARK  status: ('A' for Active; 'I' for Inactive)
REMARK    1  A    between atoms: C1_2  and  C2_3 
ROOT
ATOM      1  C2  UNL d   1      -2.680  -2.192  -1.848  0.00  0.00    -0.081 A 
ATOM      2  C3  UNL d   1      -1.585  -2.056  -2.710  0.00  0.00     0.006 A 
ATOM      3  C4  UNL d   1      -1.688  -2.433  -4.051  0.00  0.00     0.002 A 
ATOM      4  C5  UNL d   1      -2.888  -2.946  -4.554  0.00  0.00    -0.080 A 
ATOM      5  C6  UNL d   1      -3.021  -3.327  -5.998  0.00  0.00     0.076 C 
ATOM      6  C7  UNL d   1      -3.977  -3.099  -3.689  0.00  0.00     0.002 A 
ATOM      7  C8  UNL d   1      -3.875  -2.722  -2.348  0.00  0.00     0.006 A 
ENDROOT
BRANCH   1   8
ATOM      8  C1  UNL d   1      -2.592  -1.726  -0.417  0.00  0.00     0.054 C 
ATOM      9  C   UNL d   1      -1.225  -2.029   0.181  0.00  0.00     0.018 C 
ENDBRANCH   1   8
TORSDOF 1
ENDMDL
