MODEL 1
REMARK minimizedAffinity 14.279335
REMARK minimizedRMSD -1
REMARK  1 active torsions:
REMARK  status: ('A' for Active; 'I' for Inactive)
REMARK    1  A    between atoms: C1_2  and  C2_3 
ROOT
ATOM      1  C2  UNL d   1       1.418   0.763   2.236  0.00  0.00    -0.081 A 
ATOM      2  C3  UNL d   1       1.168   2.100   1.903  0.00  0.00     0.006 A 
ATOM      3  C4  UNL d   1       2.072   2.815   1.114  0.00  0.00     0.002 A 
ATOM      4  C5  UNL d   1       3.238   2.204   0.639  0.00  0.00    -0.080 A 
ATOM      5  C6  UNL d   1       4.202   2.951  -0.233  0.00  0.00     0.076 C 
ATOM      6  C7  UNL d   1       3.497   0.873   0.987  0.00  0.00     0.002 A 
ATOM      7  C8  UNL d   1       2.593   0.158   1.776  0.00  0.00     0.006 A 
ENDROOT
BRANCH   1   8
ATOM      8  C1  UNL d   1       0.414  -0.030   3.032  0.00  0.00     0.054 C 
ATOM      9  C   UNL d   1       0.293   0.499   4.454  0.00  0.00     0.018 C 
ENDBRANCH   1   8
TORSDOF 1
ENDMDL
