MODEL 1
REMARK minimizedAffinity 1.89925182
REMARK minimizedRMSD -1
REMARK  0 active torsions:
REMARK  status: ('A' for Active; 'I' for Inactive)
ROOT
ATOM      1  C   UNL d   1      -1.049   2.854   1.903  0.00  0.00     0.172 C 
ATOM      2  N   UNL d   1      -1.025   2.308   0.567  0.00  0.00    -0.070 N 
ATOM      3  C1  UNL d   1       0.092   2.143  -0.208  0.00  0.00    -0.004 A 
ATOM      4  C2  UNL d   1      -0.305   1.595  -1.409  0.00  0.00    -0.047 A 
ATOM      5  C3  UNL d   1      -1.709   1.425  -1.354  0.00  0.00    -0.047 A 
ATOM      6  C4  UNL d   1      -2.128   1.875  -0.120  0.00  0.00    -0.004 A 
ENDROOT
TORSDOF 0
ENDMDL
