MODEL 1
REMARK minimizedAffinity -2.64932299
REMARK minimizedRMSD -1
REMARK  0 active torsions:
REMARK  status: ('A' for Active; 'I' for Inactive)
ROOT
ATOM      1  C   UNL d   1      -0.857   2.495  -0.596  0.00  0.00     0.172 C 
ATOM      2  N   UNL d   1      -0.315   1.313   0.033  0.00  0.00    -0.070 N 
ATOM      3  C1  UNL d   1      -0.446   0.980   1.355  0.00  0.00    -0.004 A 
ATOM      4  C2  UNL d   1       0.210  -0.215   1.556  0.00  0.00    -0.047 A 
ATOM      5  C3  UNL d   1       0.755  -0.614   0.313  0.00  0.00    -0.047 A 
ATOM      6  C4  UNL d   1       0.416   0.351  -0.613  0.00  0.00    -0.004 A 
ENDROOT
TORSDOF 0
ENDMDL
