MODEL 1
REMARK minimizedAffinity -0.919852197
REMARK minimizedRMSD -1
REMARK  0 active torsions:
REMARK  status: ('A' for Active; 'I' for Inactive)
ROOT
ATOM      1  C   UNL d   1       0.080  -0.352   1.777  0.00  0.00     0.172 C 
ATOM      2  N   UNL d   1      -0.614   0.816   1.288  0.00  0.00    -0.070 N 
ATOM      3  C1  UNL d   1      -1.007   1.886   2.046  0.00  0.00    -0.004 A 
ATOM      4  C2  UNL d   1      -1.633   2.787   1.212  0.00  0.00    -0.047 A 
ATOM      5  C3  UNL d   1      -1.617   2.238  -0.092  0.00  0.00    -0.047 A 
ATOM      6  C4  UNL d   1      -0.980   1.018  -0.016  0.00  0.00    -0.004 A 
ENDROOT
TORSDOF 0
ENDMDL
