MODEL 1
REMARK minimizedAffinity -0.715117395
REMARK minimizedRMSD -1
REMARK  0 active torsions:
REMARK  status: ('A' for Active; 'I' for Inactive)
ROOT
ATOM      1  C   UNL d   1       0.588  -0.721   2.010  0.00  0.00     0.172 C 
ATOM      2  N   UNL d   1      -0.240   0.443   1.801  0.00  0.00    -0.070 N 
ATOM      3  C1  UNL d   1      -0.555   1.379   2.750  0.00  0.00    -0.004 A 
ATOM      4  C2  UNL d   1      -1.361   2.326   2.156  0.00  0.00    -0.047 A 
ATOM      5  C3  UNL d   1      -1.537   1.946   0.804  0.00  0.00    -0.047 A 
ATOM      6  C4  UNL d   1      -0.832   0.777   0.612  0.00  0.00    -0.004 A 
ENDROOT
TORSDOF 0
ENDMDL
