MODEL 1
REMARK minimizedAffinity -3.0882957
REMARK minimizedRMSD -1
REMARK  0 active torsions:
REMARK  status: ('A' for Active; 'I' for Inactive)
ROOT
ATOM      1  C   UNL d   1      -1.819   1.612   1.529  0.00  0.00     0.172 C 
ATOM      2  N   UNL d   1      -0.961   0.535   1.093  0.00  0.00    -0.070 N 
ATOM      3  C1  UNL d   1      -0.417  -0.428   1.900  0.00  0.00    -0.004 A 
ATOM      4  C2  UNL d   1       0.335  -1.267   1.108  0.00  0.00    -0.047 A 
ATOM      5  C3  UNL d   1       0.240  -0.791  -0.222  0.00  0.00    -0.047 A 
ATOM      6  C4  UNL d   1      -0.568   0.325  -0.202  0.00  0.00    -0.004 A 
ENDROOT
TORSDOF 0
ENDMDL
