MODEL 1
REMARK minimizedAffinity -2.78730011
REMARK minimizedRMSD -1
REMARK  0 active torsions:
REMARK  status: ('A' for Active; 'I' for Inactive)
ROOT
ATOM      1  C   UNL d   1      -1.825   1.650   1.705  0.00  0.00     0.172 C 
ATOM      2  N   UNL d   1      -1.167   0.789   0.750  0.00  0.00    -0.070 N 
ATOM      3  C1  UNL d   1      -1.470  -0.527   0.520  0.00  0.00    -0.004 A 
ATOM      4  C2  UNL d   1      -0.620  -0.991  -0.460  0.00  0.00    -0.047 A 
ATOM      5  C3  UNL d   1       0.225   0.083  -0.831  0.00  0.00    -0.047 A 
ATOM      6  C4  UNL d   1      -0.136   1.172  -0.066  0.00  0.00    -0.004 A 
ENDROOT
TORSDOF 0
ENDMDL
