MODEL 1
REMARK minimizedAffinity -3.213485
REMARK minimizedRMSD -1
REMARK  0 active torsions:
REMARK  status: ('A' for Active; 'I' for Inactive)
ROOT
ATOM      1  C   UNL d   1      -2.077   1.971   1.235  0.00  0.00     0.172 C 
ATOM      2  N   UNL d   1      -1.037   1.154   0.656  0.00  0.00    -0.070 N 
ATOM      3  C1  UNL d   1      -0.462   1.346  -0.572  0.00  0.00    -0.004 A 
ATOM      4  C2  UNL d   1       0.484   0.360  -0.754  0.00  0.00    -0.047 A 
ATOM      5  C3  UNL d   1       0.476  -0.453   0.405  0.00  0.00    -0.047 A 
ATOM      6  C4  UNL d   1      -0.474   0.061   1.261  0.00  0.00    -0.004 A 
ENDROOT
TORSDOF 0
ENDMDL
