MODEL 1
REMARK minimizedAffinity -3.4603951
REMARK minimizedRMSD -1
REMARK  0 active torsions:
REMARK  status: ('A' for Active; 'I' for Inactive)
ROOT
ATOM      1  C   UNL d   1      -1.641   1.667   0.973  0.00  0.00     0.172 C 
ATOM      2  N   UNL d   1      -0.647   0.845   0.325  0.00  0.00    -0.070 N 
ATOM      3  C1  UNL d   1      -0.145  -0.333   0.810  0.00  0.00    -0.004 A 
ATOM      4  C2  UNL d   1       0.776  -0.806  -0.099  0.00  0.00    -0.047 A 
ATOM      5  C3  UNL d   1       0.831   0.120  -1.168  0.00  0.00    -0.047 A 
ATOM      6  C4  UNL d   1      -0.060   1.132  -0.880  0.00  0.00    -0.004 A 
ENDROOT
TORSDOF 0
ENDMDL
