MODEL 1
REMARK minimizedAffinity -3.11011624
REMARK minimizedRMSD -1
REMARK  0 active torsions:
REMARK  status: ('A' for Active; 'I' for Inactive)
ROOT
ATOM      1  C   UNL d   1       0.140  -0.873   1.229  0.00  0.00     0.172 C 
ATOM      2  N   UNL d   1      -0.606   0.363   1.204  0.00  0.00    -0.070 N 
ATOM      3  C1  UNL d   1      -1.110   0.970   0.085  0.00  0.00    -0.004 A 
ATOM      4  C2  UNL d   1      -1.753   2.122   0.483  0.00  0.00    -0.047 A 
ATOM      5  C3  UNL d   1      -1.630   2.212   1.890  0.00  0.00    -0.047 A 
ATOM      6  C4  UNL d   1      -0.915   1.110   2.310  0.00  0.00    -0.004 A 
ENDROOT
TORSDOF 0
ENDMDL
