MODEL 1
REMARK minimizedAffinity -3.7274797
REMARK minimizedRMSD -1
REMARK  0 active torsions:
REMARK  status: ('A' for Active; 'I' for Inactive)
ROOT
ATOM      1  C   UNL d   1       0.054   1.626   4.298  0.00  0.00     0.172 C 
ATOM      2  N   UNL d   1      -0.473   1.156   3.038  0.00  0.00    -0.070 N 
ATOM      3  C1  UNL d   1      -1.295   1.864   2.203  0.00  0.00    -0.004 A 
ATOM      4  C2  UNL d   1      -1.573   1.070   1.111  0.00  0.00    -0.047 A 
ATOM      5  C3  UNL d   1      -0.895  -0.158   1.297  0.00  0.00    -0.047 A 
ATOM      6  C4  UNL d   1      -0.222  -0.078   2.498  0.00  0.00    -0.004 A 
ENDROOT
TORSDOF 0
ENDMDL
