MODEL 1
REMARK minimizedAffinity -3.2030108
REMARK minimizedRMSD -1
REMARK  0 active torsions:
REMARK  status: ('A' for Active; 'I' for Inactive)
ROOT
ATOM      1  C   UNL d   1      -0.097   0.327  -0.653  0.00  0.00     0.172 C 
ATOM      2  N   UNL d   1       0.438  -0.896  -1.202  0.00  0.00    -0.070 N 
ATOM      3  C1  UNL d   1      -0.224  -1.752  -2.041  0.00  0.00    -0.004 A 
ATOM      4  C2  UNL d   1       0.626  -2.795  -2.337  0.00  0.00    -0.047 A 
ATOM      5  C3  UNL d   1       1.842  -2.558  -1.652  0.00  0.00    -0.047 A 
ATOM      6  C4  UNL d   1       1.698  -1.376  -0.957  0.00  0.00    -0.004 A 
ENDROOT
TORSDOF 0
ENDMDL
