MODEL 1
REMARK minimizedAffinity -3.77558541
REMARK minimizedRMSD -1
REMARK  0 active torsions:
REMARK  status: ('A' for Active; 'I' for Inactive)
ROOT
ATOM      1  C   UNL d   1       0.686  -0.005  -0.708  0.00  0.00     0.172 C 
ATOM      2  N   UNL d   1      -0.266   0.640   0.164  0.00  0.00    -0.070 N 
ATOM      3  C1  UNL d   1      -1.065   1.701  -0.171  0.00  0.00    -0.004 A 
ATOM      4  C2  UNL d   1      -1.828   2.019   0.932  0.00  0.00    -0.047 A 
ATOM      5  C3  UNL d   1      -1.474   1.120   1.966  0.00  0.00    -0.047 A 
ATOM      6  C4  UNL d   1      -0.506   0.277   1.464  0.00  0.00    -0.004 A 
ENDROOT
TORSDOF 0
ENDMDL
