MODEL 1
REMARK minimizedAffinity -3.27722573
REMARK minimizedRMSD -1
REMARK  0 active torsions:
REMARK  status: ('A' for Active; 'I' for Inactive)
ROOT
ATOM      1  C   UNL d   1       1.203  -0.727  -0.731  0.00  0.00     0.172 C 
ATOM      2  N   UNL d   1       1.052  -2.071  -1.235  0.00  0.00    -0.070 N 
ATOM      3  C1  UNL d   1       0.419  -2.422  -2.398  0.00  0.00    -0.004 A 
ATOM      4  C2  UNL d   1       0.490  -3.792  -2.521  0.00  0.00    -0.047 A 
ATOM      5  C3  UNL d   1       1.189  -4.283  -1.392  0.00  0.00    -0.047 A 
ATOM      6  C4  UNL d   1       1.525  -3.196  -0.613  0.00  0.00    -0.004 A 
ENDROOT
TORSDOF 0
ENDMDL
