MODEL 1
REMARK minimizedAffinity -3.75215387
REMARK minimizedRMSD -1
REMARK  0 active torsions:
REMARK  status: ('A' for Active; 'I' for Inactive)
ROOT
ATOM      1  C   UNL d   1      -0.126  -0.779   1.995  0.00  0.00     0.172 C 
ATOM      2  N   UNL d   1      -0.788   0.445   1.607  0.00  0.00    -0.070 N 
ATOM      3  C1  UNL d   1      -1.047   0.839   0.321  0.00  0.00    -0.004 A 
ATOM      4  C2  UNL d   1      -1.689   2.057   0.375  0.00  0.00    -0.047 A 
ATOM      5  C3  UNL d   1      -1.821   2.407   1.740  0.00  0.00    -0.047 A 
ATOM      6  C4  UNL d   1      -1.254   1.391   2.481  0.00  0.00    -0.004 A 
ENDROOT
TORSDOF 0
ENDMDL
