MODEL 1
REMARK minimizedAffinity -3.91814876
REMARK minimizedRMSD -1
REMARK  0 active torsions:
REMARK  status: ('A' for Active; 'I' for Inactive)
ROOT
ATOM      1  C   UNL d   1       0.662  -0.779  -0.460  0.00  0.00     0.172 C 
ATOM      2  N   UNL d   1      -0.182  -0.015   0.429  0.00  0.00    -0.070 N 
ATOM      3  C1  UNL d   1      -0.371  -0.265   1.762  0.00  0.00    -0.004 A 
ATOM      4  C2  UNL d   1      -1.242   0.685   2.250  0.00  0.00    -0.047 A 
ATOM      5  C3  UNL d   1      -1.588   1.535   1.173  0.00  0.00    -0.047 A 
ATOM      6  C4  UNL d   1      -0.918   1.079   0.058  0.00  0.00    -0.004 A 
ENDROOT
TORSDOF 0
ENDMDL
