MODEL 1
REMARK minimizedAffinity -3.7557826
REMARK minimizedRMSD -1
REMARK  0 active torsions:
REMARK  status: ('A' for Active; 'I' for Inactive)
ROOT
ATOM      1  C   UNL d   1       0.673  -0.773  -0.577  0.00  0.00     0.172 C 
ATOM      2  N   UNL d   1      -0.270   0.025   0.171  0.00  0.00    -0.070 N 
ATOM      3  C1  UNL d   1      -0.663  -0.205   1.462  0.00  0.00    -0.004 A 
ATOM      4  C2  UNL d   1      -1.568   0.775   1.809  0.00  0.00    -0.047 A 
ATOM      5  C3  UNL d   1      -1.725   1.622   0.687  0.00  0.00    -0.047 A 
ATOM      6  C4  UNL d   1      -0.910   1.135  -0.313  0.00  0.00    -0.004 A 
ENDROOT
TORSDOF 0
ENDMDL
