MODEL 1
REMARK minimizedAffinity -1.33689785
REMARK minimizedRMSD -1
REMARK  0 active torsions:
REMARK  status: ('A' for Active; 'I' for Inactive)
ROOT
ATOM      1  C   UNL d   1       0.756  -0.466  -0.912  0.00  0.00     0.172 C 
ATOM      2  N   UNL d   1       0.809  -1.819  -1.414  0.00  0.00    -0.070 N 
ATOM      3  C1  UNL d   1       0.345  -2.237  -2.633  0.00  0.00    -0.004 A 
ATOM      4  C2  UNL d   1       0.580  -3.591  -2.732  0.00  0.00    -0.047 A 
ATOM      5  C3  UNL d   1       1.207  -4.002  -1.532  0.00  0.00    -0.047 A 
ATOM      6  C4  UNL d   1       1.336  -2.885  -0.733  0.00  0.00    -0.004 A 
ENDROOT
TORSDOF 0
ENDMDL
