MODEL 1
REMARK minimizedAffinity 10.9919081
REMARK minimizedRMSD -1
REMARK  2 active torsions:
REMARK  status: ('A' for Active; 'I' for Inactive)
REMARK    1  A    between atoms: C1_2  and  C2_3 
REMARK    2  A    between atoms: C2_3  and  C3_4 
ROOT
ATOM      1  C3  UNL d   1       4.987  -3.586   5.195  0.00  0.00    -0.075 A 
ATOM      2  C4  UNL d   1       4.317  -2.611   5.948  0.00  0.00     0.002 A 
ATOM      3  C5  UNL d   1       3.465  -1.697   5.327  0.00  0.00     0.002 A 
ATOM      4  C6  UNL d   1       3.281  -1.739   3.947  0.00  0.00    -0.004 A 
ATOM      5  C7  UNL d   1       3.954  -2.693   3.186  0.00  0.00     0.002 A 
ATOM      6  C8  UNL d   1       4.803  -3.612   3.806  0.00  0.00     0.002 A 
ENDROOT
BRANCH   1   7
ATOM      7  C2  UNL d   1       5.887  -4.596   5.865  0.00  0.00     0.056 C 
BRANCH   7   8
ATOM      8  C1  UNL d   1       5.276  -5.997   5.979  0.00  0.00     0.007 C 
ATOM      9  C   UNL d   1       3.753  -5.989   5.983  0.00  0.00     0.009 C 
ENDBRANCH   7   8
ENDBRANCH   1   7
TORSDOF 2
ENDMDL
