MODEL 1
REMARK minimizedAffinity 11.0504379
REMARK minimizedRMSD -1
REMARK  2 active torsions:
REMARK  status: ('A' for Active; 'I' for Inactive)
REMARK    1  A    between atoms: C1_2  and  C2_3 
REMARK    2  A    between atoms: C2_3  and  C3_4 
ROOT
ATOM      1  C3  UNL d   1       3.950  -3.874   2.410  0.00  0.00    -0.075 A 
ATOM      2  C4  UNL d   1       4.784  -4.132   1.312  0.00  0.00     0.002 A 
ATOM      3  C5  UNL d   1       4.384  -3.785   0.022  0.00  0.00     0.002 A 
ATOM      4  C6  UNL d   1       3.144  -3.187  -0.189  0.00  0.00    -0.004 A 
ATOM      5  C7  UNL d   1       2.300  -2.942   0.892  0.00  0.00     0.002 A 
ATOM      6  C8  UNL d   1       2.699  -3.284   2.185  0.00  0.00     0.002 A 
ENDROOT
BRANCH   1   7
ATOM      7  C2  UNL d   1       4.390  -4.220   3.812  0.00  0.00     0.056 C 
BRANCH   7   8
ATOM      8  C1  UNL d   1       4.264  -3.063   4.809  0.00  0.00     0.007 C 
ATOM      9  C   UNL d   1       5.571  -2.739   5.520  0.00  0.00     0.009 C 
ENDBRANCH   7   8
ENDBRANCH   1   7
TORSDOF 2
ENDMDL
