MODEL 1
REMARK minimizedAffinity 9.99119091
REMARK minimizedRMSD -1
REMARK  2 active torsions:
REMARK  status: ('A' for Active; 'I' for Inactive)
REMARK    1  A    between atoms: C1_2  and  C2_3 
REMARK    2  A    between atoms: C2_3  and  C3_4 
ROOT
ATOM      1  C3  UNL d   1       4.287  -3.362   0.768  0.00  0.00    -0.075 A 
ATOM      2  C4  UNL d   1       3.276  -4.239   0.351  0.00  0.00     0.002 A 
ATOM      3  C5  UNL d   1       1.934  -3.937   0.587  0.00  0.00     0.002 A 
ATOM      4  C6  UNL d   1       1.588  -2.761   1.249  0.00  0.00    -0.004 A 
ATOM      5  C7  UNL d   1       2.585  -1.890   1.682  0.00  0.00     0.002 A 
ATOM      6  C8  UNL d   1       3.928  -2.188   1.444  0.00  0.00     0.002 A 
ENDROOT
BRANCH   1   7
ATOM      7  C2  UNL d   1       5.739  -3.669   0.491  0.00  0.00     0.056 C 
BRANCH   7   8
ATOM      8  C1  UNL d   1       5.973  -4.468  -0.796  0.00  0.00     0.007 C 
ATOM      9  C   UNL d   1       5.880  -5.974  -0.592  0.00  0.00     0.009 C 
ENDBRANCH   7   8
ENDBRANCH   1   7
TORSDOF 2
ENDMDL
