MODEL 1
REMARK minimizedAffinity 9.29311848
REMARK minimizedRMSD -1
REMARK  2 active torsions:
REMARK  status: ('A' for Active; 'I' for Inactive)
REMARK    1  A    between atoms: C1_2  and  C2_3 
REMARK    2  A    between atoms: C2_3  and  C3_4 
ROOT
ATOM      1  C3  UNL d   1       3.306  -2.246   2.813  0.00  0.00    -0.075 A 
ATOM      2  C4  UNL d   1       2.139  -1.498   3.028  0.00  0.00     0.002 A 
ATOM      3  C5  UNL d   1       1.086  -1.550   2.115  0.00  0.00     0.002 A 
ATOM      4  C6  UNL d   1       1.189  -2.340   0.972  0.00  0.00    -0.004 A 
ATOM      5  C7  UNL d   1       2.350  -3.074   0.739  0.00  0.00     0.002 A 
ATOM      6  C8  UNL d   1       3.404  -3.028   1.654  0.00  0.00     0.002 A 
ENDROOT
BRANCH   1   7
ATOM      7  C2  UNL d   1       4.438  -2.218   3.812  0.00  0.00     0.056 C 
BRANCH   7   8
ATOM      8  C1  UNL d   1       3.981  -2.278   5.274  0.00  0.00     0.007 C 
ATOM      9  C   UNL d   1       4.386  -3.567   5.977  0.00  0.00     0.009 C 
ENDBRANCH   7   8
ENDBRANCH   1   7
TORSDOF 2
ENDMDL
