MODEL 1
REMARK minimizedAffinity 7.67531395
REMARK minimizedRMSD -1
REMARK  2 active torsions:
REMARK  status: ('A' for Active; 'I' for Inactive)
REMARK    1  A    between atoms: C1_2  and  C2_3 
REMARK    2  A    between atoms: C2_3  and  C3_4 
ROOT
ATOM      1  C3  UNL d   1       3.368  -2.888   2.624  0.00  0.00    -0.075 A 
ATOM      2  C4  UNL d   1       3.338  -3.356   1.302  0.00  0.00     0.002 A 
ATOM      3  C5  UNL d   1       2.405  -2.855   0.394  0.00  0.00     0.002 A 
ATOM      4  C6  UNL d   1       1.485  -1.890   0.797  0.00  0.00    -0.004 A 
ATOM      5  C7  UNL d   1       1.495  -1.429   2.111  0.00  0.00     0.002 A 
ATOM      6  C8  UNL d   1       2.430  -1.925   3.021  0.00  0.00     0.002 A 
ENDROOT
BRANCH   1   7
ATOM      7  C2  UNL d   1       4.394  -3.405   3.604  0.00  0.00     0.056 C 
BRANCH   7   8
ATOM      8  C1  UNL d   1       4.979  -2.326   4.521  0.00  0.00     0.007 C 
ATOM      9  C   UNL d   1       4.910  -2.692   5.998  0.00  0.00     0.009 C 
ENDBRANCH   7   8
ENDBRANCH   1   7
TORSDOF 2
ENDMDL
