MODEL 1
REMARK minimizedAffinity 0.874675453
REMARK minimizedRMSD -1
REMARK  2 active torsions:
REMARK  status: ('A' for Active; 'I' for Inactive)
REMARK    1  A    between atoms: C1_2  and  C2_3 
REMARK    2  A    between atoms: C2_3  and  C3_4 
ROOT
ATOM      1  C3  UNL d   1       2.179   3.971  -5.619  0.00  0.00    -0.075 A 
ATOM      2  C4  UNL d   1       3.372   3.235  -5.652  0.00  0.00     0.002 A 
ATOM      3  C5  UNL d   1       4.596   3.878  -5.836  0.00  0.00     0.002 A 
ATOM      4  C6  UNL d   1       4.643   5.260  -6.000  0.00  0.00    -0.004 A 
ATOM      5  C7  UNL d   1       3.463   6.000  -5.986  0.00  0.00     0.002 A 
ATOM      6  C8  UNL d   1       2.236   5.360  -5.797  0.00  0.00     0.002 A 
ENDROOT
BRANCH   1   7
ATOM      7  C2  UNL d   1       0.853   3.285  -5.391  0.00  0.00     0.056 C 
BRANCH   7   8
ATOM      8  C1  UNL d   1       0.430   3.220  -3.920  0.00  0.00     0.007 C 
ATOM      9  C   UNL d   1      -0.794   2.345  -3.685  0.00  0.00     0.009 C 
ENDBRANCH   7   8
ENDBRANCH   1   7
TORSDOF 2
ENDMDL
