MODEL 1
REMARK minimizedAffinity 6.47078991
REMARK minimizedRMSD -1
REMARK  2 active torsions:
REMARK  status: ('A' for Active; 'I' for Inactive)
REMARK    1  A    between atoms: C1_2  and  C2_3 
REMARK    2  A    between atoms: C2_3  and  C3_4 
ROOT
ATOM      1  C3  UNL d   1       3.312  -2.725   2.294  0.00  0.00    -0.075 A 
ATOM      2  C4  UNL d   1       3.375  -3.982   1.677  0.00  0.00     0.002 A 
ATOM      3  C5  UNL d   1       2.551  -4.280   0.590  0.00  0.00     0.002 A 
ATOM      4  C6  UNL d   1       1.650  -3.330   0.115  0.00  0.00    -0.004 A 
ATOM      5  C7  UNL d   1       1.568  -2.083   0.731  0.00  0.00     0.002 A 
ATOM      6  C8  UNL d   1       2.394  -1.781   1.815  0.00  0.00     0.002 A 
ENDROOT
BRANCH   1   7
ATOM      7  C2  UNL d   1       4.221  -2.386   3.451  0.00  0.00     0.056 C 
BRANCH   7   8
ATOM      8  C1  UNL d   1       4.050  -3.302   4.668  0.00  0.00     0.007 C 
ATOM      9  C   UNL d   1       4.255  -2.583   5.994  0.00  0.00     0.009 C 
ENDBRANCH   7   8
ENDBRANCH   1   7
TORSDOF 2
ENDMDL
