MODEL 1
REMARK minimizedAffinity -2.74952054
REMARK minimizedRMSD -1
REMARK  0 active torsions:
REMARK  status: ('A' for Active; 'I' for Inactive)
ROOT
ATOM      1  C   UNL d   1       2.064  -0.338   2.423  0.00  0.00    -0.002 A 
ATOM      2  C1  UNL d   1       0.933  -0.686   3.149  0.00  0.00     0.010 A 
ATOM      3  C2  UNL d   1      -0.314  -0.768   2.526  0.00  0.00     0.041 A 
ATOM      4  C3  UNL d   1      -0.406  -0.493   1.148  0.00  0.00    -0.075 A 
ATOM      5  S   UNL d   1      -1.828  -0.532   0.173  0.00  0.00     0.015 SA
ATOM      6  C4  UNL d   1      -0.968  -0.088  -1.230  0.00  0.00     0.022 A 
ATOM      7  C5  UNL d   1       0.372   0.089  -0.979  0.00  0.00     0.026 A 
ATOM      8  C6  UNL d   1       0.718  -0.142   0.395  0.00  0.00    -0.082 A 
ATOM      9  C7  UNL d   1       1.968  -0.067   1.056  0.00  0.00     0.045 A 
ENDROOT
TORSDOF 0
ENDMDL
