MODEL 1
REMARK minimizedAffinity -1.2940098
REMARK minimizedRMSD -1
REMARK  0 active torsions:
REMARK  status: ('A' for Active; 'I' for Inactive)
ROOT
ATOM      1  C   UNL d   1       1.076  -1.992   3.022  0.00  0.00    -0.002 A 
ATOM      2  C1  UNL d   1      -0.077  -1.227   2.917  0.00  0.00     0.010 A 
ATOM      3  C2  UNL d   1      -0.477  -0.711   1.683  0.00  0.00     0.041 A 
ATOM      4  C3  UNL d   1       0.309  -0.980   0.545  0.00  0.00    -0.075 A 
ATOM      5  S   UNL d   1       0.015  -0.453  -1.070  0.00  0.00     0.015 SA
ATOM      6  C4  UNL d   1       1.412  -1.232  -1.658  0.00  0.00     0.022 A 
ATOM      7  C5  UNL d   1       2.099  -1.882  -0.660  0.00  0.00     0.026 A 
ATOM      8  C6  UNL d   1       1.474  -1.749   0.626  0.00  0.00    -0.082 A 
ATOM      9  C7  UNL d   1       1.853  -2.257   1.891  0.00  0.00     0.045 A 
ENDROOT
TORSDOF 0
ENDMDL
