MODEL 1
REMARK minimizedAffinity -2.65474486
REMARK minimizedRMSD -1
REMARK  0 active torsions:
REMARK  status: ('A' for Active; 'I' for Inactive)
ROOT
ATOM      1  C   UNL d   1       1.191  -2.158   2.815  0.00  0.00    -0.002 A 
ATOM      2  C1  UNL d   1       2.093  -2.829   2.001  0.00  0.00     0.010 A 
ATOM      3  C2  UNL d   1       2.112  -2.603   0.624  0.00  0.00     0.041 A 
ATOM      4  C3  UNL d   1       1.201  -1.680   0.072  0.00  0.00    -0.075 A 
ATOM      5  S   UNL d   1       1.042  -1.242  -1.588  0.00  0.00     0.015 SA
ATOM      6  C4  UNL d   1      -0.226  -0.153  -1.256  0.00  0.00     0.022 A 
ATOM      7  C5  UNL d   1      -0.534  -0.113   0.083  0.00  0.00     0.026 A 
ATOM      8  C6  UNL d   1       0.284  -0.992   0.871  0.00  0.00    -0.082 A 
ATOM      9  C7  UNL d   1       0.289  -1.243   2.264  0.00  0.00     0.045 A 
ENDROOT
TORSDOF 0
ENDMDL
