MODEL 1
REMARK minimizedAffinity 4.33598137
REMARK minimizedRMSD -1
REMARK  0 active torsions:
REMARK  status: ('A' for Active; 'I' for Inactive)
ROOT
ATOM      1  C   UNL d   1       0.937  -0.848   3.172  0.00  0.00    -0.002 A 
ATOM      2  C1  UNL d   1      -0.368  -0.917   2.707  0.00  0.00     0.010 A 
ATOM      3  C2  UNL d   1      -0.638  -0.861   1.338  0.00  0.00     0.041 A 
ATOM      4  C3  UNL d   1       0.437  -0.735   0.436  0.00  0.00    -0.075 A 
ATOM      5  S   UNL d   1       0.346  -0.648  -1.283  0.00  0.00     0.015 SA
ATOM      6  C4  UNL d   1       2.038  -0.517  -1.441  0.00  0.00     0.022 A 
ATOM      7  C5  UNL d   1       2.672  -0.538  -0.221  0.00  0.00     0.026 A 
ATOM      8  C6  UNL d   1       1.760  -0.664   0.881  0.00  0.00    -0.082 A 
ATOM      9  C7  UNL d   1       2.001  -0.723   2.274  0.00  0.00     0.045 A 
ENDROOT
TORSDOF 0
ENDMDL
