MODEL 1
REMARK minimizedAffinity -1.14663136
REMARK minimizedRMSD -1
REMARK  0 active torsions:
REMARK  status: ('A' for Active; 'I' for Inactive)
ROOT
ATOM      1  C   UNL d   1       0.565  -0.369   3.439  0.00  0.00    -0.002 A 
ATOM      2  C1  UNL d   1       1.851  -0.635   2.992  0.00  0.00     0.010 A 
ATOM      3  C2  UNL d   1       2.110  -0.792   1.629  0.00  0.00     0.041 A 
ATOM      4  C3  UNL d   1       1.045  -0.674   0.714  0.00  0.00    -0.075 A 
ATOM      5  S   UNL d   1       1.126  -0.826  -1.001  0.00  0.00     0.015 SA
ATOM      6  C4  UNL d   1      -0.545  -0.540  -1.180  0.00  0.00     0.022 A 
ATOM      7  C5  UNL d   1      -1.165  -0.332   0.029  0.00  0.00     0.026 A 
ATOM      8  C6  UNL d   1      -0.259  -0.405   1.141  0.00  0.00    -0.082 A 
ATOM      9  C7  UNL d   1      -0.489  -0.252   2.529  0.00  0.00     0.045 A 
ENDROOT
TORSDOF 0
ENDMDL
