MODEL 1
REMARK minimizedAffinity 9.23563194
REMARK minimizedRMSD -1
REMARK  0 active torsions:
REMARK  status: ('A' for Active; 'I' for Inactive)
ROOT
ATOM      1  C   UNL d   1      -1.663   1.310  -5.699  0.00  0.00    -0.002 A 
ATOM      2  C1  UNL d   1      -0.746   2.307  -6.000  0.00  0.00     0.010 A 
ATOM      3  C2  UNL d   1      -0.521   3.357  -5.108  0.00  0.00     0.041 A 
ATOM      4  C3  UNL d   1      -1.238   3.387  -3.896  0.00  0.00    -0.075 A 
ATOM      5  S   UNL d   1      -1.126   4.575  -2.651  0.00  0.00     0.015 SA
ATOM      6  C4  UNL d   1      -2.292   3.786  -1.690  0.00  0.00     0.022 A 
ATOM      7  C5  UNL d   1      -2.766   2.643  -2.290  0.00  0.00     0.026 A 
ATOM      8  C6  UNL d   1      -2.166   2.394  -3.570  0.00  0.00    -0.082 A 
ATOM      9  C7  UNL d   1      -2.373   1.343  -4.496  0.00  0.00     0.045 A 
ENDROOT
TORSDOF 0
ENDMDL
