MODEL 1
REMARK minimizedAffinity -3.80819249
REMARK minimizedRMSD -1
REMARK  0 active torsions:
REMARK  status: ('A' for Active; 'I' for Inactive)
ROOT
ATOM      1  C   UNL d   1      -0.757   0.843  -0.010  0.00  0.00     0.172 C 
ATOM      2  N   UNL d   1       0.174  -0.247   0.164  0.00  0.00    -0.070 N 
ATOM      3  C1  UNL d   1      -0.161  -1.554   0.395  0.00  0.00    -0.004 A 
ATOM      4  C2  UNL d   1       1.007  -2.277   0.502  0.00  0.00    -0.047 A 
ATOM      5  C3  UNL d   1       2.082  -1.372   0.331  0.00  0.00    -0.047 A 
ATOM      6  C4  UNL d   1       1.538  -0.122   0.124  0.00  0.00    -0.004 A 
ENDROOT
TORSDOF 0
ENDMDL
