MODEL 1
REMARK minimizedAffinity -3.48153067
REMARK minimizedRMSD -1
REMARK  0 active torsions:
REMARK  status: ('A' for Active; 'I' for Inactive)
ROOT
ATOM      1  C   UNL d   1       1.457  -2.333   0.832  0.00  0.00     0.172 C 
ATOM      2  N   UNL d   1       0.815  -1.052   0.656  0.00  0.00    -0.070 N 
ATOM      3  C1  UNL d   1       1.308  -0.005  -0.075  0.00  0.00    -0.004 A 
ATOM      4  C2  UNL d   1       0.403   1.030   0.006  0.00  0.00    -0.047 A 
ATOM      5  C3  UNL d   1      -0.672   0.591   0.815  0.00  0.00    -0.047 A 
ATOM      6  C4  UNL d   1      -0.391  -0.702   1.204  0.00  0.00    -0.004 A 
ENDROOT
TORSDOF 0
ENDMDL
