MODEL 1
REMARK minimizedAffinity -3.08813405
REMARK minimizedRMSD -1
REMARK  0 active torsions:
REMARK  status: ('A' for Active; 'I' for Inactive)
ROOT
ATOM      1  C   UNL d   1       0.117  -2.611   0.469  0.00  0.00     0.172 C 
ATOM      2  N   UNL d   1      -0.203  -1.218   0.675  0.00  0.00    -0.070 N 
ATOM      3  C1  UNL d   1      -0.955  -0.715   1.703  0.00  0.00    -0.004 A 
ATOM      4  C2  UNL d   1      -1.028   0.652   1.544  0.00  0.00    -0.047 A 
ATOM      5  C3  UNL d   1      -0.294   0.982   0.379  0.00  0.00    -0.047 A 
ATOM      6  C4  UNL d   1       0.206  -0.194  -0.139  0.00  0.00    -0.004 A 
ENDROOT
TORSDOF 0
ENDMDL
