MODEL 1
REMARK minimizedAffinity -3.88208318
REMARK minimizedRMSD -1
REMARK  0 active torsions:
REMARK  status: ('A' for Active; 'I' for Inactive)
ROOT
ATOM      1  C   UNL d   1      -0.787   0.996  -0.306  0.00  0.00     0.172 C 
ATOM      2  N   UNL d   1      -0.086  -0.163   0.194  0.00  0.00    -0.070 N 
ATOM      3  C1  UNL d   1      -0.634  -1.162   0.952  0.00  0.00    -0.004 A 
ATOM      4  C2  UNL d   1       0.358  -2.079   1.224  0.00  0.00    -0.047 A 
ATOM      5  C3  UNL d   1       1.545  -1.614   0.609  0.00  0.00    -0.047 A 
ATOM      6  C4  UNL d   1       1.241  -0.426  -0.022  0.00  0.00    -0.004 A 
ENDROOT
TORSDOF 0
ENDMDL
