MODEL 1
REMARK minimizedAffinity -3.09908366
REMARK minimizedRMSD -1
REMARK  0 active torsions:
REMARK  status: ('A' for Active; 'I' for Inactive)
ROOT
ATOM      1  C   UNL d   1      -0.906   1.111   0.151  0.00  0.00     0.172 C 
ATOM      2  N   UNL d   1      -1.471   1.650  -1.064  0.00  0.00    -0.070 N 
ATOM      3  C1  UNL d   1      -1.036   2.772  -1.717  0.00  0.00    -0.004 A 
ATOM      4  C2  UNL d   1      -1.832   2.949  -2.828  0.00  0.00    -0.047 A 
ATOM      5  C3  UNL d   1      -2.778   1.897  -2.843  0.00  0.00    -0.047 A 
ATOM      6  C4  UNL d   1      -2.532   1.108  -1.739  0.00  0.00    -0.004 A 
ENDROOT
TORSDOF 0
ENDMDL
