MODEL 1
REMARK minimizedAffinity -3.26009965
REMARK minimizedRMSD -1
REMARK  0 active torsions:
REMARK  status: ('A' for Active; 'I' for Inactive)
ROOT
ATOM      1  C   UNL d   1      -0.747   1.191  -0.296  0.00  0.00     0.172 C 
ATOM      2  N   UNL d   1       0.199   0.140  -0.004  0.00  0.00    -0.070 N 
ATOM      3  C1  UNL d   1       1.557   0.221  -0.162  0.00  0.00    -0.004 A 
ATOM      4  C2  UNL d   1       2.099  -0.986   0.225  0.00  0.00    -0.047 A 
ATOM      5  C3  UNL d   1       1.031  -1.820   0.629  0.00  0.00    -0.047 A 
ATOM      6  C4  UNL d   1      -0.135  -1.099   0.478  0.00  0.00    -0.004 A 
ENDROOT
TORSDOF 0
ENDMDL
