MODEL 1
REMARK minimizedAffinity -3.62186575
REMARK minimizedRMSD -1
REMARK  0 active torsions:
REMARK  status: ('A' for Active; 'I' for Inactive)
ROOT
ATOM      1  C   UNL d   1      -0.933   1.073   0.037  0.00  0.00     0.172 C 
ATOM      2  N   UNL d   1       0.138   0.116   0.191  0.00  0.00    -0.070 N 
ATOM      3  C1  UNL d   1       1.412   0.260  -0.289  0.00  0.00    -0.004 A 
ATOM      4  C2  UNL d   1       2.126  -0.864   0.066  0.00  0.00    -0.047 A 
ATOM      5  C3  UNL d   1       1.250  -1.714   0.782  0.00  0.00    -0.047 A 
ATOM      6  C4  UNL d   1       0.026  -1.083   0.845  0.00  0.00    -0.004 A 
ENDROOT
TORSDOF 0
ENDMDL
