MODEL 1
REMARK minimizedAffinity -3.37380481
REMARK minimizedRMSD -1
REMARK  0 active torsions:
REMARK  status: ('A' for Active; 'I' for Inactive)
ROOT
ATOM      1  C   UNL d   1       1.280  -2.369   0.710  0.00  0.00     0.172 C 
ATOM      2  N   UNL d   1       0.631  -1.124   0.373  0.00  0.00    -0.070 N 
ATOM      3  C1  UNL d   1       1.181  -0.111  -0.366  0.00  0.00    -0.004 A 
ATOM      4  C2  UNL d   1       0.246   0.897  -0.463  0.00  0.00    -0.047 A 
ATOM      5  C3  UNL d   1      -0.905   0.475   0.243  0.00  0.00    -0.047 A 
ATOM      6  C4  UNL d   1      -0.640  -0.779   0.751  0.00  0.00    -0.004 A 
ENDROOT
TORSDOF 0
ENDMDL
