MODEL 1
REMARK minimizedAffinity -4.13471508
REMARK minimizedRMSD -1
REMARK  0 active torsions:
REMARK  status: ('A' for Active; 'I' for Inactive)
ROOT
ATOM      1  C   UNL d   1      -0.814   0.786  -0.288  0.00  0.00     0.172 C 
ATOM      2  N   UNL d   1       0.003  -0.369  -0.000  0.00  0.00    -0.070 N 
ATOM      3  C1  UNL d   1      -0.393  -1.470   0.712  0.00  0.00    -0.004 A 
ATOM      4  C2  UNL d   1       0.671  -2.344   0.763  0.00  0.00    -0.047 A 
ATOM      5  C3  UNL d   1       1.743  -1.749   0.058  0.00  0.00    -0.047 A 
ATOM      6  C4  UNL d   1       1.302  -0.527  -0.405  0.00  0.00    -0.004 A 
ENDROOT
TORSDOF 0
ENDMDL
