MODEL 1
REMARK minimizedAffinity -3.66664553
REMARK minimizedRMSD -1
REMARK  0 active torsions:
REMARK  status: ('A' for Active; 'I' for Inactive)
ROOT
ATOM      1  C   UNL d   1       1.273  -2.803   0.863  0.00  0.00     0.172 C 
ATOM      2  N   UNL d   1       0.617  -1.526   0.706  0.00  0.00    -0.070 N 
ATOM      3  C1  UNL d   1       1.142  -0.432   0.072  0.00  0.00    -0.004 A 
ATOM      4  C2  UNL d   1       0.210   0.581   0.136  0.00  0.00    -0.047 A 
ATOM      5  C3  UNL d   1      -0.914   0.078   0.834  0.00  0.00    -0.047 A 
ATOM      6  C4  UNL d   1      -0.635  -1.229   1.175  0.00  0.00    -0.004 A 
ENDROOT
TORSDOF 0
ENDMDL
