MODEL 1
REMARK minimizedAffinity -0.555312097
REMARK minimizedRMSD -1
REMARK  0 active torsions:
REMARK  status: ('A' for Active; 'I' for Inactive)
ROOT
ATOM      1  C   UNL d   1       1.974  -1.721   1.386  0.00  0.00     0.172 C 
ATOM      2  N   UNL d   1       0.926  -0.817   0.975  0.00  0.00    -0.070 N 
ATOM      3  C1  UNL d   1       0.979   0.032  -0.098  0.00  0.00    -0.004 A 
ATOM      4  C2  UNL d   1      -0.213   0.720  -0.152  0.00  0.00    -0.047 A 
ATOM      5  C3  UNL d   1      -1.011   0.270   0.927  0.00  0.00    -0.047 A 
ATOM      6  C4  UNL d   1      -0.282  -0.681   1.608  0.00  0.00    -0.004 A 
ENDROOT
TORSDOF 0
ENDMDL
