MODEL 1
REMARK minimizedAffinity -2.72303796
REMARK minimizedRMSD -1
REMARK  0 active torsions:
REMARK  status: ('A' for Active; 'I' for Inactive)
ROOT
ATOM      1  C   UNL d   1       1.778   0.550  -0.871  0.00  0.00     0.172 C 
ATOM      2  N   UNL d   1       1.378  -0.506   0.030  0.00  0.00    -0.070 N 
ATOM      3  C1  UNL d   1       2.220  -1.246   0.817  0.00  0.00    -0.004 A 
ATOM      4  C2  UNL d   1       1.453  -2.145   1.526  0.00  0.00    -0.047 A 
ATOM      5  C3  UNL d   1       0.104  -1.940   1.151  0.00  0.00    -0.047 A 
ATOM      6  C4  UNL d   1       0.086  -0.919   0.224  0.00  0.00    -0.004 A 
ENDROOT
TORSDOF 0
ENDMDL
