MODEL 1
REMARK minimizedAffinity -2.60562301
REMARK minimizedRMSD -1
REMARK  0 active torsions:
REMARK  status: ('A' for Active; 'I' for Inactive)
ROOT
ATOM      1  C   UNL d   1      -0.768   0.946  -0.180  0.00  0.00     0.172 C 
ATOM      2  N   UNL d   1       0.121  -0.171   0.036  0.00  0.00    -0.070 N 
ATOM      3  C1  UNL d   1      -0.262  -1.474   0.212  0.00  0.00    -0.004 A 
ATOM      4  C2  UNL d   1       0.877  -2.229   0.385  0.00  0.00    -0.047 A 
ATOM      5  C3  UNL d   1       1.984  -1.350   0.311  0.00  0.00    -0.047 A 
ATOM      6  C4  UNL d   1       1.487  -0.082   0.094  0.00  0.00    -0.004 A 
ENDROOT
TORSDOF 0
ENDMDL
