MODEL 1
REMARK minimizedAffinity -1.90986633
REMARK minimizedRMSD -1
REMARK  0 active torsions:
REMARK  status: ('A' for Active; 'I' for Inactive)
ROOT
ATOM      1  C   UNL d   1       1.770  -2.366   0.910  0.00  0.00     0.172 C 
ATOM      2  N   UNL d   1       1.056  -1.219   0.400  0.00  0.00    -0.070 N 
ATOM      3  C1  UNL d   1       1.531  -0.330  -0.526  0.00  0.00    -0.004 A 
ATOM      4  C2  UNL d   1       0.552   0.615  -0.746  0.00  0.00    -0.047 A 
ATOM      5  C3  UNL d   1      -0.550   0.281   0.076  0.00  0.00    -0.047 A 
ATOM      6  C4  UNL d   1      -0.211  -0.858   0.775  0.00  0.00    -0.004 A 
ENDROOT
TORSDOF 0
ENDMDL
