MODEL 1
REMARK minimizedAffinity 3.81819081
REMARK minimizedRMSD -1
REMARK  2 active torsions:
REMARK  status: ('A' for Active; 'I' for Inactive)
REMARK    1  A    between atoms: C1_2  and  C2_3 
REMARK    2  A    between atoms: C2_3  and  C3_4 
ROOT
ATOM      1  C3  UNL d   1      -3.139   1.869   3.330  0.00  0.00    -0.075 A 
ATOM      2  C4  UNL d   1      -2.422   3.019   2.971  0.00  0.00     0.002 A 
ATOM      3  C5  UNL d   1      -1.255   2.919   2.212  0.00  0.00     0.002 A 
ATOM      4  C6  UNL d   1      -0.787   1.669   1.812  0.00  0.00    -0.004 A 
ATOM      5  C7  UNL d   1      -1.483   0.519   2.177  0.00  0.00     0.002 A 
ATOM      6  C8  UNL d   1      -2.653   0.617   2.933  0.00  0.00     0.002 A 
ENDROOT
BRANCH   1   7
ATOM      7  C2  UNL d   1      -4.418   1.974   4.127  0.00  0.00     0.056 C 
BRANCH   7   8
ATOM      8  C1  UNL d   1      -4.249   2.646   5.493  0.00  0.00     0.007 C 
ATOM      9  C   UNL d   1      -5.523   3.311   5.997  0.00  0.00     0.009 C 
ENDBRANCH   7   8
ENDBRANCH   1   7
TORSDOF 2
ENDMDL
