MODEL 1
REMARK minimizedAffinity -6.8942461
REMARK minimizedRMSD -1
REMARK  2 active torsions:
REMARK  status: ('A' for Active; 'I' for Inactive)
REMARK    1  A    between atoms: C1_2  and  C2_3 
REMARK    2  A    between atoms: C2_3  and  C3_4 
ROOT
ATOM      1  C3  UNL d   1      -1.489   0.949   2.188  0.00  0.00    -0.075 A 
ATOM      2  C4  UNL d   1      -1.890  -0.330   1.775  0.00  0.00     0.002 A 
ATOM      3  C5  UNL d   1      -1.067  -1.100   0.954  0.00  0.00     0.002 A 
ATOM      4  C6  UNL d   1       0.161  -0.599   0.526  0.00  0.00    -0.004 A 
ATOM      5  C7  UNL d   1       0.562   0.677   0.917  0.00  0.00     0.002 A 
ATOM      6  C8  UNL d   1      -0.258   1.448   1.743  0.00  0.00     0.002 A 
ENDROOT
BRANCH   1   7
ATOM      7  C2  UNL d   1      -2.362   1.775   3.102  0.00  0.00     0.056 C 
BRANCH   7   8
ATOM      8  C1  UNL d   1      -3.754   1.180   3.341  0.00  0.00     0.007 C 
ATOM      9  C   UNL d   1      -4.618   2.027   4.266  0.00  0.00     0.009 C 
ENDBRANCH   7   8
ENDBRANCH   1   7
TORSDOF 2
ENDMDL
