MODEL 1
REMARK minimizedAffinity -1.90400183
REMARK minimizedRMSD -1
REMARK  2 active torsions:
REMARK  status: ('A' for Active; 'I' for Inactive)
REMARK    1  A    between atoms: C1_2  and  C2_3 
REMARK    2  A    between atoms: C2_3  and  C3_4 
ROOT
ATOM      1  C3  UNL d   1      -3.128   0.955   3.133  0.00  0.00    -0.075 A 
ATOM      2  C4  UNL d   1      -2.820  -0.410   3.031  0.00  0.00     0.002 A 
ATOM      3  C5  UNL d   1      -1.643  -0.825   2.407  0.00  0.00     0.002 A 
ATOM      4  C6  UNL d   1      -0.767   0.115   1.870  0.00  0.00    -0.004 A 
ATOM      5  C7  UNL d   1      -1.071   1.472   1.951  0.00  0.00     0.002 A 
ATOM      6  C8  UNL d   1      -2.245   1.891   2.578  0.00  0.00     0.002 A 
ENDROOT
BRANCH   1   7
ATOM      7  C2  UNL d   1      -4.385   1.413   3.833  0.00  0.00     0.056 C 
BRANCH   7   8
ATOM      8  C1  UNL d   1      -4.142   2.020   5.219  0.00  0.00     0.007 C 
ATOM      9  C   UNL d   1      -5.422   2.464   5.913  0.00  0.00     0.009 C 
ENDBRANCH   7   8
ENDBRANCH   1   7
TORSDOF 2
ENDMDL
