MODEL 1
REMARK minimizedAffinity -4.05833769
REMARK minimizedRMSD -1
REMARK  2 active torsions:
REMARK  status: ('A' for Active; 'I' for Inactive)
REMARK    1  A    between atoms: C1_2  and  C2_3 
REMARK    2  A    between atoms: C2_3  and  C3_4 
ROOT
ATOM      1  C3  UNL d   1      -1.328   1.476   1.957  0.00  0.00    -0.075 A 
ATOM      2  C4  UNL d   1      -1.326   0.085   2.134  0.00  0.00     0.002 A 
ATOM      3  C5  UNL d   1      -0.329  -0.701   1.555  0.00  0.00     0.002 A 
ATOM      4  C6  UNL d   1       0.670  -0.109   0.786  0.00  0.00    -0.004 A 
ATOM      5  C7  UNL d   1       0.669   1.270   0.590  0.00  0.00     0.002 A 
ATOM      6  C8  UNL d   1      -0.325   2.060   1.172  0.00  0.00     0.002 A 
ENDROOT
BRANCH   1   7
ATOM      7  C2  UNL d   1      -2.387   2.336   2.605  0.00  0.00     0.056 C 
BRANCH   7   8
ATOM      8  C1  UNL d   1      -3.182   1.624   3.704  0.00  0.00     0.007 C 
ATOM      9  C   UNL d   1      -4.342   2.453   4.240  0.00  0.00     0.009 C 
ENDBRANCH   7   8
ENDBRANCH   1   7
TORSDOF 2
ENDMDL
