MODEL 1
REMARK minimizedAffinity -0.710281372
REMARK minimizedRMSD -1
REMARK  2 active torsions:
REMARK  status: ('A' for Active; 'I' for Inactive)
REMARK    1  A    between atoms: C1_2  and  C2_3 
REMARK    2  A    between atoms: C2_3  and  C3_4 
ROOT
ATOM      1  C3  UNL d   1      -1.700   1.567   2.542  0.00  0.00    -0.075 A 
ATOM      2  C4  UNL d   1      -1.699   0.166   2.600  0.00  0.00     0.002 A 
ATOM      3  C5  UNL d   1      -0.797  -0.574   1.836  0.00  0.00     0.002 A 
ATOM      4  C6  UNL d   1       0.108   0.075   0.999  0.00  0.00    -0.004 A 
ATOM      5  C7  UNL d   1       0.104   1.466   0.920  0.00  0.00     0.002 A 
ATOM      6  C8  UNL d   1      -0.795   2.209   1.687  0.00  0.00     0.002 A 
ENDROOT
BRANCH   1   7
ATOM      7  C2  UNL d   1      -2.655   2.374   3.389  0.00  0.00     0.056 C 
BRANCH   7   8
ATOM      8  C1  UNL d   1      -3.881   1.590   3.868  0.00  0.00     0.007 C 
ATOM      9  C   UNL d   1      -4.692   2.329   4.924  0.00  0.00     0.009 C 
ENDBRANCH   7   8
ENDBRANCH   1   7
TORSDOF 2
ENDMDL
