MODEL 1
REMARK minimizedAffinity -5.13880682
REMARK minimizedRMSD -1
REMARK  2 active torsions:
REMARK  status: ('A' for Active; 'I' for Inactive)
REMARK    1  A    between atoms: C1_2  and  C2_3 
REMARK    2  A    between atoms: C2_3  and  C3_4 
ROOT
ATOM      1  C3  UNL d   1      -1.999   1.614   2.751  0.00  0.00    -0.075 A 
ATOM      2  C4  UNL d   1      -1.853   2.934   2.298  0.00  0.00     0.002 A 
ATOM      3  C5  UNL d   1      -0.832   3.268   1.408  0.00  0.00     0.002 A 
ATOM      4  C6  UNL d   1       0.060   2.293   0.968  0.00  0.00    -0.004 A 
ATOM      5  C7  UNL d   1      -0.066   0.982   1.424  0.00  0.00     0.002 A 
ATOM      6  C8  UNL d   1      -1.089   0.644   2.311  0.00  0.00     0.002 A 
ENDROOT
BRANCH   1   7
ATOM      7  C2  UNL d   1      -3.120   1.240   3.691  0.00  0.00     0.056 C 
BRANCH   7   8
ATOM      8  C1  UNL d   1      -3.875   2.440   4.271  0.00  0.00     0.007 C 
ATOM      9  C   UNL d   1      -4.532   2.145   5.612  0.00  0.00     0.009 C 
ENDBRANCH   7   8
ENDBRANCH   1   7
TORSDOF 2
ENDMDL
