MODEL 1
REMARK minimizedAffinity -2.90906572
REMARK minimizedRMSD -1
REMARK  2 active torsions:
REMARK  status: ('A' for Active; 'I' for Inactive)
REMARK    1  A    between atoms: C1_2  and  C2_3 
REMARK    2  A    between atoms: C2_3  and  C3_4 
ROOT
ATOM      1  C3  UNL d   1      -3.347   1.580   3.345  0.00  0.00    -0.075 A 
ATOM      2  C4  UNL d   1      -2.354   2.562   3.209  0.00  0.00     0.002 A 
ATOM      3  C5  UNL d   1      -1.240   2.336   2.401  0.00  0.00     0.002 A 
ATOM      4  C6  UNL d   1      -1.098   1.124   1.727  0.00  0.00    -0.004 A 
ATOM      5  C7  UNL d   1      -2.070   0.136   1.868  0.00  0.00     0.002 A 
ATOM      6  C8  UNL d   1      -3.188   0.361   2.673  0.00  0.00     0.002 A 
ENDROOT
BRANCH   1   7
ATOM      7  C2  UNL d   1      -4.570   1.830   4.195  0.00  0.00     0.056 C 
BRANCH   7   8
ATOM      8  C1  UNL d   1      -4.306   2.704   5.425  0.00  0.00     0.007 C 
ATOM      9  C   UNL d   1      -5.224   3.916   5.510  0.00  0.00     0.009 C 
ENDBRANCH   7   8
ENDBRANCH   1   7
TORSDOF 2
ENDMDL
