MODEL 1
REMARK minimizedAffinity -1.68520999
REMARK minimizedRMSD -1
REMARK  2 active torsions:
REMARK  status: ('A' for Active; 'I' for Inactive)
REMARK    1  A    between atoms: C1_2  and  C2_3 
REMARK    2  A    between atoms: C2_3  and  C3_4 
ROOT
ATOM      1  C3  UNL d   1       0.213   1.379   1.244  0.00  0.00    -0.075 A 
ATOM      2  C4  UNL d   1      -0.195   2.719   1.328  0.00  0.00     0.002 A 
ATOM      3  C5  UNL d   1      -1.332   3.068   2.057  0.00  0.00     0.002 A 
ATOM      4  C6  UNL d   1      -2.081   2.085   2.699  0.00  0.00    -0.004 A 
ATOM      5  C7  UNL d   1      -1.695   0.749   2.608  0.00  0.00     0.002 A 
ATOM      6  C8  UNL d   1      -0.555   0.397   1.884  0.00  0.00     0.002 A 
ENDROOT
BRANCH   1   7
ATOM      7  C2  UNL d   1       1.459   0.998   0.482  0.00  0.00     0.056 C 
BRANCH   7   8
ATOM      8  C1  UNL d   1       2.272  -0.124   1.136  0.00  0.00     0.007 C 
ATOM      9  C   UNL d   1       3.142  -0.890   0.149  0.00  0.00     0.009 C 
ENDBRANCH   7   8
ENDBRANCH   1   7
TORSDOF 2
ENDMDL
