MODEL 1
REMARK minimizedAffinity -1.91956401
REMARK minimizedRMSD -1
REMARK  2 active torsions:
REMARK  status: ('A' for Active; 'I' for Inactive)
REMARK    1  A    between atoms: C1_2  and  C2_3 
REMARK    2  A    between atoms: C2_3  and  C3_4 
ROOT
ATOM      1  C3  UNL d   1      -1.683   1.770   2.432  0.00  0.00    -0.075 A 
ATOM      2  C4  UNL d   1      -2.022   0.432   2.186  0.00  0.00     0.002 A 
ATOM      3  C5  UNL d   1      -1.150  -0.402   1.485  0.00  0.00     0.002 A 
ATOM      4  C6  UNL d   1       0.063   0.093   1.013  0.00  0.00    -0.004 A 
ATOM      5  C7  UNL d   1       0.403   1.425   1.237  0.00  0.00     0.002 A 
ATOM      6  C8  UNL d   1      -0.465   2.261   1.943  0.00  0.00     0.002 A 
ENDROOT
BRANCH   1   7
ATOM      7  C2  UNL d   1      -2.609   2.670   3.216  0.00  0.00     0.056 C 
BRANCH   7   8
ATOM      8  C1  UNL d   1      -3.824   1.949   3.810  0.00  0.00     0.007 C 
ATOM      9  C   UNL d   1      -4.425   2.673   5.007  0.00  0.00     0.009 C 
ENDBRANCH   7   8
ENDBRANCH   1   7
TORSDOF 2
ENDMDL
