MODEL 1
REMARK minimizedAffinity -4.75647163
REMARK minimizedRMSD -1
REMARK  2 active torsions:
REMARK  status: ('A' for Active; 'I' for Inactive)
REMARK    1  A    between atoms: C1_2  and  C2_3 
REMARK    2  A    between atoms: C2_3  and  C3_4 
ROOT
ATOM      1  C3  UNL d   1      -0.714   0.846   1.233  0.00  0.00    -0.075 A 
ATOM      2  C4  UNL d   1      -1.198   2.016   1.836  0.00  0.00     0.002 A 
ATOM      3  C5  UNL d   1      -2.385   1.998   2.569  0.00  0.00     0.002 A 
ATOM      4  C6  UNL d   1      -3.107   0.814   2.700  0.00  0.00    -0.004 A 
ATOM      5  C7  UNL d   1      -2.645  -0.351   2.091  0.00  0.00     0.002 A 
ATOM      6  C8  UNL d   1      -1.456  -0.337   1.361  0.00  0.00     0.002 A 
ENDROOT
BRANCH   1   7
ATOM      7  C2  UNL d   1       0.585   0.853   0.464  0.00  0.00     0.056 C 
BRANCH   7   8
ATOM      8  C1  UNL d   1       1.352  -0.473   0.523  0.00  0.00     0.007 C 
ATOM      9  C   UNL d   1       2.679  -0.432  -0.223  0.00  0.00     0.009 C 
ENDBRANCH   7   8
ENDBRANCH   1   7
TORSDOF 2
ENDMDL
