MODEL 1
REMARK minimizedAffinity -1.62363732
REMARK minimizedRMSD -1
REMARK  2 active torsions:
REMARK  status: ('A' for Active; 'I' for Inactive)
REMARK    1  A    between atoms: C1_2  and  C2_3 
REMARK    2  A    between atoms: C2_3  and  C3_4 
ROOT
ATOM      1  C3  UNL d   1      -1.806   1.687   2.641  0.00  0.00    -0.075 A 
ATOM      2  C4  UNL d   1      -1.890   0.291   2.537  0.00  0.00     0.002 A 
ATOM      3  C5  UNL d   1      -0.992  -0.415   1.735  0.00  0.00     0.002 A 
ATOM      4  C6  UNL d   1      -0.008   0.265   1.022  0.00  0.00    -0.004 A 
ATOM      5  C7  UNL d   1       0.074   1.653   1.105  0.00  0.00     0.002 A 
ATOM      6  C8  UNL d   1      -0.820   2.362   1.909  0.00  0.00     0.002 A 
ENDROOT
BRANCH   1   7
ATOM      7  C2  UNL d   1      -2.756   2.454   3.530  0.00  0.00     0.056 C 
BRANCH   7   8
ATOM      8  C1  UNL d   1      -3.877   1.599   4.129  0.00  0.00     0.007 C 
ATOM      9  C   UNL d   1      -4.445   2.172   5.421  0.00  0.00     0.009 C 
ENDBRANCH   7   8
ENDBRANCH   1   7
TORSDOF 2
ENDMDL
