MODEL 1
REMARK minimizedAffinity -3.42643142
REMARK minimizedRMSD -1
REMARK  2 active torsions:
REMARK  status: ('A' for Active; 'I' for Inactive)
REMARK    1  A    between atoms: C1_2  and  C2_3 
REMARK    2  A    between atoms: C2_3  and  C3_4 
ROOT
ATOM      1  C3  UNL d   1      -1.332   0.821   1.754  0.00  0.00    -0.075 A 
ATOM      2  C4  UNL d   1      -0.416  -0.235   1.871  0.00  0.00     0.002 A 
ATOM      3  C5  UNL d   1       0.805  -0.192   1.197  0.00  0.00     0.002 A 
ATOM      4  C6  UNL d   1       1.121   0.900   0.391  0.00  0.00    -0.004 A 
ATOM      5  C7  UNL d   1       0.212   1.947   0.254  0.00  0.00     0.002 A 
ATOM      6  C8  UNL d   1      -1.009   1.908   0.931  0.00  0.00     0.002 A 
ENDROOT
BRANCH   1   7
ATOM      7  C2  UNL d   1      -2.642   0.793   2.503  0.00  0.00     0.056 C 
BRANCH   7   8
ATOM      8  C1  UNL d   1      -3.104   2.167   3.003  0.00  0.00     0.007 C 
ATOM      9  C   UNL d   1      -4.430   2.119   3.750  0.00  0.00     0.009 C 
ENDBRANCH   7   8
ENDBRANCH   1   7
TORSDOF 2
ENDMDL
