MODEL 1
REMARK minimizedAffinity -2.54960251
REMARK minimizedRMSD -1
REMARK  2 active torsions:
REMARK  status: ('A' for Active; 'I' for Inactive)
REMARK    1  A    between atoms: C1_2  and  C2_3 
REMARK    2  A    between atoms: C2_3  and  C3_4 
ROOT
ATOM      1  C3  UNL d   1      -0.842  -3.568  -2.782  0.00  0.00    -0.075 A 
ATOM      2  C4  UNL d   1      -0.815  -3.194  -4.134  0.00  0.00     0.002 A 
ATOM      3  C5  UNL d   1       0.238  -3.592  -4.958  0.00  0.00     0.002 A 
ATOM      4  C6  UNL d   1       1.280  -4.358  -4.440  0.00  0.00    -0.004 A 
ATOM      5  C7  UNL d   1       1.272  -4.721  -3.095  0.00  0.00     0.002 A 
ATOM      6  C8  UNL d   1       0.217  -4.328  -2.269  0.00  0.00     0.002 A 
ENDROOT
BRANCH   1   7
ATOM      7  C2  UNL d   1      -1.994  -3.165  -1.892  0.00  0.00     0.056 C 
BRANCH   7   8
ATOM      8  C1  UNL d   1      -3.029  -2.268  -2.579  0.00  0.00     0.007 C 
ATOM      9  C   UNL d   1      -4.375  -2.251  -1.868  0.00  0.00     0.009 C 
ENDBRANCH   7   8
ENDBRANCH   1   7
TORSDOF 2
ENDMDL
