MODEL 1
REMARK minimizedAffinity -3.09459639
REMARK minimizedRMSD -1
REMARK  2 active torsions:
REMARK  status: ('A' for Active; 'I' for Inactive)
REMARK    1  A    between atoms: C1_2  and  C2_3 
REMARK    2  A    between atoms: C2_3  and  C3_4 
ROOT
ATOM      1  C3  UNL d   1      -1.665   1.611   2.744  0.00  0.00    -0.075 A 
ATOM      2  C4  UNL d   1      -0.783   2.214   1.835  0.00  0.00     0.002 A 
ATOM      3  C5  UNL d   1      -0.122   1.447   0.875  0.00  0.00     0.002 A 
ATOM      4  C6  UNL d   1      -0.325   0.070   0.818  0.00  0.00    -0.004 A 
ATOM      5  C7  UNL d   1      -1.186  -0.542   1.727  0.00  0.00     0.002 A 
ATOM      6  C8  UNL d   1      -1.853   0.224   2.685  0.00  0.00     0.002 A 
ENDROOT
BRANCH   1   7
ATOM      7  C2  UNL d   1      -2.406   2.439   3.766  0.00  0.00     0.056 C 
BRANCH   7   8
ATOM      8  C1  UNL d   1      -3.746   1.838   4.203  0.00  0.00     0.007 C 
ATOM      9  C   UNL d   1      -4.356   2.543   5.408  0.00  0.00     0.009 C 
ENDBRANCH   7   8
ENDBRANCH   1   7
TORSDOF 2
ENDMDL
