MODEL 1
REMARK minimizedAffinity -1.05320764
REMARK minimizedRMSD -1
REMARK  2 active torsions:
REMARK  status: ('A' for Active; 'I' for Inactive)
REMARK    1  A    between atoms: C1_2  and  C2_3 
REMARK    2  A    between atoms: C2_3  and  C3_4 
ROOT
ATOM      1  C3  UNL d   1      -2.190   1.572   2.722  0.00  0.00    -0.075 A 
ATOM      2  C4  UNL d   1      -2.085   2.863   2.185  0.00  0.00     0.002 A 
ATOM      3  C5  UNL d   1      -1.159   3.140   1.180  0.00  0.00     0.002 A 
ATOM      4  C6  UNL d   1      -0.320   2.134   0.705  0.00  0.00    -0.004 A 
ATOM      5  C7  UNL d   1      -0.404   0.851   1.243  0.00  0.00     0.002 A 
ATOM      6  C8  UNL d   1      -1.333   0.570   2.246  0.00  0.00     0.002 A 
ENDROOT
BRANCH   1   7
ATOM      7  C2  UNL d   1      -3.211   1.259   3.790  0.00  0.00     0.056 C 
BRANCH   7   8
ATOM      8  C1  UNL d   1      -4.277   2.345   3.970  0.00  0.00     0.007 C 
ATOM      9  C   UNL d   1      -4.962   2.293   5.329  0.00  0.00     0.009 C 
ENDBRANCH   7   8
ENDBRANCH   1   7
TORSDOF 2
ENDMDL
