MODEL 1
REMARK minimizedAffinity 11.3873549
REMARK minimizedRMSD -1
REMARK  0 active torsions:
REMARK  status: ('A' for Active; 'I' for Inactive)
ROOT
ATOM      1  O1  BZF d   1      -0.149  -4.001   0.284  0.00  0.00    -0.204 OA
ATOM      2  C2  BZF d   1      -0.549  -4.544   1.490  0.00  0.00     0.174 A 
ATOM      3  C3  BZF d   1      -1.513  -3.791   2.057  0.00  0.00    -0.012 A 
ATOM      4  C3A BZF d   1      -1.795  -2.760   1.106  0.00  0.00    -0.107 A 
ATOM      5  C4  BZF d   1      -2.672  -1.713   1.087  0.00  0.00     0.055 A 
ATOM      6  C5  BZF d   1      -2.645  -0.848   0.040  0.00  0.00    -0.016 A 
ATOM      7  C6  BZF d   1      -1.753  -0.996  -1.002  0.00  0.00     0.022 A 
ATOM      8  C7  BZF d   1      -0.867  -2.021  -1.030  0.00  0.00     0.029 A 
ATOM      9  C7A BZF d   1      -0.914  -2.917   0.011  0.00  0.00     0.058 A 
ENDROOT
TORSDOF 0
ENDMDL
