MODEL 1
REMARK minimizedAffinity 2.91681504
REMARK minimizedRMSD -1
REMARK  0 active torsions:
REMARK  status: ('A' for Active; 'I' for Inactive)
ROOT
ATOM      1  O1  BZF d   1      -1.534  -3.262  -2.265  0.00  0.00    -0.204 OA
ATOM      2  C2  BZF d   1      -2.209  -2.140  -2.703  0.00  0.00     0.174 A 
ATOM      3  C3  BZF d   1      -2.538  -1.344  -1.666  0.00  0.00    -0.012 A 
ATOM      4  C3A BZF d   1      -1.956  -1.965  -0.516  0.00  0.00    -0.107 A 
ATOM      5  C4  BZF d   1      -1.922  -1.641   0.810  0.00  0.00     0.055 A 
ATOM      6  C5  BZF d   1      -1.332  -2.498   1.685  0.00  0.00    -0.016 A 
ATOM      7  C6  BZF d   1      -0.772  -3.688   1.269  0.00  0.00     0.022 A 
ATOM      8  C7  BZF d   1      -0.776  -4.050  -0.037  0.00  0.00     0.029 A 
ATOM      9  C7A BZF d   1      -1.343  -3.171  -0.927  0.00  0.00     0.058 A 
ENDROOT
TORSDOF 0
ENDMDL
