MODEL 1
REMARK minimizedAffinity 10.6139851
REMARK minimizedRMSD -1
REMARK  0 active torsions:
REMARK  status: ('A' for Active; 'I' for Inactive)
ROOT
ATOM      1  O1  BZF d   1      -1.218  -0.782   4.402  0.00  0.00    -0.204 OA
ATOM      2  C2  BZF d   1      -1.438   0.530   4.029  0.00  0.00     0.174 A 
ATOM      3  C3  BZF d   1      -1.395   0.660   2.688  0.00  0.00    -0.012 A 
ATOM      4  C3A BZF d   1      -1.223  -0.669   2.186  0.00  0.00    -0.107 A 
ATOM      5  C4  BZF d   1      -1.124  -1.192   0.929  0.00  0.00     0.055 A 
ATOM      6  C5  BZF d   1      -0.887  -2.522   0.784  0.00  0.00    -0.016 A 
ATOM      7  C6  BZF d   1      -0.738  -3.356   1.872  0.00  0.00     0.022 A 
ATOM      8  C7  BZF d   1      -0.833  -2.884   3.139  0.00  0.00     0.029 A 
ATOM      9  C7A BZF d   1      -1.105  -1.546   3.289  0.00  0.00     0.058 A 
ENDROOT
TORSDOF 0
ENDMDL
