MODEL 1
REMARK minimizedAffinity 15.9970341
REMARK minimizedRMSD -1
REMARK  0 active torsions:
REMARK  status: ('A' for Active; 'I' for Inactive)
ROOT
ATOM      1  O1  BZF d   1      -2.542  -2.980   1.728  0.00  0.00    -0.204 OA
ATOM      2  C2  BZF d   1      -1.513  -2.224   1.201  0.00  0.00     0.174 A 
ATOM      3  C3  BZF d   1      -1.996  -1.155   0.536  0.00  0.00    -0.012 A 
ATOM      4  C3A BZF d   1      -3.412  -1.198   0.733  0.00  0.00    -0.107 A 
ATOM      5  C4  BZF d   1      -4.441  -0.395   0.330  0.00  0.00     0.055 A 
ATOM      6  C5  BZF d   1      -5.717  -0.756   0.629  0.00  0.00    -0.016 A 
ATOM      7  C6  BZF d   1      -6.000  -1.913   1.324  0.00  0.00     0.022 A 
ATOM      8  C7  BZF d   1      -5.013  -2.739   1.748  0.00  0.00     0.029 A 
ATOM      9  C7A BZF d   1      -3.721  -2.360   1.476  0.00  0.00     0.058 A 
ENDROOT
TORSDOF 0
ENDMDL
