MODEL 1
REMARK minimizedAffinity 13.0988808
REMARK minimizedRMSD -1
REMARK  0 active torsions:
REMARK  status: ('A' for Active; 'I' for Inactive)
ROOT
ATOM      1  O1  BZF d   1      -2.618  -0.772   2.314  0.00  0.00    -0.204 OA
ATOM      2  C2  BZF d   1      -3.208  -0.359   1.135  0.00  0.00     0.174 A 
ATOM      3  C3  BZF d   1      -2.639  -0.969   0.076  0.00  0.00    -0.012 A 
ATOM      4  C3A BZF d   1      -1.692  -1.885   0.633  0.00  0.00    -0.107 A 
ATOM      5  C4  BZF d   1      -0.826  -2.789   0.086  0.00  0.00     0.055 A 
ATOM      6  C5  BZF d   1       0.014  -3.476   0.903  0.00  0.00    -0.016 A 
ATOM      7  C6  BZF d   1       0.019  -3.282   2.269  0.00  0.00     0.022 A 
ATOM      8  C7  BZF d   1      -0.825  -2.400   2.858  0.00  0.00     0.029 A 
ATOM      9  C7A BZF d   1      -1.698  -1.728   2.038  0.00  0.00     0.058 A 
ENDROOT
TORSDOF 0
ENDMDL
