MODEL 1
REMARK minimizedAffinity 15.4450235
REMARK minimizedRMSD -1
REMARK  0 active torsions:
REMARK  status: ('A' for Active; 'I' for Inactive)
ROOT
ATOM      1  O1  BZF d   1       2.805  -1.137  -2.240  0.00  0.00    -0.204 OA
ATOM      2  C2  BZF d   1       2.050  -0.032  -1.899  0.00  0.00     0.174 A 
ATOM      3  C3  BZF d   1       2.686   1.107  -2.244  0.00  0.00    -0.012 A 
ATOM      4  C3A BZF d   1       3.873   0.684  -2.921  0.00  0.00    -0.107 A 
ATOM      5  C4  BZF d   1       4.905   1.355  -3.514  0.00  0.00     0.055 A 
ATOM      6  C5  BZF d   1       5.948   0.646  -4.021  0.00  0.00    -0.016 A 
ATOM      7  C6  BZF d   1       5.994  -0.731  -3.949  0.00  0.00     0.022 A 
ATOM      8  C7  BZF d   1       4.991  -1.440  -3.376  0.00  0.00     0.029 A 
ATOM      9  C7A BZF d   1       3.921  -0.729  -2.891  0.00  0.00     0.058 A 
ENDROOT
TORSDOF 0
ENDMDL
