MODEL 1
REMARK minimizedAffinity 5.44069815
REMARK minimizedRMSD -1
REMARK  0 active torsions:
REMARK  status: ('A' for Active; 'I' for Inactive)
ROOT
ATOM      1  O1  BZF d   1      -1.166  -4.780   3.209  0.00  0.00    -0.204 OA
ATOM      2  C2  BZF d   1      -0.968  -5.911   2.441  0.00  0.00     0.174 A 
ATOM      3  C3  BZF d   1      -0.964  -5.603   1.128  0.00  0.00    -0.012 A 
ATOM      4  C3A BZF d   1      -1.079  -4.178   1.075  0.00  0.00    -0.107 A 
ATOM      5  C4  BZF d   1      -1.114  -3.276   0.050  0.00  0.00     0.055 A 
ATOM      6  C5  BZF d   1      -1.308  -1.961   0.334  0.00  0.00    -0.016 A 
ATOM      7  C6  BZF d   1      -1.475  -1.515   1.628  0.00  0.00     0.022 A 
ATOM      8  C7  BZF d   1      -1.442  -2.371   2.679  0.00  0.00     0.029 A 
ATOM      9  C7A BZF d   1      -1.214  -3.696   2.398  0.00  0.00     0.058 A 
ENDROOT
TORSDOF 0
ENDMDL
