MODEL 1
REMARK minimizedAffinity 10.5805378
REMARK minimizedRMSD -1
REMARK  0 active torsions:
REMARK  status: ('A' for Active; 'I' for Inactive)
ROOT
ATOM      1  O1  BZF d   1       4.673   0.496   2.420  0.00  0.00    -0.204 OA
ATOM      2  C2  BZF d   1       4.747   1.609   1.604  0.00  0.00     0.174 A 
ATOM      3  C3  BZF d   1       4.541   2.737   2.314  0.00  0.00    -0.012 A 
ATOM      4  C3A BZF d   1       4.416   2.308   3.673  0.00  0.00    -0.107 A 
ATOM      5  C4  BZF d   1       4.214   2.969   4.851  0.00  0.00     0.055 A 
ATOM      6  C5  BZF d   1       4.066   2.251   5.995  0.00  0.00    -0.016 A 
ATOM      7  C6  BZF d   1       4.108   0.872   5.996  0.00  0.00     0.022 A 
ATOM      8  C7  BZF d   1       4.311   0.172   4.854  0.00  0.00     0.029 A 
ATOM      9  C7A BZF d   1       4.494   0.897   3.701  0.00  0.00     0.058 A 
ENDROOT
TORSDOF 0
ENDMDL
