MODEL 1
REMARK minimizedAffinity 10.2148495
REMARK minimizedRMSD -1
REMARK  0 active torsions:
REMARK  status: ('A' for Active; 'I' for Inactive)
ROOT
ATOM      1  O1  BZF d   1      -1.112   0.466   2.920  0.00  0.00    -0.204 OA
ATOM      2  C2  BZF d   1      -1.140   0.254   4.285  0.00  0.00     0.174 A 
ATOM      3  C3  BZF d   1      -1.299  -1.056   4.563  0.00  0.00    -0.012 A 
ATOM      4  C3A BZF d   1      -1.282  -1.715   3.293  0.00  0.00    -0.107 A 
ATOM      5  C4  BZF d   1      -1.380  -3.023   2.912  0.00  0.00     0.055 A 
ATOM      6  C5  BZF d   1      -1.400  -3.325   1.588  0.00  0.00    -0.016 A 
ATOM      7  C6  BZF d   1      -1.330  -2.346   0.618  0.00  0.00     0.022 A 
ATOM      8  C7  BZF d   1      -1.227  -1.035   0.947  0.00  0.00     0.029 A 
ATOM      9  C7A BZF d   1      -1.173  -0.729   2.285  0.00  0.00     0.058 A 
ENDROOT
TORSDOF 0
ENDMDL
