MODEL 1
REMARK minimizedAffinity 3.67449617
REMARK minimizedRMSD -1
REMARK  0 active torsions:
REMARK  status: ('A' for Active; 'I' for Inactive)
ROOT
ATOM      1  O1  BZF d   1      -0.387  -3.431   0.843  0.00  0.00    -0.204 OA
ATOM      2  C2  BZF d   1      -0.674  -2.557   1.873  0.00  0.00     0.174 A 
ATOM      3  C3  BZF d   1      -1.453  -1.545   1.440  0.00  0.00    -0.012 A 
ATOM      4  C3A BZF d   1      -1.742  -1.852   0.072  0.00  0.00    -0.107 A 
ATOM      5  C4  BZF d   1      -2.482  -1.232  -0.893  0.00  0.00     0.055 A 
ATOM      6  C5  BZF d   1      -2.502  -1.753  -2.148  0.00  0.00    -0.016 A 
ATOM      7  C6  BZF d   1      -1.789  -2.889  -2.473  0.00  0.00     0.022 A 
ATOM      8  C7  BZF d   1      -1.045  -3.542  -1.548  0.00  0.00     0.029 A 
ATOM      9  C7A BZF d   1      -1.049  -3.036  -0.271  0.00  0.00     0.058 A 
ENDROOT
TORSDOF 0
ENDMDL
