MODEL 1
REMARK minimizedAffinity 4.8404994
REMARK minimizedRMSD -1
REMARK  0 active torsions:
REMARK  status: ('A' for Active; 'I' for Inactive)
ROOT
ATOM      1  O1  BZF d   1      -0.434  -4.308   1.186  0.00  0.00    -0.204 OA
ATOM      2  C2  BZF d   1      -0.230  -3.880   2.483  0.00  0.00     0.174 A 
ATOM      3  C3  BZF d   1      -0.685  -2.621   2.649  0.00  0.00    -0.012 A 
ATOM      4  C3A BZF d   1      -1.288  -2.272   1.399  0.00  0.00    -0.107 A 
ATOM      5  C4  BZF d   1      -1.930  -1.154   0.947  0.00  0.00     0.055 A 
ATOM      6  C5  BZF d   1      -2.336  -1.106  -0.349  0.00  0.00    -0.016 A 
ATOM      7  C6  BZF d   1      -2.114  -2.152  -1.220  0.00  0.00     0.022 A 
ATOM      8  C7  BZF d   1      -1.487  -3.284  -0.815  0.00  0.00     0.029 A 
ATOM      9  C7A BZF d   1      -1.104  -3.349   0.502  0.00  0.00     0.058 A 
ENDROOT
TORSDOF 0
ENDMDL
