MODEL 1
REMARK minimizedAffinity 4.05078936
REMARK minimizedRMSD -1
REMARK  0 active torsions:
REMARK  status: ('A' for Active; 'I' for Inactive)
ROOT
ATOM      1  O1  BZF d   1      -0.737  -2.765  -0.405  0.00  0.00    -0.204 OA
ATOM      2  C2  BZF d   1      -1.553  -1.662  -0.248  0.00  0.00     0.174 A 
ATOM      3  C3  BZF d   1      -2.694  -1.998   0.388  0.00  0.00    -0.012 A 
ATOM      4  C3A BZF d   1      -2.544  -3.380   0.726  0.00  0.00    -0.107 A 
ATOM      5  C4  BZF d   1      -3.338  -4.278   1.381  0.00  0.00     0.055 A 
ATOM      6  C5  BZF d   1      -2.930  -5.570   1.480  0.00  0.00    -0.016 A 
ATOM      7  C6  BZF d   1      -1.739  -6.000   0.933  0.00  0.00     0.022 A 
ATOM      8  C7  BZF d   1      -0.916  -5.145   0.278  0.00  0.00     0.029 A 
ATOM      9  C7A BZF d   1      -1.310  -3.831   0.205  0.00  0.00     0.058 A 
ENDROOT
TORSDOF 0
ENDMDL
