MODEL 1
REMARK minimizedAffinity 13.7616053
REMARK minimizedRMSD -1
REMARK  0 active torsions:
REMARK  status: ('A' for Active; 'I' for Inactive)
ROOT
ATOM      1  O1  BZF d   1      -1.048  -2.259   0.337  0.00  0.00    -0.204 OA
ATOM      2  C2  BZF d   1      -0.802  -3.483   0.929  0.00  0.00     0.174 A 
ATOM      3  C3  BZF d   1      -0.786  -3.370   2.272  0.00  0.00    -0.012 A 
ATOM      4  C3A BZF d   1      -1.128  -2.007   2.540  0.00  0.00    -0.107 A 
ATOM      5  C4  BZF d   1      -1.290  -1.288   3.689  0.00  0.00     0.055 A 
ATOM      6  C5  BZF d   1      -1.554   0.043   3.604  0.00  0.00    -0.016 A 
ATOM      7  C6  BZF d   1      -1.657   0.686   2.389  0.00  0.00     0.022 A 
ATOM      8  C7  BZF d   1      -1.510   0.014   1.221  0.00  0.00     0.029 A 
ATOM      9  C7A BZF d   1      -1.276  -1.337   1.303  0.00  0.00     0.058 A 
ENDROOT
TORSDOF 0
ENDMDL
