MODEL 1
REMARK minimizedAffinity 10.911417
REMARK minimizedRMSD -1
REMARK  0 active torsions:
REMARK  status: ('A' for Active; 'I' for Inactive)
ROOT
ATOM      1  O1  BZF d   1      -0.371  -2.188   3.561  0.00  0.00    -0.204 OA
ATOM      2  C2  BZF d   1      -1.073  -1.097   4.035  0.00  0.00     0.174 A 
ATOM      3  C3  BZF d   1      -1.996  -0.695   3.137  0.00  0.00    -0.012 A 
ATOM      4  C3A BZF d   1      -1.925  -1.647   2.072  0.00  0.00    -0.107 A 
ATOM      5  C4  BZF d   1      -2.605  -1.794   0.897  0.00  0.00     0.055 A 
ATOM      6  C5  BZF d   1      -2.243  -2.789   0.044  0.00  0.00    -0.016 A 
ATOM      7  C6  BZF d   1      -1.205  -3.650   0.332  0.00  0.00     0.022 A 
ATOM      8  C7  BZF d   1      -0.504  -3.547   1.488  0.00  0.00     0.029 A 
ATOM      9  C7A BZF d   1      -0.889  -2.564   2.366  0.00  0.00     0.058 A 
ENDROOT
TORSDOF 0
ENDMDL
