MODEL 1
REMARK minimizedAffinity 10.9810257
REMARK minimizedRMSD -1
REMARK  0 active torsions:
REMARK  status: ('A' for Active; 'I' for Inactive)
ROOT
ATOM      1  O1  BZF d   1      -0.520  -4.489   1.624  0.00  0.00    -0.204 OA
ATOM      2  C2  BZF d   1      -0.595  -4.791   0.278  0.00  0.00     0.174 A 
ATOM      3  C3  BZF d   1      -0.915  -3.695  -0.440  0.00  0.00    -0.012 A 
ATOM      4  C3A BZF d   1      -0.958  -2.623   0.506  0.00  0.00    -0.107 A 
ATOM      5  C4  BZF d   1      -1.208  -1.285   0.399  0.00  0.00     0.055 A 
ATOM      6  C5  BZF d   1      -1.245  -0.527   1.526  0.00  0.00    -0.016 A 
ATOM      7  C6  BZF d   1      -1.042  -1.075   2.776  0.00  0.00     0.022 A 
ATOM      8  C7  BZF d   1      -0.786  -2.397   2.933  0.00  0.00     0.029 A 
ATOM      9  C7A BZF d   1      -0.715  -3.159   1.792  0.00  0.00     0.058 A 
ENDROOT
TORSDOF 0
ENDMDL
