MODEL 1
REMARK minimizedAffinity 0.673546433
REMARK minimizedRMSD -1
REMARK  0 active torsions:
REMARK  status: ('A' for Active; 'I' for Inactive)
ROOT
ATOM      1  O1  BZF d   1      -1.825  -3.698  -1.887  0.00  0.00    -0.204 OA
ATOM      2  C2  BZF d   1      -2.273  -2.519  -2.450  0.00  0.00     0.174 A 
ATOM      3  C3  BZF d   1      -2.289  -1.528  -1.535  0.00  0.00    -0.012 A 
ATOM      4  C3A BZF d   1      -1.734  -2.103  -0.348  0.00  0.00    -0.107 A 
ATOM      5  C4  BZF d   1      -1.474  -1.612   0.900  0.00  0.00     0.055 A 
ATOM      6  C5  BZF d   1      -0.998  -2.454   1.854  0.00  0.00    -0.016 A 
ATOM      7  C6  BZF d   1      -0.776  -3.792   1.598  0.00  0.00     0.022 A 
ATOM      8  C7  BZF d   1      -1.014  -4.323   0.374  0.00  0.00     0.029 A 
ATOM      9  C7A BZF d   1      -1.464  -3.468  -0.602  0.00  0.00     0.058 A 
ENDROOT
TORSDOF 0
ENDMDL
