MODEL 1
REMARK minimizedAffinity 5.35048342
REMARK minimizedRMSD -1
REMARK  0 active torsions:
REMARK  status: ('A' for Active; 'I' for Inactive)
ROOT
ATOM      1  O1  BZF d   1      -2.554  -1.604  -1.790  0.00  0.00    -0.204 OA
ATOM      2  C2  BZF d   1      -1.898  -2.459  -2.654  0.00  0.00     0.174 A 
ATOM      3  C3  BZF d   1      -1.114  -3.319  -1.972  0.00  0.00    -0.012 A 
ATOM      4  C3A BZF d   1      -1.361  -3.040  -0.591  0.00  0.00    -0.107 A 
ATOM      5  C4  BZF d   1      -0.891  -3.575   0.574  0.00  0.00     0.055 A 
ATOM      6  C5  BZF d   1      -1.277  -3.027   1.756  0.00  0.00    -0.016 A 
ATOM      7  C6  BZF d   1      -2.127  -1.942   1.810  0.00  0.00     0.022 A 
ATOM      8  C7  BZF d   1      -2.624  -1.380   0.681  0.00  0.00     0.029 A 
ATOM      9  C7A BZF d   1      -2.262  -1.953  -0.514  0.00  0.00     0.058 A 
ENDROOT
TORSDOF 0
ENDMDL
