MODEL 1
REMARK minimizedAffinity 15.9723825
REMARK minimizedRMSD -1
REMARK  0 active torsions:
REMARK  status: ('A' for Active; 'I' for Inactive)
ROOT
ATOM      1  O1  BZF d   1      -3.497   2.763  -4.219  0.00  0.00    -0.204 OA
ATOM      2  C2  BZF d   1      -2.712   3.353  -3.247  0.00  0.00     0.174 A 
ATOM      3  C3  BZF d   1      -2.994   4.667  -3.137  0.00  0.00    -0.012 A 
ATOM      4  C3A BZF d   1      -4.083   4.895  -4.037  0.00  0.00    -0.107 A 
ATOM      5  C4  BZF d   1      -4.816   6.000  -4.362  0.00  0.00     0.055 A 
ATOM      6  C5  BZF d   1      -5.763   5.902  -5.332  0.00  0.00    -0.016 A 
ATOM      7  C6  BZF d   1      -5.999   4.718  -6.000  0.00  0.00     0.022 A 
ATOM      8  C7  BZF d   1      -5.300   3.594  -5.708  0.00  0.00     0.029 A 
ATOM      9  C7A BZF d   1      -4.366   3.681  -4.705  0.00  0.00     0.058 A 
ENDROOT
TORSDOF 0
ENDMDL
