MODEL 1
REMARK minimizedAffinity 6.66334343
REMARK minimizedRMSD -1
REMARK  0 active torsions:
REMARK  status: ('A' for Active; 'I' for Inactive)
ROOT
ATOM      1  O1  BZF d   1      -1.263  -2.943   4.359  0.00  0.00    -0.204 OA
ATOM      2  C2  BZF d   1      -1.641  -1.756   4.956  0.00  0.00     0.174 A 
ATOM      3  C3  BZF d   1      -1.837  -0.795   4.030  0.00  0.00    -0.012 A 
ATOM      4  C3A BZF d   1      -1.653  -1.446   2.769  0.00  0.00    -0.107 A 
ATOM      5  C4  BZF d   1      -1.730  -1.021   1.473  0.00  0.00     0.055 A 
ATOM      6  C5  BZF d   1      -1.422  -1.889   0.474  0.00  0.00    -0.016 A 
ATOM      7  C6  BZF d   1      -1.028  -3.185   0.734  0.00  0.00     0.022 A 
ATOM      8  C7  BZF d   1      -0.941  -3.653   2.003  0.00  0.00     0.029 A 
ATOM      9  C7A BZF d   1      -1.284  -2.789   3.013  0.00  0.00     0.058 A 
ENDROOT
TORSDOF 0
ENDMDL
