MODEL 1
REMARK minimizedAffinity 2.61696219
REMARK minimizedRMSD -1
REMARK  0 active torsions:
REMARK  status: ('A' for Active; 'I' for Inactive)
ROOT
ATOM      1  O1  BZF d   1      -3.732   2.129   5.747  0.00  0.00    -0.204 OA
ATOM      2  C2  BZF d   1      -5.084   2.352   5.925  0.00  0.00     0.174 A 
ATOM      3  C3  BZF d   1      -5.755   1.185   6.000  0.00  0.00    -0.012 A 
ATOM      4  C3A BZF d   1      -4.750   0.168   5.951  0.00  0.00    -0.107 A 
ATOM      5  C4  BZF d   1      -4.791  -1.196   6.000  0.00  0.00     0.055 A 
ATOM      6  C5  BZF d   1      -3.636  -1.897   5.854  0.00  0.00    -0.016 A 
ATOM      7  C6  BZF d   1      -2.425  -1.268   5.652  0.00  0.00     0.022 A 
ATOM      8  C7  BZF d   1      -2.334   0.083   5.602  0.00  0.00     0.029 A 
ATOM      9  C7A BZF d   1      -3.494   0.795   5.782  0.00  0.00     0.058 A 
ENDROOT
TORSDOF 0
ENDMDL
