MODEL 1
REMARK minimizedAffinity 13.4560966
REMARK minimizedRMSD -1
REMARK  1 active torsions:
REMARK  status: ('A' for Active; 'I' for Inactive)
REMARK    1  A    between atoms: N_2  and  C1_3 
ROOT
ATOM      1  C1  UNL d   1      -3.113   3.475  -5.980  0.00  0.00     0.143 A 
ATOM      2  C2  UNL d   1      -4.317   2.763  -5.980  0.00  0.00    -0.057 A 
ATOM      3  C3  UNL d   1      -5.551   3.424  -5.998  0.00  0.00     0.033 A 
ATOM      4  C4  UNL d   1      -5.602   4.814  -5.986  0.00  0.00    -0.042 A 
ATOM      5  C5  UNL d   1      -4.418   5.542  -5.961  0.00  0.00     0.033 A 
ATOM      6  C6  UNL d   1      -3.189   4.876  -5.951  0.00  0.00    -0.057 A 
ENDROOT
BRANCH   1   7
ATOM      7  N   UNL d   1      -1.856   2.877  -5.864  0.00  0.00    -0.732 N 
ATOM      8  C   UNL d   1      -1.452   2.245  -4.626  0.00  0.00     0.284 C 
ATOM      9  H3  UNL d   1      -1.593   2.359  -6.699  0.00  0.00     0.395 HD
ENDBRANCH   1   7
TORSDOF 1
ENDMDL
