MODEL 1
REMARK minimizedAffinity 13.3308802
REMARK minimizedRMSD -1
REMARK  1 active torsions:
REMARK  status: ('A' for Active; 'I' for Inactive)
REMARK    1  A    between atoms: N_2  and  C1_3 
ROOT
ATOM      1  C1  UNL d   1      -4.683   1.156   4.258  0.00  0.00     0.143 A 
ATOM      2  C2  UNL d   1      -4.986  -0.042   3.601  0.00  0.00    -0.057 A 
ATOM      3  C3  UNL d   1      -4.163  -0.540   2.583  0.00  0.00     0.033 A 
ATOM      4  C4  UNL d   1      -3.035   0.169   2.183  0.00  0.00    -0.042 A 
ATOM      5  C5  UNL d   1      -2.729   1.374   2.805  0.00  0.00     0.033 A 
ATOM      6  C6  UNL d   1      -3.550   1.863   3.825  0.00  0.00    -0.057 A 
ENDROOT
BRANCH   1   7
ATOM      7  N   UNL d   1      -5.514   1.753   5.209  0.00  0.00    -0.732 N 
ATOM      8  C   UNL d   1      -5.066   2.907   5.958  0.00  0.00     0.284 C 
ATOM      9  H3  UNL d   1      -6.482   1.808   4.900  0.00  0.00     0.395 HD
ENDBRANCH   1   7
TORSDOF 1
ENDMDL
