MODEL 1
REMARK minimizedAffinity 0.393168896
REMARK minimizedRMSD -1
REMARK  1 active torsions:
REMARK  status: ('A' for Active; 'I' for Inactive)
REMARK    1  A    between atoms: N_2  and  C1_3 
ROOT
ATOM      1  C1  UNL d   1      -4.842   1.268   5.147  0.00  0.00     0.143 A 
ATOM      2  C2  UNL d   1      -5.607   0.099   5.233  0.00  0.00    -0.057 A 
ATOM      3  C3  UNL d   1      -5.472  -0.928   4.292  0.00  0.00     0.033 A 
ATOM      4  C4  UNL d   1      -4.587  -0.793   3.227  0.00  0.00    -0.042 A 
ATOM      5  C5  UNL d   1      -3.835   0.370   3.107  0.00  0.00     0.033 A 
ATOM      6  C6  UNL d   1      -3.969   1.390   4.054  0.00  0.00    -0.057 A 
ENDROOT
BRANCH   1   7
ATOM      7  N   UNL d   1      -5.002   2.366   5.994  0.00  0.00    -0.732 N 
ATOM      8  C   UNL d   1      -5.847   3.477   5.611  0.00  0.00     0.284 C 
ATOM      9  H3  UNL d   1      -5.090   2.094   6.971  0.00  0.00     0.395 HD
ENDBRANCH   1   7
TORSDOF 1
ENDMDL
