MODEL 1
REMARK minimizedAffinity 9.98754215
REMARK minimizedRMSD -1
REMARK  1 active torsions:
REMARK  status: ('A' for Active; 'I' for Inactive)
REMARK    1  A    between atoms: N_2  and  C1_3 
ROOT
ATOM      1  C1  UNL d   1       1.452   2.906   0.917  0.00  0.00     0.143 A 
ATOM      2  C2  UNL d   1       1.915   2.459  -0.325  0.00  0.00    -0.057 A 
ATOM      3  C3  UNL d   1       1.793   3.250  -1.473  0.00  0.00     0.033 A 
ATOM      4  C4  UNL d   1       1.177   4.496  -1.404  0.00  0.00    -0.042 A 
ATOM      5  C5  UNL d   1       0.687   4.950  -0.185  0.00  0.00     0.033 A 
ATOM      6  C6  UNL d   1       0.818   4.157   0.960  0.00  0.00    -0.057 A 
ENDROOT
BRANCH   1   7
ATOM      7  N   UNL d   1       1.455   2.125   2.076  0.00  0.00    -0.732 N 
ATOM      8  C   UNL d   1       0.474   1.077   2.261  0.00  0.00     0.284 C 
ATOM      9  H3  UNL d   1       2.396   1.871   2.370  0.00  0.00     0.395 HD
ENDBRANCH   1   7
TORSDOF 1
ENDMDL
