MODEL 1
REMARK minimizedAffinity 8.07535553
REMARK minimizedRMSD -1
REMARK  1 active torsions:
REMARK  status: ('A' for Active; 'I' for Inactive)
REMARK    1  A    between atoms: N_2  and  C1_3 
ROOT
ATOM      1  C1  UNL d   1      -1.529   1.167   3.249  0.00  0.00     0.143 A 
ATOM      2  C2  UNL d   1      -1.327   1.553   4.578  0.00  0.00    -0.057 A 
ATOM      3  C3  UNL d   1      -0.140   1.242   5.253  0.00  0.00     0.033 A 
ATOM      4  C4  UNL d   1       0.857   0.511   4.616  0.00  0.00    -0.042 A 
ATOM      5  C5  UNL d   1       0.668   0.095   3.303  0.00  0.00     0.033 A 
ATOM      6  C6  UNL d   1      -0.517   0.415   2.633  0.00  0.00    -0.057 A 
ENDROOT
BRANCH   1   7
ATOM      7  N   UNL d   1      -2.726   1.361   2.556  0.00  0.00    -0.732 N 
ATOM      8  C   UNL d   1      -3.938   0.690   2.976  0.00  0.00     0.284 C 
ATOM      9  H3  UNL d   1      -2.862   2.330   2.279  0.00  0.00     0.395 HD
ENDBRANCH   1   7
TORSDOF 1
ENDMDL
