MODEL 1
REMARK minimizedAffinity 8.67902374
REMARK minimizedRMSD -1
REMARK  1 active torsions:
REMARK  status: ('A' for Active; 'I' for Inactive)
REMARK    1  A    between atoms: N_2  and  C1_3 
ROOT
ATOM      1  C1  UNL d   1      -1.752  -0.167   2.650  0.00  0.00     0.143 A 
ATOM      2  C2  UNL d   1      -2.833  -1.050   2.742  0.00  0.00    -0.057 A 
ATOM      3  C3  UNL d   1      -4.110  -0.600   3.096  0.00  0.00     0.033 A 
ATOM      4  C4  UNL d   1      -4.324   0.742   3.394  0.00  0.00    -0.042 A 
ATOM      5  C5  UNL d   1      -3.258   1.633   3.334  0.00  0.00     0.033 A 
ATOM      6  C6  UNL d   1      -1.987   1.179   2.973  0.00  0.00    -0.057 A 
ENDROOT
BRANCH   1   7
ATOM      7  N   UNL d   1      -0.438  -0.570   2.399  0.00  0.00    -0.732 N 
ATOM      8  C   UNL d   1       0.676   0.141   2.989  0.00  0.00     0.284 C 
ATOM      9  H3  UNL d   1      -0.334  -1.582   2.402  0.00  0.00     0.395 HD
ENDBRANCH   1   7
TORSDOF 1
ENDMDL
