MODEL 1
REMARK minimizedAffinity 9.05132675
REMARK minimizedRMSD -1
REMARK  1 active torsions:
REMARK  status: ('A' for Active; 'I' for Inactive)
REMARK    1  A    between atoms: N_2  and  C1_3 
ROOT
ATOM      1  C1  UNL d   1      -1.658  -1.860  -3.287  0.00  0.00     0.143 A 
ATOM      2  C2  UNL d   1      -1.024  -2.725  -2.389  0.00  0.00    -0.057 A 
ATOM      3  C3  UNL d   1      -1.449  -4.050  -2.235  0.00  0.00     0.033 A 
ATOM      4  C4  UNL d   1      -2.538  -4.526  -2.958  0.00  0.00    -0.042 A 
ATOM      5  C5  UNL d   1      -3.198  -3.677  -3.838  0.00  0.00     0.033 A 
ATOM      6  C6  UNL d   1      -2.765  -2.356  -3.992  0.00  0.00    -0.057 A 
ENDROOT
BRANCH   1   7
ATOM      7  N   UNL d   1      -1.345  -0.504  -3.413  0.00  0.00    -0.732 N 
ATOM      8  C   UNL d   1      -2.331   0.438  -3.897  0.00  0.00     0.284 C 
ATOM      9  H3  UNL d   1      -0.789  -0.160  -2.634  0.00  0.00     0.395 HD
ENDBRANCH   1   7
TORSDOF 1
ENDMDL
