MODEL 1
REMARK minimizedAffinity 7.48539877
REMARK minimizedRMSD -1
REMARK  1 active torsions:
REMARK  status: ('A' for Active; 'I' for Inactive)
REMARK    1  A    between atoms: N_2  and  C1_3 
ROOT
ATOM      1  C1  UNL d   1       3.375  -2.775  -3.431  0.00  0.00     0.143 A 
ATOM      2  C2  UNL d   1       3.388  -3.503  -2.236  0.00  0.00    -0.057 A 
ATOM      3  C3  UNL d   1       2.816  -2.989  -1.066  0.00  0.00     0.033 A 
ATOM      4  C4  UNL d   1       2.244  -1.721  -1.063  0.00  0.00    -0.042 A 
ATOM      5  C5  UNL d   1       2.242  -0.969  -2.233  0.00  0.00     0.033 A 
ATOM      6  C6  UNL d   1       2.809  -1.491  -3.400  0.00  0.00    -0.057 A 
ENDROOT
BRANCH   1   7
ATOM      7  N   UNL d   1       4.014  -3.190  -4.602  0.00  0.00    -0.732 N 
ATOM      8  C   UNL d   1       3.770  -2.510  -5.855  0.00  0.00     0.284 C 
ATOM      9  H3  UNL d   1       4.989  -3.438  -4.445  0.00  0.00     0.395 HD
ENDBRANCH   1   7
TORSDOF 1
ENDMDL
