MODEL 1
REMARK minimizedAffinity 5.57774734
REMARK minimizedRMSD -1
REMARK  1 active torsions:
REMARK  status: ('A' for Active; 'I' for Inactive)
REMARK    1  A    between atoms: N_2  and  C1_3 
ROOT
ATOM      1  C1  UNL d   1      -3.535   0.693   3.373  0.00  0.00     0.143 A 
ATOM      2  C2  UNL d   1      -4.005   1.865   3.975  0.00  0.00    -0.057 A 
ATOM      3  C3  UNL d   1      -3.172   2.977   4.148  0.00  0.00     0.033 A 
ATOM      4  C4  UNL d   1      -1.841   2.925   3.747  0.00  0.00    -0.042 A 
ATOM      5  C5  UNL d   1      -1.346   1.762   3.169  0.00  0.00     0.033 A 
ATOM      6  C6  UNL d   1      -2.185   0.657   2.993  0.00  0.00    -0.057 A 
ENDROOT
BRANCH   1   7
ATOM      7  N   UNL d   1      -4.286  -0.480   3.262  0.00  0.00    -0.732 N 
ATOM      8  C   UNL d   1      -5.431  -0.542   2.378  0.00  0.00     0.284 C 
ATOM      9  H3  UNL d   1      -3.704  -1.314   3.248  0.00  0.00     0.395 HD
ENDBRANCH   1   7
TORSDOF 1
ENDMDL
