MODEL 1
REMARK minimizedAffinity 4.78128862
REMARK minimizedRMSD -1
REMARK  0 active torsions:
REMARK  status: ('A' for Active; 'I' for Inactive)
ROOT
ATOM      1  C   UNL d   1       5.993   5.205  -1.797  0.00  0.00     0.020 A 
ATOM      2  C1  UNL d   1       6.000   5.670  -0.483  0.00  0.00     0.020 A 
ATOM      3  C2  UNL d   1       5.811   4.778   0.575  0.00  0.00     0.034 A 
ATOM      4  C3  UNL d   1       5.614   3.416   0.319  0.00  0.00     0.017 A 
ATOM      5  C4  UNL d   1       5.607   2.950  -1.000  0.00  0.00     0.017 A 
ATOM      6  C5  UNL d   1       5.797   3.848  -2.055  0.00  0.00     0.034 A 
ATOM      7 Cl   UNL d   1       5.370   1.284  -1.394  0.00  0.00    -0.070 Cl
ATOM      8 Cl1  UNL d   1       5.387   2.369   1.675  0.00  0.00    -0.070 Cl
ENDROOT
TORSDOF 0
ENDMDL
