MODEL 1
REMARK minimizedAffinity 10.0429983
REMARK minimizedRMSD -1
REMARK  0 active torsions:
REMARK  status: ('A' for Active; 'I' for Inactive)
ROOT
ATOM      1  C   UNL d   1       4.831   1.637  -0.769  0.00  0.00     0.020 A 
ATOM      2  C1  UNL d   1       5.471   0.399  -0.812  0.00  0.00     0.020 A 
ATOM      3  C2  UNL d   1       4.719  -0.778  -0.793  0.00  0.00     0.034 A 
ATOM      4  C3  UNL d   1       3.322  -0.718  -0.731  0.00  0.00     0.017 A 
ATOM      5  C4  UNL d   1       2.680   0.525  -0.688  0.00  0.00     0.017 A 
ATOM      6  C5  UNL d   1       3.438   1.699  -0.708  0.00  0.00     0.034 A 
ATOM      7 Cl   UNL d   1       0.960   0.678  -0.611  0.00  0.00    -0.070 Cl
ATOM      8 Cl1  UNL d   1       2.454  -2.213  -0.711  0.00  0.00    -0.070 Cl
ENDROOT
TORSDOF 0
ENDMDL
