MODEL 1
REMARK minimizedAffinity 6.34393454
REMARK minimizedRMSD -1
REMARK  0 active torsions:
REMARK  status: ('A' for Active; 'I' for Inactive)
ROOT
ATOM      1  C   UNL d   1       3.867  -0.474  -0.176  0.00  0.00     0.020 A 
ATOM      2  C1  UNL d   1       3.841  -1.868  -0.188  0.00  0.00     0.020 A 
ATOM      3  C2  UNL d   1       2.713  -2.541  -0.660  0.00  0.00     0.034 A 
ATOM      4  C3  UNL d   1       1.605  -1.821  -1.122  0.00  0.00     0.017 A 
ATOM      5  C4  UNL d   1       1.632  -0.422  -1.109  0.00  0.00     0.017 A 
ATOM      6  C5  UNL d   1       2.764   0.248  -0.636  0.00  0.00     0.034 A 
ATOM      7 Cl   UNL d   1       0.304   0.536  -1.663  0.00  0.00    -0.070 Cl
ATOM      8 Cl1  UNL d   1       0.243  -2.719  -1.692  0.00  0.00    -0.070 Cl
ENDROOT
TORSDOF 0
ENDMDL
