MODEL 1
REMARK minimizedAffinity 9.84484291
REMARK minimizedRMSD -1
REMARK  0 active torsions:
REMARK  status: ('A' for Active; 'I' for Inactive)
ROOT
ATOM      1  C   UNL d   1      -5.907   5.325   5.428  0.00  0.00     0.020 A 
ATOM      2  C1  UNL d   1      -5.690   5.469   4.058  0.00  0.00     0.020 A 
ATOM      3  C2  UNL d   1      -5.564   4.338   3.249  0.00  0.00     0.034 A 
ATOM      4  C3  UNL d   1      -5.655   3.058   3.808  0.00  0.00     0.017 A 
ATOM      5  C4  UNL d   1      -5.874   2.915   5.183  0.00  0.00     0.017 A 
ATOM      6  C5  UNL d   1      -5.999   4.050   5.989  0.00  0.00     0.034 A 
ATOM      7 Cl   UNL d   1      -5.998   1.368   5.946  0.00  0.00    -0.070 Cl
ATOM      8 Cl1  UNL d   1      -5.491   1.704   2.748  0.00  0.00    -0.070 Cl
ENDROOT
TORSDOF 0
ENDMDL
