MODEL 1
REMARK minimizedAffinity 14.4918604
REMARK minimizedRMSD -1
REMARK  0 active torsions:
REMARK  status: ('A' for Active; 'I' for Inactive)
ROOT
ATOM      1  C   UNL d   1      -1.070   2.060   1.327  0.00  0.00     0.020 A 
ATOM      2  C1  UNL d   1       0.100   1.734   2.011  0.00  0.00     0.020 A 
ATOM      3  C2  UNL d   1       1.094   0.985   1.377  0.00  0.00     0.034 A 
ATOM      4  C3  UNL d   1       0.919   0.560   0.055  0.00  0.00     0.017 A 
ATOM      5  C4  UNL d   1      -0.256   0.888  -0.631  0.00  0.00     0.017 A 
ATOM      6  C5  UNL d   1      -1.248   1.638   0.009  0.00  0.00     0.034 A 
ATOM      7 Cl   UNL d   1      -0.543   0.399  -2.263  0.00  0.00    -0.070 Cl
ATOM      8 Cl1  UNL d   1       2.189  -0.363  -0.666  0.00  0.00    -0.070 Cl
ENDROOT
TORSDOF 0
ENDMDL
