MODEL 1
REMARK minimizedAffinity 10.8716068
REMARK minimizedRMSD -1
REMARK  0 active torsions:
REMARK  status: ('A' for Active; 'I' for Inactive)
ROOT
ATOM      1  C   UNL d   1       4.109   0.039  -0.002  0.00  0.00     0.020 A 
ATOM      2  C1  UNL d   1       4.131   0.464  -1.330  0.00  0.00     0.020 A 
ATOM      3  C2  UNL d   1       4.720   1.686  -1.662  0.00  0.00     0.034 A 
ATOM      4  C3  UNL d   1       5.289   2.488  -0.666  0.00  0.00     0.017 A 
ATOM      5  C4  UNL d   1       5.266   2.060   0.667  0.00  0.00     0.017 A 
ATOM      6  C5  UNL d   1       4.675   0.836   0.994  0.00  0.00     0.034 A 
ATOM      7 Cl   UNL d   1       5.947   2.994   1.951  0.00  0.00    -0.070 Cl
ATOM      8 Cl1  UNL d   1       6.000   3.987  -1.149  0.00  0.00    -0.070 Cl
ENDROOT
TORSDOF 0
ENDMDL
