MODEL 1
REMARK minimizedAffinity 14.4221888
REMARK minimizedRMSD -1
REMARK  0 active torsions:
REMARK  status: ('A' for Active; 'I' for Inactive)
ROOT
ATOM      1  C   UNL d   1      -4.271   0.752  -5.566  0.00  0.00     0.020 A 
ATOM      2  C1  UNL d   1      -3.023   1.198  -6.000  0.00  0.00     0.020 A 
ATOM      3  C2  UNL d   1      -1.862   0.747  -5.369  0.00  0.00     0.034 A 
ATOM      4  C3  UNL d   1      -1.946  -0.152  -4.300  0.00  0.00     0.017 A 
ATOM      5  C4  UNL d   1      -3.198  -0.600  -3.865  0.00  0.00     0.017 A 
ATOM      6  C5  UNL d   1      -4.358  -0.145  -4.501  0.00  0.00     0.034 A 
ATOM      7 Cl   UNL d   1      -3.381  -1.710  -2.553  0.00  0.00    -0.070 Cl
ATOM      8 Cl1  UNL d   1      -0.469  -0.668  -3.567  0.00  0.00    -0.070 Cl
ENDROOT
TORSDOF 0
ENDMDL
