MODEL 1
REMARK minimizedAffinity 4.94518566
REMARK minimizedRMSD -1
REMARK  0 active torsions:
REMARK  status: ('A' for Active; 'I' for Inactive)
ROOT
ATOM      1  C   UNL d   1       3.447  -0.217  -0.108  0.00  0.00     0.020 A 
ATOM      2  C1  UNL d   1       3.919   0.328  -1.302  0.00  0.00     0.020 A 
ATOM      3  C2  UNL d   1       4.706   1.482  -1.279  0.00  0.00     0.034 A 
ATOM      4  C3  UNL d   1       5.022   2.095  -0.061  0.00  0.00     0.017 A 
ATOM      5  C4  UNL d   1       4.547   1.547   1.136  0.00  0.00     0.017 A 
ATOM      6  C5  UNL d   1       3.760   0.391   1.108  0.00  0.00     0.034 A 
ATOM      7 Cl   UNL d   1       4.896   2.246   2.678  0.00  0.00    -0.070 Cl
ATOM      8 Cl1  UNL d   1       5.999   3.519  -0.107  0.00  0.00    -0.070 Cl
ENDROOT
TORSDOF 0
ENDMDL
