MODEL 1
REMARK minimizedAffinity 4.24898577
REMARK minimizedRMSD -1
REMARK  1 active torsions:
REMARK  status: ('A' for Active; 'I' for Inactive)
REMARK    1  A    between atoms: C1_2  and  C2_3 
ROOT
ATOM      1  C2  UNL d   1       5.283   2.384   3.925  0.00  0.00    -0.076 A 
ATOM      2  C3  UNL d   1       4.603   2.433   2.696  0.00  0.00     0.004 A 
ATOM      3  C4  UNL d   1       3.964   1.305   2.184  0.00  0.00    -0.003 A 
ATOM      4  C5  UNL d   1       3.995   0.109   2.894  0.00  0.00     0.000 A 
ATOM      5  C6  UNL d   1       4.651   0.047   4.123  0.00  0.00     0.000 A 
ATOM      6  C7  UNL d   1       5.286   1.180   4.661  0.00  0.00    -0.073 A 
ATOM      7  C8  UNL d   1       5.983   1.055   5.988  0.00  0.00     0.078 C 
ENDROOT
BRANCH   1   8
ATOM      8  C1  UNL d   1       5.981   3.633   4.417  0.00  0.00     0.053 C 
ATOM      9  C   UNL d   1       5.959   4.755   3.391  0.00  0.00     0.018 C 
ENDBRANCH   1   8
TORSDOF 1
ENDMDL
