MODEL 1
REMARK minimizedAffinity 4.30092573
REMARK minimizedRMSD -1
REMARK  1 active torsions:
REMARK  status: ('A' for Active; 'I' for Inactive)
REMARK    1  A    between atoms: C1_2  and  C2_3 
ROOT
ATOM      1  C2  UNL d   1       1.401   3.622  -1.966  0.00  0.00    -0.076 A 
ATOM      2  C3  UNL d   1       1.337   2.800  -3.104  0.00  0.00     0.004 A 
ATOM      3  C4  UNL d   1       0.508   1.680  -3.135  0.00  0.00    -0.003 A 
ATOM      4  C5  UNL d   1      -0.272   1.365  -2.028  0.00  0.00     0.000 A 
ATOM      5  C6  UNL d   1      -0.235   2.180  -0.897  0.00  0.00     0.000 A 
ATOM      6  C7  UNL d   1       0.583   3.321  -0.856  0.00  0.00    -0.073 A 
ATOM      7  C8  UNL d   1       0.589   4.161   0.392  0.00  0.00     0.078 C 
ENDROOT
BRANCH   1   8
ATOM      8  C1  UNL d   1       2.339   4.808  -1.981  0.00  0.00     0.053 C 
ATOM      9  C   UNL d   1       3.063   4.962  -3.309  0.00  0.00     0.018 C 
ENDBRANCH   1   8
TORSDOF 1
ENDMDL
