MODEL 1
REMARK minimizedAffinity 2.49112391
REMARK minimizedRMSD -1
REMARK  1 active torsions:
REMARK  status: ('A' for Active; 'I' for Inactive)
REMARK    1  A    between atoms: C1_2  and  C2_3 
ROOT
ATOM      1  C2  UNL d   1       5.397   1.577   3.963  0.00  0.00    -0.076 A 
ATOM      2  C3  UNL d   1       6.000   1.531   5.232  0.00  0.00     0.004 A 
ATOM      3  C4  UNL d   1       5.974   0.366   5.996  0.00  0.00    -0.003 A 
ATOM      4  C5  UNL d   1       5.346  -0.773   5.504  0.00  0.00     0.000 A 
ATOM      5  C6  UNL d   1       4.758  -0.750   4.240  0.00  0.00     0.000 A 
ATOM      6  C7  UNL d   1       4.789   0.412   3.449  0.00  0.00    -0.073 A 
ATOM      7  C8  UNL d   1       4.133   0.382   2.096  0.00  0.00     0.078 C 
ENDROOT
BRANCH   1   8
ATOM      8  C1  UNL d   1       5.433   2.877   3.191  0.00  0.00     0.053 C 
ATOM      9  C   UNL d   1       5.761   4.070   4.075  0.00  0.00     0.018 C 
ENDBRANCH   1   8
TORSDOF 1
ENDMDL
