MODEL 1
REMARK minimizedAffinity 7.80131149
REMARK minimizedRMSD -1
REMARK  1 active torsions:
REMARK  status: ('A' for Active; 'I' for Inactive)
REMARK    1  A    between atoms: C1_2  and  C2_3 
ROOT
ATOM      1  C2  UNL d   1       5.091   1.836   3.536  0.00  0.00    -0.076 A 
ATOM      2  C3  UNL d   1       4.809   0.758   2.679  0.00  0.00     0.004 A 
ATOM      3  C4  UNL d   1       5.125  -0.550   3.042  0.00  0.00    -0.003 A 
ATOM      4  C5  UNL d   1       5.728  -0.802   4.269  0.00  0.00     0.000 A 
ATOM      5  C6  UNL d   1       5.999   0.254   5.140  0.00  0.00     0.000 A 
ATOM      6  C7  UNL d   1       5.672   1.576   4.796  0.00  0.00    -0.073 A 
ATOM      7  C8  UNL d   1       5.993   2.676   5.770  0.00  0.00     0.078 C 
ENDROOT
BRANCH   1   8
ATOM      8  C1  UNL d   1       4.750   3.235   3.077  0.00  0.00     0.053 C 
ATOM      9  C   UNL d   1       3.783   3.244   1.903  0.00  0.00     0.018 C 
ENDBRANCH   1   8
TORSDOF 1
ENDMDL
