MODEL 1
REMARK minimizedAffinity 10.5056438
REMARK minimizedRMSD -1
REMARK  1 active torsions:
REMARK  status: ('A' for Active; 'I' for Inactive)
REMARK    1  A    between atoms: C1_2  and  C2_3 
ROOT
ATOM      1  C2  UNL d   1      -2.969   0.748   1.544  0.00  0.00    -0.076 A 
ATOM      2  C3  UNL d   1      -2.740   2.000   2.141  0.00  0.00     0.004 A 
ATOM      3  C4  UNL d   1      -2.717   3.166   1.377  0.00  0.00    -0.003 A 
ATOM      4  C5  UNL d   1      -2.922   3.099   0.003  0.00  0.00     0.000 A 
ATOM      5  C6  UNL d   1      -3.168   1.867  -0.603  0.00  0.00     0.000 A 
ATOM      6  C7  UNL d   1      -3.211   0.685   0.155  0.00  0.00    -0.073 A 
ATOM      7  C8  UNL d   1      -3.473  -0.617  -0.552  0.00  0.00     0.078 C 
ENDROOT
BRANCH   1   8
ATOM      8  C1  UNL d   1      -2.956  -0.485   2.419  0.00  0.00     0.053 C 
ATOM      9  C   UNL d   1      -2.514  -0.184   3.843  0.00  0.00     0.018 C 
ENDBRANCH   1   8
TORSDOF 1
ENDMDL
