MODEL 1
REMARK minimizedAffinity -3.07443309
REMARK minimizedRMSD -1
REMARK  1 active torsions:
REMARK  status: ('A' for Active; 'I' for Inactive)
REMARK    1  A    between atoms: C1_2  and  C2_3 
ROOT
ATOM      1  C2  UNL d   1       3.726  -0.266   2.700  0.00  0.00    -0.076 A 
ATOM      2  C3  UNL d   1       4.203  -1.478   3.228  0.00  0.00     0.004 A 
ATOM      3  C4  UNL d   1       5.286  -1.501   4.105  0.00  0.00    -0.003 A 
ATOM      4  C5  UNL d   1       5.909  -0.313   4.469  0.00  0.00     0.000 A 
ATOM      5  C6  UNL d   1       5.438   0.901   3.969  0.00  0.00     0.000 A 
ATOM      6  C7  UNL d   1       4.337   0.943   3.096  0.00  0.00    -0.073 A 
ATOM      7  C8  UNL d   1       3.874   2.279   2.583  0.00  0.00     0.078 C 
ENDROOT
BRANCH   1   8
ATOM      8  C1  UNL d   1       2.565  -0.305   1.732  0.00  0.00     0.053 C 
ATOM      9  C   UNL d   1       2.521  -1.594   0.926  0.00  0.00     0.018 C 
ENDBRANCH   1   8
TORSDOF 1
ENDMDL
