MODEL 1
REMARK minimizedAffinity 2.15989661
REMARK minimizedRMSD -1
REMARK  1 active torsions:
REMARK  status: ('A' for Active; 'I' for Inactive)
REMARK    1  A    between atoms: C1_2  and  C2_3 
ROOT
ATOM      1  C2  UNL d   1      -3.635  -0.432   1.567  0.00  0.00    -0.076 A 
ATOM      2  C3  UNL d   1      -2.793   0.097   0.574  0.00  0.00     0.004 A 
ATOM      3  C4  UNL d   1      -3.314   0.590  -0.621  0.00  0.00    -0.003 A 
ATOM      4  C5  UNL d   1      -4.686   0.564  -0.842  0.00  0.00     0.000 A 
ATOM      5  C6  UNL d   1      -5.539   0.060   0.140  0.00  0.00     0.000 A 
ATOM      6  C7  UNL d   1      -5.031  -0.427   1.357  0.00  0.00    -0.073 A 
ATOM      7  C8  UNL d   1      -5.995  -0.965   2.378  0.00  0.00     0.078 C 
ENDROOT
BRANCH   1   8
ATOM      8  C1  UNL d   1      -3.011  -0.978   2.831  0.00  0.00     0.053 C 
ATOM      9  C   UNL d   1      -2.756   0.104   3.870  0.00  0.00     0.018 C 
ENDBRANCH   1   8
TORSDOF 1
ENDMDL
