MODEL 1
REMARK minimizedAffinity -2.19076633
REMARK minimizedRMSD -1
REMARK  1 active torsions:
REMARK  status: ('A' for Active; 'I' for Inactive)
REMARK    1  A    between atoms: C1_2  and  C2_3 
ROOT
ATOM      1  C2  UNL d   1       3.681  -0.234   2.791  0.00  0.00    -0.076 A 
ATOM      2  C3  UNL d   1       3.985  -1.226   3.740  0.00  0.00     0.004 A 
ATOM      3  C4  UNL d   1       4.659  -0.908   4.918  0.00  0.00    -0.003 A 
ATOM      4  C5  UNL d   1       5.037   0.406   5.168  0.00  0.00     0.000 A 
ATOM      5  C6  UNL d   1       4.728   1.406   4.246  0.00  0.00     0.000 A 
ATOM      6  C7  UNL d   1       4.035   1.105   3.060  0.00  0.00    -0.073 A 
ATOM      7  C8  UNL d   1       3.732   2.221   2.098  0.00  0.00     0.078 C 
ENDROOT
BRANCH   1   8
ATOM      8  C1  UNL d   1       2.973  -0.642   1.519  0.00  0.00     0.053 C 
ATOM      9  C   UNL d   1       2.827  -2.151   1.391  0.00  0.00     0.018 C 
ENDBRANCH   1   8
TORSDOF 1
ENDMDL
