MODEL 1
REMARK minimizedAffinity -2.22122669
REMARK minimizedRMSD -1
REMARK  1 active torsions:
REMARK  status: ('A' for Active; 'I' for Inactive)
REMARK    1  A    between atoms: C1_2  and  C2_3 
ROOT
ATOM      1  C2  UNL d   1       1.681  -2.550   0.976  0.00  0.00    -0.076 A 
ATOM      2  C3  UNL d   1       1.718  -3.872   1.453  0.00  0.00     0.004 A 
ATOM      3  C4  UNL d   1       0.641  -4.735   1.259  0.00  0.00    -0.003 A 
ATOM      4  C5  UNL d   1      -0.490  -4.291   0.584  0.00  0.00     0.000 A 
ATOM      5  C6  UNL d   1      -0.537  -2.988   0.088  0.00  0.00     0.000 A 
ATOM      6  C7  UNL d   1       0.547  -2.110   0.261  0.00  0.00    -0.073 A 
ATOM      7  C8  UNL d   1       0.440  -0.714  -0.289  0.00  0.00     0.078 C 
ENDROOT
BRANCH   1   8
ATOM      8  C1  UNL d   1       2.868  -1.652   1.240  0.00  0.00     0.053 C 
ATOM      9  C   UNL d   1       2.682  -0.790   2.480  0.00  0.00     0.018 C 
ENDBRANCH   1   8
TORSDOF 1
ENDMDL
