MODEL 1
REMARK minimizedAffinity 8.10994053
REMARK minimizedRMSD -1
REMARK  1 active torsions:
REMARK  status: ('A' for Active; 'I' for Inactive)
REMARK    1  A    between atoms: C1_2  and  C2_3 
ROOT
ATOM      1  C2  UNL d   1      -3.183   1.549   1.669  0.00  0.00    -0.076 A 
ATOM      2  C3  UNL d   1      -3.302   2.673   2.506  0.00  0.00     0.004 A 
ATOM      3  C4  UNL d   1      -3.357   3.960   1.975  0.00  0.00    -0.003 A 
ATOM      4  C5  UNL d   1      -3.294   4.145   0.598  0.00  0.00     0.000 A 
ATOM      5  C6  UNL d   1      -3.193   3.041  -0.248  0.00  0.00     0.000 A 
ATOM      6  C7  UNL d   1      -3.153   1.735   0.271  0.00  0.00    -0.073 A 
ATOM      7  C8  UNL d   1      -3.039   0.581  -0.687  0.00  0.00     0.078 C 
ENDROOT
BRANCH   1   8
ATOM      8  C1  UNL d   1      -3.101   0.179   2.304  0.00  0.00     0.053 C 
ATOM      9  C   UNL d   1      -2.783   0.244   3.790  0.00  0.00     0.018 C 
ENDBRANCH   1   8
TORSDOF 1
ENDMDL
