MODEL 1
REMARK minimizedAffinity 0.917040348
REMARK minimizedRMSD -1
REMARK  1 active torsions:
REMARK  status: ('A' for Active; 'I' for Inactive)
REMARK    1  A    between atoms: C1_2  and  C2_3 
ROOT
ATOM      1  C2  UNL d   1       3.751   0.113   3.275  0.00  0.00    -0.076 A 
ATOM      2  C3  UNL d   1       4.407  -0.578   4.309  0.00  0.00     0.004 A 
ATOM      3  C4  UNL d   1       5.487  -0.009   4.980  0.00  0.00    -0.003 A 
ATOM      4  C5  UNL d   1       5.930   1.262   4.629  0.00  0.00     0.000 A 
ATOM      5  C6  UNL d   1       5.280   1.969   3.618  0.00  0.00     0.000 A 
ATOM      6  C7  UNL d   1       4.179   1.416   2.942  0.00  0.00    -0.073 A 
ATOM      7  C8  UNL d   1       3.520   2.221   1.856  0.00  0.00     0.078 C 
ENDROOT
BRANCH   1   8
ATOM      8  C1  UNL d   1       2.603  -0.566   2.564  0.00  0.00     0.053 C 
ATOM      9  C   UNL d   1       3.025  -1.201   1.248  0.00  0.00     0.018 C 
ENDBRANCH   1   8
TORSDOF 1
ENDMDL
