MODEL 1
REMARK minimizedAffinity 4.9636631
REMARK minimizedRMSD -1
REMARK  1 active torsions:
REMARK  status: ('A' for Active; 'I' for Inactive)
REMARK    1  A    between atoms: C1_2  and  C2_3 
ROOT
ATOM      1  C2  UNL d   1      -4.781  -0.794   2.931  0.00  0.00    -0.076 A 
ATOM      2  C3  UNL d   1      -4.358  -0.424   1.642  0.00  0.00     0.004 A 
ATOM      3  C4  UNL d   1      -3.256   0.410   1.460  0.00  0.00    -0.003 A 
ATOM      4  C5  UNL d   1      -2.558   0.887   2.564  0.00  0.00     0.000 A 
ATOM      5  C6  UNL d   1      -2.953   0.516   3.849  0.00  0.00     0.000 A 
ATOM      6  C7  UNL d   1      -4.052  -0.337   4.049  0.00  0.00    -0.073 A 
ATOM      7  C8  UNL d   1      -4.437  -0.700   5.457  0.00  0.00     0.078 C 
ENDROOT
BRANCH   1   8
ATOM      8  C1  UNL d   1      -6.000  -1.678   3.067  0.00  0.00     0.053 C 
ATOM      9  C   UNL d   1      -5.645  -3.157   3.107  0.00  0.00     0.018 C 
ENDBRANCH   1   8
TORSDOF 1
ENDMDL
