MODEL 1
REMARK minimizedAffinity 5.60474205
REMARK minimizedRMSD -1
REMARK  1 active torsions:
REMARK  status: ('A' for Active; 'I' for Inactive)
REMARK    1  A    between atoms: C1_2  and  C2_3 
ROOT
ATOM      1  C2  UNL d   1       4.277   0.268   3.425  0.00  0.00    -0.076 A 
ATOM      2  C3  UNL d   1       5.130  -0.156   4.459  0.00  0.00     0.004 A 
ATOM      3  C4  UNL d   1       5.985   0.742   5.096  0.00  0.00    -0.003 A 
ATOM      4  C5  UNL d   1       6.000   2.078   4.710  0.00  0.00     0.000 A 
ATOM      5  C6  UNL d   1       5.147   2.519   3.699  0.00  0.00     0.000 A 
ATOM      6  C7  UNL d   1       4.267   1.630   3.058  0.00  0.00    -0.073 A 
ATOM      7  C8  UNL d   1       3.373   2.159   1.969  0.00  0.00     0.078 C 
ENDROOT
BRANCH   1   8
ATOM      8  C1  UNL d   1       3.391  -0.757   2.753  0.00  0.00     0.053 C 
ATOM      9  C   UNL d   1       2.626  -1.612   3.751  0.00  0.00     0.018 C 
ENDBRANCH   1   8
TORSDOF 1
ENDMDL
