MODEL 1
REMARK minimizedAffinity 0.32825914
REMARK minimizedRMSD -1
REMARK  1 active torsions:
REMARK  status: ('A' for Active; 'I' for Inactive)
REMARK    1  A    between atoms: C1_2  and  C2_3 
ROOT
ATOM      1  C2  UNL d   1      -2.759   0.092   0.879  0.00  0.00    -0.076 A 
ATOM      2  C3  UNL d   1      -2.744   0.624  -0.422  0.00  0.00     0.004 A 
ATOM      3  C4  UNL d   1      -2.582   1.992  -0.636  0.00  0.00    -0.003 A 
ATOM      4  C5  UNL d   1      -2.432   2.850   0.448  0.00  0.00     0.000 A 
ATOM      5  C6  UNL d   1      -2.427   2.337   1.745  0.00  0.00     0.000 A 
ATOM      6  C7  UNL d   1      -2.572   0.959   1.977  0.00  0.00    -0.073 A 
ATOM      7  C8  UNL d   1      -2.565   0.461   3.396  0.00  0.00     0.078 C 
ENDROOT
BRANCH   1   8
ATOM      8  C1  UNL d   1      -2.965  -1.396   1.050  0.00  0.00     0.053 C 
ATOM      9  C   UNL d   1      -2.234  -2.211  -0.005  0.00  0.00     0.018 C 
ENDBRANCH   1   8
TORSDOF 1
ENDMDL
