MODEL 1
REMARK minimizedAffinity 7.55413055
REMARK minimizedRMSD -1
REMARK  1 active torsions:
REMARK  status: ('A' for Active; 'I' for Inactive)
REMARK    1  A    between atoms: C1_2  and  C2_3 
ROOT
ATOM      1  C2  UNL d   1      -1.782  -4.175  -0.953  0.00  0.00    -0.076 A 
ATOM      2  C3  UNL d   1      -3.073  -4.312  -1.492  0.00  0.00     0.004 A 
ATOM      3  C4  UNL d   1      -4.085  -4.948  -0.776  0.00  0.00    -0.003 A 
ATOM      4  C5  UNL d   1      -3.824  -5.457   0.491  0.00  0.00     0.000 A 
ATOM      5  C6  UNL d   1      -2.554  -5.314   1.049  0.00  0.00     0.000 A 
ATOM      6  C7  UNL d   1      -1.526  -4.661   0.347  0.00  0.00    -0.073 A 
ATOM      7  C8  UNL d   1      -0.173  -4.541   0.994  0.00  0.00     0.078 C 
ENDROOT
BRANCH   1   8
ATOM      8  C1  UNL d   1      -0.717  -3.500  -1.787  0.00  0.00     0.053 C 
ATOM      9  C   UNL d   1       0.121  -4.493  -2.577  0.00  0.00     0.018 C 
ENDBRANCH   1   8
TORSDOF 1
ENDMDL
