MODEL 1
REMARK minimizedAffinity -2.49264002
REMARK minimizedRMSD -1
REMARK  0 active torsions:
REMARK  status: ('A' for Active; 'I' for Inactive)
ROOT
ATOM      1  C1  BNZ d   1       2.377   3.645   5.932  0.00  0.00     0.000 A 
ATOM      2  C2  BNZ d   1       1.774   4.861   5.750  0.00  0.00     0.000 A 
ATOM      3  C3  BNZ d   1       2.519   6.000   5.623  0.00  0.00     0.000 A 
ATOM      4  C4  BNZ d   1       3.862   5.927   5.718  0.00  0.00     0.000 A 
ATOM      5  C5  BNZ d   1       4.485   4.710   5.911  0.00  0.00     0.000 A 
ATOM      6  C6  BNZ d   1       3.733   3.561   6.000  0.00  0.00     0.000 A 
ENDROOT
TORSDOF 0
ENDMDL
