MODEL 1
REMARK minimizedAffinity -1.30464673
REMARK minimizedRMSD -1
REMARK  0 active torsions:
REMARK  status: ('A' for Active; 'I' for Inactive)
ROOT
ATOM      1  C1  BNZ d   1       1.346  -2.868   5.652  0.00  0.00     0.000 A 
ATOM      2  C2  BNZ d   1       0.769  -4.062   5.993  0.00  0.00     0.000 A 
ATOM      3  C3  BNZ d   1      -0.409  -4.457   5.425  0.00  0.00     0.000 A 
ATOM      4  C4  BNZ d   1      -1.029  -3.642   4.548  0.00  0.00     0.000 A 
ATOM      5  C5  BNZ d   1      -0.465  -2.430   4.201  0.00  0.00     0.000 A 
ATOM      6  C6  BNZ d   1       0.741  -2.053   4.745  0.00  0.00     0.000 A 
ENDROOT
TORSDOF 0
ENDMDL
