MODEL 1
REMARK minimizedAffinity -2.45005822
REMARK minimizedRMSD -1
REMARK  0 active torsions:
REMARK  status: ('A' for Active; 'I' for Inactive)
ROOT
ATOM      1  C1  BNZ d   1       2.975   2.675   6.000  0.00  0.00     0.000 A 
ATOM      2  C2  BNZ d   1       3.696   1.510   6.000  0.00  0.00     0.000 A 
ATOM      3  C3  BNZ d   1       5.012   1.502   5.633  0.00  0.00     0.000 A 
ATOM      4  C4  BNZ d   1       5.595   2.650   5.230  0.00  0.00     0.000 A 
ATOM      5  C5  BNZ d   1       4.879   3.830   5.216  0.00  0.00     0.000 A 
ATOM      6  C6  BNZ d   1       3.565   3.841   5.622  0.00  0.00     0.000 A 
ENDROOT
TORSDOF 0
ENDMDL
