MODEL 1
REMARK minimizedAffinity 1.81136429
REMARK minimizedRMSD -1
REMARK  2 active torsions:
REMARK  status: ('A' for Active; 'I' for Inactive)
REMARK    1  A    between atoms: C2'_3  and  C1'_4 
REMARK    2  A    between atoms: C1'_4  and  C1_5 
ROOT
ATOM      1  C1  I4B d   1      -2.350  -0.883   0.639  0.00  0.00    -0.075 A 
ATOM      2  C2  I4B d   1      -3.399  -0.011   0.793  0.00  0.00     0.003 A 
ATOM      3  C3  I4B d   1      -3.512   0.765   1.972  0.00  0.00     0.002 A 
ATOM      4  C4  I4B d   1      -2.588   0.603   2.984  0.00  0.00    -0.004 A 
ATOM      5  C5  I4B d   1      -1.513  -0.265   2.816  0.00  0.00     0.002 A 
ATOM      6  C6  I4B d   1      -1.386  -1.004   1.631  0.00  0.00     0.003 A 
ENDROOT
BRANCH   1   7
ATOM      7  C1' I4B d   1      -2.279  -1.712  -0.604  0.00  0.00     0.060 C 
BRANCH   7   8
ATOM      8  C2' I4B d   1      -0.819  -1.993  -0.896  0.00  0.00    -0.013 C 
ATOM      9  C4' I4B d   1      -0.497  -3.453  -0.708  0.00  0.00     0.013 C 
ATOM     10  C3' I4B d   1      -0.534  -1.552  -2.300  0.00  0.00     0.013 C 
ENDBRANCH   7   8
ENDBRANCH   1   7
TORSDOF 2
ENDMDL
