MODEL 1
REMARK minimizedAffinity 8.73027515
REMARK minimizedRMSD -1
REMARK  2 active torsions:
REMARK  status: ('A' for Active; 'I' for Inactive)
REMARK    1  A    between atoms: C2'_3  and  C1'_4 
REMARK    2  A    between atoms: C1'_4  and  C1_5 
ROOT
ATOM      1  C1  I4B d   1       2.734  -0.276   3.270  0.00  0.00    -0.075 A 
ATOM      2  C2  I4B d   1       1.691   0.514   3.686  0.00  0.00     0.003 A 
ATOM      3  C3  I4B d   1       0.416  -0.055   3.922  0.00  0.00     0.002 A 
ATOM      4  C4  I4B d   1       0.216  -1.399   3.682  0.00  0.00    -0.004 A 
ATOM      5  C5  I4B d   1       1.280  -2.203   3.283  0.00  0.00     0.002 A 
ATOM      6  C6  I4B d   1       2.550  -1.641   3.087  0.00  0.00     0.003 A 
ENDROOT
BRANCH   1   7
ATOM      7  C1' I4B d   1       4.059   0.363   2.999  0.00  0.00     0.060 C 
BRANCH   7   8
ATOM      8  C2' I4B d   1       4.544   0.995   4.288  0.00  0.00    -0.013 C 
ATOM      9  C4' I4B d   1       6.000   0.692   4.529  0.00  0.00     0.013 C 
ATOM     10  C3' I4B d   1       4.307   2.473   4.197  0.00  0.00     0.013 C 
ENDBRANCH   7   8
ENDBRANCH   1   7
TORSDOF 2
ENDMDL
