MODEL 1
REMARK minimizedAffinity 10.4926214
REMARK minimizedRMSD -1
REMARK  1 active torsions:
REMARK  status: ('A' for Active; 'I' for Inactive)
REMARK    1  A    between atoms: C1_2  and  C2_3 
ROOT
ATOM      1  C2  UNL d   1      -4.070  -0.278   0.515  0.00  0.00    -0.073 A 
ATOM      2  C3  UNL d   1      -4.690   0.976   0.549  0.00  0.00    -0.002 A 
ATOM      3  C4  UNL d   1      -4.010   2.086   1.052  0.00  0.00     0.004 A 
ATOM      4  C5  UNL d   1      -2.703   1.955   1.519  0.00  0.00    -0.004 A 
ATOM      5  C6  UNL d   1      -2.061   0.713   1.483  0.00  0.00    -0.075 A 
ATOM      6  C7  UNL d   1      -0.656   0.555   1.984  0.00  0.00     0.076 C 
ATOM      7  C8  UNL d   1      -2.752  -0.398   0.979  0.00  0.00     0.001 A 
ENDROOT
BRANCH   1   8
ATOM      8  C1  UNL d   1      -4.798  -1.478  -0.033  0.00  0.00     0.053 C 
ATOM      9  C   UNL d   1      -4.124  -2.783   0.361  0.00  0.00     0.018 C 
ENDBRANCH   1   8
TORSDOF 1
ENDMDL
