MODEL 1
REMARK minimizedAffinity 11.3938761
REMARK minimizedRMSD -1
REMARK  1 active torsions:
REMARK  status: ('A' for Active; 'I' for Inactive)
REMARK    1  A    between atoms: C1_2  and  C2_3 
ROOT
ATOM      1  C2  UNL d   1      -4.179  -0.321   1.275  0.00  0.00    -0.073 A 
ATOM      2  C3  UNL d   1      -4.771   0.352   2.350  0.00  0.00    -0.002 A 
ATOM      3  C4  UNL d   1      -3.989   1.096   3.234  0.00  0.00     0.004 A 
ATOM      4  C5  UNL d   1      -2.609   1.181   3.049  0.00  0.00    -0.004 A 
ATOM      5  C6  UNL d   1      -2.000   0.526   1.974  0.00  0.00    -0.075 A 
ATOM      6  C7  UNL d   1      -0.516   0.606   1.762  0.00  0.00     0.076 C 
ATOM      7  C8  UNL d   1      -2.792  -0.222   1.092  0.00  0.00     0.001 A 
ENDROOT
BRANCH   1   8
ATOM      8  C1  UNL d   1      -5.020  -1.120   0.314  0.00  0.00     0.053 C 
ATOM      9  C   UNL d   1      -4.519  -2.548   0.170  0.00  0.00     0.018 C 
ENDBRANCH   1   8
TORSDOF 1
ENDMDL
