MODEL 1
REMARK minimizedAffinity 12.8275433
REMARK minimizedRMSD -1
REMARK  1 active torsions:
REMARK  status: ('A' for Active; 'I' for Inactive)
REMARK    1  A    between atoms: C1_2  and  C2_3 
ROOT
ATOM      1  C2  UNL d   1      -2.606  -3.704  -5.990  0.00  0.00    -0.073 A 
ATOM      2  C3  UNL d   1      -4.000  -3.587  -6.000  0.00  0.00    -0.002 A 
ATOM      3  C4  UNL d   1      -4.602  -2.328  -5.997  0.00  0.00     0.004 A 
ATOM      4  C5  UNL d   1      -3.817  -1.175  -5.992  0.00  0.00    -0.004 A 
ATOM      5  C6  UNL d   1      -2.422  -1.271  -5.994  0.00  0.00    -0.075 A 
ATOM      6  C7  UNL d   1      -1.563  -0.040  -5.986  0.00  0.00     0.076 C 
ATOM      7  C8  UNL d   1      -1.825  -2.539  -5.994  0.00  0.00     0.001 A 
ENDROOT
BRANCH   1   8
ATOM      8  C1  UNL d   1      -1.951  -5.061  -5.999  0.00  0.00     0.053 C 
ATOM      9  C   UNL d   1      -0.466  -4.980  -5.682  0.00  0.00     0.018 C 
ENDBRANCH   1   8
TORSDOF 1
ENDMDL
