MODEL 1
REMARK minimizedAffinity 9.52717781
REMARK minimizedRMSD -1
REMARK  1 active torsions:
REMARK  status: ('A' for Active; 'I' for Inactive)
REMARK    1  A    between atoms: C1_2  and  C2_3 
ROOT
ATOM      1  C2  UNL d   1      -2.742  -2.788  -5.977  0.00  0.00    -0.073 A 
ATOM      2  C3  UNL d   1      -3.280  -4.080  -5.981  0.00  0.00    -0.002 A 
ATOM      3  C4  UNL d   1      -4.663  -4.267  -5.980  0.00  0.00     0.004 A 
ATOM      4  C5  UNL d   1      -5.521  -3.168  -5.981  0.00  0.00    -0.004 A 
ATOM      5  C6  UNL d   1      -5.002  -1.869  -5.989  0.00  0.00    -0.075 A 
ATOM      6  C7  UNL d   1      -5.912  -0.675  -5.989  0.00  0.00     0.076 C 
ATOM      7  C8  UNL d   1      -3.613  -1.688  -5.988  0.00  0.00     0.001 A 
ENDROOT
BRANCH   1   8
ATOM      8  C1  UNL d   1      -1.250  -2.580  -5.985  0.00  0.00     0.053 C 
ATOM      9  C   UNL d   1      -0.878  -1.110  -5.876  0.00  0.00     0.018 C 
ENDBRANCH   1   8
TORSDOF 1
ENDMDL
