MODEL 1
REMARK minimizedAffinity -4.30171537
REMARK minimizedRMSD -1
REMARK  1 active torsions:
REMARK  status: ('A' for Active; 'I' for Inactive)
REMARK    1  A    between atoms: C1_2  and  C2_3 
ROOT
ATOM      1  C2  UNL d   1      -2.490  -0.779   1.184  0.00  0.00    -0.073 A 
ATOM      2  C3  UNL d   1      -3.395   0.104   1.783  0.00  0.00    -0.002 A 
ATOM      3  C4  UNL d   1      -2.946   1.072   2.683  0.00  0.00     0.004 A 
ATOM      4  C5  UNL d   1      -1.588   1.172   2.986  0.00  0.00    -0.004 A 
ATOM      5  C6  UNL d   1      -0.666   0.306   2.388  0.00  0.00    -0.075 A 
ATOM      6  C7  UNL d   1       0.797   0.399   2.706  0.00  0.00     0.076 C 
ATOM      7  C8  UNL d   1      -1.126  -0.665   1.489  0.00  0.00     0.001 A 
ENDROOT
BRANCH   1   8
ATOM      8  C1  UNL d   1      -2.969  -1.821   0.208  0.00  0.00     0.053 C 
ATOM      9  C   UNL d   1      -2.525  -3.221   0.604  0.00  0.00     0.018 C 
ENDBRANCH   1   8
TORSDOF 1
ENDMDL
