MODEL 1
REMARK minimizedAffinity 3.50622845
REMARK minimizedRMSD -1
REMARK  1 active torsions:
REMARK  status: ('A' for Active; 'I' for Inactive)
REMARK    1  A    between atoms: C1_2  and  C2_3 
ROOT
ATOM      1  C2  UNL d   1       2.903  -5.615   2.011  0.00  0.00    -0.073 A 
ATOM      2  C3  UNL d   1       2.590  -5.997   3.320  0.00  0.00    -0.002 A 
ATOM      3  C4  UNL d   1       1.363  -5.644   3.883  0.00  0.00     0.004 A 
ATOM      4  C5  UNL d   1       0.435  -4.913   3.142  0.00  0.00    -0.004 A 
ATOM      5  C6  UNL d   1       0.725  -4.532   1.828  0.00  0.00    -0.075 A 
ATOM      6  C7  UNL d   1      -0.261  -3.743   1.018  0.00  0.00     0.076 C 
ATOM      7  C8  UNL d   1       1.960  -4.888   1.271  0.00  0.00     0.001 A 
ENDROOT
BRANCH   1   8
ATOM      8  C1  UNL d   1       4.224  -6.000   1.397  0.00  0.00     0.053 C 
ATOM      9  C   UNL d   1       5.352  -5.987   2.416  0.00  0.00     0.018 C 
ENDBRANCH   1   8
TORSDOF 1
ENDMDL
