MODEL 1
REMARK minimizedAffinity -0.607544959
REMARK minimizedRMSD -1
REMARK  1 active torsions:
REMARK  status: ('A' for Active; 'I' for Inactive)
REMARK    1  A    between atoms: C1_2  and  C2_3 
ROOT
ATOM      1  C2  UNL d   1      -4.130  -2.672  -5.962  0.00  0.00    -0.073 A 
ATOM      2  C3  UNL d   1      -4.145  -1.272  -5.977  0.00  0.00    -0.002 A 
ATOM      3  C4  UNL d   1      -2.949  -0.555  -5.991  0.00  0.00     0.004 A 
ATOM      4  C5  UNL d   1      -1.727  -1.227  -5.998  0.00  0.00    -0.004 A 
ATOM      5  C6  UNL d   1      -1.691  -2.625  -5.995  0.00  0.00    -0.075 A 
ATOM      6  C7  UNL d   1      -0.385  -3.364  -6.000  0.00  0.00     0.076 C 
ATOM      7  C8  UNL d   1      -2.897  -3.339  -5.978  0.00  0.00     0.001 A 
ENDROOT
BRANCH   1   8
ATOM      8  C1  UNL d   1      -5.420  -3.451  -5.953  0.00  0.00     0.053 C 
ATOM      9  C   UNL d   1      -5.914  -3.720  -4.541  0.00  0.00     0.018 C 
ENDBRANCH   1   8
TORSDOF 1
ENDMDL
