MODEL 1
REMARK minimizedAffinity 15.7090664
REMARK minimizedRMSD -1
REMARK  1 active torsions:
REMARK  status: ('A' for Active; 'I' for Inactive)
REMARK    1  A    between atoms: C1_2  and  C2_3 
ROOT
ATOM      1  C2  UNL d   1      -1.581  -1.600  -5.916  0.00  0.00    -0.073 A 
ATOM      2  C3  UNL d   1      -1.141  -2.928  -5.965  0.00  0.00    -0.002 A 
ATOM      3  C4  UNL d   1      -2.063  -3.975  -5.998  0.00  0.00     0.004 A 
ATOM      4  C5  UNL d   1      -3.431  -3.706  -5.990  0.00  0.00    -0.004 A 
ATOM      5  C6  UNL d   1      -3.890  -2.386  -5.954  0.00  0.00    -0.075 A 
ATOM      6  C7  UNL d   1      -5.359  -2.080  -5.942  0.00  0.00     0.076 C 
ATOM      7  C8  UNL d   1      -2.959  -1.339  -5.918  0.00  0.00     0.001 A 
ENDROOT
BRANCH   1   8
ATOM      8  C1  UNL d   1      -0.589  -0.466  -5.886  0.00  0.00     0.053 C 
ATOM      9  C   UNL d   1       0.816  -0.946  -5.560  0.00  0.00     0.018 C 
ENDBRANCH   1   8
TORSDOF 1
ENDMDL
