MODEL 1
REMARK minimizedAffinity 7.21442366
REMARK minimizedRMSD -1
REMARK  1 active torsions:
REMARK  status: ('A' for Active; 'I' for Inactive)
REMARK    1  A    between atoms: C1_2  and  C2_3 
ROOT
ATOM      1  C2  UNL d   1       3.010   0.240  -4.876  0.00  0.00    -0.073 A 
ATOM      2  C3  UNL d   1       3.169   0.531  -3.516  0.00  0.00    -0.002 A 
ATOM      3  C4  UNL d   1       2.108   0.351  -2.628  0.00  0.00     0.004 A 
ATOM      4  C5  UNL d   1       0.882  -0.128  -3.088  0.00  0.00    -0.004 A 
ATOM      5  C6  UNL d   1       0.707  -0.436  -4.441  0.00  0.00    -0.075 A 
ATOM      6  C7  UNL d   1      -0.607  -0.950  -4.952  0.00  0.00     0.076 C 
ATOM      7  C8  UNL d   1       1.776  -0.250  -5.327  0.00  0.00     0.001 A 
ENDROOT
BRANCH   1   8
ATOM      8  C1  UNL d   1       4.155   0.427  -5.838  0.00  0.00     0.053 C 
ATOM      9  C   UNL d   1       4.533   1.892  -5.996  0.00  0.00     0.018 C 
ENDBRANCH   1   8
TORSDOF 1
ENDMDL
