MODEL 1
REMARK minimizedAffinity -0.410581827
REMARK minimizedRMSD -1
REMARK  1 active torsions:
REMARK  status: ('A' for Active; 'I' for Inactive)
REMARK    1  A    between atoms: C1_2  and  C2_3 
ROOT
ATOM      1  C2  UNL d   1       1.864   0.027  -3.244  0.00  0.00    -0.073 A 
ATOM      2  C3  UNL d   1       2.993   0.329  -4.014  0.00  0.00    -0.002 A 
ATOM      3  C4  UNL d   1       3.002   0.066  -5.384  0.00  0.00     0.004 A 
ATOM      4  C5  UNL d   1       1.883  -0.495  -6.000  0.00  0.00    -0.004 A 
ATOM      5  C6  UNL d   1       0.741  -0.793  -5.249  0.00  0.00    -0.075 A 
ATOM      6  C7  UNL d   1      -0.471  -1.398  -5.896  0.00  0.00     0.076 C 
ATOM      7  C8  UNL d   1       0.740  -0.528  -3.873  0.00  0.00     0.001 A 
ENDROOT
BRANCH   1   8
ATOM      8  C1  UNL d   1       1.846   0.315  -1.765  0.00  0.00     0.053 C 
ATOM      9  C   UNL d   1       2.554   1.618  -1.430  0.00  0.00     0.018 C 
ENDBRANCH   1   8
TORSDOF 1
ENDMDL
