MODEL 1
REMARK minimizedAffinity 11.1055489
REMARK minimizedRMSD -1
REMARK  1 active torsions:
REMARK  status: ('A' for Active; 'I' for Inactive)
REMARK    1  A    between atoms: C1_2  and  C2_3 
ROOT
ATOM      1  C2  UNL d   1       4.869  -3.254   2.453  0.00  0.00    -0.073 A 
ATOM      2  C3  UNL d   1       6.000  -4.024   2.746  0.00  0.00    -0.002 A 
ATOM      3  C4  UNL d   1       5.874  -5.390   3.003  0.00  0.00     0.004 A 
ATOM      4  C5  UNL d   1       4.620  -6.000   2.963  0.00  0.00    -0.004 A 
ATOM      5  C6  UNL d   1       3.480  -5.249   2.660  0.00  0.00    -0.075 A 
ATOM      6  C7  UNL d   1       2.124  -5.889   2.615  0.00  0.00     0.076 C 
ATOM      7  C8  UNL d   1       3.614  -3.877   2.406  0.00  0.00     0.001 A 
ENDROOT
BRANCH   1   8
ATOM      8  C1  UNL d   1       5.000  -1.780   2.168  0.00  0.00     0.053 C 
ATOM      9  C   UNL d   1       4.665  -0.932   3.385  0.00  0.00     0.018 C 
ENDBRANCH   1   8
TORSDOF 1
ENDMDL
