MODEL 1
REMARK minimizedAffinity -2.26854587
REMARK minimizedRMSD -1
REMARK  1 active torsions:
REMARK  status: ('A' for Active; 'I' for Inactive)
REMARK    1  A    between atoms: C1_2  and  C2_3 
ROOT
ATOM      1  C2  UNL d   1       2.834   5.958  -4.793  0.00  0.00    -0.081 A 
ATOM      2  C3  UNL d   1       2.125   5.999  -3.586  0.00  0.00     0.006 A 
ATOM      3  C4  UNL d   1       0.728   5.997  -3.586  0.00  0.00     0.002 A 
ATOM      4  C5  UNL d   1       0.018   5.945  -4.790  0.00  0.00    -0.080 A 
ATOM      5  C6  UNL d   1      -1.481   5.912  -4.802  0.00  0.00     0.076 C 
ATOM      6  C7  UNL d   1       0.727   5.921  -5.996  0.00  0.00     0.002 A 
ATOM      7  C8  UNL d   1       2.123   5.924  -5.997  0.00  0.00     0.006 A 
ENDROOT
BRANCH   1   8
ATOM      8  C1  UNL d   1       4.341   5.895  -4.794  0.00  0.00     0.054 C 
ATOM      9  C   UNL d   1       4.859   5.090  -5.977  0.00  0.00     0.018 C 
ENDBRANCH   1   8
TORSDOF 1
ENDMDL
