MODEL 1
REMARK minimizedAffinity -1.97473431
REMARK minimizedRMSD -1
REMARK  1 active torsions:
REMARK  status: ('A' for Active; 'I' for Inactive)
REMARK    1  A    between atoms: C1_2  and  C2_3 
ROOT
ATOM      1  C2  UNL d   1      -1.231  -1.917  -4.493  0.00  0.00    -0.081 A 
ATOM      2  C3  UNL d   1      -0.338  -2.694  -3.744  0.00  0.00     0.006 A 
ATOM      3  C4  UNL d   1       1.040  -2.572  -3.936  0.00  0.00     0.002 A 
ATOM      4  C5  UNL d   1       1.549  -1.666  -4.873  0.00  0.00    -0.080 A 
ATOM      5  C6  UNL d   1       3.027  -1.504  -5.067  0.00  0.00     0.076 C 
ATOM      6  C7  UNL d   1       0.657  -0.903  -5.634  0.00  0.00     0.002 A 
ATOM      7  C8  UNL d   1      -0.721  -1.025  -5.443  0.00  0.00     0.006 A 
ENDROOT
BRANCH   1   8
ATOM      8  C1  UNL d   1      -2.715  -2.000  -4.243  0.00  0.00     0.054 C 
ATOM      9  C   UNL d   1      -3.018  -2.168  -2.762  0.00  0.00     0.018 C 
ENDBRANCH   1   8
TORSDOF 1
ENDMDL
