MODEL 1
REMARK minimizedAffinity -0.552369118
REMARK minimizedRMSD -1
REMARK  1 active torsions:
REMARK  status: ('A' for Active; 'I' for Inactive)
REMARK    1  A    between atoms: C1_2  and  C2_3 
ROOT
ATOM      1  C2  UNL d   1      -0.538   5.917  -4.897  0.00  0.00    -0.081 A 
ATOM      2  C3  UNL d   1      -1.877   5.977  -5.304  0.00  0.00     0.006 A 
ATOM      3  C4  UNL d   1      -2.905   5.989  -4.358  0.00  0.00     0.002 A 
ATOM      4  C5  UNL d   1      -2.612   5.950  -2.991  0.00  0.00    -0.080 A 
ATOM      5  C6  UNL d   1      -3.705   5.993  -1.965  0.00  0.00     0.076 C 
ATOM      6  C7  UNL d   1      -1.275   5.873  -2.584  0.00  0.00     0.002 A 
ATOM      7  C8  UNL d   1      -0.247   5.860  -3.529  0.00  0.00     0.006 A 
ENDROOT
BRANCH   1   8
ATOM      8  C1  UNL d   1       0.575   5.969  -5.912  0.00  0.00     0.054 C 
ATOM      9  C   UNL d   1       1.939   5.985  -5.237  0.00  0.00     0.018 C 
ENDBRANCH   1   8
TORSDOF 1
ENDMDL
