MODEL 1
REMARK minimizedAffinity 4.26103592
REMARK minimizedRMSD -1
REMARK  1 active torsions:
REMARK  status: ('A' for Active; 'I' for Inactive)
REMARK    1  A    between atoms: C1_2  and  C2_3 
ROOT
ATOM      1  C2  UNL d   1      -1.111  -1.220  -4.458  0.00  0.00    -0.081 A 
ATOM      2  C3  UNL d   1      -0.300  -1.873  -3.521  0.00  0.00     0.006 A 
ATOM      3  C4  UNL d   1       1.077  -1.980  -3.729  0.00  0.00     0.002 A 
ATOM      4  C5  UNL d   1       1.667  -1.431  -4.872  0.00  0.00    -0.080 A 
ATOM      5  C6  UNL d   1       3.149  -1.513  -5.093  0.00  0.00     0.076 C 
ATOM      6  C7  UNL d   1       0.855  -0.794  -5.817  0.00  0.00     0.002 A 
ATOM      7  C8  UNL d   1      -0.522  -0.687  -5.610  0.00  0.00     0.006 A 
ENDROOT
BRANCH   1   8
ATOM      8  C1  UNL d   1      -2.586  -1.046  -4.205  0.00  0.00     0.054 C 
ATOM      9  C   UNL d   1      -2.902  -1.093  -2.717  0.00  0.00     0.018 C 
ENDBRANCH   1   8
TORSDOF 1
ENDMDL
