MODEL 1
REMARK minimizedAffinity -0.531383157
REMARK minimizedRMSD -1
REMARK  1 active torsions:
REMARK  status: ('A' for Active; 'I' for Inactive)
REMARK    1  A    between atoms: C1_2  and  C2_3 
ROOT
ATOM      1  C2  UNL d   1       4.564   4.245  -4.449  0.00  0.00    -0.081 A 
ATOM      2  C3  UNL d   1       3.318   3.695  -4.124  0.00  0.00     0.006 A 
ATOM      3  C4  UNL d   1       2.142   4.267  -4.613  0.00  0.00     0.002 A 
ATOM      4  C5  UNL d   1       2.192   5.393  -5.442  0.00  0.00    -0.080 A 
ATOM      5  C6  UNL d   1       0.938   5.998  -6.000  0.00  0.00     0.076 C 
ATOM      6  C7  UNL d   1       3.435   5.953  -5.754  0.00  0.00     0.002 A 
ATOM      7  C8  UNL d   1       4.612   5.381  -5.264  0.00  0.00     0.006 A 
ENDROOT
BRANCH   1   8
ATOM      8  C1  UNL d   1       5.838   3.592  -3.976  0.00  0.00     0.054 C 
ATOM      9  C   UNL d   1       5.754   2.076  -4.081  0.00  0.00     0.018 C 
ENDBRANCH   1   8
TORSDOF 1
ENDMDL
