MODEL 1
REMARK minimizedAffinity 7.20530319
REMARK minimizedRMSD -1
REMARK  1 active torsions:
REMARK  status: ('A' for Active; 'I' for Inactive)
REMARK    1  A    between atoms: C1_2  and  C2_3 
ROOT
ATOM      1  C2  UNL d   1       0.766   5.723  -3.740  0.00  0.00    -0.081 A 
ATOM      2  C3  UNL d   1       0.114   5.941  -4.960  0.00  0.00     0.006 A 
ATOM      3  C4  UNL d   1      -1.281   6.000  -5.017  0.00  0.00     0.002 A 
ATOM      4  C5  UNL d   1      -2.046   5.850  -3.855  0.00  0.00    -0.080 A 
ATOM      5  C6  UNL d   1      -3.542   5.941  -3.898  0.00  0.00     0.076 C 
ATOM      6  C7  UNL d   1      -1.395   5.614  -2.639  0.00  0.00     0.002 A 
ATOM      7  C8  UNL d   1      -0.001   5.555  -2.582  0.00  0.00     0.006 A 
ENDROOT
BRANCH   1   8
ATOM      8  C1  UNL d   1       2.271   5.723  -3.665  0.00  0.00     0.054 C 
ATOM      9  C   UNL d   1       2.894   5.838  -5.049  0.00  0.00     0.018 C 
ENDBRANCH   1   8
TORSDOF 1
ENDMDL
