MODEL 1
REMARK minimizedAffinity 0.0852470025
REMARK minimizedRMSD -1
REMARK  1 active torsions:
REMARK  status: ('A' for Active; 'I' for Inactive)
REMARK    1  A    between atoms: C1_2  and  C2_3 
ROOT
ATOM      1  C2  UNL d   1      -1.466   5.940  -3.416  0.00  0.00    -0.081 A 
ATOM      2  C3  UNL d   1      -0.544   5.907  -2.363  0.00  0.00     0.006 A 
ATOM      3  C4  UNL d   1       0.829   5.913  -2.623  0.00  0.00     0.002 A 
ATOM      4  C5  UNL d   1       1.302   5.961  -3.939  0.00  0.00    -0.080 A 
ATOM      5  C6  UNL d   1       2.772   5.999  -4.231  0.00  0.00     0.076 C 
ATOM      6  C7  UNL d   1       0.380   5.976  -4.991  0.00  0.00     0.002 A 
ATOM      7  C8  UNL d   1      -0.992   5.969  -4.732  0.00  0.00     0.006 A 
ENDROOT
BRANCH   1   8
ATOM      8  C1  UNL d   1      -2.946   5.999  -3.136  0.00  0.00     0.054 C 
ATOM      9  C   UNL d   1      -3.227   5.998  -1.641  0.00  0.00     0.018 C 
ENDBRANCH   1   8
TORSDOF 1
ENDMDL
