MODEL 1
REMARK minimizedAffinity 8.95143223
REMARK minimizedRMSD -1
REMARK  1 active torsions:
REMARK  status: ('A' for Active; 'I' for Inactive)
REMARK    1  A    between atoms: C1_2  and  C2_3 
ROOT
ATOM      1  C2  UNL d   1       1.647   0.841  -1.281  0.00  0.00    -0.081 A 
ATOM      2  C3  UNL d   1       1.490  -0.456  -0.777  0.00  0.00     0.006 A 
ATOM      3  C4  UNL d   1       0.868  -0.665   0.456  0.00  0.00     0.002 A 
ATOM      4  C5  UNL d   1       0.386   0.417   1.201  0.00  0.00    -0.080 A 
ATOM      5  C6  UNL d   1      -0.311   0.203   2.512  0.00  0.00     0.076 C 
ATOM      6  C7  UNL d   1       0.558   1.713   0.705  0.00  0.00     0.002 A 
ATOM      7  C8  UNL d   1       1.181   1.923  -0.527  0.00  0.00     0.006 A 
ENDROOT
BRANCH   1   8
ATOM      8  C1  UNL d   1       2.259   1.065  -2.640  0.00  0.00     0.054 C 
ATOM      9  C   UNL d   1       2.583  -0.255  -3.326  0.00  0.00     0.018 C 
ENDBRANCH   1   8
TORSDOF 1
ENDMDL
