MODEL 1
REMARK minimizedAffinity -1.68849325
REMARK minimizedRMSD -1
REMARK  1 active torsions:
REMARK  status: ('A' for Active; 'I' for Inactive)
REMARK    1  A    between atoms: C1_2  and  C2_3 
ROOT
ATOM      1  C2  UNL d   1       2.844   5.914  -5.192  0.00  0.00    -0.081 A 
ATOM      2  C3  UNL d   1       1.700   5.899  -6.000  0.00  0.00     0.006 A 
ATOM      3  C4  UNL d   1       0.427   5.915  -5.426  0.00  0.00     0.002 A 
ATOM      4  C5  UNL d   1       0.276   5.952  -4.036  0.00  0.00    -0.080 A 
ATOM      5  C6  UNL d   1      -1.085   6.000  -3.407  0.00  0.00     0.076 C 
ATOM      6  C7  UNL d   1       1.418   5.949  -3.228  0.00  0.00     0.002 A 
ATOM      7  C8  UNL d   1       2.691   5.934  -3.801  0.00  0.00     0.006 A 
ENDROOT
BRANCH   1   8
ATOM      8  C1  UNL d   1       4.218   5.963  -5.809  0.00  0.00     0.054 C 
ATOM      9  C   UNL d   1       5.305   5.936  -4.743  0.00  0.00     0.018 C 
ENDBRANCH   1   8
TORSDOF 1
ENDMDL
