MODEL 1
REMARK minimizedAffinity 5.19762373
REMARK minimizedRMSD -1
REMARK  1 active torsions:
REMARK  status: ('A' for Active; 'I' for Inactive)
REMARK    1  A    between atoms: C1_2  and  C2_3 
ROOT
ATOM      1  C2  UNL d   1      -2.209  -1.079  -3.747  0.00  0.00    -0.081 A 
ATOM      2  C3  UNL d   1      -2.048  -0.776  -2.390  0.00  0.00     0.006 A 
ATOM      3  C4  UNL d   1      -2.906  -1.328  -1.435  0.00  0.00     0.002 A 
ATOM      4  C5  UNL d   1      -3.933  -2.196  -1.821  0.00  0.00    -0.080 A 
ATOM      5  C6  UNL d   1      -4.842  -2.819  -0.803  0.00  0.00     0.076 C 
ATOM      6  C7  UNL d   1      -4.104  -2.485  -3.179  0.00  0.00     0.002 A 
ATOM      7  C8  UNL d   1      -3.247  -1.933  -4.134  0.00  0.00     0.006 A 
ENDROOT
BRANCH   1   8
ATOM      8  C1  UNL d   1      -1.245  -0.537  -4.772  0.00  0.00     0.054 C 
ATOM      9  C   UNL d   1      -0.420  -1.652  -5.399  0.00  0.00     0.018 C 
ENDBRANCH   1   8
TORSDOF 1
ENDMDL
