MODEL 1
REMARK minimizedAffinity 7.20427895
REMARK minimizedRMSD -1
REMARK  1 active torsions:
REMARK  status: ('A' for Active; 'I' for Inactive)
REMARK    1  A    between atoms: C1_2  and  C2_3 
ROOT
ATOM      1  C2  UNL d   1       1.505   1.742   0.388  0.00  0.00    -0.081 A 
ATOM      2  C3  UNL d   1       0.927   0.928  -0.594  0.00  0.00     0.006 A 
ATOM      3  C4  UNL d   1       0.257  -0.245  -0.237  0.00  0.00     0.002 A 
ATOM      4  C5  UNL d   1       0.148  -0.619   1.106  0.00  0.00    -0.080 A 
ATOM      5  C6  UNL d   1      -0.595  -1.860   1.504  0.00  0.00     0.076 C 
ATOM      6  C7  UNL d   1       0.741   0.184   2.086  0.00  0.00     0.002 A 
ATOM      7  C8  UNL d   1       1.411   1.357   1.730  0.00  0.00     0.006 A 
ENDROOT
BRANCH   1   8
ATOM      8  C1  UNL d   1       2.172   3.040   0.013  0.00  0.00     0.054 C 
ATOM      9  C   UNL d   1       3.660   3.011   0.332  0.00  0.00     0.018 C 
ENDBRANCH   1   8
TORSDOF 1
ENDMDL
