MODEL 1
REMARK minimizedAffinity -2.32612872
REMARK minimizedRMSD -1
REMARK  1 active torsions:
REMARK  status: ('A' for Active; 'I' for Inactive)
REMARK    1  A    between atoms: C1_2  and  C2_3 
ROOT
ATOM      1  C2  UNL d   1      -1.251   5.994  -3.786  0.00  0.00    -0.081 A 
ATOM      2  C3  UNL d   1      -1.244   5.999  -5.186  0.00  0.00     0.006 A 
ATOM      3  C4  UNL d   1      -0.036   5.999  -5.888  0.00  0.00     0.002 A 
ATOM      4  C5  UNL d   1       1.183   5.987  -5.203  0.00  0.00    -0.080 A 
ATOM      5  C6  UNL d   1       2.487   5.956  -5.945  0.00  0.00     0.076 C 
ATOM      6  C7  UNL d   1       1.177   5.999  -3.804  0.00  0.00     0.002 A 
ATOM      7  C8  UNL d   1      -0.030   6.000  -3.102  0.00  0.00     0.006 A 
ENDROOT
BRANCH   1   8
ATOM      8  C1  UNL d   1      -2.551   5.929  -3.026  0.00  0.00     0.054 C 
ATOM      9  C   UNL d   1      -3.745   5.976  -3.969  0.00  0.00     0.018 C 
ENDBRANCH   1   8
TORSDOF 1
ENDMDL
