MODEL 1
REMARK minimizedAffinity 0.0767115355
REMARK minimizedRMSD -1
REMARK  1 active torsions:
REMARK  status: ('A' for Active; 'I' for Inactive)
REMARK    1  A    between atoms: C1_2  and  C2_3 
ROOT
ATOM      1  C2  UNL d   1       0.210   5.901  -4.405  0.00  0.00    -0.081 A 
ATOM      2  C3  UNL d   1      -0.380   5.912  -3.135  0.00  0.00     0.006 A 
ATOM      3  C4  UNL d   1      -1.769   5.956  -3.000  0.00  0.00     0.002 A 
ATOM      4  C5  UNL d   1      -2.592   5.982  -4.131  0.00  0.00    -0.080 A 
ATOM      5  C6  UNL d   1      -4.086   6.000  -4.000  0.00  0.00     0.076 C 
ATOM      6  C7  UNL d   1      -2.003   5.990  -5.400  0.00  0.00     0.002 A 
ATOM      7  C8  UNL d   1      -0.613   5.946  -5.536  0.00  0.00     0.006 A 
ENDROOT
BRANCH   1   8
ATOM      8  C1  UNL d   1       1.706   5.788  -4.555  0.00  0.00     0.054 C 
ATOM      9  C   UNL d   1       2.135   6.000  -6.000  0.00  0.00     0.018 C 
ENDBRANCH   1   8
TORSDOF 1
ENDMDL
