MODEL 1
REMARK minimizedAffinity 6.63920307
REMARK minimizedRMSD -1
REMARK  1 active torsions:
REMARK  status: ('A' for Active; 'I' for Inactive)
REMARK    1  A    between atoms: C1_2  and  C2_3 
ROOT
ATOM      1  C2  UNL d   1       0.612   1.412   0.974  0.00  0.00    -0.081 A 
ATOM      2  C3  UNL d   1      -0.105   1.082   2.131  0.00  0.00     0.006 A 
ATOM      3  C4  UNL d   1      -0.657  -0.192   2.283  0.00  0.00     0.002 A 
ATOM      4  C5  UNL d   1      -0.494  -1.160   1.287  0.00  0.00    -0.080 A 
ATOM      5  C6  UNL d   1      -1.055  -2.541   1.451  0.00  0.00     0.076 C 
ATOM      6  C7  UNL d   1       0.208  -0.826   0.124  0.00  0.00     0.002 A 
ATOM      7  C8  UNL d   1       0.759   0.448  -0.030  0.00  0.00     0.006 A 
ENDROOT
BRANCH   1   8
ATOM      8  C1  UNL d   1       1.263   2.764   0.835  0.00  0.00     0.054 C 
ATOM      9  C   UNL d   1       0.966   3.384  -0.523  0.00  0.00     0.018 C 
ENDBRANCH   1   8
TORSDOF 1
ENDMDL
