MODEL 1
REMARK minimizedAffinity 3.70340848
REMARK minimizedRMSD -1
REMARK  0 active torsions:
REMARK  status: ('A' for Active; 'I' for Inactive)
ROOT
ATOM      1  C   UNL d   1      -2.664   0.695   1.072  0.00  0.00     0.077 C 
ATOM      2  C1  UNL d   1      -2.450  -0.156   2.289  0.00  0.00    -0.074 A 
ATOM      3  C2  UNL d   1      -3.533  -0.726   2.966  0.00  0.00    -0.005 A 
ATOM      4  C3  UNL d   1      -3.319  -1.523   4.090  0.00  0.00     0.006 A 
ATOM      5  C4  UNL d   1      -2.021  -1.758   4.548  0.00  0.00    -0.005 A 
ATOM      6  C5  UNL d   1      -0.926  -1.197   3.884  0.00  0.00    -0.074 A 
ATOM      7  C6  UNL d   1       0.475  -1.447   4.357  0.00  0.00     0.077 C 
ATOM      8  C7  UNL d   1      -1.150  -0.403   2.750  0.00  0.00    -0.001 A 
ENDROOT
TORSDOF 0
ENDMDL
