MODEL 1
REMARK minimizedAffinity 1.56575739
REMARK minimizedRMSD -1
REMARK  0 active torsions:
REMARK  status: ('A' for Active; 'I' for Inactive)
ROOT
ATOM      1  C   UNL d   1       2.958   1.663   0.358  0.00  0.00     0.077 C 
ATOM      2  C1  UNL d   1       1.759   1.192  -0.410  0.00  0.00    -0.074 A 
ATOM      3  C2  UNL d   1       0.626   0.707   0.251  0.00  0.00    -0.005 A 
ATOM      4  C3  UNL d   1      -0.485   0.282  -0.478  0.00  0.00     0.006 A 
ATOM      5  C4  UNL d   1      -0.475   0.338  -1.872  0.00  0.00    -0.005 A 
ATOM      6  C5  UNL d   1       0.649   0.822  -2.550  0.00  0.00    -0.074 A 
ATOM      7  C6  UNL d   1       0.672   0.898  -4.048  0.00  0.00     0.077 C 
ATOM      8  C7  UNL d   1       1.759   1.253  -1.811  0.00  0.00    -0.001 A 
ENDROOT
TORSDOF 0
ENDMDL
