MODEL 1
REMARK minimizedAffinity 5.4442277
REMARK minimizedRMSD -1
REMARK  0 active torsions:
REMARK  status: ('A' for Active; 'I' for Inactive)
ROOT
ATOM      1  C   UNL d   1       3.806   3.848   2.769  0.00  0.00     0.077 C 
ATOM      2  C1  UNL d   1       3.492   3.017   1.560  0.00  0.00    -0.074 A 
ATOM      3  C2  UNL d   1       4.290   3.085   0.414  0.00  0.00    -0.005 A 
ATOM      4  C3  UNL d   1       3.991   2.300  -0.699  0.00  0.00     0.006 A 
ATOM      5  C4  UNL d   1       2.893   1.439  -0.677  0.00  0.00    -0.005 A 
ATOM      6  C5  UNL d   1       2.084   1.356   0.460  0.00  0.00    -0.074 A 
ATOM      7  C6  UNL d   1       0.906   0.429   0.504  0.00  0.00     0.077 C 
ATOM      8  C7  UNL d   1       2.395   2.144   1.577  0.00  0.00    -0.001 A 
ENDROOT
TORSDOF 0
ENDMDL
