MODEL 1
REMARK minimizedAffinity 4.98608398
REMARK minimizedRMSD -1
REMARK  0 active torsions:
REMARK  status: ('A' for Active; 'I' for Inactive)
ROOT
ATOM      1  C   UNL d   1      -4.100  -1.601   3.951  0.00  0.00     0.077 C 
ATOM      2  C1  UNL d   1      -2.865  -1.022   3.327  0.00  0.00    -0.074 A 
ATOM      3  C2  UNL d   1      -1.621  -1.133   3.958  0.00  0.00    -0.005 A 
ATOM      4  C3  UNL d   1      -0.480  -0.597   3.362  0.00  0.00     0.006 A 
ATOM      5  C4  UNL d   1      -0.570   0.054   2.131  0.00  0.00    -0.005 A 
ATOM      6  C5  UNL d   1      -1.804   0.173   1.485  0.00  0.00    -0.074 A 
ATOM      7  C6  UNL d   1      -1.916   0.861   0.156  0.00  0.00     0.077 C 
ATOM      8  C7  UNL d   1      -2.945  -0.374   2.087  0.00  0.00    -0.001 A 
ENDROOT
TORSDOF 0
ENDMDL
