MODEL 1
REMARK minimizedAffinity 7.16779232
REMARK minimizedRMSD -1
REMARK  0 active torsions:
REMARK  status: ('A' for Active; 'I' for Inactive)
ROOT
ATOM      1  C   UNL d   1       2.076   0.158  -0.332  0.00  0.00     0.077 C 
ATOM      2  C1  UNL d   1       0.592   0.038  -0.149  0.00  0.00    -0.074 A 
ATOM      3  C2  UNL d   1      -0.228  -0.404  -1.193  0.00  0.00    -0.005 A 
ATOM      4  C3  UNL d   1      -1.605  -0.519  -1.004  0.00  0.00     0.006 A 
ATOM      5  C4  UNL d   1      -2.176  -0.194   0.227  0.00  0.00    -0.005 A 
ATOM      6  C5  UNL d   1      -1.372   0.249   1.282  0.00  0.00    -0.074 A 
ATOM      7  C6  UNL d   1      -1.968   0.593   2.615  0.00  0.00     0.077 C 
ATOM      8  C7  UNL d   1       0.012   0.355   1.087  0.00  0.00    -0.001 A 
ENDROOT
TORSDOF 0
ENDMDL
