MODEL 1
REMARK minimizedAffinity 6.01560974
REMARK minimizedRMSD -1
REMARK  0 active torsions:
REMARK  status: ('A' for Active; 'I' for Inactive)
ROOT
ATOM      1  C   UNL d   1      -1.590   0.756   0.105  0.00  0.00     0.077 C 
ATOM      2  C1  UNL d   1      -1.553   0.046   1.426  0.00  0.00    -0.074 A 
ATOM      3  C2  UNL d   1      -0.336  -0.293   2.026  0.00  0.00    -0.005 A 
ATOM      4  C3  UNL d   1      -0.317  -0.945   3.259  0.00  0.00     0.006 A 
ATOM      5  C4  UNL d   1      -1.513  -1.264   3.903  0.00  0.00    -0.005 A 
ATOM      6  C5  UNL d   1      -2.740  -0.933   3.319  0.00  0.00    -0.074 A 
ATOM      7  C6  UNL d   1      -4.034  -1.260   4.002  0.00  0.00     0.077 C 
ATOM      8  C7  UNL d   1      -2.750  -0.271   2.083  0.00  0.00    -0.001 A 
ENDROOT
TORSDOF 0
ENDMDL
