MODEL 1
REMARK minimizedAffinity 2.90019727
REMARK minimizedRMSD -1
REMARK  0 active torsions:
REMARK  status: ('A' for Active; 'I' for Inactive)
ROOT
ATOM      1  C   UNL d   1      -0.916   0.348  -0.050  0.00  0.00     0.077 C 
ATOM      2  C1  UNL d   1      -0.875  -0.058   1.393  0.00  0.00    -0.074 A 
ATOM      3  C2  UNL d   1      -2.045  -0.111   2.158  0.00  0.00    -0.005 A 
ATOM      4  C3  UNL d   1      -1.992  -0.500   3.497  0.00  0.00     0.006 A 
ATOM      5  C4  UNL d   1      -0.772  -0.840   4.082  0.00  0.00    -0.005 A 
ATOM      6  C5  UNL d   1       0.407  -0.794   3.332  0.00  0.00    -0.074 A 
ATOM      7  C6  UNL d   1       1.726  -1.166   3.944  0.00  0.00     0.077 C 
ATOM      8  C7  UNL d   1       0.346  -0.409   1.986  0.00  0.00    -0.001 A 
ENDROOT
TORSDOF 0
ENDMDL
