MODEL 1
REMARK minimizedAffinity 15.3480778
REMARK minimizedRMSD -1
REMARK  0 active torsions:
REMARK  status: ('A' for Active; 'I' for Inactive)
ROOT
ATOM      1  C   UNL d   1       3.326   3.247   1.954  0.00  0.00     0.077 C 
ATOM      2  C1  UNL d   1       2.925   2.487   0.725  0.00  0.00    -0.074 A 
ATOM      3  C2  UNL d   1       3.697   2.546  -0.440  0.00  0.00    -0.005 A 
ATOM      4  C3  UNL d   1       3.316   1.825  -1.572  0.00  0.00     0.006 A 
ATOM      5  C4  UNL d   1       2.163   1.040  -1.551  0.00  0.00    -0.005 A 
ATOM      6  C5  UNL d   1       1.380   0.968  -0.395  0.00  0.00    -0.074 A 
ATOM      7  C6  UNL d   1       0.143   0.121  -0.351  0.00  0.00     0.077 C 
ATOM      8  C7  UNL d   1       1.772   1.689   0.741  0.00  0.00    -0.001 A 
ENDROOT
TORSDOF 0
ENDMDL
