MODEL 1
REMARK minimizedAffinity 8.06445217
REMARK minimizedRMSD -1
REMARK  0 active torsions:
REMARK  status: ('A' for Active; 'I' for Inactive)
ROOT
ATOM      1  C   UNL d   1      -4.077  -1.531   3.661  0.00  0.00     0.077 C 
ATOM      2  C1  UNL d   1      -2.715  -1.060   3.244  0.00  0.00    -0.074 A 
ATOM      3  C2  UNL d   1      -1.601  -1.264   4.065  0.00  0.00    -0.005 A 
ATOM      4  C3  UNL d   1      -0.340  -0.829   3.659  0.00  0.00     0.006 A 
ATOM      5  C4  UNL d   1      -0.179  -0.187   2.431  0.00  0.00    -0.005 A 
ATOM      6  C5  UNL d   1      -1.281   0.025   1.596  0.00  0.00    -0.074 A 
ATOM      7  C6  UNL d   1      -1.124   0.705   0.268  0.00  0.00     0.077 C 
ATOM      8  C7  UNL d   1      -2.544  -0.421   2.007  0.00  0.00    -0.001 A 
ENDROOT
TORSDOF 0
ENDMDL
