MODEL 1
REMARK minimizedAffinity -1.38028634
REMARK minimizedRMSD -1
REMARK  0 active torsions:
REMARK  status: ('A' for Active; 'I' for Inactive)
ROOT
ATOM      1  C   UNL d   1       0.541  -0.371   0.025  0.00  0.00     0.077 C 
ATOM      2  C1  UNL d   1      -0.004  -0.628   1.399  0.00  0.00    -0.074 A 
ATOM      3  C2  UNL d   1      -1.352  -0.399   1.692  0.00  0.00    -0.005 A 
ATOM      4  C3  UNL d   1      -1.846  -0.651   2.971  0.00  0.00     0.006 A 
ATOM      5  C4  UNL d   1      -0.999  -1.134   3.969  0.00  0.00    -0.005 A 
ATOM      6  C5  UNL d   1       0.352  -1.370   3.695  0.00  0.00    -0.074 A 
ATOM      7  C6  UNL d   1       1.274  -1.898   4.753  0.00  0.00     0.077 C 
ATOM      8  C7  UNL d   1       0.840  -1.120   2.404  0.00  0.00    -0.001 A 
ENDROOT
TORSDOF 0
ENDMDL
