MODEL 1
REMARK minimizedAffinity 17.6671295
REMARK minimizedRMSD -1
REMARK  2 active torsions:
REMARK  status: ('A' for Active; 'I' for Inactive)
REMARK    1  A    between atoms: C2'_3  and  C1'_4 
REMARK    2  A    between atoms: C1'_4  and  C1_5 
ROOT
ATOM      1  C1  I4B d   1      -1.556   3.390   0.593  0.00  0.00    -0.075 A 
ATOM      2  C2  I4B d   1      -1.358   4.133  -0.544  0.00  0.00     0.003 A 
ATOM      3  C3  I4B d   1      -0.325   3.790  -1.450  0.00  0.00     0.002 A 
ATOM      4  C4  I4B d   1       0.513   2.733  -1.156  0.00  0.00    -0.004 A 
ATOM      5  C5  I4B d   1       0.296   1.967  -0.014  0.00  0.00     0.002 A 
ATOM      6  C6  I4B d   1      -0.752   2.289   0.860  0.00  0.00     0.003 A 
ENDROOT
BRANCH   1   7
ATOM      7  C1' I4B d   1      -2.635   3.801   1.544  0.00  0.00     0.060 C 
BRANCH   7   8
ATOM      8  C2' I4B d   1      -2.975   5.251   1.266  0.00  0.00    -0.013 C 
ATOM      9  C4' I4B d   1      -4.329   5.380   0.620  0.00  0.00     0.013 C 
ATOM     10  C3' I4B d   1      -2.922   5.996   2.566  0.00  0.00     0.013 C 
ENDBRANCH   7   8
ENDBRANCH   1   7
TORSDOF 2
ENDMDL
