MODEL 1
REMARK minimizedAffinity 13.8231678
REMARK minimizedRMSD -1
REMARK  2 active torsions:
REMARK  status: ('A' for Active; 'I' for Inactive)
REMARK    1  A    between atoms: C2'_3  and  C1'_4 
REMARK    2  A    between atoms: C1'_4  and  C1_5 
ROOT
ATOM      1  C1  I4B d   1       0.024   2.326   1.712  0.00  0.00    -0.075 A 
ATOM      2  C2  I4B d   1      -1.180   2.967   1.868  0.00  0.00     0.003 A 
ATOM      3  C3  I4B d   1      -1.812   3.576   0.757  0.00  0.00     0.002 A 
ATOM      4  C4  I4B d   1      -1.186   3.564  -0.472  0.00  0.00    -0.004 A 
ATOM      5  C5  I4B d   1       0.023   2.894  -0.633  0.00  0.00     0.002 A 
ATOM      6  C6  I4B d   1       0.627   2.260   0.463  0.00  0.00     0.003 A 
ENDROOT
BRANCH   1   7
ATOM      7  C1' I4B d   1       0.680   1.722   2.913  0.00  0.00     0.060 C 
BRANCH   7   8
ATOM      8  C2' I4B d   1       2.165   2.010   2.829  0.00  0.00    -0.013 C 
ATOM      9  C4' I4B d   1       2.647   2.748   4.050  0.00  0.00     0.013 C 
ATOM     10  C3' I4B d   1       2.882   0.703   2.668  0.00  0.00     0.013 C 
ENDBRANCH   7   8
ENDBRANCH   1   7
TORSDOF 2
ENDMDL
