MODEL 1
REMARK minimizedAffinity 18.3545895
REMARK minimizedRMSD -1
REMARK  2 active torsions:
REMARK  status: ('A' for Active; 'I' for Inactive)
REMARK    1  A    between atoms: C2'_3  and  C1'_4 
REMARK    2  A    between atoms: C1'_4  and  C1_5 
ROOT
ATOM      1  C1  I4B d   1      -2.907   5.316  -0.911  0.00  0.00    -0.075 A 
ATOM      2  C2  I4B d   1      -2.358   5.652   0.302  0.00  0.00     0.003 A 
ATOM      3  C3  I4B d   1      -3.193   5.901   1.418  0.00  0.00     0.002 A 
ATOM      4  C4  I4B d   1      -4.563   5.852   1.266  0.00  0.00    -0.004 A 
ATOM      5  C5  I4B d   1      -5.118   5.489   0.042  0.00  0.00     0.002 A 
ATOM      6  C6  I4B d   1      -4.284   5.207  -1.051  0.00  0.00     0.003 A 
ENDROOT
BRANCH   1   7
ATOM      7  C1' I4B d   1      -1.997   5.093  -2.077  0.00  0.00     0.060 C 
BRANCH   7   8
ATOM      8  C2' I4B d   1      -0.646   4.667  -1.540  0.00  0.00    -0.013 C 
ATOM      9  C4' I4B d   1      -0.440   3.184  -1.694  0.00  0.00     0.013 C 
ATOM     10  C3' I4B d   1       0.409   5.440  -2.275  0.00  0.00     0.013 C 
ENDBRANCH   7   8
ENDBRANCH   1   7
TORSDOF 2
ENDMDL
