MODEL 1
REMARK minimizedAffinity 11.6727381
REMARK minimizedRMSD -1
REMARK  2 active torsions:
REMARK  status: ('A' for Active; 'I' for Inactive)
REMARK    1  A    between atoms: C2'_3  and  C1'_4 
REMARK    2  A    between atoms: C1'_4  and  C1_5 
ROOT
ATOM      1  C1  I4B d   1      -1.160   4.333   0.539  0.00  0.00    -0.075 A 
ATOM      2  C2  I4B d   1      -1.001   3.338   1.471  0.00  0.00     0.003 A 
ATOM      3  C3  I4B d   1      -0.437   2.094   1.096  0.00  0.00     0.002 A 
ATOM      4  C4  I4B d   1      -0.095   1.873  -0.222  0.00  0.00    -0.004 A 
ATOM      5  C5  I4B d   1      -0.236   2.892  -1.161  0.00  0.00     0.002 A 
ATOM      6  C6  I4B d   1      -0.760   4.134  -0.775  0.00  0.00     0.003 A 
ENDROOT
BRANCH   1   7
ATOM      7  C1' I4B d   1      -1.790   5.623   0.963  0.00  0.00     0.060 C 
BRANCH   7   8
ATOM      8  C2' I4B d   1      -2.932   5.297   1.903  0.00  0.00    -0.013 C 
ATOM      9  C4' I4B d   1      -2.764   5.996   3.227  0.00  0.00     0.013 C 
ATOM     10  C3' I4B d   1      -4.212   5.704   1.235  0.00  0.00     0.013 C 
ENDBRANCH   7   8
ENDBRANCH   1   7
TORSDOF 2
ENDMDL
