MODEL 1
REMARK minimizedAffinity 11.1652746
REMARK minimizedRMSD -1
REMARK  2 active torsions:
REMARK  status: ('A' for Active; 'I' for Inactive)
REMARK    1  A    between atoms: C2'_3  and  C1'_4 
REMARK    2  A    between atoms: C1'_4  and  C1_5 
ROOT
ATOM      1  C1  I4B d   1       0.191   2.309   0.342  0.00  0.00    -0.075 A 
ATOM      2  C2  I4B d   1      -0.845   1.892   1.139  0.00  0.00     0.003 A 
ATOM      3  C3  I4B d   1      -0.599   1.485   2.473  0.00  0.00     0.002 A 
ATOM      4  C4  I4B d   1       0.697   1.463   2.949  0.00  0.00    -0.004 A 
ATOM      5  C5  I4B d   1       1.743   1.908   2.146  0.00  0.00     0.002 A 
ATOM      6  C6  I4B d   1       1.488   2.345   0.838  0.00  0.00     0.003 A 
ENDROOT
BRANCH   1   7
ATOM      7  C1' I4B d   1      -0.100   2.701  -1.072  0.00  0.00     0.060 C 
BRANCH   7   8
ATOM      8  C2' I4B d   1      -0.118   4.214  -1.143  0.00  0.00    -0.013 C 
ATOM      9  C4' I4B d   1      -0.900   4.804   0.001  0.00  0.00     0.013 C 
ATOM     10  C3' I4B d   1       1.302   4.695  -1.134  0.00  0.00     0.013 C 
ENDBRANCH   7   8
ENDBRANCH   1   7
TORSDOF 2
ENDMDL
