MODEL 1
REMARK minimizedAffinity 9.56956005
REMARK minimizedRMSD -1
REMARK  2 active torsions:
REMARK  status: ('A' for Active; 'I' for Inactive)
REMARK    1  A    between atoms: C2'_3  and  C1'_4 
REMARK    2  A    between atoms: C1'_4  and  C1_5 
ROOT
ATOM      1  C1  I4B d   1       0.354   2.891  -0.802  0.00  0.00    -0.075 A 
ATOM      2  C2  I4B d   1       1.030   2.170   0.151  0.00  0.00     0.003 A 
ATOM      3  C3  I4B d   1       0.318   1.502   1.177  0.00  0.00     0.002 A 
ATOM      4  C4  I4B d   1      -1.055   1.623   1.241  0.00  0.00    -0.004 A 
ATOM      5  C5  I4B d   1      -1.740   2.335   0.261  0.00  0.00     0.002 A 
ATOM      6  C6  I4B d   1      -1.032   2.963  -0.775  0.00  0.00     0.003 A 
ENDROOT
BRANCH   1   7
ATOM      7  C1' I4B d   1       1.139   3.611  -1.852  0.00  0.00     0.060 C 
BRANCH   7   8
ATOM      8  C2' I4B d   1       1.551   4.955  -1.288  0.00  0.00    -0.013 C 
ATOM      9  C4' I4B d   1       2.932   4.896  -0.691  0.00  0.00     0.013 C 
ATOM     10  C3' I4B d   1       1.482   5.963  -2.396  0.00  0.00     0.013 C 
ENDBRANCH   7   8
ENDBRANCH   1   7
TORSDOF 2
ENDMDL
