MODEL 1
REMARK minimizedAffinity 12.2755957
REMARK minimizedRMSD -1
REMARK  2 active torsions:
REMARK  status: ('A' for Active; 'I' for Inactive)
REMARK    1  A    between atoms: C2'_3  and  C1'_4 
REMARK    2  A    between atoms: C1'_4  and  C1_5 
ROOT
ATOM      1  C1  I4B d   1      -1.529   1.430   2.461  0.00  0.00    -0.075 A 
ATOM      2  C2  I4B d   1      -1.209   2.199   1.369  0.00  0.00     0.003 A 
ATOM      3  C3  I4B d   1       0.126   2.622   1.162  0.00  0.00     0.002 A 
ATOM      4  C4  I4B d   1       1.094   2.297   2.090  0.00  0.00    -0.004 A 
ATOM      5  C5  I4B d   1       0.773   1.498   3.184  0.00  0.00     0.002 A 
ATOM      6  C6  I4B d   1      -0.544   1.051   3.364  0.00  0.00     0.003 A 
ENDROOT
BRANCH   1   7
ATOM      7  C1' I4B d   1      -2.955   1.029   2.667  0.00  0.00     0.060 C 
BRANCH   7   8
ATOM      8  C2' I4B d   1      -3.121  -0.387   2.153  0.00  0.00    -0.013 C 
ATOM      9  C4' I4B d   1      -4.191  -1.122   2.915  0.00  0.00     0.013 C 
ATOM     10  C3' I4B d   1      -3.450  -0.313   0.691  0.00  0.00     0.013 C 
ENDBRANCH   7   8
ENDBRANCH   1   7
TORSDOF 2
ENDMDL
