MODEL 1
REMARK minimizedAffinity 11.3357801
REMARK minimizedRMSD -1
REMARK  2 active torsions:
REMARK  status: ('A' for Active; 'I' for Inactive)
REMARK    1  A    between atoms: C2'_3  and  C1'_4 
REMARK    2  A    between atoms: C1'_4  and  C1_5 
ROOT
ATOM      1  C1  I4B d   1       4.859  -3.285  -0.776  0.00  0.00    -0.075 A 
ATOM      2  C2  I4B d   1       5.441  -2.936  -1.969  0.00  0.00     0.003 A 
ATOM      3  C3  I4B d   1       6.000  -3.930  -2.808  0.00  0.00     0.002 A 
ATOM      4  C4  I4B d   1       6.000  -5.247  -2.393  0.00  0.00    -0.004 A 
ATOM      5  C5  I4B d   1       5.389  -5.602  -1.194  0.00  0.00     0.002 A 
ATOM      6  C6  I4B d   1       4.803  -4.616  -0.386  0.00  0.00     0.003 A 
ENDROOT
BRANCH   1   7
ATOM      7  C1' I4B d   1       4.307  -2.205   0.100  0.00  0.00     0.060 C 
BRANCH   7   8
ATOM      8  C2' I4B d   1       2.905  -2.606   0.510  0.00  0.00    -0.013 C 
ATOM      9  C4' I4B d   1       2.530  -1.999   1.836  0.00  0.00     0.013 C 
ATOM     10  C3' I4B d   1       1.963  -2.169  -0.572  0.00  0.00     0.013 C 
ENDBRANCH   7   8
ENDBRANCH   1   7
TORSDOF 2
ENDMDL
