MODEL 1
REMARK minimizedAffinity 6.83066463
REMARK minimizedRMSD -1
REMARK  2 active torsions:
REMARK  status: ('A' for Active; 'I' for Inactive)
REMARK    1  A    between atoms: C2'_3  and  C1'_4 
REMARK    2  A    between atoms: C1'_4  and  C1_5 
ROOT
ATOM      1  C1  I4B d   1       2.266   0.627   0.775  0.00  0.00    -0.075 A 
ATOM      2  C2  I4B d   1       2.020  -0.047  -0.395  0.00  0.00     0.003 A 
ATOM      3  C3  I4B d   1       2.819  -1.157  -0.760  0.00  0.00     0.002 A 
ATOM      4  C4  I4B d   1       3.878  -1.526   0.045  0.00  0.00    -0.004 A 
ATOM      5  C5  I4B d   1       4.111  -0.856   1.242  0.00  0.00     0.002 A 
ATOM      6  C6  I4B d   1       3.293   0.219   1.616  0.00  0.00     0.003 A 
ENDROOT
BRANCH   1   7
ATOM      7  C1' I4B d   1       1.423   1.816   1.114  0.00  0.00     0.060 C 
BRANCH   7   8
ATOM      8  C2' I4B d   1       0.545   2.121  -0.083  0.00  0.00    -0.013 C 
ATOM      9  C4' I4B d   1      -0.887   2.336   0.333  0.00  0.00     0.013 C 
ATOM     10  C3' I4B d   1       1.098   3.336  -0.766  0.00  0.00     0.013 C 
ENDBRANCH   7   8
ENDBRANCH   1   7
TORSDOF 2
ENDMDL
