MODEL 1
REMARK minimizedAffinity 11.2225456
REMARK minimizedRMSD -1
REMARK  2 active torsions:
REMARK  status: ('A' for Active; 'I' for Inactive)
REMARK    1  A    between atoms: C2'_3  and  C1'_4 
REMARK    2  A    between atoms: C1'_4  and  C1_5 
ROOT
ATOM      1  C1  I4B d   1      -2.157   2.934  -0.108  0.00  0.00    -0.075 A 
ATOM      2  C2  I4B d   1      -0.957   2.646  -0.708  0.00  0.00     0.003 A 
ATOM      3  C3  I4B d   1       0.153   2.246   0.074  0.00  0.00     0.002 A 
ATOM      4  C4  I4B d   1       0.034   2.195   1.448  0.00  0.00    -0.004 A 
ATOM      5  C5  I4B d   1      -1.190   2.465   2.053  0.00  0.00     0.002 A 
ATOM      6  C6  I4B d   1      -2.296   2.825   1.269  0.00  0.00     0.003 A 
ENDROOT
BRANCH   1   7
ATOM      7  C1' I4B d   1      -3.300   3.386  -0.962  0.00  0.00     0.060 C 
BRANCH   7   8
ATOM      8  C2' I4B d   1      -3.010   2.968  -2.389  0.00  0.00    -0.013 C 
ATOM      9  C4' I4B d   1      -3.885   1.816  -2.808  0.00  0.00     0.013 C 
ATOM     10  C3' I4B d   1      -3.223   4.160  -3.273  0.00  0.00     0.013 C 
ENDBRANCH   7   8
ENDBRANCH   1   7
TORSDOF 2
ENDMDL
