MODEL 1
REMARK minimizedAffinity -0.340229392
REMARK minimizedRMSD -1
REMARK  1 active torsions:
REMARK  status: ('A' for Active; 'I' for Inactive)
REMARK    1  A    between atoms: C1_2  and  C2_3 
ROOT
ATOM      1  C2  UNL d   1       3.854   3.556   0.678  0.00  0.00    -0.081 A 
ATOM      2  C3  UNL d   1       2.565   3.174   1.070  0.00  0.00     0.006 A 
ATOM      3  C4  UNL d   1       2.281   2.911   2.412  0.00  0.00     0.002 A 
ATOM      4  C5  UNL d   1       3.278   3.032   3.385  0.00  0.00    -0.080 A 
ATOM      5  C6  UNL d   1       2.979   2.782   4.834  0.00  0.00     0.076 C 
ATOM      6  C7  UNL d   1       4.571   3.397   2.992  0.00  0.00     0.002 A 
ATOM      7  C8  UNL d   1       4.855   3.659   1.650  0.00  0.00     0.006 A 
ENDROOT
BRANCH   1   8
ATOM      8  C1  UNL d   1       4.148   3.903  -0.759  0.00  0.00     0.054 C 
ATOM      9  C   UNL d   1       4.933   5.202  -0.865  0.00  0.00     0.018 C 
ENDBRANCH   1   8
TORSDOF 1
ENDMDL
