MODEL 1
REMARK minimizedAffinity -4.95466232
REMARK minimizedRMSD -1
REMARK  1 active torsions:
REMARK  status: ('A' for Active; 'I' for Inactive)
REMARK    1  A    between atoms: C1_2  and  C2_3 
ROOT
ATOM      1  C2  UNL d   1      -0.948  -1.058   0.030  0.00  0.00    -0.081 A 
ATOM      2  C3  UNL d   1      -0.167  -1.637   1.038  0.00  0.00     0.006 A 
ATOM      3  C4  UNL d   1       0.835  -0.897   1.670  0.00  0.00     0.002 A 
ATOM      4  C5  UNL d   1       1.068   0.435   1.311  0.00  0.00    -0.080 A 
ATOM      5  C6  UNL d   1       2.120   1.249   2.003  0.00  0.00     0.076 C 
ATOM      6  C7  UNL d   1       0.299   1.008   0.292  0.00  0.00     0.002 A 
ATOM      7  C8  UNL d   1      -0.702   0.269  -0.341  0.00  0.00     0.006 A 
ENDROOT
BRANCH   1   8
ATOM      8  C1  UNL d   1      -2.073  -1.832  -0.609  0.00  0.00     0.054 C 
ATOM      9  C   UNL d   1      -3.300  -0.956  -0.817  0.00  0.00     0.018 C 
ENDBRANCH   1   8
TORSDOF 1
ENDMDL
