MODEL 1
REMARK minimizedAffinity 9.46290874
REMARK minimizedRMSD -1
REMARK  1 active torsions:
REMARK  status: ('A' for Active; 'I' for Inactive)
REMARK    1  A    between atoms: C1_2  and  C2_3 
ROOT
ATOM      1  C2  UNL d   1      -1.987   0.687  -2.052  0.00  0.00    -0.081 A 
ATOM      2  C3  UNL d   1      -1.713  -0.664  -1.806  0.00  0.00     0.006 A 
ATOM      3  C4  UNL d   1      -2.568  -1.425  -1.005  0.00  0.00     0.002 A 
ATOM      4  C5  UNL d   1      -3.712  -0.850  -0.442  0.00  0.00    -0.080 A 
ATOM      5  C6  UNL d   1      -4.654  -1.664   0.395  0.00  0.00     0.076 C 
ATOM      6  C7  UNL d   1      -3.977   0.504  -0.674  0.00  0.00     0.002 A 
ATOM      7  C8  UNL d   1      -3.123   1.266  -1.474  0.00  0.00     0.006 A 
ENDROOT
BRANCH   1   8
ATOM      8  C1  UNL d   1      -1.103   1.494  -2.969  0.00  0.00     0.054 C 
ATOM      9  C   UNL d   1      -1.917   2.472  -3.803  0.00  0.00     0.018 C 
ENDBRANCH   1   8
TORSDOF 1
ENDMDL
