MODEL 1
REMARK minimizedAffinity 8.18030834
REMARK minimizedRMSD -1
REMARK  1 active torsions:
REMARK  status: ('A' for Active; 'I' for Inactive)
REMARK    1  A    between atoms: C1_2  and  C2_3 
ROOT
ATOM      1  C2  UNL d   1      -2.590  -2.242   4.175  0.00  0.00    -0.081 A 
ATOM      2  C3  UNL d   1      -2.299  -1.030   3.536  0.00  0.00     0.006 A 
ATOM      3  C4  UNL d   1      -1.112  -0.877   2.816  0.00  0.00     0.002 A 
ATOM      4  C5  UNL d   1      -0.200  -1.933   2.717  0.00  0.00    -0.080 A 
ATOM      5  C6  UNL d   1       1.064  -1.792   1.922  0.00  0.00     0.076 C 
ATOM      6  C7  UNL d   1      -0.483  -3.138   3.370  0.00  0.00     0.002 A 
ATOM      7  C8  UNL d   1      -1.669  -3.292   4.090  0.00  0.00     0.006 A 
ENDROOT
BRANCH   1   8
ATOM      8  C1  UNL d   1      -3.899  -2.432   4.898  0.00  0.00     0.054 C 
ATOM      9  C   UNL d   1      -3.776  -3.475   6.000  0.00  0.00     0.018 C 
ENDBRANCH   1   8
TORSDOF 1
ENDMDL
