MODEL 1
REMARK minimizedAffinity 3.2008431
REMARK minimizedRMSD -1
REMARK  1 active torsions:
REMARK  status: ('A' for Active; 'I' for Inactive)
REMARK    1  A    between atoms: C1_2  and  C2_3 
ROOT
ATOM      1  C2  UNL d   1       1.919   1.146   2.281  0.00  0.00    -0.081 A 
ATOM      2  C3  UNL d   1       0.706   1.197   2.979  0.00  0.00     0.006 A 
ATOM      3  C4  UNL d   1      -0.232   0.170   2.845  0.00  0.00     0.002 A 
ATOM      4  C5  UNL d   1       0.030  -0.927   2.018  0.00  0.00    -0.080 A 
ATOM      5  C6  UNL d   1      -0.955  -2.051   1.888  0.00  0.00     0.076 C 
ATOM      6  C7  UNL d   1       1.234  -0.969   1.307  0.00  0.00     0.002 A 
ATOM      7  C8  UNL d   1       2.172   0.057   1.440  0.00  0.00     0.006 A 
ENDROOT
BRANCH   1   8
ATOM      8  C1  UNL d   1       2.959   2.220   2.473  0.00  0.00     0.054 C 
ATOM      9  C   UNL d   1       3.306   2.896   1.154  0.00  0.00     0.018 C 
ENDBRANCH   1   8
TORSDOF 1
ENDMDL
