MODEL 1
REMARK minimizedAffinity -6.53056526
REMARK minimizedRMSD -1
REMARK  1 active torsions:
REMARK  status: ('A' for Active; 'I' for Inactive)
REMARK    1  A    between atoms: C1_2  and  C2_3 
ROOT
ATOM      1  C2  UNL d   1       0.836   0.503   0.234  0.00  0.00    -0.081 A 
ATOM      2  C3  UNL d   1       0.117   0.676  -0.955  0.00  0.00     0.006 A 
ATOM      3  C4  UNL d   1      -1.201   0.227  -1.057  0.00  0.00     0.002 A 
ATOM      4  C5  UNL d   1      -1.825  -0.396   0.029  0.00  0.00    -0.080 A 
ATOM      5  C6  UNL d   1      -3.250  -0.856  -0.058  0.00  0.00     0.076 C 
ATOM      6  C7  UNL d   1      -1.101  -0.585   1.211  0.00  0.00     0.002 A 
ATOM      7  C8  UNL d   1       0.218  -0.137   1.314  0.00  0.00     0.006 A 
ENDROOT
BRANCH   1   8
ATOM      8  C1  UNL d   1       2.237   1.044   0.369  0.00  0.00     0.054 C 
ATOM      9  C   UNL d   1       2.383   1.894   1.623  0.00  0.00     0.018 C 
ENDBRANCH   1   8
TORSDOF 1
ENDMDL
