MODEL 1
REMARK minimizedAffinity -0.358924389
REMARK minimizedRMSD -1
REMARK  1 active torsions:
REMARK  status: ('A' for Active; 'I' for Inactive)
REMARK    1  A    between atoms: C1_2  and  C2_3 
ROOT
ATOM      1  C2  UNL d   1      -1.435  -1.778   0.663  0.00  0.00    -0.081 A 
ATOM      2  C3  UNL d   1      -1.403  -0.979   1.812  0.00  0.00     0.006 A 
ATOM      3  C4  UNL d   1      -0.756   0.259   1.796  0.00  0.00     0.002 A 
ATOM      4  C5  UNL d   1      -0.138   0.722   0.629  0.00  0.00    -0.080 A 
ATOM      5  C6  UNL d   1       0.533   2.063   0.590  0.00  0.00     0.076 C 
ATOM      6  C7  UNL d   1      -0.155  -0.084  -0.514  0.00  0.00     0.002 A 
ATOM      7  C8  UNL d   1      -0.801  -1.322  -0.498  0.00  0.00     0.006 A 
ENDROOT
BRANCH   1   8
ATOM      8  C1  UNL d   1      -2.187  -3.084   0.659  0.00  0.00     0.054 C 
ATOM      9  C   UNL d   1      -3.299  -3.079  -0.380  0.00  0.00     0.018 C 
ENDBRANCH   1   8
TORSDOF 1
ENDMDL
