MODEL 1
REMARK minimizedAffinity 4.13620234
REMARK minimizedRMSD -1
REMARK  1 active torsions:
REMARK  status: ('A' for Active; 'I' for Inactive)
REMARK    1  A    between atoms: C1_2  and  C2_3 
ROOT
ATOM      1  C2  UNL d   1      -2.316  -0.208   2.530  0.00  0.00    -0.081 A 
ATOM      2  C3  UNL d   1      -1.303  -1.002   1.979  0.00  0.00     0.006 A 
ATOM      3  C4  UNL d   1      -0.981  -0.898   0.623  0.00  0.00     0.002 A 
ATOM      4  C5  UNL d   1      -1.660   0.006  -0.201  0.00  0.00    -0.080 A 
ATOM      5  C6  UNL d   1      -1.303   0.149  -1.650  0.00  0.00     0.076 C 
ATOM      6  C7  UNL d   1      -2.684   0.787   0.347  0.00  0.00     0.002 A 
ATOM      7  C8  UNL d   1      -3.007   0.683   1.701  0.00  0.00     0.006 A 
ENDROOT
BRANCH   1   8
ATOM      8  C1  UNL d   1      -2.622  -0.271   4.005  0.00  0.00     0.054 C 
ATOM      9  C   UNL d   1      -3.005  -1.681   4.431  0.00  0.00     0.018 C 
ENDBRANCH   1   8
TORSDOF 1
ENDMDL
