MODEL 1
REMARK minimizedAffinity 12.154973
REMARK minimizedRMSD -1
REMARK  1 active torsions:
REMARK  status: ('A' for Active; 'I' for Inactive)
REMARK    1  A    between atoms: C1_2  and  C2_3 
ROOT
ATOM      1  C2  UNL d   1      -4.927   5.393   0.342  0.00  0.00    -0.081 A 
ATOM      2  C3  UNL d   1      -3.644   5.275   0.891  0.00  0.00     0.006 A 
ATOM      3  C4  UNL d   1      -3.439   5.462   2.260  0.00  0.00     0.002 A 
ATOM      4  C5  UNL d   1      -4.514   5.762   3.104  0.00  0.00    -0.080 A 
ATOM      5  C6  UNL d   1      -4.313   5.936   4.580  0.00  0.00     0.076 C 
ATOM      6  C7  UNL d   1      -5.793   5.897   2.553  0.00  0.00     0.002 A 
ATOM      7  C8  UNL d   1      -5.998   5.711   1.184  0.00  0.00     0.006 A 
ENDROOT
BRANCH   1   8
ATOM      8  C1  UNL d   1      -5.161   5.128  -1.123  0.00  0.00     0.054 C 
ATOM      9  C   UNL d   1      -4.215   4.059  -1.650  0.00  0.00     0.018 C 
ENDBRANCH   1   8
TORSDOF 1
ENDMDL
