MODEL 1
REMARK minimizedAffinity -0.653892934
REMARK minimizedRMSD -1
REMARK  1 active torsions:
REMARK  status: ('A' for Active; 'I' for Inactive)
REMARK    1  A    between atoms: C1_2  and  C2_3 
ROOT
ATOM      1  C2  UNL d   1      -5.327   4.869   1.663  0.00  0.00    -0.081 A 
ATOM      2  C3  UNL d   1      -5.824   3.734   2.316  0.00  0.00     0.006 A 
ATOM      3  C4  UNL d   1      -6.000   3.734   3.701  0.00  0.00     0.002 A 
ATOM      4  C5  UNL d   1      -5.688   4.870   4.456  0.00  0.00    -0.080 A 
ATOM      5  C6  UNL d   1      -5.900   4.893   5.941  0.00  0.00     0.076 C 
ATOM      6  C7  UNL d   1      -5.175   5.997   3.807  0.00  0.00     0.002 A 
ATOM      7  C8  UNL d   1      -4.998   5.998   2.421  0.00  0.00     0.006 A 
ENDROOT
BRANCH   1   8
ATOM      8  C1  UNL d   1      -5.197   4.894   0.162  0.00  0.00     0.054 C 
ATOM      9  C   UNL d   1      -4.547   3.621  -0.360  0.00  0.00     0.018 C 
ENDBRANCH   1   8
TORSDOF 1
ENDMDL
