MODEL 1
REMARK minimizedAffinity -1.93736684
REMARK minimizedRMSD -1
REMARK  1 active torsions:
REMARK  status: ('A' for Active; 'I' for Inactive)
REMARK    1  A    between atoms: C1_2  and  C2_3 
ROOT
ATOM      1  C2  UNL d   1       0.200  -1.410   1.002  0.00  0.00    -0.081 A 
ATOM      2  C3  UNL d   1       0.327  -0.433   0.007  0.00  0.00     0.006 A 
ATOM      3  C4  UNL d   1      -0.523  -0.435  -1.101  0.00  0.00     0.002 A 
ATOM      4  C5  UNL d   1      -1.520  -1.409  -1.229  0.00  0.00    -0.080 A 
ATOM      5  C6  UNL d   1      -2.459  -1.405  -2.398  0.00  0.00     0.076 C 
ATOM      6  C7  UNL d   1      -1.636  -2.395  -0.244  0.00  0.00     0.002 A 
ATOM      7  C8  UNL d   1      -0.785  -2.394   0.864  0.00  0.00     0.006 A 
ENDROOT
BRANCH   1   8
ATOM      8  C1  UNL d   1       1.074  -1.372   2.230  0.00  0.00     0.054 C 
ATOM      9  C   UNL d   1       0.391  -0.634   3.372  0.00  0.00     0.018 C 
ENDBRANCH   1   8
TORSDOF 1
ENDMDL
