MODEL 1
REMARK minimizedAffinity -3.27113628
REMARK minimizedRMSD -1
REMARK  3 active torsions:
REMARK  status: ('A' for Active; 'I' for Inactive)
REMARK    1  A    between atoms: C3'_2  and  C2'_3 
REMARK    2  A    between atoms: C2'_3  and  C1'_4 
REMARK    3  A    between atoms: C1'_4  and  C1_5 
ROOT
ATOM      1  C1  N4B d   1       1.274  -4.046   2.230  0.00  0.00    -0.075 A 
ATOM      2  C2  N4B d   1       1.004  -2.677   2.015  0.00  0.00     0.002 A 
ATOM      3  C3  N4B d   1      -0.244  -2.172   2.290  0.00  0.00     0.002 A 
ATOM      4  C4  N4B d   1      -1.237  -3.018   2.760  0.00  0.00    -0.004 A 
ATOM      5  C5  N4B d   1      -0.960  -4.334   2.989  0.00  0.00     0.002 A 
ATOM      6  C6  N4B d   1       0.290  -4.854   2.721  0.00  0.00     0.002 A 
ENDROOT
BRANCH   1   7
ATOM      7  C1' N4B d   1       2.597  -4.661   1.863  0.00  0.00     0.057 C 
BRANCH   7   8
ATOM      8  C2' N4B d   1       2.988  -4.209   0.459  0.00  0.00     0.009 C 
BRANCH   8   9
ATOM      9  C3' N4B d   1       4.135  -5.030  -0.104  0.00  0.00     0.004 C 
ATOM     10  C4' N4B d   1       5.402  -4.874   0.682  0.00  0.00     0.003 C 
ENDBRANCH   8   9
ENDBRANCH   7   8
ENDBRANCH   1   7
TORSDOF 3
ENDMDL
