MODEL 1
REMARK minimizedAffinity 2.43171191
REMARK minimizedRMSD -1
REMARK  3 active torsions:
REMARK  status: ('A' for Active; 'I' for Inactive)
REMARK    1  A    between atoms: C3'_2  and  C2'_3 
REMARK    2  A    between atoms: C2'_3  and  C1'_4 
REMARK    3  A    between atoms: C1'_4  and  C1_5 
ROOT
ATOM      1  C1  N4B d   1       1.191  -3.137   0.847  0.00  0.00    -0.075 A 
ATOM      2  C2  N4B d   1       0.250  -2.725   1.816  0.00  0.00     0.002 A 
ATOM      3  C3  N4B d   1      -0.116  -1.404   1.900  0.00  0.00     0.002 A 
ATOM      4  C4  N4B d   1       0.457  -0.478   1.041  0.00  0.00    -0.004 A 
ATOM      5  C5  N4B d   1       1.346  -0.888   0.091  0.00  0.00     0.002 A 
ATOM      6  C6  N4B d   1       1.720  -2.213  -0.007  0.00  0.00     0.002 A 
ENDROOT
BRANCH   1   7
ATOM      7  C1' N4B d   1       1.686  -4.556   0.774  0.00  0.00     0.057 C 
BRANCH   7   8
ATOM      8  C2' N4B d   1       3.101  -4.622   1.342  0.00  0.00     0.009 C 
BRANCH   8   9
ATOM      9  C3' N4B d   1       4.060  -5.325   0.396  0.00  0.00     0.004 C 
ATOM     10  C4' N4B d   1       5.421  -4.695   0.376  0.00  0.00     0.003 C 
ENDBRANCH   8   9
ENDBRANCH   7   8
ENDBRANCH   1   7
TORSDOF 3
ENDMDL
