MODEL 1
REMARK minimizedAffinity 1.86908197
REMARK minimizedRMSD -1
REMARK  3 active torsions:
REMARK  status: ('A' for Active; 'I' for Inactive)
REMARK    1  A    between atoms: C3'_2  and  C2'_3 
REMARK    2  A    between atoms: C2'_3  and  C1'_4 
REMARK    3  A    between atoms: C1'_4  and  C1_5 
ROOT
ATOM      1  C1  N4B d   1       0.842  -1.093   1.235  0.00  0.00    -0.075 A 
ATOM      2  C2  N4B d   1       1.768  -1.708   0.364  0.00  0.00     0.002 A 
ATOM      3  C3  N4B d   1       1.826  -3.077   0.280  0.00  0.00     0.002 A 
ATOM      4  C4  N4B d   1       0.985  -3.849   1.067  0.00  0.00    -0.004 A 
ATOM      5  C5  N4B d   1       0.075  -3.247   1.887  0.00  0.00     0.002 A 
ATOM      6  C6  N4B d   1       0.003  -1.871   1.978  0.00  0.00     0.002 A 
ENDROOT
BRANCH   1   7
ATOM      7  C1' N4B d   1       0.801   0.399   1.425  0.00  0.00     0.057 C 
BRANCH   7   8
ATOM      8  C2' N4B d   1       2.122   0.864   2.030  0.00  0.00     0.009 C 
BRANCH   8   9
ATOM      9  C3' N4B d   1       2.910   1.738   1.071  0.00  0.00     0.004 C 
ATOM     10  C4' N4B d   1       3.388   3.011   1.704  0.00  0.00     0.003 C 
ENDBRANCH   8   9
ENDBRANCH   7   8
ENDBRANCH   1   7
TORSDOF 3
ENDMDL
