MODEL 1
REMARK minimizedAffinity -2.10388565
REMARK minimizedRMSD -1
REMARK  3 active torsions:
REMARK  status: ('A' for Active; 'I' for Inactive)
REMARK    1  A    between atoms: C3'_2  and  C2'_3 
REMARK    2  A    between atoms: C2'_3  and  C1'_4 
REMARK    3  A    between atoms: C1'_4  and  C1_5 
ROOT
ATOM      1  C1  N4B d   1       2.147  -3.551   2.031  0.00  0.00    -0.075 A 
ATOM      2  C2  N4B d   1       2.392  -3.110   0.712  0.00  0.00     0.002 A 
ATOM      3  C3  N4B d   1       1.482  -2.299   0.079  0.00  0.00     0.002 A 
ATOM      4  C4  N4B d   1       0.317  -1.932   0.736  0.00  0.00    -0.004 A 
ATOM      5  C5  N4B d   1       0.100  -2.342   2.020  0.00  0.00     0.002 A 
ATOM      6  C6  N4B d   1       1.008  -3.154   2.669  0.00  0.00     0.002 A 
ENDROOT
BRANCH   1   7
ATOM      7  C1' N4B d   1       3.072  -4.508   2.732  0.00  0.00     0.057 C 
BRANCH   7   8
ATOM      8  C2' N4B d   1       3.455  -3.930   4.091  0.00  0.00     0.009 C 
BRANCH   8   9
ATOM      9  C3' N4B d   1       4.183  -4.945   4.956  0.00  0.00     0.004 C 
ATOM     10  C4' N4B d   1       5.048  -4.304   6.000  0.00  0.00     0.003 C 
ENDBRANCH   8   9
ENDBRANCH   7   8
ENDBRANCH   1   7
TORSDOF 3
ENDMDL
