MODEL 1
REMARK minimizedAffinity 0.630527377
REMARK minimizedRMSD -1
REMARK  3 active torsions:
REMARK  status: ('A' for Active; 'I' for Inactive)
REMARK    1  A    between atoms: C3'_2  and  C2'_3 
REMARK    2  A    between atoms: C2'_3  and  C1'_4 
REMARK    3  A    between atoms: C1'_4  and  C1_5 
ROOT
ATOM      1  C1  N4B d   1      -4.008  -0.690  -5.496  0.00  0.00    -0.075 A 
ATOM      2  C2  N4B d   1      -2.642  -0.444  -5.234  0.00  0.00     0.002 A 
ATOM      3  C3  N4B d   1      -1.856  -1.437  -4.702  0.00  0.00     0.002 A 
ATOM      4  C4  N4B d   1      -2.415  -2.671  -4.407  0.00  0.00    -0.004 A 
ATOM      5  C5  N4B d   1      -3.729  -2.908  -4.687  0.00  0.00     0.002 A 
ATOM      6  C6  N4B d   1      -4.530  -1.921  -5.225  0.00  0.00     0.002 A 
ENDROOT
BRANCH   1   7
ATOM      7  C1' N4B d   1      -4.927   0.390  -5.997  0.00  0.00     0.057 C 
BRANCH   7   8
ATOM      8  C2' N4B d   1      -5.343   1.277  -4.827  0.00  0.00     0.009 C 
BRANCH   8   9
ATOM      9  C3' N4B d   1      -4.146   1.930  -4.156  0.00  0.00     0.004 C 
ATOM     10  C4' N4B d   1      -4.524   2.731  -2.946  0.00  0.00     0.003 C 
ENDBRANCH   8   9
ENDBRANCH   7   8
ENDBRANCH   1   7
TORSDOF 3
ENDMDL
