MODEL 1
REMARK minimizedAffinity -1.63702667
REMARK minimizedRMSD -1
REMARK  3 active torsions:
REMARK  status: ('A' for Active; 'I' for Inactive)
REMARK    1  A    between atoms: C3'_2  and  C2'_3 
REMARK    2  A    between atoms: C2'_3  and  C1'_4 
REMARK    3  A    between atoms: C1'_4  and  C1_5 
ROOT
ATOM      1  C1  N4B d   1       1.749  -3.360   1.746  0.00  0.00    -0.075 A 
ATOM      2  C2  N4B d   1       0.824  -2.647   2.540  0.00  0.00     0.002 A 
ATOM      3  C3  N4B d   1       0.093  -1.623   1.989  0.00  0.00     0.002 A 
ATOM      4  C4  N4B d   1       0.284  -1.283   0.658  0.00  0.00    -0.004 A 
ATOM      5  C5  N4B d   1       1.161  -1.993  -0.108  0.00  0.00     0.002 A 
ATOM      6  C6  N4B d   1       1.899  -3.027   0.431  0.00  0.00     0.002 A 
ENDROOT
BRANCH   1   7
ATOM      7  C1' N4B d   1       2.633  -4.430   2.326  0.00  0.00     0.057 C 
BRANCH   7   8
ATOM      8  C2' N4B d   1       3.398  -3.859   3.516  0.00  0.00     0.009 C 
BRANCH   8   9
ATOM      9  C3' N4B d   1       4.056  -4.948   4.345  0.00  0.00     0.004 C 
ATOM     10  C4' N4B d   1       4.399  -4.496   5.732  0.00  0.00     0.003 C 
ENDBRANCH   8   9
ENDBRANCH   7   8
ENDBRANCH   1   7
TORSDOF 3
ENDMDL
