MODEL 1
REMARK minimizedAffinity 8.06812572
REMARK minimizedRMSD -1
REMARK  1 active torsions:
REMARK  status: ('A' for Active; 'I' for Inactive)
REMARK    1  A    between atoms: C1_2  and  C2_3 
ROOT
ATOM      1  C2  UNL d   1      -2.771  -2.933  -5.945  0.00  0.00    -0.077 A 
ATOM      2  C3  UNL d   1      -4.064  -3.475  -5.942  0.00  0.00     0.002 A 
ATOM      3  C4  UNL d   1      -5.181  -2.638  -5.966  0.00  0.00     0.002 A 
ATOM      4  C5  UNL d   1      -5.017  -1.255  -5.998  0.00  0.00    -0.004 A 
ATOM      5  C6  UNL d   1      -3.735  -0.706  -5.999  0.00  0.00     0.002 A 
ATOM      6  C7  UNL d   1      -2.618  -1.541  -5.973  0.00  0.00     0.002 A 
ENDROOT
BRANCH   1   7
ATOM      7  C1  UNL d   1      -1.565  -3.835  -5.968  0.00  0.00     0.055 C 
ATOM      8  C   UNL d   1      -0.273  -3.031  -5.999  0.00  0.00     0.019 C 
ENDBRANCH   1   7
TORSDOF 1
ENDMDL
