MODEL 1
REMARK minimizedAffinity 13.2446146
REMARK minimizedRMSD -1
REMARK  1 active torsions:
REMARK  status: ('A' for Active; 'I' for Inactive)
REMARK    1  A    between atoms: C1_2  and  C2_3 
ROOT
ATOM      1  C2  UNL d   1      -0.970  -0.953   3.886  0.00  0.00    -0.077 A 
ATOM      2  C3  UNL d   1       0.221  -0.744   3.177  0.00  0.00     0.002 A 
ATOM      3  C4  UNL d   1       1.029   0.358   3.463  0.00  0.00     0.002 A 
ATOM      4  C5  UNL d   1       0.658   1.256   4.461  0.00  0.00    -0.004 A 
ATOM      5  C6  UNL d   1      -0.525   1.058   5.171  0.00  0.00     0.002 A 
ATOM      6  C7  UNL d   1      -1.335  -0.042   4.886  0.00  0.00     0.002 A 
ENDROOT
BRANCH   1   7
ATOM      7  C1  UNL d   1      -1.818  -2.167   3.613  0.00  0.00     0.055 C 
ATOM      8  C   UNL d   1      -0.968  -3.426   3.516  0.00  0.00     0.019 C 
ENDBRANCH   1   7
TORSDOF 1
ENDMDL
