MODEL 1
REMARK minimizedAffinity 1.67742777
REMARK minimizedRMSD -1
REMARK  1 active torsions:
REMARK  status: ('A' for Active; 'I' for Inactive)
REMARK    1  A    between atoms: C1_2  and  C2_3 
ROOT
ATOM      1  C2  UNL d   1       2.968   1.412  -1.777  0.00  0.00    -0.077 A 
ATOM      2  C3  UNL d   1       3.835   0.328  -1.577  0.00  0.00     0.002 A 
ATOM      3  C4  UNL d   1       4.017  -0.204  -0.299  0.00  0.00     0.002 A 
ATOM      4  C5  UNL d   1       3.334   0.338   0.787  0.00  0.00    -0.004 A 
ATOM      5  C6  UNL d   1       2.472   1.418   0.599  0.00  0.00     0.002 A 
ATOM      6  C7  UNL d   1       2.289   1.952  -0.678  0.00  0.00     0.002 A 
ENDROOT
BRANCH   1   7
ATOM      7  C1  UNL d   1       2.733   1.955  -3.162  0.00  0.00     0.055 C 
ATOM      8  C   UNL d   1       1.321   2.504  -3.309  0.00  0.00     0.019 C 
ENDBRANCH   1   7
TORSDOF 1
ENDMDL
