MODEL 1
REMARK minimizedAffinity 19.1915321
REMARK minimizedRMSD -1
REMARK  1 active torsions:
REMARK  status: ('A' for Active; 'I' for Inactive)
REMARK    1  A    between atoms: C1_2  and  C2_3 
ROOT
ATOM      1  C2  UNL d   1       4.884   3.644  -3.000  0.00  0.00    -0.077 A 
ATOM      2  C3  UNL d   1       3.763   2.957  -2.516  0.00  0.00     0.002 A 
ATOM      3  C4  UNL d   1       3.758   1.562  -2.462  0.00  0.00     0.002 A 
ATOM      4  C5  UNL d   1       4.873   0.843  -2.888  0.00  0.00    -0.004 A 
ATOM      5  C6  UNL d   1       5.993   1.517  -3.373  0.00  0.00     0.002 A 
ATOM      6  C7  UNL d   1       5.999   2.912  -3.428  0.00  0.00     0.002 A 
ENDROOT
BRANCH   1   7
ATOM      7  C1  UNL d   1       4.910   5.151  -3.012  0.00  0.00     0.055 C 
ATOM      8  C   UNL d   1       4.487   5.722  -1.667  0.00  0.00     0.019 C 
ENDBRANCH   1   7
TORSDOF 1
ENDMDL
