MODEL 1
REMARK minimizedAffinity 3.13248062
REMARK minimizedRMSD -1
REMARK  1 active torsions:
REMARK  status: ('A' for Active; 'I' for Inactive)
REMARK    1  A    between atoms: C1_2  and  C2_3 
ROOT
ATOM      1  C2  UNL d   1       0.060  -4.079   0.975  0.00  0.00    -0.077 A 
ATOM      2  C3  UNL d   1      -0.374  -4.656   2.177  0.00  0.00     0.002 A 
ATOM      3  C4  UNL d   1      -0.915  -3.860   3.188  0.00  0.00     0.002 A 
ATOM      4  C5  UNL d   1      -1.031  -2.484   3.007  0.00  0.00    -0.004 A 
ATOM      5  C6  UNL d   1      -0.601  -1.900   1.816  0.00  0.00     0.002 A 
ATOM      6  C7  UNL d   1      -0.059  -2.693   0.804  0.00  0.00     0.002 A 
ENDROOT
BRANCH   1   7
ATOM      7  C1  UNL d   1       0.598  -4.941  -0.136  0.00  0.00     0.055 C 
ATOM      8  C   UNL d   1      -0.325  -4.925  -1.346  0.00  0.00     0.019 C 
ENDBRANCH   1   7
TORSDOF 1
ENDMDL
