MODEL 1
REMARK minimizedAffinity -2.43851757
REMARK minimizedRMSD -1
REMARK  1 active torsions:
REMARK  status: ('A' for Active; 'I' for Inactive)
REMARK    1  A    between atoms: C1_2  and  C2_3 
ROOT
ATOM      1  C2  UNL d   1       4.962   2.356  -5.655  0.00  0.00    -0.077 A 
ATOM      2  C3  UNL d   1       5.999   1.556  -5.155  0.00  0.00     0.002 A 
ATOM      3  C4  UNL d   1       5.779   0.205  -4.879  0.00  0.00     0.002 A 
ATOM      4  C5  UNL d   1       4.525  -0.358  -5.104  0.00  0.00    -0.004 A 
ATOM      5  C6  UNL d   1       3.486   0.429  -5.599  0.00  0.00     0.002 A 
ATOM      6  C7  UNL d   1       3.704   1.780  -5.874  0.00  0.00     0.002 A 
ENDROOT
BRANCH   1   7
ATOM      7  C1  UNL d   1       5.210   3.801  -6.000  0.00  0.00     0.055 C 
ATOM      8  C   UNL d   1       3.915   4.600  -6.000  0.00  0.00     0.019 C 
ENDBRANCH   1   7
TORSDOF 1
ENDMDL
