MODEL 1
REMARK minimizedAffinity 1.06038463
REMARK minimizedRMSD -1
REMARK  1 active torsions:
REMARK  status: ('A' for Active; 'I' for Inactive)
REMARK    1  A    between atoms: C1_2  and  C2_3 
ROOT
ATOM      1  C2  UNL d   1      -2.249  -4.193   4.242  0.00  0.00    -0.077 A 
ATOM      2  C3  UNL d   1      -2.799  -2.905   4.308  0.00  0.00     0.002 A 
ATOM      3  C4  UNL d   1      -2.175  -1.836   3.662  0.00  0.00     0.002 A 
ATOM      4  C5  UNL d   1      -1.001  -2.045   2.941  0.00  0.00    -0.004 A 
ATOM      5  C6  UNL d   1      -0.445  -3.321   2.871  0.00  0.00     0.002 A 
ATOM      6  C7  UNL d   1      -1.067  -4.391   3.517  0.00  0.00     0.002 A 
ENDROOT
BRANCH   1   7
ATOM      7  C1  UNL d   1      -2.947  -5.356   4.897  0.00  0.00     0.055 C 
ATOM      8  C   UNL d   1      -2.091  -5.966   5.998  0.00  0.00     0.019 C 
ENDBRANCH   1   7
TORSDOF 1
ENDMDL
