MODEL 1
REMARK minimizedAffinity 7.41427469
REMARK minimizedRMSD -1
REMARK  1 active torsions:
REMARK  status: ('A' for Active; 'I' for Inactive)
REMARK    1  A    between atoms: C1_2  and  C2_3 
ROOT
ATOM      1  C2  UNL d   1      -2.045  -4.588   4.038  0.00  0.00    -0.077 A 
ATOM      2  C3  UNL d   1      -3.442  -4.537   3.933  0.00  0.00     0.002 A 
ATOM      3  C4  UNL d   1      -4.245  -5.212   4.855  0.00  0.00     0.002 A 
ATOM      4  C5  UNL d   1      -3.660  -5.940   5.889  0.00  0.00    -0.004 A 
ATOM      5  C6  UNL d   1      -2.272  -6.000   6.000  0.00  0.00     0.002 A 
ATOM      6  C7  UNL d   1      -1.468  -5.326   5.080  0.00  0.00     0.002 A 
ENDROOT
BRANCH   1   7
ATOM      7  C1  UNL d   1      -1.178  -3.820   3.075  0.00  0.00     0.055 C 
ATOM      8  C   UNL d   1      -1.462  -2.326   3.145  0.00  0.00     0.019 C 
ENDBRANCH   1   7
TORSDOF 1
ENDMDL
