MODEL 1
REMARK minimizedAffinity 9.44139671
REMARK minimizedRMSD -1
REMARK  1 active torsions:
REMARK  status: ('A' for Active; 'I' for Inactive)
REMARK    1  A    between atoms: C1_2  and  C2_3 
ROOT
ATOM      1  C2  UNL d   1       3.762   1.154  -3.605  0.00  0.00    -0.077 A 
ATOM      2  C3  UNL d   1       5.158   1.151  -3.475  0.00  0.00     0.002 A 
ATOM      3  C4  UNL d   1       5.940   0.319  -4.279  0.00  0.00     0.002 A 
ATOM      4  C5  UNL d   1       5.336  -0.512  -5.220  0.00  0.00    -0.004 A 
ATOM      5  C6  UNL d   1       3.948  -0.518  -5.355  0.00  0.00     0.002 A 
ATOM      6  C7  UNL d   1       3.165   0.312  -4.552  0.00  0.00     0.002 A 
ENDROOT
BRANCH   1   7
ATOM      7  C1  UNL d   1       2.920   2.086  -2.774  0.00  0.00     0.055 C 
ATOM      8  C   UNL d   1       1.886   1.321  -1.960  0.00  0.00     0.019 C 
ENDBRANCH   1   7
TORSDOF 1
ENDMDL
