MODEL 1
REMARK minimizedAffinity -4.496943
REMARK minimizedRMSD -1
REMARK  0 active torsions:
REMARK  status: ('A' for Active; 'I' for Inactive)
ROOT
ATOM      1  C1  BNZ d   1      -0.151   0.742   1.623  0.00  0.00     0.000 A 
ATOM      2  C2  BNZ d   1       0.896   0.135   0.980  0.00  0.00     0.000 A 
ATOM      3  C3  BNZ d   1       0.695  -0.569  -0.174  0.00  0.00     0.000 A 
ATOM      4  C4  BNZ d   1      -0.556  -0.700  -0.662  0.00  0.00     0.000 A 
ATOM      5  C5  BNZ d   1      -1.622  -0.102  -0.020  0.00  0.00     0.000 A 
ATOM      6  C6  BNZ d   1      -1.411   0.639   1.120  0.00  0.00     0.000 A 
ENDROOT
TORSDOF 0
ENDMDL
