MODEL 1
REMARK minimizedAffinity -5.45107174
REMARK minimizedRMSD -1
REMARK  0 active torsions:
REMARK  status: ('A' for Active; 'I' for Inactive)
ROOT
ATOM      1  C1  BNZ d   1       0.246  -0.043   0.896  0.00  0.00     0.000 A 
ATOM      2  C2  BNZ d   1       1.342  -0.372   1.648  0.00  0.00     0.000 A 
ATOM      3  C3  BNZ d   1       1.369  -0.123   2.992  0.00  0.00     0.000 A 
ATOM      4  C4  BNZ d   1       0.318   0.490   3.574  0.00  0.00     0.000 A 
ATOM      5  C5  BNZ d   1      -0.790   0.837   2.827  0.00  0.00     0.000 A 
ATOM      6  C6  BNZ d   1      -0.830   0.550   1.482  0.00  0.00     0.000 A 
ENDROOT
TORSDOF 0
ENDMDL
