MODEL 1
REMARK minimizedAffinity -3.92158127
REMARK minimizedRMSD -1
REMARK  0 active torsions:
REMARK  status: ('A' for Active; 'I' for Inactive)
ROOT
ATOM      1  C1  BNZ d   1       0.926   0.288   1.075  0.00  0.00     0.000 A 
ATOM      2  C2  BNZ d   1      -0.200   0.712   1.729  0.00  0.00     0.000 A 
ATOM      3  C3  BNZ d   1      -1.444   0.442   1.229  0.00  0.00     0.000 A 
ATOM      4  C4  BNZ d   1      -1.558  -0.216   0.057  0.00  0.00     0.000 A 
ATOM      5  C5  BNZ d   1      -0.432  -0.642  -0.619  0.00  0.00     0.000 A 
ATOM      6  C6  BNZ d   1       0.817  -0.402  -0.092  0.00  0.00     0.000 A 
ENDROOT
TORSDOF 0
ENDMDL
