MODEL 1
REMARK minimizedAffinity -4.45883131
REMARK minimizedRMSD -1
REMARK  0 active torsions:
REMARK  status: ('A' for Active; 'I' for Inactive)
ROOT
ATOM      1  C1  BNZ d   1      -0.913   0.205   1.291  0.00  0.00     0.000 A 
ATOM      2  C2  BNZ d   1      -1.175   0.763   2.514  0.00  0.00     0.000 A 
ATOM      3  C3  BNZ d   1      -0.157   1.090   3.366  0.00  0.00     0.000 A 
ATOM      4  C4  BNZ d   1       1.116   0.822   3.012  0.00  0.00     0.000 A 
ATOM      5  C5  BNZ d   1       1.396   0.252   1.787  0.00  0.00     0.000 A 
ATOM      6  C6  BNZ d   1       0.372  -0.040   0.915  0.00  0.00     0.000 A 
ENDROOT
TORSDOF 0
ENDMDL
