MODEL 1
REMARK minimizedAffinity -4.70436954
REMARK minimizedRMSD -1
REMARK  0 active torsions:
REMARK  status: ('A' for Active; 'I' for Inactive)
ROOT
ATOM      1  C1  BNZ d   1      -1.853   0.048   0.702  0.00  0.00     0.000 A 
ATOM      2  C2  BNZ d   1      -1.955   0.419   2.017  0.00  0.00     0.000 A 
ATOM      3  C3  BNZ d   1      -0.903   1.005   2.662  0.00  0.00     0.000 A 
ATOM      4  C4  BNZ d   1       0.262   1.183   2.006  0.00  0.00     0.000 A 
ATOM      5  C5  BNZ d   1       0.383   0.806   0.683  0.00  0.00     0.000 A 
ATOM      6  C6  BNZ d   1      -0.691   0.252   0.025  0.00  0.00     0.000 A 
ENDROOT
TORSDOF 0
ENDMDL
