MODEL 1
REMARK minimizedAffinity -3.26278758
REMARK minimizedRMSD -1
REMARK  0 active torsions:
REMARK  status: ('A' for Active; 'I' for Inactive)
ROOT
ATOM      1  C1  BNZ d   1       1.667   0.103   1.652  0.00  0.00     0.000 A 
ATOM      2  C2  BNZ d   1       1.822  -0.627   0.504  0.00  0.00     0.000 A 
ATOM      3  C3  BNZ d   1       0.813  -0.714  -0.413  0.00  0.00     0.000 A 
ATOM      4  C4  BNZ d   1      -0.364  -0.104  -0.163  0.00  0.00     0.000 A 
ATOM      5  C5  BNZ d   1      -0.540   0.628   0.994  0.00  0.00     0.000 A 
ATOM      6  C6  BNZ d   1       0.492   0.745   1.897  0.00  0.00     0.000 A 
ENDROOT
TORSDOF 0
ENDMDL
