MODEL 1
REMARK minimizedAffinity -3.09717631
REMARK minimizedRMSD -1
REMARK  0 active torsions:
REMARK  status: ('A' for Active; 'I' for Inactive)
ROOT
ATOM      1  C1  BNZ d   1      -1.560   0.023   1.500  0.00  0.00     0.000 A 
ATOM      2  C2  BNZ d   1      -1.370  -0.726   0.369  0.00  0.00     0.000 A 
ATOM      3  C3  BNZ d   1      -0.298  -0.501  -0.447  0.00  0.00     0.000 A 
ATOM      4  C4  BNZ d   1       0.561   0.497  -0.154  0.00  0.00     0.000 A 
ATOM      5  C5  BNZ d   1       0.379   1.266   0.977  0.00  0.00     0.000 A 
ATOM      6  C6  BNZ d   1      -0.680   1.012   1.818  0.00  0.00     0.000 A 
ENDROOT
TORSDOF 0
ENDMDL
