MODEL 1
REMARK minimizedAffinity -4.6699543
REMARK minimizedRMSD -1
REMARK  0 active torsions:
REMARK  status: ('A' for Active; 'I' for Inactive)
ROOT
ATOM      1  C1  BNZ d   1       1.048  -0.013   1.870  0.00  0.00     0.000 A 
ATOM      2  C2  BNZ d   1      -0.070   0.554   2.420  0.00  0.00     0.000 A 
ATOM      3  C3  BNZ d   1      -1.277   0.481   1.783  0.00  0.00     0.000 A 
ATOM      4  C4  BNZ d   1      -1.357  -0.123   0.580  0.00  0.00     0.000 A 
ATOM      5  C5  BNZ d   1      -0.236  -0.691   0.008  0.00  0.00     0.000 A 
ATOM      6  C6  BNZ d   1       0.970  -0.650   0.670  0.00  0.00     0.000 A 
ENDROOT
TORSDOF 0
ENDMDL
