MODEL 1
REMARK minimizedAffinity -4.36703968
REMARK minimizedRMSD -1
REMARK  0 active torsions:
REMARK  status: ('A' for Active; 'I' for Inactive)
ROOT
ATOM      1  C1  BNZ d   1      -0.172  -0.883  -0.646  0.00  0.00     0.000 A 
ATOM      2  C2  BNZ d   1      -0.615   0.341  -0.220  0.00  0.00     0.000 A 
ATOM      3  C3  BNZ d   1      -0.105   0.915   0.911  0.00  0.00     0.000 A 
ATOM      4  C4  BNZ d   1       0.817   0.247   1.635  0.00  0.00     0.000 A 
ATOM      5  C5  BNZ d   1       1.266  -0.992   1.224  0.00  0.00     0.000 A 
ATOM      6  C6  BNZ d   1       0.779  -1.549   0.064  0.00  0.00     0.000 A 
ENDROOT
TORSDOF 0
ENDMDL
