MODEL 1
REMARK minimizedAffinity -1.19891071
REMARK minimizedRMSD -1
REMARK  0 active torsions:
REMARK  status: ('A' for Active; 'I' for Inactive)
ROOT
ATOM      1  C1  BNZ d   1      -1.091   0.431   2.755  0.00  0.00     0.000 A 
ATOM      2  C2  BNZ d   1      -2.281   0.344   2.082  0.00  0.00     0.000 A 
ATOM      3  C3  BNZ d   1      -2.308   0.183   0.725  0.00  0.00     0.000 A 
ATOM      4  C4  BNZ d   1      -1.147   0.149   0.038  0.00  0.00     0.000 A 
ATOM      5  C5  BNZ d   1       0.060   0.245   0.701  0.00  0.00     0.000 A 
ATOM      6  C6  BNZ d   1       0.084   0.368   2.071  0.00  0.00     0.000 A 
ENDROOT
TORSDOF 0
ENDMDL
