MODEL 1
REMARK minimizedAffinity 14.2354536
REMARK minimizedRMSD -1
REMARK  0 active torsions:
REMARK  status: ('A' for Active; 'I' for Inactive)
ROOT
ATOM      1  C   UNL d   1      -5.198  -0.252  -5.852  0.00  0.00     0.077 C 
ATOM      2  C1  UNL d   1      -4.357  -1.492  -5.909  0.00  0.00    -0.074 A 
ATOM      3  C2  UNL d   1      -2.960  -1.414  -5.929  0.00  0.00    -0.005 A 
ATOM      4  C3  UNL d   1      -2.192  -2.577  -5.973  0.00  0.00     0.006 A 
ATOM      5  C4  UNL d   1      -2.810  -3.828  -5.998  0.00  0.00    -0.005 A 
ATOM      6  C5  UNL d   1      -4.205  -3.926  -5.978  0.00  0.00    -0.074 A 
ATOM      7  C6  UNL d   1      -4.885  -5.262  -5.995  0.00  0.00     0.077 C 
ATOM      8  C7  UNL d   1      -4.970  -2.753  -5.927  0.00  0.00    -0.001 A 
ENDROOT
TORSDOF 0
ENDMDL
