MODEL 1
REMARK minimizedAffinity 15.897975
REMARK minimizedRMSD -1
REMARK  0 active torsions:
REMARK  status: ('A' for Active; 'I' for Inactive)
ROOT
ATOM      1  C   UNL d   1       5.766   3.656  -4.777  0.00  0.00     0.077 C 
ATOM      2  C1  UNL d   1       4.478   3.841  -4.030  0.00  0.00    -0.074 A 
ATOM      3  C2  UNL d   1       3.745   5.026  -4.143  0.00  0.00    -0.005 A 
ATOM      4  C3  UNL d   1       2.545   5.180  -3.450  0.00  0.00     0.006 A 
ATOM      5  C4  UNL d   1       2.066   4.150  -2.638  0.00  0.00    -0.005 A 
ATOM      6  C5  UNL d   1       2.784   2.957  -2.514  0.00  0.00    -0.074 A 
ATOM      7  C6  UNL d   1       2.279   1.838  -1.654  0.00  0.00     0.077 C 
ATOM      8  C7  UNL d   1       3.987   2.808  -3.219  0.00  0.00    -0.001 A 
ENDROOT
TORSDOF 0
ENDMDL
