MODEL 1
REMARK minimizedAffinity 13.9456291
REMARK minimizedRMSD -1
REMARK  0 active torsions:
REMARK  status: ('A' for Active; 'I' for Inactive)
ROOT
ATOM      1  C   UNL d   1       2.612   1.031  -2.143  0.00  0.00     0.077 C 
ATOM      2  C1  UNL d   1       2.729   0.365  -3.481  0.00  0.00    -0.074 A 
ATOM      3  C2  UNL d   1       1.600  -0.141  -4.134  0.00  0.00    -0.005 A 
ATOM      4  C3  UNL d   1       1.723  -0.750  -5.383  0.00  0.00     0.006 A 
ATOM      5  C4  UNL d   1       2.974  -0.858  -5.991  0.00  0.00    -0.005 A 
ATOM      6  C5  UNL d   1       4.114  -0.356  -5.355  0.00  0.00    -0.074 A 
ATOM      7  C6  UNL d   1       5.464  -0.456  -6.000  0.00  0.00     0.077 C 
ATOM      8  C7  UNL d   1       3.981   0.260  -4.103  0.00  0.00    -0.001 A 
ENDROOT
TORSDOF 0
ENDMDL
