MODEL 1
REMARK minimizedAffinity -0.182374179
REMARK minimizedRMSD -1
REMARK  0 active torsions:
REMARK  status: ('A' for Active; 'I' for Inactive)
ROOT
ATOM      1  C   UNL d   1      -2.870   1.241   1.819  0.00  0.00     0.077 C 
ATOM      2  C1  UNL d   1      -1.447   0.981   2.218  0.00  0.00    -0.074 A 
ATOM      3  C2  UNL d   1      -0.798  -0.198   1.836  0.00  0.00    -0.005 A 
ATOM      4  C3  UNL d   1       0.528  -0.422   2.207  0.00  0.00     0.006 A 
ATOM      5  C4  UNL d   1       1.217   0.529   2.961  0.00  0.00    -0.005 A 
ATOM      6  C5  UNL d   1       0.584   1.713   3.351  0.00  0.00    -0.074 A 
ATOM      7  C6  UNL d   1       1.313   2.750   4.154  0.00  0.00     0.077 C 
ATOM      8  C7  UNL d   1      -0.746   1.934   2.969  0.00  0.00    -0.001 A 
ENDROOT
TORSDOF 0
ENDMDL
