MODEL 1
REMARK minimizedAffinity 6.6891861
REMARK minimizedRMSD -1
REMARK  0 active torsions:
REMARK  status: ('A' for Active; 'I' for Inactive)
ROOT
ATOM      1  C   UNL d   1      -5.640   1.633   0.265  0.00  0.00     0.077 C 
ATOM      2  C1  UNL d   1      -4.862   1.145   1.450  0.00  0.00    -0.074 A 
ATOM      3  C2  UNL d   1      -5.410   0.210   2.335  0.00  0.00    -0.005 A 
ATOM      4  C3  UNL d   1      -4.671  -0.242   3.428  0.00  0.00     0.006 A 
ATOM      5  C4  UNL d   1      -3.378   0.235   3.647  0.00  0.00    -0.005 A 
ATOM      6  C5  UNL d   1      -2.813   1.169   2.773  0.00  0.00    -0.074 A 
ATOM      7  C6  UNL d   1      -1.421   1.684   2.988  0.00  0.00     0.077 C 
ATOM      8  C7  UNL d   1      -3.559   1.613   1.673  0.00  0.00    -0.001 A 
ENDROOT
TORSDOF 0
ENDMDL
