MODEL 1
REMARK minimizedAffinity 11.2097521
REMARK minimizedRMSD -1
REMARK  0 active torsions:
REMARK  status: ('A' for Active; 'I' for Inactive)
ROOT
ATOM      1  C   UNL d   1      -4.751  -1.384   5.998  0.00  0.00     0.077 C 
ATOM      2  C1  UNL d   1      -4.322  -0.499   4.866  0.00  0.00    -0.074 A 
ATOM      3  C2  UNL d   1      -5.129   0.560   4.435  0.00  0.00    -0.005 A 
ATOM      4  C3  UNL d   1      -4.712   1.380   3.387  0.00  0.00     0.006 A 
ATOM      5  C4  UNL d   1      -3.487   1.152   2.760  0.00  0.00    -0.005 A 
ATOM      6  C5  UNL d   1      -2.667   0.099   3.177  0.00  0.00    -0.074 A 
ATOM      7  C6  UNL d   1      -1.342  -0.154   2.521  0.00  0.00     0.077 C 
ATOM      8  C7  UNL d   1      -3.089  -0.717   4.236  0.00  0.00    -0.001 A 
ENDROOT
TORSDOF 0
ENDMDL
