MODEL 1
REMARK minimizedAffinity 0.358288825
REMARK minimizedRMSD -1
REMARK  0 active torsions:
REMARK  status: ('A' for Active; 'I' for Inactive)
ROOT
ATOM      1  C   UNL d   1      -0.748  -3.968   0.792  0.00  0.00     0.077 C 
ATOM      2  C1  UNL d   1      -1.820  -2.921   0.748  0.00  0.00    -0.074 A 
ATOM      3  C2  UNL d   1      -3.098  -3.221   0.265  0.00  0.00    -0.005 A 
ATOM      4  C3  UNL d   1      -4.088  -2.239   0.239  0.00  0.00     0.006 A 
ATOM      5  C4  UNL d   1      -3.811  -0.949   0.693  0.00  0.00    -0.005 A 
ATOM      6  C5  UNL d   1      -2.540  -0.631   1.180  0.00  0.00    -0.074 A 
ATOM      7  C6  UNL d   1      -2.228   0.748   1.682  0.00  0.00     0.077 C 
ATOM      8  C7  UNL d   1      -1.552  -1.625   1.210  0.00  0.00    -0.001 A 
ENDROOT
TORSDOF 0
ENDMDL
