MODEL 1
REMARK minimizedAffinity -1.01906776
REMARK minimizedRMSD -1
REMARK  0 active torsions:
REMARK  status: ('A' for Active; 'I' for Inactive)
ROOT
ATOM      1  C   UNL d   1      -0.378   1.167   2.985  0.00  0.00     0.077 C 
ATOM      2  C1  UNL d   1      -1.808   1.146   2.535  0.00  0.00    -0.074 A 
ATOM      3  C2  UNL d   1      -2.156   0.669   1.267  0.00  0.00    -0.005 A 
ATOM      4  C3  UNL d   1      -3.492   0.646   0.866  0.00  0.00     0.006 A 
ATOM      5  C4  UNL d   1      -4.492   1.100   1.727  0.00  0.00    -0.005 A 
ATOM      6  C5  UNL d   1      -4.163   1.580   2.999  0.00  0.00    -0.074 A 
ATOM      7  C6  UNL d   1      -5.227   2.063   3.940  0.00  0.00     0.077 C 
ATOM      8  C7  UNL d   1      -2.819   1.593   3.397  0.00  0.00    -0.001 A 
ENDROOT
TORSDOF 0
ENDMDL
