MODEL 1
REMARK minimizedAffinity 9.55345535
REMARK minimizedRMSD -1
REMARK  0 active torsions:
REMARK  status: ('A' for Active; 'I' for Inactive)
ROOT
ATOM      1  C   UNL d   1      -4.066  -0.296   0.013  0.00  0.00     0.077 C 
ATOM      2  C1  UNL d   1      -3.363   0.417   1.130  0.00  0.00    -0.074 A 
ATOM      3  C2  UNL d   1      -4.062   1.266   1.993  0.00  0.00    -0.005 A 
ATOM      4  C3  UNL d   1      -3.397   1.915   3.033  0.00  0.00     0.006 A 
ATOM      5  C4  UNL d   1      -2.027   1.721   3.220  0.00  0.00    -0.005 A 
ATOM      6  C5  UNL d   1      -1.312   0.874   2.367  0.00  0.00    -0.074 A 
ATOM      7  C6  UNL d   1       0.158   0.647   2.560  0.00  0.00     0.077 C 
ATOM      8  C7  UNL d   1      -1.989   0.221   1.329  0.00  0.00    -0.001 A 
ENDROOT
TORSDOF 0
ENDMDL
