MODEL 1
REMARK minimizedAffinity 14.8028631
REMARK minimizedRMSD -1
REMARK  0 active torsions:
REMARK  status: ('A' for Active; 'I' for Inactive)
ROOT
ATOM      1  C   UNL d   1       1.415   0.815   3.142  0.00  0.00     0.077 C 
ATOM      2  C1  UNL d   1       2.831   0.401   2.872  0.00  0.00    -0.074 A 
ATOM      3  C2  UNL d   1       3.597  -0.229   3.858  0.00  0.00    -0.005 A 
ATOM      4  C3  UNL d   1       4.909  -0.617   3.589  0.00  0.00     0.006 A 
ATOM      5  C4  UNL d   1       5.468  -0.380   2.333  0.00  0.00    -0.005 A 
ATOM      6  C5  UNL d   1       4.718   0.248   1.334  0.00  0.00    -0.074 A 
ATOM      7  C6  UNL d   1       5.300   0.501  -0.025  0.00  0.00     0.077 C 
ATOM      8  C7  UNL d   1       3.397   0.628   1.610  0.00  0.00    -0.001 A 
ENDROOT
TORSDOF 0
ENDMDL
