MODEL 1
REMARK minimizedAffinity 9.57696056
REMARK minimizedRMSD -1
REMARK  0 active torsions:
REMARK  status: ('A' for Active; 'I' for Inactive)
ROOT
ATOM      1  C   UNL d   1      -5.309   0.833   4.145  0.00  0.00     0.077 C 
ATOM      2  C1  UNL d   1      -4.407   0.656   2.959  0.00  0.00    -0.074 A 
ATOM      3  C2  UNL d   1      -4.900   0.783   1.656  0.00  0.00    -0.005 A 
ATOM      4  C3  UNL d   1      -4.047   0.624   0.564  0.00  0.00     0.006 A 
ATOM      5  C4  UNL d   1      -2.696   0.338   0.763  0.00  0.00    -0.005 A 
ATOM      6  C5  UNL d   1      -2.185   0.209   2.058  0.00  0.00    -0.074 A 
ATOM      7  C6  UNL d   1      -0.734  -0.089   2.290  0.00  0.00     0.077 C 
ATOM      8  C7  UNL d   1      -3.047   0.376   3.151  0.00  0.00    -0.001 A 
ENDROOT
TORSDOF 0
ENDMDL
