MODEL 1
REMARK minimizedAffinity 5.73583508
REMARK minimizedRMSD -1
REMARK  0 active torsions:
REMARK  status: ('A' for Active; 'I' for Inactive)
ROOT
ATOM      1  C   UNL d   1      -3.762   1.441   1.932  0.00  0.00     0.077 C 
ATOM      2  C1  UNL d   1      -4.468   0.118   1.986  0.00  0.00    -0.074 A 
ATOM      3  C2  UNL d   1      -4.859  -0.536   0.814  0.00  0.00    -0.005 A 
ATOM      4  C3  UNL d   1      -5.506  -1.770   0.880  0.00  0.00     0.006 A 
ATOM      5  C4  UNL d   1      -5.768  -2.361   2.116  0.00  0.00    -0.005 A 
ATOM      6  C5  UNL d   1      -5.384  -1.721   3.299  0.00  0.00    -0.074 A 
ATOM      7  C6  UNL d   1      -5.649  -2.347   4.636  0.00  0.00     0.077 C 
ATOM      8  C7  UNL d   1      -4.728  -0.485   3.224  0.00  0.00    -0.001 A 
ENDROOT
TORSDOF 0
ENDMDL
