MODEL 1
REMARK minimizedAffinity -0.519786477
REMARK minimizedRMSD -1
REMARK  0 active torsions:
REMARK  status: ('A' for Active; 'I' for Inactive)
ROOT
ATOM      1  C   UNL d   1      -5.792   2.620   4.925  0.00  0.00     0.077 C 
ATOM      2  C1  UNL d   1      -5.264   2.142   3.605  0.00  0.00    -0.074 A 
ATOM      3  C2  UNL d   1      -6.000   2.320   2.429  0.00  0.00    -0.005 A 
ATOM      4  C3  UNL d   1      -5.491   1.878   1.208  0.00  0.00     0.006 A 
ATOM      5  C4  UNL d   1      -4.245   1.254   1.150  0.00  0.00    -0.005 A 
ATOM      6  C5  UNL d   1      -3.494   1.068   2.316  0.00  0.00    -0.074 A 
ATOM      7  C6  UNL d   1      -2.148   0.408   2.270  0.00  0.00     0.077 C 
ATOM      8  C7  UNL d   1      -4.009   1.521   3.538  0.00  0.00    -0.001 A 
ENDROOT
TORSDOF 0
ENDMDL
