MODEL 1
REMARK minimizedAffinity 7.54621458
REMARK minimizedRMSD -1
REMARK  0 active torsions:
REMARK  status: ('A' for Active; 'I' for Inactive)
ROOT
ATOM      1  C   UNL d   1      -3.027  -3.931   0.110  0.00  0.00     0.077 C 
ATOM      2  C1  UNL d   1      -3.297  -2.498   0.459  0.00  0.00    -0.074 A 
ATOM      3  C2  UNL d   1      -4.540  -1.915   0.192  0.00  0.00    -0.005 A 
ATOM      4  C3  UNL d   1      -4.779  -0.583   0.530  0.00  0.00     0.006 A 
ATOM      5  C4  UNL d   1      -3.780   0.178   1.138  0.00  0.00    -0.005 A 
ATOM      6  C5  UNL d   1      -2.531  -0.388   1.413  0.00  0.00    -0.074 A 
ATOM      7  C6  UNL d   1      -1.450   0.413   2.075  0.00  0.00     0.077 C 
ATOM      8  C7  UNL d   1      -2.301  -1.729   1.077  0.00  0.00    -0.001 A 
ENDROOT
TORSDOF 0
ENDMDL
