MODEL 1
REMARK minimizedAffinity 3.85927415
REMARK minimizedRMSD -1
REMARK  0 active torsions:
REMARK  status: ('A' for Active; 'I' for Inactive)
ROOT
ATOM      1  C   UNL d   1      -4.264  -2.058   0.303  0.00  0.00     0.077 C 
ATOM      2  C1  UNL d   1      -3.689  -0.825   0.933  0.00  0.00    -0.074 A 
ATOM      3  C2  UNL d   1      -4.465   0.326   1.100  0.00  0.00    -0.005 A 
ATOM      4  C3  UNL d   1      -3.918   1.462   1.696  0.00  0.00     0.006 A 
ATOM      5  C4  UNL d   1      -2.593   1.458   2.133  0.00  0.00    -0.005 A 
ATOM      6  C5  UNL d   1      -1.802   0.316   1.976  0.00  0.00    -0.074 A 
ATOM      7  C6  UNL d   1      -0.378   0.291   2.448  0.00  0.00     0.077 C 
ATOM      8  C7  UNL d   1      -2.360  -0.824   1.381  0.00  0.00    -0.001 A 
ENDROOT
TORSDOF 0
ENDMDL
