MODEL 1
REMARK minimizedAffinity 10.5454683
REMARK minimizedRMSD -1
REMARK  0 active torsions:
REMARK  status: ('A' for Active; 'I' for Inactive)
ROOT
ATOM      1  C   UNL d   1       1.049   3.244   4.041  0.00  0.00     0.077 C 
ATOM      2  C1  UNL d   1       0.418   1.994   3.503  0.00  0.00    -0.074 A 
ATOM      3  C2  UNL d   1       1.104   0.775   3.529  0.00  0.00    -0.005 A 
ATOM      4  C3  UNL d   1       0.501  -0.381   3.033  0.00  0.00     0.006 A 
ATOM      5  C4  UNL d   1      -0.791  -0.330   2.509  0.00  0.00    -0.005 A 
ATOM      6  C5  UNL d   1      -1.492   0.879   2.477  0.00  0.00    -0.074 A 
ATOM      7  C6  UNL d   1      -2.886   0.949   1.926  0.00  0.00     0.077 C 
ATOM      8  C7  UNL d   1      -0.882   2.035   2.982  0.00  0.00    -0.001 A 
ENDROOT
TORSDOF 0
ENDMDL
