MODEL 1
REMARK minimizedAffinity 5.39269066
REMARK minimizedRMSD -1
REMARK  0 active torsions:
REMARK  status: ('A' for Active; 'I' for Inactive)
ROOT
ATOM      1  C   UNL d   1       0.534   3.379   3.727  0.00  0.00     0.077 C 
ATOM      2  C1  UNL d   1       0.025   2.038   3.291  0.00  0.00    -0.074 A 
ATOM      3  C2  UNL d   1       0.664   0.861   3.694  0.00  0.00    -0.005 A 
ATOM      4  C3  UNL d   1       0.174  -0.380   3.289  0.00  0.00     0.006 A 
ATOM      5  C4  UNL d   1      -0.959  -0.457   2.477  0.00  0.00    -0.005 A 
ATOM      6  C5  UNL d   1      -1.612   0.709   2.065  0.00  0.00    -0.074 A 
ATOM      7  C6  UNL d   1      -2.836   0.644   1.201  0.00  0.00     0.077 C 
ATOM      8  C7  UNL d   1      -1.117   1.952   2.482  0.00  0.00    -0.001 A 
ENDROOT
TORSDOF 0
ENDMDL
