MODEL 1
REMARK minimizedAffinity 1.92714286
REMARK minimizedRMSD -1
REMARK  0 active torsions:
REMARK  status: ('A' for Active; 'I' for Inactive)
ROOT
ATOM      1  C   UNL d   1      -5.456   1.745  -3.025  0.00  0.00    -0.002 A 
ATOM      2  C1  UNL d   1      -4.551   1.397  -4.018  0.00  0.00     0.010 A 
ATOM      3  C2  UNL d   1      -4.156   2.330  -4.979  0.00  0.00     0.041 A 
ATOM      4  C3  UNL d   1      -4.689   3.633  -4.922  0.00  0.00    -0.075 A 
ATOM      5  S   UNL d   1      -4.349   4.942  -5.991  0.00  0.00     0.015 SA
ATOM      6  C4  UNL d   1      -5.396   5.995  -5.155  0.00  0.00     0.022 A 
ATOM      7  C5  UNL d   1      -5.998   5.380  -4.083  0.00  0.00     0.026 A 
ATOM      8  C6  UNL d   1      -5.600   4.008  -3.931  0.00  0.00    -0.082 A 
ATOM      9  C7  UNL d   1      -5.982   3.039  -2.972  0.00  0.00     0.045 A 
ENDROOT
TORSDOF 0
ENDMDL
