MODEL 1
REMARK minimizedAffinity 6.18997717
REMARK minimizedRMSD -1
REMARK  0 active torsions:
REMARK  status: ('A' for Active; 'I' for Inactive)
ROOT
ATOM      1  C   UNL d   1       5.843  -2.748  -4.687  0.00  0.00    -0.002 A 
ATOM      2  C1  UNL d   1       5.054  -3.812  -5.100  0.00  0.00     0.010 A 
ATOM      3  C2  UNL d   1       3.826  -4.067  -4.485  0.00  0.00     0.041 A 
ATOM      4  C3  UNL d   1       3.400  -3.225  -3.439  0.00  0.00    -0.075 A 
ATOM      5  S   UNL d   1       1.934  -3.344  -2.540  0.00  0.00     0.015 SA
ATOM      6  C4  UNL d   1       2.319  -1.984  -1.588  0.00  0.00     0.022 A 
ATOM      7  C5  UNL d   1       3.534  -1.440  -1.933  0.00  0.00     0.026 A 
ATOM      8  C6  UNL d   1       4.177  -2.146  -3.006  0.00  0.00    -0.082 A 
ATOM      9  C7  UNL d   1       5.417  -1.915  -3.649  0.00  0.00     0.045 A 
ENDROOT
TORSDOF 0
ENDMDL
