MODEL 1
REMARK minimizedAffinity 10.7923546
REMARK minimizedRMSD -1
REMARK  0 active torsions:
REMARK  status: ('A' for Active; 'I' for Inactive)
ROOT
ATOM      1  C   UNL d   1       0.414  -4.430  -5.723  0.00  0.00    -0.002 A 
ATOM      2  C1  UNL d   1       0.019  -3.100  -5.751  0.00  0.00     0.010 A 
ATOM      3  C2  UNL d   1      -1.334  -2.762  -5.834  0.00  0.00     0.041 A 
ATOM      4  C3  UNL d   1      -2.292  -3.794  -5.888  0.00  0.00    -0.075 A 
ATOM      5  S   UNL d   1      -4.004  -3.618  -5.991  0.00  0.00     0.015 SA
ATOM      6  C4  UNL d   1      -4.251  -5.304  -5.999  0.00  0.00     0.022 A 
ATOM      7  C5  UNL d   1      -3.067  -5.999  -5.926  0.00  0.00     0.026 A 
ATOM      8  C6  UNL d   1      -1.918  -5.140  -5.860  0.00  0.00    -0.082 A 
ATOM      9  C7  UNL d   1      -0.539  -5.450  -5.776  0.00  0.00     0.045 A 
ENDROOT
TORSDOF 0
ENDMDL
