MODEL 1
REMARK minimizedAffinity 0.0730932578
REMARK minimizedRMSD -1
REMARK  0 active torsions:
REMARK  status: ('A' for Active; 'I' for Inactive)
ROOT
ATOM      1  C   UNL d   1      -0.976   0.790   3.214  0.00  0.00    -0.002 A 
ATOM      2  C1  UNL d   1       0.407   0.687   3.244  0.00  0.00     0.010 A 
ATOM      3  C2  UNL d   1       1.191   1.380   2.319  0.00  0.00     0.041 A 
ATOM      4  C3  UNL d   1       0.555   2.188   1.356  0.00  0.00    -0.075 A 
ATOM      5  S   UNL d   1       1.312   3.130   0.126  0.00  0.00     0.015 SA
ATOM      6  C4  UNL d   1      -0.184   3.691  -0.468  0.00  0.00     0.022 A 
ATOM      7  C5  UNL d   1      -1.245   3.183   0.243  0.00  0.00     0.026 A 
ATOM      8  C6  UNL d   1      -0.837   2.308   1.307  0.00  0.00    -0.082 A 
ATOM      9  C7  UNL d   1      -1.604   1.592   2.257  0.00  0.00     0.045 A 
ENDROOT
TORSDOF 0
ENDMDL
