MODEL 1
REMARK minimizedAffinity 3.72182369
REMARK minimizedRMSD -1
REMARK  0 active torsions:
REMARK  status: ('A' for Active; 'I' for Inactive)
ROOT
ATOM      1  C   UNL d   1       1.519   4.212  -1.637  0.00  0.00    -0.002 A 
ATOM      2  C1  UNL d   1       0.582   3.375  -1.048  0.00  0.00     0.010 A 
ATOM      3  C2  UNL d   1      -0.756   3.416  -1.443  0.00  0.00     0.041 A 
ATOM      4  C3  UNL d   1      -1.140   4.321  -2.452  0.00  0.00    -0.075 A 
ATOM      5  S   UNL d   1      -2.723   4.546  -3.099  0.00  0.00     0.015 SA
ATOM      6  C4  UNL d   1      -2.193   5.759  -4.173  0.00  0.00     0.022 A 
ATOM      7  C5  UNL d   1      -0.844   5.999  -4.054  0.00  0.00     0.026 A 
ATOM      8  C6  UNL d   1      -0.215   5.174  -3.061  0.00  0.00    -0.082 A 
ATOM      9  C7  UNL d   1       1.134   5.108  -2.637  0.00  0.00     0.045 A 
ENDROOT
TORSDOF 0
ENDMDL
