MODEL 1
REMARK minimizedAffinity 5.08637381
REMARK minimizedRMSD -1
REMARK  0 active torsions:
REMARK  status: ('A' for Active; 'I' for Inactive)
ROOT
ATOM      1  C   UNL d   1      -0.613  -5.997  -1.706  0.00  0.00    -0.002 A 
ATOM      2  C1  UNL d   1       0.650  -6.000  -2.281  0.00  0.00     0.010 A 
ATOM      3  C2  UNL d   1       1.793  -5.905  -1.486  0.00  0.00     0.041 A 
ATOM      4  C3  UNL d   1       1.645  -5.809  -0.088  0.00  0.00    -0.075 A 
ATOM      5  S   UNL d   1       2.903  -5.684   1.084  0.00  0.00     0.015 SA
ATOM      6  C4  UNL d   1       1.794  -5.626   2.377  0.00  0.00     0.022 A 
ATOM      7  C5  UNL d   1       0.491  -5.698   1.943  0.00  0.00     0.026 A 
ATOM      8  C6  UNL d   1       0.384  -5.805   0.515  0.00  0.00    -0.082 A 
ATOM      9  C7  UNL d   1      -0.756  -5.902  -0.319  0.00  0.00     0.045 A 
ENDROOT
TORSDOF 0
ENDMDL
