MODEL 1
REMARK minimizedAffinity -1.57458735
REMARK minimizedRMSD -1
REMARK  0 active torsions:
REMARK  status: ('A' for Active; 'I' for Inactive)
ROOT
ATOM      1  C   UNL d   1       0.976   0.257   3.754  0.00  0.00    -0.002 A 
ATOM      2  C1  UNL d   1       0.351   1.486   3.596  0.00  0.00     0.010 A 
ATOM      3  C2  UNL d   1       0.229   2.063   2.331  0.00  0.00     0.041 A 
ATOM      4  C3  UNL d   1       0.750   1.378   1.216  0.00  0.00    -0.075 A 
ATOM      5  S   UNL d   1       0.716   1.891  -0.430  0.00  0.00     0.015 SA
ATOM      6  C4  UNL d   1       1.529   0.492  -0.962  0.00  0.00     0.022 A 
ATOM      7  C5  UNL d   1       1.828  -0.358   0.077  0.00  0.00     0.026 A 
ATOM      8  C6  UNL d   1       1.383   0.139   1.349  0.00  0.00    -0.082 A 
ATOM      9  C7  UNL d   1       1.492  -0.420   2.646  0.00  0.00     0.045 A 
ENDROOT
TORSDOF 0
ENDMDL
