MODEL 1
REMARK minimizedAffinity -5.5625062
REMARK minimizedRMSD -1
REMARK  0 active torsions:
REMARK  status: ('A' for Active; 'I' for Inactive)
ROOT
ATOM      1  C   UNL d   1       1.132   0.584  -2.317  0.00  0.00    -0.002 A 
ATOM      2  C1  UNL d   1       1.699  -0.569  -1.792  0.00  0.00     0.010 A 
ATOM      3  C2  UNL d   1       1.704  -0.795  -0.414  0.00  0.00     0.041 A 
ATOM      4  C3  UNL d   1       1.122   0.167   0.436  0.00  0.00    -0.075 A 
ATOM      5  S   UNL d   1       1.012   0.103   2.155  0.00  0.00     0.015 SA
ATOM      6  C4  UNL d   1       0.209   1.605   2.234  0.00  0.00     0.022 A 
ATOM      7  C5  UNL d   1       0.022   2.155   0.988  0.00  0.00     0.026 A 
ATOM      8  C6  UNL d   1       0.545   1.335  -0.069  0.00  0.00    -0.082 A 
ATOM      9  C7  UNL d   1       0.556   1.535  -1.470  0.00  0.00     0.045 A 
ENDROOT
TORSDOF 0
ENDMDL
