MODEL 1
REMARK minimizedAffinity -3.61713266
REMARK minimizedRMSD -1
REMARK  0 active torsions:
REMARK  status: ('A' for Active; 'I' for Inactive)
ROOT
ATOM      1  C   UNL d   1       0.622  -2.069  -0.985  0.00  0.00     0.124 A 
ATOM      2  C1  UNL d   1       0.124  -3.151  -1.698  0.00  0.00     0.062 A 
ATOM      3  C2  UNL d   1      -1.192  -3.564  -1.515  0.00  0.00     0.162 A 
ATOM      4  C3  UNL d   1      -2.022  -2.893  -0.616  0.00  0.00    -0.034 A 
ATOM      5  C4  UNL d   1      -1.514  -1.806   0.098  0.00  0.00     0.162 A 
ATOM      6  C5  UNL d   1      -0.197  -1.398  -0.088  0.00  0.00     0.062 A 
ATOM      7  F   UNL d   1       0.282  -0.352   0.601  0.00  0.00    -0.097 F 
ATOM      8  F1  UNL d   1      -2.284  -1.139   0.970  0.00  0.00    -0.096 F 
ATOM      9  I   UNL d   1      -3.991  -3.507  -0.340  0.00  0.00    -0.060 I 
ATOM     10  F2  UNL d   1      -1.646  -4.612  -2.217  0.00  0.00    -0.096 F 
ATOM     11  F3  UNL d   1       0.914  -3.802  -2.564  0.00  0.00    -0.097 F 
ATOM     12  F4  UNL d   1       1.889  -1.674  -1.162  0.00  0.00    -0.092 F 
ENDROOT
TORSDOF 0
ENDMDL
