MODEL 1
REMARK minimizedAffinity 0.431362182
REMARK minimizedRMSD -1
REMARK  0 active torsions:
REMARK  status: ('A' for Active; 'I' for Inactive)
ROOT
ATOM      1  C   UNL d   1      -0.309  -2.194  -0.169  0.00  0.00     0.124 A 
ATOM      2  C1  UNL d   1       0.266  -1.301  -1.063  0.00  0.00     0.062 A 
ATOM      3  C2  UNL d   1       0.346   0.052  -0.747  0.00  0.00     0.162 A 
ATOM      4  C3  UNL d   1      -0.150   0.522   0.469  0.00  0.00    -0.034 A 
ATOM      5  C4  UNL d   1      -0.728  -0.382   1.363  0.00  0.00     0.162 A 
ATOM      6  C5  UNL d   1      -0.805  -1.733   1.043  0.00  0.00     0.062 A 
ATOM      7  F   UNL d   1      -1.361  -2.594   1.908  0.00  0.00    -0.097 F 
ATOM      8  F1  UNL d   1      -1.214   0.036   2.541  0.00  0.00    -0.096 F 
ATOM      9  I   UNL d   1      -0.032   2.544   0.945  0.00  0.00    -0.060 I 
ATOM     10  F2  UNL d   1       0.906   0.892  -1.630  0.00  0.00    -0.096 F 
ATOM     11  F3  UNL d   1       0.745  -1.743  -2.234  0.00  0.00    -0.097 F 
ATOM     12  F4  UNL d   1      -0.386  -3.495  -0.475  0.00  0.00    -0.092 F 
ENDROOT
TORSDOF 0
ENDMDL
