MODEL 1
REMARK minimizedAffinity -1.10274398
REMARK minimizedRMSD -1
REMARK  0 active torsions:
REMARK  status: ('A' for Active; 'I' for Inactive)
ROOT
ATOM      1  C   UNL d   1      -0.016   1.527  -1.329  0.00  0.00     0.124 A 
ATOM      2  C1  UNL d   1       0.312   0.470  -2.166  0.00  0.00     0.062 A 
ATOM      3  C2  UNL d   1       0.333  -0.832  -1.674  0.00  0.00     0.162 A 
ATOM      4  C3  UNL d   1       0.024  -1.085  -0.338  0.00  0.00    -0.034 A 
ATOM      5  C4  UNL d   1      -0.304  -0.016   0.498  0.00  0.00     0.162 A 
ATOM      6  C5  UNL d   1      -0.324   1.283   0.002  0.00  0.00     0.062 A 
ATOM      7  F   UNL d   1      -0.641   2.303   0.812  0.00  0.00    -0.097 F 
ATOM      8  F1  UNL d   1      -0.607  -0.223   1.789  0.00  0.00    -0.096 F 
ATOM      9  I   UNL d   1       0.054  -3.030   0.402  0.00  0.00    -0.060 I 
ATOM     10  F2  UNL d   1       0.654  -1.835  -2.506  0.00  0.00    -0.096 F 
ATOM     11  F3  UNL d   1       0.610   0.702  -3.453  0.00  0.00    -0.097 F 
ATOM     12  F4  UNL d   1      -0.035   2.779  -1.805  0.00  0.00    -0.092 F 
ENDROOT
TORSDOF 0
ENDMDL
