MODEL 1
REMARK minimizedAffinity 6.33910751
REMARK minimizedRMSD -1
REMARK  0 active torsions:
REMARK  status: ('A' for Active; 'I' for Inactive)
ROOT
ATOM      1  C   UNL d   1       0.351  -3.012  -0.412  0.00  0.00     0.124 A 
ATOM      2  C1  UNL d   1       0.676  -1.675  -0.230  0.00  0.00     0.062 A 
ATOM      3  C2  UNL d   1      -0.237  -0.806   0.362  0.00  0.00     0.162 A 
ATOM      4  C3  UNL d   1      -1.485  -1.272   0.776  0.00  0.00    -0.034 A 
ATOM      5  C4  UNL d   1      -1.805  -2.618   0.588  0.00  0.00     0.162 A 
ATOM      6  C5  UNL d   1      -0.889  -3.482  -0.003  0.00  0.00     0.062 A 
ATOM      7  F   UNL d   1      -1.206  -4.773  -0.179  0.00  0.00    -0.097 F 
ATOM      8  F1  UNL d   1      -2.996  -3.099   0.975  0.00  0.00    -0.096 F 
ATOM      9  I   UNL d   1      -2.852   0.023   1.661  0.00  0.00    -0.060 I 
ATOM     10  F2  UNL d   1       0.105   0.480   0.526  0.00  0.00    -0.096 F 
ATOM     11  F3  UNL d   1       1.873  -1.218  -0.625  0.00  0.00    -0.097 F 
ATOM     12  F4  UNL d   1       1.231  -3.845  -0.982  0.00  0.00    -0.092 F 
ENDROOT
TORSDOF 0
ENDMDL
