MODEL 1
REMARK minimizedAffinity 6.1549859
REMARK minimizedRMSD -1
REMARK  0 active torsions:
REMARK  status: ('A' for Active; 'I' for Inactive)
ROOT
ATOM      1  C   UNL d   1       0.329  -2.811  -0.178  0.00  0.00     0.124 A 
ATOM      2  C1  UNL d   1       0.705  -1.483  -0.035  0.00  0.00     0.062 A 
ATOM      3  C2  UNL d   1      -0.182  -0.559   0.510  0.00  0.00     0.162 A 
ATOM      4  C3  UNL d   1      -1.454  -0.961   0.918  0.00  0.00    -0.034 A 
ATOM      5  C4  UNL d   1      -1.825  -2.299   0.771  0.00  0.00     0.162 A 
ATOM      6  C5  UNL d   1      -0.935  -3.218   0.225  0.00  0.00     0.062 A 
ATOM      7  F   UNL d   1      -1.300  -4.501   0.088  0.00  0.00    -0.097 F 
ATOM      8  F1  UNL d   1      -3.040  -2.719   1.153  0.00  0.00    -0.096 F 
ATOM      9  I   UNL d   1      -2.783   0.417   1.734  0.00  0.00    -0.060 I 
ATOM     10  F2  UNL d   1       0.208   0.718   0.636  0.00  0.00    -0.096 F 
ATOM     11  F3  UNL d   1       1.925  -1.087  -0.425  0.00  0.00    -0.097 F 
ATOM     12  F4  UNL d   1       1.184  -3.698  -0.704  0.00  0.00    -0.092 F 
ENDROOT
TORSDOF 0
ENDMDL
