MODEL 1
REMARK minimizedAffinity 2.21964359
REMARK minimizedRMSD -1
REMARK  0 active torsions:
REMARK  status: ('A' for Active; 'I' for Inactive)
ROOT
ATOM      1  C   UNL d   1      -0.304  -3.134   0.439  0.00  0.00     0.124 A 
ATOM      2  C1  UNL d   1       0.851  -2.649  -0.159  0.00  0.00     0.062 A 
ATOM      3  C2  UNL d   1       1.056  -1.277  -0.276  0.00  0.00     0.162 A 
ATOM      4  C3  UNL d   1       0.105  -0.380   0.209  0.00  0.00    -0.034 A 
ATOM      5  C4  UNL d   1      -1.054  -0.874   0.809  0.00  0.00     0.162 A 
ATOM      6  C5  UNL d   1      -1.255  -2.246   0.923  0.00  0.00     0.062 A 
ATOM      7  F   UNL d   1      -2.371  -2.712   1.502  0.00  0.00    -0.097 F 
ATOM      8  F1  UNL d   1      -1.989  -0.039   1.286  0.00  0.00    -0.096 F 
ATOM      9  I   UNL d   1       0.409   1.672   0.038  0.00  0.00    -0.060 I 
ATOM     10  F2  UNL d   1       2.181  -0.837  -0.859  0.00  0.00    -0.096 F 
ATOM     11  F3  UNL d   1       1.771  -3.504  -0.628  0.00  0.00    -0.097 F 
ATOM     12  F4  UNL d   1      -0.500  -4.454   0.549  0.00  0.00    -0.092 F 
ENDROOT
TORSDOF 0
ENDMDL
