MODEL 1
REMARK minimizedAffinity -1.788625
REMARK minimizedRMSD -1
REMARK  0 active torsions:
REMARK  status: ('A' for Active; 'I' for Inactive)
ROOT
ATOM      1  C   UNL d   1      -0.024  -2.620  -0.265  0.00  0.00     0.124 A 
ATOM      2  C1  UNL d   1       0.496  -1.747  -1.211  0.00  0.00     0.062 A 
ATOM      3  C2  UNL d   1       0.544  -0.381  -0.951  0.00  0.00     0.162 A 
ATOM      4  C3  UNL d   1       0.072   0.122   0.262  0.00  0.00    -0.034 A 
ATOM      5  C4  UNL d   1      -0.450  -0.762   1.208  0.00  0.00     0.162 A 
ATOM      6  C5  UNL d   1      -0.496  -2.127   0.943  0.00  0.00     0.062 A 
ATOM      7  F   UNL d   1      -0.998  -2.969   1.858  0.00  0.00    -0.097 F 
ATOM      8  F1  UNL d   1      -0.912  -0.313   2.384  0.00  0.00    -0.096 F 
ATOM      9  I   UNL d   1       0.143   2.164   0.655  0.00  0.00    -0.060 I 
ATOM     10  F2  UNL d   1       1.052   0.439  -1.883  0.00  0.00    -0.096 F 
ATOM     11  F3  UNL d   1       0.952  -2.221  -2.380  0.00  0.00    -0.097 F 
ATOM     12  F4  UNL d   1      -0.070  -3.934  -0.519  0.00  0.00    -0.092 F 
ENDROOT
TORSDOF 0
ENDMDL
