MODEL 1
REMARK minimizedAffinity -2.84271908
REMARK minimizedRMSD -1
REMARK  0 active torsions:
REMARK  status: ('A' for Active; 'I' for Inactive)
ROOT
ATOM      1  C   UNL d   1      -0.832  -1.452   1.775  0.00  0.00     0.124 A 
ATOM      2  C1  UNL d   1      -1.314  -0.252   1.271  0.00  0.00     0.062 A 
ATOM      3  C2  UNL d   1      -0.895   0.203   0.024  0.00  0.00     0.162 A 
ATOM      4  C3  UNL d   1       0.012  -0.544  -0.729  0.00  0.00    -0.034 A 
ATOM      5  C4  UNL d   1       0.493  -1.749  -0.215  0.00  0.00     0.162 A 
ATOM      6  C5  UNL d   1       0.071  -2.199   1.032  0.00  0.00     0.062 A 
ATOM      7  F   UNL d   1       0.539  -3.358   1.517  0.00  0.00    -0.097 F 
ATOM      8  F1  UNL d   1       1.366  -2.492  -0.912  0.00  0.00    -0.096 F 
ATOM      9  I   UNL d   1       0.641   0.132  -2.594  0.00  0.00    -0.060 I 
ATOM     10  F2  UNL d   1      -1.378   1.366  -0.439  0.00  0.00    -0.096 F 
ATOM     11  F3  UNL d   1      -2.186   0.473   1.987  0.00  0.00    -0.097 F 
ATOM     12  F4  UNL d   1      -1.236  -1.886   2.975  0.00  0.00    -0.092 F 
ENDROOT
TORSDOF 0
ENDMDL
