MODEL 1
REMARK minimizedAffinity -1.67559421
REMARK minimizedRMSD -1
REMARK  0 active torsions:
REMARK  status: ('A' for Active; 'I' for Inactive)
ROOT
ATOM      1  C   UNL d   1      -0.619  -1.367  -0.174  0.00  0.00     0.124 A 
ATOM      2  C1  UNL d   1      -0.184  -0.498  -1.165  0.00  0.00     0.062 A 
ATOM      3  C2  UNL d   1       0.460   0.688  -0.822  0.00  0.00     0.162 A 
ATOM      4  C3  UNL d   1       0.674   1.010   0.518  0.00  0.00    -0.034 A 
ATOM      5  C4  UNL d   1       0.233   0.131   1.509  0.00  0.00     0.162 A 
ATOM      6  C5  UNL d   1      -0.411  -1.052   1.161  0.00  0.00     0.062 A 
ATOM      7  F   UNL d   1      -0.831  -1.891   2.119  0.00  0.00    -0.097 F 
ATOM      8  F1  UNL d   1       0.422   0.410   2.807  0.00  0.00    -0.096 F 
ATOM      9  I   UNL d   1       1.637   2.781   1.035  0.00  0.00    -0.060 I 
ATOM     10  F2  UNL d   1       0.870   1.509  -1.800  0.00  0.00    -0.096 F 
ATOM     11  F3  UNL d   1      -0.385  -0.799  -2.455  0.00  0.00    -0.097 F 
ATOM     12  F4  UNL d   1      -1.240  -2.506  -0.507  0.00  0.00    -0.092 F 
ENDROOT
TORSDOF 0
ENDMDL
