MODEL 1
REMARK minimizedAffinity -3.45063424
REMARK minimizedRMSD -1
REMARK  0 active torsions:
REMARK  status: ('A' for Active; 'I' for Inactive)
ROOT
ATOM      1  C   UNL d   1       0.050  -2.222  -0.232  0.00  0.00     0.124 A 
ATOM      2  C1  UNL d   1      -0.388  -1.733   0.991  0.00  0.00     0.062 A 
ATOM      3  C2  UNL d   1      -0.353  -0.366   1.251  0.00  0.00     0.162 A 
ATOM      4  C3  UNL d   1       0.120   0.522   0.286  0.00  0.00    -0.034 A 
ATOM      5  C4  UNL d   1       0.560   0.023  -0.942  0.00  0.00     0.162 A 
ATOM      6  C5  UNL d   1       0.523  -1.344  -1.197  0.00  0.00     0.062 A 
ATOM      7  F   UNL d   1       0.947  -1.815  -2.379  0.00  0.00    -0.097 F 
ATOM      8  F1  UNL d   1       1.021   0.849  -1.892  0.00  0.00    -0.096 F 
ATOM      9  I   UNL d   1       0.174   2.567   0.671  0.00  0.00    -0.060 I 
ATOM     10  F2  UNL d   1      -0.783   0.079   2.442  0.00  0.00    -0.096 F 
ATOM     11  F3  UNL d   1      -0.845  -2.579   1.925  0.00  0.00    -0.097 F 
ATOM     12  F4  UNL d   1       0.016  -3.538  -0.480  0.00  0.00    -0.092 F 
ENDROOT
TORSDOF 0
ENDMDL
