MODEL 1
REMARK minimizedAffinity -1.73102736
REMARK minimizedRMSD -1
REMARK  0 active torsions:
REMARK  status: ('A' for Active; 'I' for Inactive)
ROOT
ATOM      1  C   UNL d   1       0.152  -3.151  -1.009  0.00  0.00     0.124 A 
ATOM      2  C1  UNL d   1       0.125  -2.116  -1.934  0.00  0.00     0.062 A 
ATOM      3  C2  UNL d   1       0.102  -0.793  -1.504  0.00  0.00     0.162 A 
ATOM      4  C3  UNL d   1       0.107  -0.496  -0.141  0.00  0.00    -0.034 A 
ATOM      5  C4  UNL d   1       0.133  -1.542   0.784  0.00  0.00     0.162 A 
ATOM      6  C5  UNL d   1       0.156  -2.863   0.348  0.00  0.00     0.062 A 
ATOM      7  F   UNL d   1       0.181  -3.861   1.243  0.00  0.00    -0.097 F 
ATOM      8  F1  UNL d   1       0.138  -1.292   2.101  0.00  0.00    -0.096 F 
ATOM      9  I   UNL d   1       0.072   1.482   0.507  0.00  0.00    -0.060 I 
ATOM     10  F2  UNL d   1       0.077   0.186  -2.420  0.00  0.00    -0.096 F 
ATOM     11  F3  UNL d   1       0.121  -2.392  -3.246  0.00  0.00    -0.097 F 
ATOM     12  F4  UNL d   1       0.173  -4.423  -1.426  0.00  0.00    -0.092 F 
ENDROOT
TORSDOF 0
ENDMDL
