MODEL 1
REMARK minimizedAffinity -1.84540021
REMARK minimizedRMSD -1
REMARK  0 active torsions:
REMARK  status: ('A' for Active; 'I' for Inactive)
ROOT
ATOM      1  C   UNL d   1      -0.721  -1.507   0.716  0.00  0.00     0.124 A 
ATOM      2  C1  UNL d   1       0.529  -1.666   0.135  0.00  0.00     0.062 A 
ATOM      3  C2  UNL d   1       1.316  -0.554  -0.148  0.00  0.00     0.162 A 
ATOM      4  C3  UNL d   1       0.856   0.729   0.151  0.00  0.00    -0.034 A 
ATOM      5  C4  UNL d   1      -0.403   0.881   0.735  0.00  0.00     0.162 A 
ATOM      6  C5  UNL d   1      -1.186  -0.234   1.016  0.00  0.00     0.062 A 
ATOM      7  F   UNL d   1      -2.394  -0.079   1.578  0.00  0.00    -0.097 F 
ATOM      8  F1  UNL d   1      -0.877   2.099   1.036  0.00  0.00    -0.096 F 
ATOM      9  I   UNL d   1       2.029   2.395  -0.271  0.00  0.00    -0.060 I 
ATOM     10  F2  UNL d   1       2.520  -0.737  -0.711  0.00  0.00    -0.096 F 
ATOM     11  F3  UNL d   1       0.980  -2.895  -0.156  0.00  0.00    -0.097 F 
ATOM     12  F4  UNL d   1      -1.477  -2.579   0.987  0.00  0.00    -0.092 F 
ENDROOT
TORSDOF 0
ENDMDL
