MODEL 1
REMARK minimizedAffinity -4.98375607
REMARK minimizedRMSD -1
REMARK  0 active torsions:
REMARK  status: ('A' for Active; 'I' for Inactive)
ROOT
ATOM      1  C   UNL d   1      -0.345  -2.809  -0.456  0.00  0.00     0.124 A 
ATOM      2  C1  UNL d   1      -0.817  -2.041   0.599  0.00  0.00     0.062 A 
ATOM      3  C2  UNL d   1      -0.593  -0.667   0.619  0.00  0.00     0.162 A 
ATOM      4  C3  UNL d   1       0.106  -0.053  -0.420  0.00  0.00    -0.034 A 
ATOM      5  C4  UNL d   1       0.579  -0.833  -1.477  0.00  0.00     0.162 A 
ATOM      6  C5  UNL d   1       0.353  -2.205  -1.492  0.00  0.00     0.062 A 
ATOM      7  F   UNL d   1       0.810  -2.946  -2.512  0.00  0.00    -0.097 F 
ATOM      8  F1  UNL d   1       1.255  -0.274  -2.492  0.00  0.00    -0.096 F 
ATOM      9  I   UNL d   1       0.443   2.001  -0.394  0.00  0.00    -0.060 I 
ATOM     10  F2  UNL d   1      -1.061   0.051   1.651  0.00  0.00    -0.096 F 
ATOM     11  F3  UNL d   1      -1.490  -2.622   1.602  0.00  0.00    -0.097 F 
ATOM     12  F4  UNL d   1      -0.560  -4.131  -0.472  0.00  0.00    -0.092 F 
ENDROOT
TORSDOF 0
ENDMDL
