MODEL 1
REMARK minimizedAffinity -3.47893286
REMARK minimizedRMSD -1
REMARK  0 active torsions:
REMARK  status: ('A' for Active; 'I' for Inactive)
ROOT
ATOM      1  C   UNL d   1      -0.095  -1.993  -2.052  0.00  0.00     0.124 A 
ATOM      2  C1  UNL d   1      -0.134  -0.609  -1.951  0.00  0.00     0.062 A 
ATOM      3  C2  UNL d   1      -0.709  -0.004  -0.837  0.00  0.00     0.162 A 
ATOM      4  C3  UNL d   1      -1.250  -0.783   0.186  0.00  0.00    -0.034 A 
ATOM      5  C4  UNL d   1      -1.208  -2.174   0.077  0.00  0.00     0.162 A 
ATOM      6  C5  UNL d   1      -0.632  -2.774  -1.038  0.00  0.00     0.062 A 
ATOM      7  F   UNL d   1      -0.595  -4.111  -1.134  0.00  0.00    -0.097 F 
ATOM      8  F1  UNL d   1      -1.718  -2.953   1.043  0.00  0.00    -0.096 F 
ATOM      9  I   UNL d   1      -2.110   0.118   1.853  0.00  0.00    -0.060 I 
ATOM     10  F2  UNL d   1      -0.732   1.335  -0.766  0.00  0.00    -0.096 F 
ATOM     11  F3  UNL d   1       0.383   0.148  -2.930  0.00  0.00    -0.097 F 
ATOM     12  F4  UNL d   1       0.458  -2.572  -3.125  0.00  0.00    -0.092 F 
ENDROOT
TORSDOF 0
ENDMDL
