MODEL 1
REMARK minimizedAffinity -2.72984862
REMARK minimizedRMSD -1
REMARK  0 active torsions:
REMARK  status: ('A' for Active; 'I' for Inactive)
ROOT
ATOM      1  C   UNL d   1      -0.135  -1.708  -2.451  0.00  0.00     0.124 A 
ATOM      2  C1  UNL d   1      -0.482  -2.577  -1.426  0.00  0.00     0.062 A 
ATOM      3  C2  UNL d   1      -0.770  -2.082  -0.157  0.00  0.00     0.162 A 
ATOM      4  C3  UNL d   1      -0.713  -0.711   0.094  0.00  0.00    -0.034 A 
ATOM      5  C4  UNL d   1      -0.362   0.156  -0.942  0.00  0.00     0.162 A 
ATOM      6  C5  UNL d   1      -0.075  -0.343  -2.209  0.00  0.00     0.062 A 
ATOM      7  F   UNL d   1       0.260   0.498  -3.198  0.00  0.00    -0.097 F 
ATOM      8  F1  UNL d   1      -0.297   1.480  -0.736  0.00  0.00    -0.096 F 
ATOM      9  I   UNL d   1      -1.142   0.032   1.990  0.00  0.00    -0.060 I 
ATOM     10  F2  UNL d   1      -1.103  -2.945   0.815  0.00  0.00    -0.096 F 
ATOM     11  F3  UNL d   1      -0.540  -3.896  -1.658  0.00  0.00    -0.097 F 
ATOM     12  F4  UNL d   1       0.142  -2.186  -3.671  0.00  0.00    -0.092 F 
ENDROOT
TORSDOF 0
ENDMDL
