MODEL 1
REMARK minimizedAffinity -1.29959679
REMARK minimizedRMSD -1
REMARK  0 active torsions:
REMARK  status: ('A' for Active; 'I' for Inactive)
ROOT
ATOM      1  C   UNL d   1       0.518  -1.711  -1.593  0.00  0.00     0.124 A 
ATOM      2  C1  UNL d   1       0.116  -0.392  -1.756  0.00  0.00     0.062 A 
ATOM      3  C2  UNL d   1      -0.674   0.223  -0.789  0.00  0.00     0.162 A 
ATOM      4  C3  UNL d   1      -1.067  -0.480   0.350  0.00  0.00    -0.034 A 
ATOM      5  C4  UNL d   1      -0.659  -1.806   0.506  0.00  0.00     0.162 A 
ATOM      6  C5  UNL d   1       0.130  -2.416  -0.463  0.00  0.00     0.062 A 
ATOM      7  F   UNL d   1       0.517  -3.690  -0.304  0.00  0.00    -0.097 F 
ATOM      8  F1  UNL d   1      -1.019  -2.510   1.590  0.00  0.00    -0.096 F 
ATOM      9  I   UNL d   1      -2.248   0.437   1.798  0.00  0.00    -0.060 I 
ATOM     10  F2  UNL d   1      -1.047   1.498  -0.972  0.00  0.00    -0.096 F 
ATOM     11  F3  UNL d   1       0.489   0.291  -2.847  0.00  0.00    -0.097 F 
ATOM     12  F4  UNL d   1       1.278  -2.301  -2.525  0.00  0.00    -0.092 F 
ENDROOT
TORSDOF 0
ENDMDL
