MODEL 1
REMARK minimizedAffinity -1.0396136
REMARK minimizedRMSD -1
REMARK  0 active torsions:
REMARK  status: ('A' for Active; 'I' for Inactive)
ROOT
ATOM      1  C   UNL d   1       2.670  -1.964  -0.014  0.00  0.00     0.172 C 
ATOM      2  N   UNL d   1       2.064  -1.410   1.174  0.00  0.00    -0.070 N 
ATOM      3  C1  UNL d   1       2.727  -0.754   2.177  0.00  0.00    -0.004 A 
ATOM      4  C2  UNL d   1       1.797  -0.384   3.125  0.00  0.00    -0.047 A 
ATOM      5  C3  UNL d   1       0.532  -0.833   2.677  0.00  0.00    -0.047 A 
ATOM      6  C4  UNL d   1       0.727  -1.465   1.467  0.00  0.00    -0.004 A 
ENDROOT
TORSDOF 0
ENDMDL
