MODEL 1
REMARK minimizedAffinity 3.31179357
REMARK minimizedRMSD -1
REMARK  0 active torsions:
REMARK  status: ('A' for Active; 'I' for Inactive)
ROOT
ATOM      1  C   UNL d   1       1.158  -0.462  -0.403  0.00  0.00     0.172 C 
ATOM      2  N   UNL d   1       1.280  -0.981   0.939  0.00  0.00    -0.070 N 
ATOM      3  C1  UNL d   1       0.407  -0.747   1.968  0.00  0.00    -0.004 A 
ATOM      4  C2  UNL d   1       0.874  -1.416   3.078  0.00  0.00    -0.047 A 
ATOM      5  C3  UNL d   1       2.071  -2.074   2.705  0.00  0.00    -0.047 A 
ATOM      6  C4  UNL d   1       2.298  -1.787   1.375  0.00  0.00    -0.004 A 
ENDROOT
TORSDOF 0
ENDMDL
