MODEL 1
REMARK minimizedAffinity 3.42199945
REMARK minimizedRMSD -1
REMARK  0 active torsions:
REMARK  status: ('A' for Active; 'I' for Inactive)
ROOT
ATOM      1  C   UNL d   1       1.434  -1.073   0.348  0.00  0.00     0.172 C 
ATOM      2  N   UNL d   1       1.591  -0.094  -0.701  0.00  0.00    -0.070 N 
ATOM      3  C1  UNL d   1       2.044   1.188  -0.535  0.00  0.00    -0.004 A 
ATOM      4  C2  UNL d   1       2.049   1.797  -1.771  0.00  0.00    -0.047 A 
ATOM      5  C3  UNL d   1       1.583   0.849  -2.713  0.00  0.00    -0.047 A 
ATOM      6  C4  UNL d   1       1.307  -0.313  -2.023  0.00  0.00    -0.004 A 
ENDROOT
TORSDOF 0
ENDMDL
