MODEL 1
REMARK minimizedAffinity 1.36866927
REMARK minimizedRMSD -1
REMARK  0 active torsions:
REMARK  status: ('A' for Active; 'I' for Inactive)
ROOT
ATOM      1  C   UNL d   1       0.214  -0.760   3.190  0.00  0.00     0.172 C 
ATOM      2  N   UNL d   1       1.189  -1.425   2.358  0.00  0.00    -0.070 N 
ATOM      3  C1  UNL d   1       1.318  -1.274   1.003  0.00  0.00    -0.004 A 
ATOM      4  C2  UNL d   1       2.360  -2.075   0.587  0.00  0.00    -0.047 A 
ATOM      5  C3  UNL d   1       2.874  -2.730   1.731  0.00  0.00    -0.047 A 
ATOM      6  C4  UNL d   1       2.131  -2.310   2.813  0.00  0.00    -0.004 A 
ENDROOT
TORSDOF 0
ENDMDL
