MODEL 1
REMARK minimizedAffinity 1.78902209
REMARK minimizedRMSD -1
REMARK  0 active torsions:
REMARK  status: ('A' for Active; 'I' for Inactive)
ROOT
ATOM      1  C   UNL d   1       2.510  -1.167  -0.424  0.00  0.00     0.172 C 
ATOM      2  N   UNL d   1       2.490   0.036  -1.223  0.00  0.00    -0.070 N 
ATOM      3  C1  UNL d   1       2.798   1.294  -0.779  0.00  0.00    -0.004 A 
ATOM      4  C2  UNL d   1       2.659   2.162  -1.840  0.00  0.00    -0.047 A 
ATOM      5  C3  UNL d   1       2.252   1.400  -2.960  0.00  0.00    -0.047 A 
ATOM      6  C4  UNL d   1       2.155   0.087  -2.550  0.00  0.00    -0.004 A 
ENDROOT
TORSDOF 0
ENDMDL
