MODEL 1
REMARK minimizedAffinity 2.18634415
REMARK minimizedRMSD -1
REMARK  0 active torsions:
REMARK  status: ('A' for Active; 'I' for Inactive)
ROOT
ATOM      1  C   UNL d   1       0.985  -0.843  -1.100  0.00  0.00     0.172 C 
ATOM      2  N   UNL d   1       1.762  -1.270   0.040  0.00  0.00    -0.070 N 
ATOM      3  C1  UNL d   1       2.663  -2.301   0.051  0.00  0.00    -0.004 A 
ATOM      4  C2  UNL d   1       3.191  -2.387   1.321  0.00  0.00    -0.047 A 
ATOM      5  C3  UNL d   1       2.585  -1.373   2.101  0.00  0.00    -0.047 A 
ATOM      6  C4  UNL d   1       1.705  -0.697   1.282  0.00  0.00    -0.004 A 
ENDROOT
TORSDOF 0
ENDMDL
