MODEL 1
REMARK minimizedAffinity 3.34932804
REMARK minimizedRMSD -1
REMARK  0 active torsions:
REMARK  status: ('A' for Active; 'I' for Inactive)
ROOT
ATOM      1  C   UNL d   1      -0.440  -1.098   2.913  0.00  0.00     0.172 C 
ATOM      2  N   UNL d   1       0.944  -1.346   2.582  0.00  0.00    -0.070 N 
ATOM      3  C1  UNL d   1       1.397  -1.926   1.427  0.00  0.00    -0.004 A 
ATOM      4  C2  UNL d   1       2.772  -1.983   1.495  0.00  0.00    -0.047 A 
ATOM      5  C3  UNL d   1       3.159  -1.418   2.733  0.00  0.00    -0.047 A 
ATOM      6  C4  UNL d   1       2.007  -1.032   3.386  0.00  0.00    -0.004 A 
ENDROOT
TORSDOF 0
ENDMDL
