MODEL 1
REMARK minimizedAffinity -2.51846385
REMARK minimizedRMSD -1
REMARK  0 active torsions:
REMARK  status: ('A' for Active; 'I' for Inactive)
ROOT
ATOM      1  C   UNL d   1       2.231   0.052   3.165  0.00  0.00     0.172 C 
ATOM      2  N   UNL d   1       2.579  -0.828   2.074  0.00  0.00    -0.070 N 
ATOM      3  C1  UNL d   1       3.035  -0.435   0.845  0.00  0.00    -0.004 A 
ATOM      4  C2  UNL d   1       3.250  -1.569   0.092  0.00  0.00    -0.047 A 
ATOM      5  C3  UNL d   1       2.911  -2.683   0.897  0.00  0.00    -0.047 A 
ATOM      6  C4  UNL d   1       2.499  -2.195   2.119  0.00  0.00    -0.004 A 
ENDROOT
TORSDOF 0
ENDMDL
