MODEL 1
REMARK minimizedAffinity 1.11829376
REMARK minimizedRMSD -1
REMARK  0 active torsions:
REMARK  status: ('A' for Active; 'I' for Inactive)
ROOT
ATOM      1  C   UNL d   1       0.273  -1.132   2.982  0.00  0.00     0.172 C 
ATOM      2  N   UNL d   1       1.472  -1.549   2.294  0.00  0.00    -0.070 N 
ATOM      3  C1  UNL d   1       2.609  -2.026   2.890  0.00  0.00    -0.004 A 
ATOM      4  C2  UNL d   1       3.519  -2.312   1.895  0.00  0.00    -0.047 A 
ATOM      5  C3  UNL d   1       2.909  -1.994   0.659  0.00  0.00    -0.047 A 
ATOM      6  C4  UNL d   1       1.642  -1.524   0.935  0.00  0.00    -0.004 A 
ENDROOT
TORSDOF 0
ENDMDL
