MODEL 1
REMARK minimizedAffinity 4.97722054
REMARK minimizedRMSD -1
REMARK  1 active torsions:
REMARK  status: ('A' for Active; 'I' for Inactive)
REMARK    1  A    between atoms: C1_2  and  C2_3 
ROOT
ATOM      1  C2  UNL d   1       3.119   1.035  -3.731  0.00  0.00    -0.073 A 
ATOM      2  C3  UNL d   1       2.208   1.616  -4.620  0.00  0.00    -0.002 A 
ATOM      3  C4  UNL d   1       0.847   1.323  -4.526  0.00  0.00     0.004 A 
ATOM      4  C5  UNL d   1       0.382   0.453  -3.540  0.00  0.00    -0.004 A 
ATOM      5  C6  UNL d   1       1.276  -0.129  -2.634  0.00  0.00    -0.075 A 
ATOM      6  C7  UNL d   1       0.793  -1.068  -1.569  0.00  0.00     0.076 C 
ATOM      7  C8  UNL d   1       2.642   0.168  -2.737  0.00  0.00     0.001 A 
ENDROOT
BRANCH   1   8
ATOM      8  C1  UNL d   1       4.589   1.353  -3.824  0.00  0.00     0.053 C 
ATOM      9  C   UNL d   1       5.245   0.671  -5.014  0.00  0.00     0.018 C 
ENDBRANCH   1   8
TORSDOF 1
ENDMDL
