MODEL 1
REMARK minimizedAffinity 9.98791409
REMARK minimizedRMSD -1
REMARK  1 active torsions:
REMARK  status: ('A' for Active; 'I' for Inactive)
REMARK    1  A    between atoms: C1_2  and  C2_3 
ROOT
ATOM      1  C2  UNL d   1      -1.481  -4.341   0.985  0.00  0.00    -0.073 A 
ATOM      2  C3  UNL d   1      -1.916  -4.382  -0.345  0.00  0.00    -0.002 A 
ATOM      3  C4  UNL d   1      -2.674  -3.336  -0.871  0.00  0.00     0.004 A 
ATOM      4  C5  UNL d   1      -2.999  -2.236  -0.076  0.00  0.00    -0.004 A 
ATOM      5  C6  UNL d   1      -2.563  -2.171   1.251  0.00  0.00    -0.075 A 
ATOM      6  C7  UNL d   1      -2.906  -0.996   2.119  0.00  0.00     0.076 C 
ATOM      7  C8  UNL d   1      -1.805  -3.228   1.773  0.00  0.00     0.001 A 
ENDROOT
BRANCH   1   8
ATOM      8  C1  UNL d   1      -0.656  -5.466   1.555  0.00  0.00     0.053 C 
ATOM      9  C   UNL d   1       0.829  -5.139   1.560  0.00  0.00     0.018 C 
ENDBRANCH   1   8
TORSDOF 1
ENDMDL
