MODEL 1
REMARK minimizedAffinity 12.5734501
REMARK minimizedRMSD -1
REMARK  1 active torsions:
REMARK  status: ('A' for Active; 'I' for Inactive)
REMARK    1  A    between atoms: C1_2  and  C2_3 
ROOT
ATOM      1  C2  UNL d   1      -2.954   3.146   3.638  0.00  0.00    -0.073 A 
ATOM      2  C3  UNL d   1      -4.299   3.451   3.401  0.00  0.00    -0.002 A 
ATOM      3  C4  UNL d   1      -4.888   4.561   4.008  0.00  0.00     0.004 A 
ATOM      4  C5  UNL d   1      -4.138   5.380   4.852  0.00  0.00    -0.004 A 
ATOM      5  C6  UNL d   1      -2.789   5.099   5.092  0.00  0.00    -0.075 A 
ATOM      6  C7  UNL d   1      -1.969   5.968   5.999  0.00  0.00     0.076 C 
ATOM      7  C8  UNL d   1      -2.206   3.981   4.481  0.00  0.00     0.001 A 
ENDROOT
BRANCH   1   8
ATOM      8  C1  UNL d   1      -2.312   1.952   2.980  0.00  0.00     0.053 C 
ATOM      9  C   UNL d   1      -3.228   0.739   2.982  0.00  0.00     0.018 C 
ENDBRANCH   1   8
TORSDOF 1
ENDMDL
