MODEL 1
REMARK minimizedAffinity 11.3773365
REMARK minimizedRMSD -1
REMARK  1 active torsions:
REMARK  status: ('A' for Active; 'I' for Inactive)
REMARK    1  A    between atoms: C1_2  and  C2_3 
ROOT
ATOM      1  C2  UNL d   1       0.033   0.853  -1.969  0.00  0.00    -0.073 A 
ATOM      2  C3  UNL d   1       0.822  -0.290  -2.134  0.00  0.00    -0.002 A 
ATOM      3  C4  UNL d   1       2.185  -0.173  -2.410  0.00  0.00     0.004 A 
ATOM      4  C5  UNL d   1       2.773   1.088  -2.516  0.00  0.00    -0.004 A 
ATOM      5  C6  UNL d   1       2.003   2.242  -2.343  0.00  0.00    -0.075 A 
ATOM      6  C7  UNL d   1       2.621   3.605  -2.456  0.00  0.00     0.076 C 
ATOM      7  C8  UNL d   1       0.635   2.116  -2.069  0.00  0.00     0.001 A 
ENDROOT
BRANCH   1   8
ATOM      8  C1  UNL d   1      -1.438   0.731  -1.665  0.00  0.00     0.053 C 
ATOM      9  C   UNL d   1      -1.689   0.286  -0.233  0.00  0.00     0.018 C 
ENDBRANCH   1   8
TORSDOF 1
ENDMDL
