MODEL 1
REMARK minimizedAffinity 5.98057795
REMARK minimizedRMSD -1
REMARK  1 active torsions:
REMARK  status: ('A' for Active; 'I' for Inactive)
REMARK    1  A    between atoms: C1_2  and  C2_3 
ROOT
ATOM      1  C2  UNL d   1       2.153   1.009  -3.733  0.00  0.00    -0.073 A 
ATOM      2  C3  UNL d   1       3.256   0.478  -3.054  0.00  0.00    -0.002 A 
ATOM      3  C4  UNL d   1       3.133   0.057  -1.729  0.00  0.00     0.004 A 
ATOM      4  C5  UNL d   1       1.906   0.157  -1.072  0.00  0.00    -0.004 A 
ATOM      5  C6  UNL d   1       0.790   0.674  -1.737  0.00  0.00    -0.075 A 
ATOM      6  C7  UNL d   1      -0.536   0.789  -1.044  0.00  0.00     0.076 C 
ATOM      7  C8  UNL d   1       0.922   1.096  -3.067  0.00  0.00     0.001 A 
ENDROOT
BRANCH   1   8
ATOM      8  C1  UNL d   1       2.279   1.458  -5.165  0.00  0.00     0.053 C 
ATOM      9  C   UNL d   1       1.076   1.048  -6.000  0.00  0.00     0.018 C 
ENDBRANCH   1   8
TORSDOF 1
ENDMDL
