MODEL 1
REMARK minimizedAffinity 16.1060314
REMARK minimizedRMSD -1
REMARK  1 active torsions:
REMARK  status: ('A' for Active; 'I' for Inactive)
REMARK    1  A    between atoms: C1_2  and  C2_3 
ROOT
ATOM      1  C2  UNL d   1       2.045   0.375  -2.419  0.00  0.00    -0.073 A 
ATOM      2  C3  UNL d   1       1.422   0.290  -3.669  0.00  0.00    -0.002 A 
ATOM      3  C4  UNL d   1       1.583   1.310  -4.607  0.00  0.00     0.004 A 
ATOM      4  C5  UNL d   1       2.373   2.420  -4.309  0.00  0.00    -0.004 A 
ATOM      5  C6  UNL d   1       3.014   2.517  -3.070  0.00  0.00    -0.075 A 
ATOM      6  C7  UNL d   1       3.866   3.705  -2.733  0.00  0.00     0.076 C 
ATOM      7  C8  UNL d   1       2.845   1.490  -2.132  0.00  0.00     0.001 A 
ENDROOT
BRANCH   1   8
ATOM      8  C1  UNL d   1       1.879  -0.727  -1.405  0.00  0.00     0.053 C 
ATOM      9  C   UNL d   1       1.538  -2.057  -2.058  0.00  0.00     0.018 C 
ENDBRANCH   1   8
TORSDOF 1
ENDMDL
