MODEL 1
REMARK minimizedAffinity 7.63445187
REMARK minimizedRMSD -1
REMARK  1 active torsions:
REMARK  status: ('A' for Active; 'I' for Inactive)
REMARK    1  A    between atoms: C1_2  and  C2_3 
ROOT
ATOM      1  C2  UNL d   1      -0.837  -0.370  -1.498  0.00  0.00    -0.073 A 
ATOM      2  C3  UNL d   1       0.287   0.115  -0.819  0.00  0.00    -0.002 A 
ATOM      3  C4  UNL d   1       1.202   0.941  -1.472  0.00  0.00     0.004 A 
ATOM      4  C5  UNL d   1       1.000   1.297  -2.805  0.00  0.00    -0.004 A 
ATOM      5  C6  UNL d   1      -0.123   0.833  -3.497  0.00  0.00    -0.075 A 
ATOM      6  C7  UNL d   1      -0.353   1.205  -4.932  0.00  0.00     0.076 C 
ATOM      7  C8  UNL d   1      -1.036   0.001  -2.836  0.00  0.00     0.001 A 
ENDROOT
BRANCH   1   8
ATOM      8  C1  UNL d   1      -1.832  -1.258  -0.796  0.00  0.00     0.053 C 
ATOM      9  C   UNL d   1      -1.221  -1.958   0.407  0.00  0.00     0.018 C 
ENDBRANCH   1   8
TORSDOF 1
ENDMDL
