MODEL 1
REMARK minimizedAffinity -1.24655938
REMARK minimizedRMSD -1
REMARK  2 active torsions:
REMARK  status: ('A' for Active; 'I' for Inactive)
REMARK    1  A    between atoms: C1_2  and  C2_3 
REMARK    2  A    between atoms: C2_3  and  C3_4 
ROOT
ATOM      1  C3  UNL d   1      -0.706  -0.233  -0.462  0.00  0.00    -0.075 A 
ATOM      2  C4  UNL d   1       0.552  -0.005   0.113  0.00  0.00     0.002 A 
ATOM      3  C5  UNL d   1       0.658   0.487   1.414  0.00  0.00     0.002 A 
ATOM      4  C6  UNL d   1      -0.490   0.766   2.152  0.00  0.00    -0.004 A 
ATOM      5  C7  UNL d   1      -1.746   0.559   1.585  0.00  0.00     0.002 A 
ATOM      6  C8  UNL d   1      -1.854   0.062   0.285  0.00  0.00     0.002 A 
ENDROOT
BRANCH   1   7
ATOM      7  C2  UNL d   1      -0.827  -0.794  -1.859  0.00  0.00     0.056 C 
BRANCH   7   8
ATOM      8  C1  UNL d   1       0.129  -0.155  -2.872  0.00  0.00     0.007 C 
ATOM      9  C   UNL d   1      -0.230  -0.471  -4.318  0.00  0.00     0.009 C 
ENDBRANCH   7   8
ENDBRANCH   1   7
TORSDOF 2
ENDMDL
