MODEL 1
REMARK minimizedAffinity -3.44064116
REMARK minimizedRMSD -1
REMARK  2 active torsions:
REMARK  status: ('A' for Active; 'I' for Inactive)
REMARK    1  A    between atoms: C1_2  and  C2_3 
REMARK    2  A    between atoms: C2_3  and  C3_4 
ROOT
ATOM      1  C3  UNL d   1       0.331   0.799   0.732  0.00  0.00    -0.075 A 
ATOM      2  C4  UNL d   1       1.488   0.223   1.276  0.00  0.00     0.002 A 
ATOM      3  C5  UNL d   1       2.145  -0.812   0.609  0.00  0.00     0.002 A 
ATOM      4  C6  UNL d   1       1.649  -1.289  -0.602  0.00  0.00    -0.004 A 
ATOM      5  C7  UNL d   1       0.491  -0.735  -1.143  0.00  0.00     0.002 A 
ATOM      6  C8  UNL d   1      -0.166   0.303  -0.480  0.00  0.00     0.002 A 
ENDROOT
BRANCH   1   7
ATOM      7  C2  UNL d   1      -0.368   1.939   1.435  0.00  0.00     0.056 C 
BRANCH   7   8
ATOM      8  C1  UNL d   1      -0.908   1.578   2.823  0.00  0.00     0.007 C 
ATOM      9  C   UNL d   1      -1.897   0.421   2.800  0.00  0.00     0.009 C 
ENDBRANCH   7   8
ENDBRANCH   1   7
TORSDOF 2
ENDMDL
