MODEL 1
REMARK minimizedAffinity -4.39641666
REMARK minimizedRMSD -1
REMARK  2 active torsions:
REMARK  status: ('A' for Active; 'I' for Inactive)
REMARK    1  A    between atoms: C1_2  and  C2_3 
REMARK    2  A    between atoms: C2_3  and  C3_4 
ROOT
ATOM      1  C3  UNL d   1      -0.057  -0.107  -0.312  0.00  0.00    -0.075 A 
ATOM      2  C4  UNL d   1      -1.402   0.043   0.057  0.00  0.00     0.002 A 
ATOM      3  C5  UNL d   1      -1.740   0.624   1.279  0.00  0.00     0.002 A 
ATOM      4  C6  UNL d   1      -0.741   1.053   2.150  0.00  0.00    -0.004 A 
ATOM      5  C7  UNL d   1       0.598   0.895   1.801  0.00  0.00     0.002 A 
ATOM      6  C8  UNL d   1       0.940   0.317   0.577  0.00  0.00     0.002 A 
ENDROOT
BRANCH   1   7
ATOM      7  C2  UNL d   1       0.316  -0.708  -1.646  0.00  0.00     0.056 C 
BRANCH   7   8
ATOM      8  C1  UNL d   1       1.221   0.184  -2.502  0.00  0.00     0.007 C 
ATOM      9  C   UNL d   1       0.847   0.179  -3.978  0.00  0.00     0.009 C 
ENDBRANCH   7   8
ENDBRANCH   1   7
TORSDOF 2
ENDMDL
