MODEL 1
REMARK minimizedAffinity -3.34294128
REMARK minimizedRMSD -1
REMARK  2 active torsions:
REMARK  status: ('A' for Active; 'I' for Inactive)
REMARK    1  A    between atoms: C1_2  and  C2_3 
REMARK    2  A    between atoms: C2_3  and  C3_4 
ROOT
ATOM      1  C3  UNL d   1       0.401   0.731   1.388  0.00  0.00    -0.075 A 
ATOM      2  C4  UNL d   1       1.579  -0.000   1.179  0.00  0.00     0.002 A 
ATOM      3  C5  UNL d   1       1.670  -0.913   0.128  0.00  0.00     0.002 A 
ATOM      4  C6  UNL d   1       0.583  -1.114  -0.719  0.00  0.00    -0.004 A 
ATOM      5  C7  UNL d   1      -0.599  -0.405  -0.511  0.00  0.00     0.002 A 
ATOM      6  C8  UNL d   1      -0.691   0.512   0.537  0.00  0.00     0.002 A 
ENDROOT
BRANCH   1   7
ATOM      7  C2  UNL d   1       0.307   1.742   2.506  0.00  0.00     0.056 C 
BRANCH   7   8
ATOM      8  C1  UNL d   1      -0.942   1.591   3.380  0.00  0.00     0.007 C 
ATOM      9  C   UNL d   1      -1.543   0.192   3.331  0.00  0.00     0.009 C 
ENDBRANCH   7   8
ENDBRANCH   1   7
TORSDOF 2
ENDMDL
