MODEL 1
REMARK minimizedAffinity 3.81324363
REMARK minimizedRMSD -1
REMARK  2 active torsions:
REMARK  status: ('A' for Active; 'I' for Inactive)
REMARK    1  A    between atoms: C1_2  and  C2_3 
REMARK    2  A    between atoms: C2_3  and  C3_4 
ROOT
ATOM      1  C3  UNL d   1      -0.809  -0.273  -0.321  0.00  0.00    -0.075 A 
ATOM      2  C4  UNL d   1       0.111  -0.316   0.736  0.00  0.00     0.002 A 
ATOM      3  C5  UNL d   1      -0.289  -0.007   2.037  0.00  0.00     0.002 A 
ATOM      4  C6  UNL d   1      -1.608   0.359   2.294  0.00  0.00    -0.004 A 
ATOM      5  C7  UNL d   1      -2.527   0.421   1.249  0.00  0.00     0.002 A 
ATOM      6  C8  UNL d   1      -2.130   0.108  -0.053  0.00  0.00     0.002 A 
ENDROOT
BRANCH   1   7
ATOM      7  C2  UNL d   1      -0.389  -0.634  -1.726  0.00  0.00     0.056 C 
BRANCH   7   8
ATOM      8  C1  UNL d   1      -0.344   0.556  -2.690  0.00  0.00     0.007 C 
ATOM      9  C   UNL d   1      -0.296   0.141  -4.154  0.00  0.00     0.009 C 
ENDBRANCH   7   8
ENDBRANCH   1   7
TORSDOF 2
ENDMDL
