MODEL 1
REMARK minimizedAffinity -3.32154441
REMARK minimizedRMSD -1
REMARK  2 active torsions:
REMARK  status: ('A' for Active; 'I' for Inactive)
REMARK    1  A    between atoms: C1_2  and  C2_3 
REMARK    2  A    between atoms: C2_3  and  C3_4 
ROOT
ATOM      1  C3  UNL d   1       0.250   0.302  -0.611  0.00  0.00    -0.075 A 
ATOM      2  C4  UNL d   1       0.601   0.988   0.560  0.00  0.00     0.002 A 
ATOM      3  C5  UNL d   1      -0.176   0.867   1.712  0.00  0.00     0.002 A 
ATOM      4  C6  UNL d   1      -1.318   0.069   1.705  0.00  0.00    -0.004 A 
ATOM      5  C7  UNL d   1      -1.686  -0.604   0.542  0.00  0.00     0.002 A 
ATOM      6  C8  UNL d   1      -0.907  -0.488  -0.611  0.00  0.00     0.002 A 
ENDROOT
BRANCH   1   7
ATOM      7  C2  UNL d   1       1.103   0.406  -1.853  0.00  0.00     0.056 C 
BRANCH   7   8
ATOM      8  C1  UNL d   1       0.368   0.043  -3.147  0.00  0.00     0.007 C 
ATOM      9  C   UNL d   1       0.911   0.771  -4.370  0.00  0.00     0.009 C 
ENDBRANCH   7   8
ENDBRANCH   1   7
TORSDOF 2
ENDMDL
