MODEL 1
REMARK minimizedAffinity 4.11317015
REMARK minimizedRMSD -1
REMARK  2 active torsions:
REMARK  status: ('A' for Active; 'I' for Inactive)
REMARK    1  A    between atoms: C1_2  and  C2_3 
REMARK    2  A    between atoms: C2_3  and  C3_4 
ROOT
ATOM      1  C3  UNL d   1       4.022  -0.505  -3.435  0.00  0.00    -0.075 A 
ATOM      2  C4  UNL d   1       4.266  -0.560  -4.815  0.00  0.00     0.002 A 
ATOM      3  C5  UNL d   1       5.245  -1.411  -5.328  0.00  0.00     0.002 A 
ATOM      4  C6  UNL d   1       5.998  -2.209  -4.470  0.00  0.00    -0.004 A 
ATOM      5  C7  UNL d   1       5.776  -2.151  -3.096  0.00  0.00     0.002 A 
ATOM      6  C8  UNL d   1       4.794  -1.303  -2.580  0.00  0.00     0.002 A 
ENDROOT
BRANCH   1   7
ATOM      7  C2  UNL d   1       2.944   0.392  -2.876  0.00  0.00     0.056 C 
BRANCH   7   8
ATOM      8  C1  UNL d   1       1.896   0.824  -3.907  0.00  0.00     0.007 C 
ATOM      9  C   UNL d   1       0.900  -0.276  -4.249  0.00  0.00     0.009 C 
ENDBRANCH   7   8
ENDBRANCH   1   7
TORSDOF 2
ENDMDL
