MODEL 1
REMARK minimizedAffinity -0.297170877
REMARK minimizedRMSD -1
REMARK  0 active torsions:
REMARK  status: ('A' for Active; 'I' for Inactive)
ROOT
ATOM      1  C   UNL d   1      -1.087   2.236   1.477  0.00  0.00    -0.002 A 
ATOM      2  C1  UNL d   1      -1.129   2.835   0.226  0.00  0.00     0.010 A 
ATOM      3  C2  UNL d   1      -0.708   2.138  -0.909  0.00  0.00     0.041 A 
ATOM      4  C3  UNL d   1      -0.241   0.817  -0.763  0.00  0.00    -0.075 A 
ATOM      5  S   UNL d   1       0.325  -0.229  -2.012  0.00  0.00     0.015 SA
ATOM      6  C4  UNL d   1       0.634  -1.495  -0.913  0.00  0.00     0.022 A 
ATOM      7  C5  UNL d   1       0.319  -1.146   0.378  0.00  0.00     0.026 A 
ATOM      8  C6  UNL d   1      -0.191   0.192   0.486  0.00  0.00    -0.082 A 
ATOM      9  C7  UNL d   1      -0.624   0.925   1.617  0.00  0.00     0.045 A 
ENDROOT
TORSDOF 0
ENDMDL
