MODEL 1
REMARK minimizedAffinity 1.12028837
REMARK minimizedRMSD -1
REMARK  0 active torsions:
REMARK  status: ('A' for Active; 'I' for Inactive)
ROOT
ATOM      1  C   UNL d   1       0.020  -3.534  -1.520  0.00  0.00    -0.002 A 
ATOM      2  C1  UNL d   1      -0.978  -2.932  -2.273  0.00  0.00     0.010 A 
ATOM      3  C2  UNL d   1      -1.238  -1.567  -2.145  0.00  0.00     0.041 A 
ATOM      4  C3  UNL d   1      -0.469  -0.808  -1.241  0.00  0.00    -0.075 A 
ATOM      5  S   UNL d   1      -0.609   0.880  -0.919  0.00  0.00     0.015 SA
ATOM      6  C4  UNL d   1       0.654   0.842   0.225  0.00  0.00     0.022 A 
ATOM      7  C5  UNL d   1       1.181  -0.420   0.370  0.00  0.00     0.026 A 
ATOM      8  C6  UNL d   1       0.542  -1.392  -0.473  0.00  0.00    -0.082 A 
ATOM      9  C7  UNL d   1       0.781  -2.779  -0.624  0.00  0.00     0.045 A 
ENDROOT
TORSDOF 0
ENDMDL
