MODEL 1
REMARK minimizedAffinity -0.87594986
REMARK minimizedRMSD -1
REMARK  0 active torsions:
REMARK  status: ('A' for Active; 'I' for Inactive)
ROOT
ATOM      1  C   UNL d   1      -0.040  -1.106  -0.913  0.00  0.00    -0.002 A 
ATOM      2  C1  UNL d   1       1.138  -1.149  -0.181  0.00  0.00     0.010 A 
ATOM      3  C2  UNL d   1       1.426  -0.158   0.760  0.00  0.00     0.041 A 
ATOM      4  C3  UNL d   1       0.501   0.886   0.956  0.00  0.00    -0.075 A 
ATOM      5  S   UNL d   1       0.641   2.207   2.054  0.00  0.00     0.015 SA
ATOM      6  C4  UNL d   1      -0.859   2.860   1.577  0.00  0.00     0.022 A 
ATOM      7  C5  UNL d   1      -1.466   2.101   0.605  0.00  0.00     0.026 A 
ATOM      8  C6  UNL d   1      -0.693   0.950   0.231  0.00  0.00    -0.082 A 
ATOM      9  C7  UNL d   1      -0.955  -0.069  -0.716  0.00  0.00     0.045 A 
ENDROOT
TORSDOF 0
ENDMDL
