MODEL 1
REMARK minimizedAffinity -0.319307595
REMARK minimizedRMSD -1
REMARK  0 active torsions:
REMARK  status: ('A' for Active; 'I' for Inactive)
ROOT
ATOM      1  C   UNL d   1       0.389   0.707   2.826  0.00  0.00    -0.002 A 
ATOM      2  C1  UNL d   1      -0.091   1.842   2.186  0.00  0.00     0.010 A 
ATOM      3  C2  UNL d   1      -0.215   1.874   0.796  0.00  0.00     0.041 A 
ATOM      4  C3  UNL d   1       0.153   0.736   0.052  0.00  0.00    -0.075 A 
ATOM      5  S   UNL d   1       0.086   0.547  -1.661  0.00  0.00     0.015 SA
ATOM      6  C4  UNL d   1       0.691  -1.044  -1.584  0.00  0.00     0.022 A 
ATOM      7  C5  UNL d   1       0.944  -1.438  -0.291  0.00  0.00     0.026 A 
ATOM      8  C6  UNL d   1       0.638  -0.418   0.673  0.00  0.00    -0.082 A 
ATOM      9  C7  UNL d   1       0.753  -0.420   2.084  0.00  0.00     0.045 A 
ENDROOT
TORSDOF 0
ENDMDL
