MODEL 1
REMARK minimizedAffinity 3.35722184
REMARK minimizedRMSD -1
REMARK  0 active torsions:
REMARK  status: ('A' for Active; 'I' for Inactive)
ROOT
ATOM      1  C   UNL d   1      -3.750   0.142   6.000  0.00  0.00     0.172 C 
ATOM      2  N   UNL d   1      -3.064  -1.032   5.515  0.00  0.00    -0.070 N 
ATOM      3  C1  UNL d   1      -3.498  -1.852   4.508  0.00  0.00    -0.004 A 
ATOM      4  C2  UNL d   1      -2.565  -2.854   4.347  0.00  0.00    -0.047 A 
ATOM      5  C3  UNL d   1      -1.535  -2.628   5.290  0.00  0.00    -0.047 A 
ATOM      6  C4  UNL d   1      -1.869  -1.494   6.000  0.00  0.00    -0.004 A 
ENDROOT
TORSDOF 0
ENDMDL
