MODEL 1
REMARK minimizedAffinity 7.57117748
REMARK minimizedRMSD -1
REMARK  0 active torsions:
REMARK  status: ('A' for Active; 'I' for Inactive)
ROOT
ATOM      1  C   UNL d   1      -3.734   3.020   5.949  0.00  0.00     0.172 C 
ATOM      2  N   UNL d   1      -4.392   1.734   5.958  0.00  0.00    -0.070 N 
ATOM      3  C1  UNL d   1      -3.765   0.517   5.959  0.00  0.00    -0.004 A 
ATOM      4  C2  UNL d   1      -4.738  -0.459   5.970  0.00  0.00    -0.047 A 
ATOM      5  C3  UNL d   1      -5.993   0.194   5.975  0.00  0.00    -0.047 A 
ATOM      6  C4  UNL d   1      -5.749   1.552   5.968  0.00  0.00    -0.004 A 
ENDROOT
TORSDOF 0
ENDMDL
