MODEL 1
REMARK minimizedAffinity 9.14291763
REMARK minimizedRMSD -1
REMARK  0 active torsions:
REMARK  status: ('A' for Active; 'I' for Inactive)
ROOT
ATOM      1  C   UNL d   1      -2.297  -2.871   3.038  0.00  0.00     0.172 C 
ATOM      2  N   UNL d   1      -2.028  -2.586   1.648  0.00  0.00    -0.070 N 
ATOM      3  C1  UNL d   1      -2.767  -1.759   0.845  0.00  0.00    -0.004 A 
ATOM      4  C2  UNL d   1      -2.186  -1.754  -0.405  0.00  0.00    -0.047 A 
ATOM      5  C3  UNL d   1      -1.059  -2.608  -0.351  0.00  0.00    -0.047 A 
ATOM      6  C4  UNL d   1      -0.984  -3.110   0.931  0.00  0.00    -0.004 A 
ENDROOT
TORSDOF 0
ENDMDL
