MODEL 1
REMARK minimizedAffinity 2.05952978
REMARK minimizedRMSD -1
REMARK  0 active torsions:
REMARK  status: ('A' for Active; 'I' for Inactive)
ROOT
ATOM      1  C   UNL d   1      -2.253  -1.045   5.023  0.00  0.00     0.172 C 
ATOM      2  N   UNL d   1      -3.380  -0.233   5.419  0.00  0.00    -0.070 N 
ATOM      3  C1  UNL d   1      -3.355   1.119   5.631  0.00  0.00    -0.004 A 
ATOM      4  C2  UNL d   1      -4.625   1.513   5.992  0.00  0.00    -0.047 A 
ATOM      5  C3  UNL d   1      -5.442   0.358   5.997  0.00  0.00    -0.047 A 
ATOM      6  C4  UNL d   1      -4.646  -0.709   5.639  0.00  0.00    -0.004 A 
ENDROOT
TORSDOF 0
ENDMDL
