MODEL 1
REMARK minimizedAffinity 2.4636147
REMARK minimizedRMSD -1
REMARK  0 active torsions:
REMARK  status: ('A' for Active; 'I' for Inactive)
ROOT
ATOM      1  C   UNL d   1      -4.541   4.414   5.998  0.00  0.00     0.172 C 
ATOM      2  N   UNL d   1      -4.519   2.970   5.984  0.00  0.00    -0.070 N 
ATOM      3  C1  UNL d   1      -3.395   2.189   5.954  0.00  0.00    -0.004 A 
ATOM      4  C2  UNL d   1      -3.797   0.871   5.950  0.00  0.00    -0.047 A 
ATOM      5  C3  UNL d   1      -5.212   0.860   5.979  0.00  0.00    -0.047 A 
ATOM      6  C4  UNL d   1      -5.633   2.173   6.000  0.00  0.00    -0.004 A 
ENDROOT
TORSDOF 0
ENDMDL
