MODEL 1
REMARK minimizedAffinity 6.30725956
REMARK minimizedRMSD -1
REMARK  0 active torsions:
REMARK  status: ('A' for Active; 'I' for Inactive)
ROOT
ATOM      1  C   UNL d   1       4.924   5.073  -0.210  0.00  0.00     0.172 C 
ATOM      2  N   UNL d   1       4.141   3.869  -0.058  0.00  0.00    -0.070 N 
ATOM      3  C1  UNL d   1       3.947   3.185   1.112  0.00  0.00    -0.004 A 
ATOM      4  C2  UNL d   1       3.144   2.099   0.838  0.00  0.00    -0.047 A 
ATOM      5  C3  UNL d   1       2.845   2.131  -0.545  0.00  0.00    -0.047 A 
ATOM      6  C4  UNL d   1       3.475   3.238  -1.075  0.00  0.00    -0.004 A 
ENDROOT
TORSDOF 0
ENDMDL
