MODEL 1
REMARK minimizedAffinity 8.18739605
REMARK minimizedRMSD -1
REMARK  0 active torsions:
REMARK  status: ('A' for Active; 'I' for Inactive)
ROOT
ATOM      1  C   UNL d   1      -4.406   0.351   5.998  0.00  0.00     0.172 C 
ATOM      2  N   UNL d   1      -3.292  -0.516   5.695  0.00  0.00    -0.070 N 
ATOM      3  C1  UNL d   1      -3.302  -1.883   5.764  0.00  0.00    -0.004 A 
ATOM      4  C2  UNL d   1      -2.052  -2.334   5.398  0.00  0.00    -0.047 A 
ATOM      5  C3  UNL d   1      -1.263  -1.198   5.099  0.00  0.00    -0.047 A 
ATOM      6  C4  UNL d   1      -2.055  -0.086   5.291  0.00  0.00    -0.004 A 
ENDROOT
TORSDOF 0
ENDMDL
