MODEL 1
REMARK minimizedAffinity 6.45764065
REMARK minimizedRMSD -1
REMARK  0 active torsions:
REMARK  status: ('A' for Active; 'I' for Inactive)
ROOT
ATOM      1  C   UNL d   1      -0.628  -3.008   0.285  0.00  0.00     0.172 C 
ATOM      2  N   UNL d   1      -1.423  -2.118  -0.527  0.00  0.00    -0.070 N 
ATOM      3  C1  UNL d   1      -1.090  -1.666  -1.776  0.00  0.00    -0.004 A 
ATOM      4  C2  UNL d   1      -2.106  -0.842  -2.211  0.00  0.00    -0.047 A 
ATOM      5  C3  UNL d   1      -3.082  -0.797  -1.188  0.00  0.00    -0.047 A 
ATOM      6  C4  UNL d   1      -2.634  -1.595  -0.157  0.00  0.00    -0.004 A 
ENDROOT
TORSDOF 0
ENDMDL
