MODEL 1
REMARK minimizedAffinity 3.60169721
REMARK minimizedRMSD -1
REMARK  0 active torsions:
REMARK  status: ('A' for Active; 'I' for Inactive)
ROOT
ATOM      1  C   UNL d   1      -2.974  -0.870   4.905  0.00  0.00     0.172 C 
ATOM      2  N   UNL d   1      -3.967   0.079   5.350  0.00  0.00    -0.070 N 
ATOM      3  C1  UNL d   1      -5.285  -0.200   5.593  0.00  0.00    -0.004 A 
ATOM      4  C2  UNL d   1      -5.895   0.967   6.000  0.00  0.00    -0.047 A 
ATOM      5  C3  UNL d   1      -4.910   1.983   6.000  0.00  0.00    -0.047 A 
ATOM      6  C4  UNL d   1      -3.725   1.405   5.594  0.00  0.00    -0.004 A 
ENDROOT
TORSDOF 0
ENDMDL
