MODEL 1
REMARK minimizedAffinity 6.64029741
REMARK minimizedRMSD -1
REMARK  0 active torsions:
REMARK  status: ('A' for Active; 'I' for Inactive)
ROOT
ATOM      1  C   UNL d   1      -5.703   3.636   5.888  0.00  0.00     0.172 C 
ATOM      2  N   UNL d   1      -5.193   2.285   5.916  0.00  0.00    -0.070 N 
ATOM      3  C1  UNL d   1      -3.871   1.929   5.871  0.00  0.00    -0.004 A 
ATOM      4  C2  UNL d   1      -3.803   0.554   5.920  0.00  0.00    -0.047 A 
ATOM      5  C3  UNL d   1      -5.129   0.066   5.995  0.00  0.00    -0.047 A 
ATOM      6  C4  UNL d   1      -5.970   1.159   5.991  0.00  0.00    -0.004 A 
ENDROOT
TORSDOF 0
ENDMDL
