MODEL 1
REMARK minimizedAffinity 5.83137655
REMARK minimizedRMSD -1
REMARK  0 active torsions:
REMARK  status: ('A' for Active; 'I' for Inactive)
ROOT
ATOM      1  C   UNL d   1       2.751   2.468  -0.695  0.00  0.00     0.172 C 
ATOM      2  N   UNL d   1       1.897   1.766  -1.624  0.00  0.00    -0.070 N 
ATOM      3  C1  UNL d   1       1.284   2.317  -2.718  0.00  0.00    -0.004 A 
ATOM      4  C2  UNL d   1       0.561   1.323  -3.342  0.00  0.00    -0.047 A 
ATOM      5  C3  UNL d   1       0.745   0.134  -2.597  0.00  0.00    -0.047 A 
ATOM      6  C4  UNL d   1       1.576   0.437  -1.539  0.00  0.00    -0.004 A 
ENDROOT
TORSDOF 0
ENDMDL
