MODEL 1
REMARK minimizedAffinity 2.941504
REMARK minimizedRMSD -1
REMARK  0 active torsions:
REMARK  status: ('A' for Active; 'I' for Inactive)
ROOT
ATOM      1  C   UNL d   1      -5.982   2.230   6.000  0.00  0.00     0.172 C 
ATOM      2  N   UNL d   1      -4.930   1.270   5.760  0.00  0.00    -0.070 N 
ATOM      3  C1  UNL d   1      -5.101   0.006   5.264  0.00  0.00    -0.004 A 
ATOM      4  C2  UNL d   1      -3.859  -0.587   5.184  0.00  0.00    -0.047 A 
ATOM      5  C3  UNL d   1      -2.910   0.353   5.650  0.00  0.00    -0.047 A 
ATOM      6  C4  UNL d   1      -3.600   1.494   6.000  0.00  0.00    -0.004 A 
ENDROOT
TORSDOF 0
ENDMDL
