MODEL 1
REMARK minimizedAffinity 5.24163389
REMARK minimizedRMSD -1
REMARK  0 active torsions:
REMARK  status: ('A' for Active; 'I' for Inactive)
ROOT
ATOM      1  C   UNL d   1      -2.636  -3.339   3.133  0.00  0.00     0.172 C 
ATOM      2  N   UNL d   1      -2.127  -2.985   1.829  0.00  0.00    -0.070 N 
ATOM      3  C1  UNL d   1      -1.093  -3.605   1.180  0.00  0.00    -0.004 A 
ATOM      4  C2  UNL d   1      -0.916  -2.974  -0.032  0.00  0.00    -0.047 A 
ATOM      5  C3  UNL d   1      -1.876  -1.937  -0.114  0.00  0.00    -0.047 A 
ATOM      6  C4  UNL d   1      -2.612  -1.966   1.052  0.00  0.00    -0.004 A 
ENDROOT
TORSDOF 0
ENDMDL
