MODEL 1
REMARK minimizedAffinity 6.60133553
REMARK minimizedRMSD -1
REMARK  1 active torsions:
REMARK  status: ('A' for Active; 'I' for Inactive)
REMARK    1  A    between atoms: N_2  and  C1_3 
ROOT
ATOM      1  C1  UNL d   1      -0.841   1.728   0.107  0.00  0.00     0.143 A 
ATOM      2  C2  UNL d   1      -2.084   2.366   0.170  0.00  0.00    -0.057 A 
ATOM      3  C3  UNL d   1      -2.723   2.593   1.395  0.00  0.00     0.033 A 
ATOM      4  C4  UNL d   1      -2.141   2.158   2.581  0.00  0.00    -0.042 A 
ATOM      5  C5  UNL d   1      -0.918   1.499   2.540  0.00  0.00     0.033 A 
ATOM      6  C6  UNL d   1      -0.282   1.281   1.314  0.00  0.00    -0.057 A 
ENDROOT
BRANCH   1   7
ATOM      7  N   UNL d   1      -0.202   1.386  -1.087  0.00  0.00    -0.732 N 
ATOM      8  C   UNL d   1       0.448   0.101  -1.233  0.00  0.00     0.284 C 
ATOM      9  H3  UNL d   1      -0.726   1.682  -1.907  0.00  0.00     0.395 HD
ENDBRANCH   1   7
TORSDOF 1
ENDMDL
