MODEL 1
REMARK minimizedAffinity 5.31067848
REMARK minimizedRMSD -1
REMARK  1 active torsions:
REMARK  status: ('A' for Active; 'I' for Inactive)
REMARK    1  A    between atoms: N_2  and  C1_3 
ROOT
ATOM      1  C1  UNL d   1       3.760  -3.513  -4.197  0.00  0.00     0.143 A 
ATOM      2  C2  UNL d   1       3.434  -4.553  -3.321  0.00  0.00    -0.057 A 
ATOM      3  C3  UNL d   1       4.362  -5.037  -2.391  0.00  0.00     0.033 A 
ATOM      4  C4  UNL d   1       5.646  -4.505  -2.340  0.00  0.00    -0.042 A 
ATOM      5  C5  UNL d   1       6.000  -3.487  -3.218  0.00  0.00     0.033 A 
ATOM      6  C6  UNL d   1       5.067  -3.004  -4.140  0.00  0.00    -0.057 A 
ENDROOT
BRANCH   1   7
ATOM      7  N   UNL d   1       2.914  -3.055  -5.211  0.00  0.00    -0.732 N 
ATOM      8  C   UNL d   1       2.139  -1.846  -5.034  0.00  0.00     0.284 C 
ATOM      9  H3  UNL d   1       3.327  -3.154  -6.135  0.00  0.00     0.395 HD
ENDBRANCH   1   7
TORSDOF 1
ENDMDL
