MODEL 1
REMARK minimizedAffinity 5.08022881
REMARK minimizedRMSD -1
REMARK  1 active torsions:
REMARK  status: ('A' for Active; 'I' for Inactive)
REMARK    1  A    between atoms: N_2  and  C1_3 
ROOT
ATOM      1  C1  UNL d   1      -4.840  -3.757   5.549  0.00  0.00     0.143 A 
ATOM      2  C2  UNL d   1      -4.635  -2.441   5.979  0.00  0.00    -0.057 A 
ATOM      3  C3  UNL d   1      -3.494  -1.724   5.601  0.00  0.00     0.033 A 
ATOM      4  C4  UNL d   1      -2.519  -2.322   4.809  0.00  0.00    -0.042 A 
ATOM      5  C5  UNL d   1      -2.690  -3.637   4.391  0.00  0.00     0.033 A 
ATOM      6  C6  UNL d   1      -3.835  -4.346   4.765  0.00  0.00    -0.057 A 
ENDROOT
BRANCH   1   7
ATOM      7  N   UNL d   1      -5.906  -4.555   5.970  0.00  0.00    -0.732 N 
ATOM      8  C   UNL d   1      -5.809  -5.999   5.926  0.00  0.00     0.284 C 
ATOM      9  H3  UNL d   1      -6.353  -4.195   6.810  0.00  0.00     0.395 HD
ENDBRANCH   1   7
TORSDOF 1
ENDMDL
