MODEL 1
REMARK minimizedAffinity 8.50163269
REMARK minimizedRMSD -1
REMARK  1 active torsions:
REMARK  status: ('A' for Active; 'I' for Inactive)
REMARK    1  A    between atoms: N_2  and  C1_3 
ROOT
ATOM      1  C1  UNL d   1      -1.519   0.122   3.120  0.00  0.00     0.143 A 
ATOM      2  C2  UNL d   1      -0.155   0.319   2.882  0.00  0.00    -0.057 A 
ATOM      3  C3  UNL d   1       0.296   1.358   2.058  0.00  0.00     0.033 A 
ATOM      4  C4  UNL d   1      -0.615   2.202   1.432  0.00  0.00    -0.042 A 
ATOM      5  C5  UNL d   1      -1.977   2.009   1.634  0.00  0.00     0.033 A 
ATOM      6  C6  UNL d   1      -2.420   0.974   2.463  0.00  0.00    -0.057 A 
ENDROOT
BRANCH   1   7
ATOM      7  N   UNL d   1      -2.034  -0.953   3.849  0.00  0.00    -0.732 N 
ATOM      8  C   UNL d   1      -1.310  -2.203   3.930  0.00  0.00     0.284 C 
ATOM      9  H3  UNL d   1      -2.456  -0.659   4.727  0.00  0.00     0.395 HD
ENDBRANCH   1   7
TORSDOF 1
ENDMDL
