MODEL 1
REMARK minimizedAffinity 1.67296338
REMARK minimizedRMSD -1
REMARK  1 active torsions:
REMARK  status: ('A' for Active; 'I' for Inactive)
REMARK    1  A    between atoms: N_2  and  C1_3 
ROOT
ATOM      1  C1  UNL d   1       4.790  -2.824  -1.487  0.00  0.00     0.143 A 
ATOM      2  C2  UNL d   1       3.689  -2.151  -0.949  0.00  0.00    -0.057 A 
ATOM      3  C3  UNL d   1       3.724  -1.620   0.346  0.00  0.00     0.033 A 
ATOM      4  C4  UNL d   1       4.856  -1.779   1.139  0.00  0.00    -0.042 A 
ATOM      5  C5  UNL d   1       5.954  -2.466   0.633  0.00  0.00     0.033 A 
ATOM      6  C6  UNL d   1       5.915  -2.988  -0.663  0.00  0.00    -0.057 A 
ENDROOT
BRANCH   1   7
ATOM      7  N   UNL d   1       4.781  -3.460  -2.731  0.00  0.00    -0.732 N 
ATOM      8  C   UNL d   1       3.655  -4.273  -3.136  0.00  0.00     0.284 C 
ATOM      9  H3  UNL d   1       5.156  -2.871  -3.471  0.00  0.00     0.395 HD
ENDBRANCH   1   7
TORSDOF 1
ENDMDL
