MODEL 1
REMARK minimizedAffinity 7.48642015
REMARK minimizedRMSD -1
REMARK  1 active torsions:
REMARK  status: ('A' for Active; 'I' for Inactive)
REMARK    1  A    between atoms: N_2  and  C1_3 
ROOT
ATOM      1  C1  UNL d   1      -1.911   0.552   2.626  0.00  0.00     0.143 A 
ATOM      2  C2  UNL d   1      -0.605   1.036   2.494  0.00  0.00    -0.057 A 
ATOM      3  C3  UNL d   1      -0.297   2.056   1.585  0.00  0.00     0.033 A 
ATOM      4  C4  UNL d   1      -1.288   2.591   0.769  0.00  0.00    -0.042 A 
ATOM      5  C5  UNL d   1      -2.588   2.109   0.865  0.00  0.00     0.033 A 
ATOM      6  C6  UNL d   1      -2.891   1.095   1.779  0.00  0.00    -0.057 A 
ENDROOT
BRANCH   1   7
ATOM      7  N   UNL d   1      -2.263  -0.527   3.440  0.00  0.00    -0.732 N 
ATOM      8  C   UNL d   1      -1.498  -1.756   3.405  0.00  0.00     0.284 C 
ATOM      9  H3  UNL d   1      -2.538  -0.235   4.375  0.00  0.00     0.395 HD
ENDBRANCH   1   7
TORSDOF 1
ENDMDL
