MODEL 1
REMARK minimizedAffinity 10.3331757
REMARK minimizedRMSD -1
REMARK  1 active torsions:
REMARK  status: ('A' for Active; 'I' for Inactive)
REMARK    1  A    between atoms: N_2  and  C1_3 
ROOT
ATOM      1  C1  UNL d   1      -0.957   3.508  -1.271  0.00  0.00     0.143 A 
ATOM      2  C2  UNL d   1      -1.687   2.585  -0.514  0.00  0.00    -0.057 A 
ATOM      3  C3  UNL d   1      -1.187   2.076   0.691  0.00  0.00     0.033 A 
ATOM      4  C4  UNL d   1       0.069   2.462   1.147  0.00  0.00    -0.042 A 
ATOM      5  C5  UNL d   1       0.822   3.360   0.399  0.00  0.00     0.033 A 
ATOM      6  C6  UNL d   1       0.315   3.869  -0.800  0.00  0.00    -0.057 A 
ENDROOT
BRANCH   1   7
ATOM      7  N   UNL d   1      -1.357   3.974  -2.526  0.00  0.00    -0.732 N 
ATOM      8  C   UNL d   1      -1.856   3.058  -3.528  0.00  0.00     0.284 C 
ATOM      9  H3  UNL d   1      -1.873   4.849  -2.469  0.00  0.00     0.395 HD
ENDBRANCH   1   7
TORSDOF 1
ENDMDL
