MODEL 1
REMARK minimizedAffinity -0.432628989
REMARK minimizedRMSD -1
REMARK  2 active torsions:
REMARK  status: ('A' for Active; 'I' for Inactive)
REMARK    1  A    between atoms: C1_2  and  C2_3 
REMARK    2  A    between atoms: C2_3  and  C3_4 
ROOT
ATOM      1  C3  UNL d   1       0.018  -2.576  -0.069  0.00  0.00    -0.075 A 
ATOM      2  C4  UNL d   1      -0.107  -3.567  -1.054  0.00  0.00     0.002 A 
ATOM      3  C5  UNL d   1      -1.355  -3.872  -1.598  0.00  0.00     0.002 A 
ATOM      4  C6  UNL d   1      -2.493  -3.200  -1.158  0.00  0.00    -0.004 A 
ATOM      5  C7  UNL d   1      -2.383  -2.226  -0.168  0.00  0.00     0.002 A 
ATOM      6  C8  UNL d   1      -1.135  -1.915   0.375  0.00  0.00     0.002 A 
ENDROOT
BRANCH   1   7
ATOM      7  C2  UNL d   1       1.370  -2.221   0.502  0.00  0.00     0.056 C 
BRANCH   7   8
ATOM      8  C1  UNL d   1       2.059  -1.051  -0.208  0.00  0.00     0.007 C 
ATOM      9  C   UNL d   1       1.984   0.254   0.574  0.00  0.00     0.009 C 
ENDBRANCH   7   8
ENDBRANCH   1   7
TORSDOF 2
ENDMDL
