MODEL 1
REMARK minimizedAffinity 6.61113548
REMARK minimizedRMSD -1
REMARK  2 active torsions:
REMARK  status: ('A' for Active; 'I' for Inactive)
REMARK    1  A    between atoms: C1_2  and  C2_3 
REMARK    2  A    between atoms: C2_3  and  C3_4 
ROOT
ATOM      1  C3  UNL d   1       4.033   4.349   2.882  0.00  0.00    -0.075 A 
ATOM      2  C4  UNL d   1       4.931   3.284   2.728  0.00  0.00     0.002 A 
ATOM      3  C5  UNL d   1       4.496   2.057   2.227  0.00  0.00     0.002 A 
ATOM      4  C6  UNL d   1       3.158   1.876   1.884  0.00  0.00    -0.004 A 
ATOM      5  C7  UNL d   1       2.253   2.923   2.048  0.00  0.00     0.002 A 
ATOM      6  C8  UNL d   1       2.687   4.153   2.545  0.00  0.00     0.002 A 
ENDROOT
BRANCH   1   7
ATOM      7  C2  UNL d   1       4.504   5.689   3.396  0.00  0.00     0.056 C 
BRANCH   7   8
ATOM      8  C1  UNL d   1       4.056   6.000   4.828  0.00  0.00     0.007 C 
ATOM      9  C   UNL d   1       5.204   5.999   5.829  0.00  0.00     0.009 C 
ENDBRANCH   7   8
ENDBRANCH   1   7
TORSDOF 2
ENDMDL
