MODEL 1
REMARK minimizedAffinity 10.9411526
REMARK minimizedRMSD -1
REMARK  2 active torsions:
REMARK  status: ('A' for Active; 'I' for Inactive)
REMARK    1  A    between atoms: C1_2  and  C2_3 
REMARK    2  A    between atoms: C2_3  and  C3_4 
ROOT
ATOM      1  C3  UNL d   1      -1.876  -2.510  -0.300  0.00  0.00    -0.075 A 
ATOM      2  C4  UNL d   1      -2.565  -2.832  -1.479  0.00  0.00     0.002 A 
ATOM      3  C5  UNL d   1      -3.670  -2.080  -1.881  0.00  0.00     0.002 A 
ATOM      4  C6  UNL d   1      -4.105  -1.007  -1.108  0.00  0.00    -0.004 A 
ATOM      5  C7  UNL d   1      -3.438  -0.688   0.073  0.00  0.00     0.002 A 
ATOM      6  C8  UNL d   1      -2.330  -1.436   0.476  0.00  0.00     0.002 A 
ENDROOT
BRANCH   1   7
ATOM      7  C2  UNL d   1      -0.662  -3.301   0.125  0.00  0.00     0.056 C 
BRANCH   7   8
ATOM      8  C1  UNL d   1      -0.196  -4.332  -0.908  0.00  0.00     0.007 C 
ATOM      9  C   UNL d   1      -0.718  -5.736  -0.633  0.00  0.00     0.009 C 
ENDBRANCH   7   8
ENDBRANCH   1   7
TORSDOF 2
ENDMDL
