MODEL 1
REMARK minimizedAffinity 2.82913184
REMARK minimizedRMSD -1
REMARK  2 active torsions:
REMARK  status: ('A' for Active; 'I' for Inactive)
REMARK    1  A    between atoms: C1_2  and  C2_3 
REMARK    2  A    between atoms: C2_3  and  C3_4 
ROOT
ATOM      1  C3  UNL d   1       4.055   4.324   3.030  0.00  0.00    -0.075 A 
ATOM      2  C4  UNL d   1       4.955   3.330   2.618  0.00  0.00     0.002 A 
ATOM      3  C5  UNL d   1       4.490   2.138   2.063  0.00  0.00     0.002 A 
ATOM      4  C6  UNL d   1       3.121   1.921   1.921  0.00  0.00    -0.004 A 
ATOM      5  C7  UNL d   1       2.217   2.894   2.342  0.00  0.00     0.002 A 
ATOM      6  C8  UNL d   1       2.680   4.089   2.894  0.00  0.00     0.002 A 
ENDROOT
BRANCH   1   7
ATOM      7  C2  UNL d   1       4.554   5.628   3.604  0.00  0.00     0.056 C 
BRANCH   7   8
ATOM      8  C1  UNL d   1       4.235   5.817   5.091  0.00  0.00     0.007 C 
ATOM      9  C   UNL d   1       5.477   5.999   5.953  0.00  0.00     0.009 C 
ENDBRANCH   7   8
ENDBRANCH   1   7
TORSDOF 2
ENDMDL
