MODEL 1
REMARK minimizedAffinity 4.79450035
REMARK minimizedRMSD -1
REMARK  2 active torsions:
REMARK  status: ('A' for Active; 'I' for Inactive)
REMARK    1  A    between atoms: C1_2  and  C2_3 
REMARK    2  A    between atoms: C2_3  and  C3_4 
ROOT
ATOM      1  C3  UNL d   1       0.058  -3.157  -0.354  0.00  0.00    -0.075 A 
ATOM      2  C4  UNL d   1      -1.283  -3.021  -0.741  0.00  0.00     0.002 A 
ATOM      3  C5  UNL d   1      -1.962  -4.088  -1.330  0.00  0.00     0.002 A 
ATOM      4  C6  UNL d   1      -1.308  -5.298  -1.549  0.00  0.00    -0.004 A 
ATOM      5  C7  UNL d   1       0.029  -5.439  -1.183  0.00  0.00     0.002 A 
ATOM      6  C8  UNL d   1       0.710  -4.375  -0.589  0.00  0.00     0.002 A 
ENDROOT
BRANCH   1   7
ATOM      7  C2  UNL d   1       0.790  -2.015   0.311  0.00  0.00     0.056 C 
BRANCH   7   8
ATOM      8  C1  UNL d   1       2.105  -1.633  -0.376  0.00  0.00     0.007 C 
ATOM      9  C   UNL d   1       2.495  -0.177  -0.158  0.00  0.00     0.009 C 
ENDBRANCH   7   8
ENDBRANCH   1   7
TORSDOF 2
ENDMDL
