MODEL 1
REMARK minimizedAffinity 3.74149704
REMARK minimizedRMSD -1
REMARK  2 active torsions:
REMARK  status: ('A' for Active; 'I' for Inactive)
REMARK    1  A    between atoms: C1_2  and  C2_3 
REMARK    2  A    between atoms: C2_3  and  C3_4 
ROOT
ATOM      1  C3  UNL d   1      -2.635  -3.813  -0.157  0.00  0.00    -0.075 A 
ATOM      2  C4  UNL d   1      -1.274  -3.838  -0.493  0.00  0.00     0.002 A 
ATOM      3  C5  UNL d   1      -0.400  -2.880   0.020  0.00  0.00     0.002 A 
ATOM      4  C6  UNL d   1      -0.876  -1.879   0.864  0.00  0.00    -0.004 A 
ATOM      5  C7  UNL d   1      -2.229  -1.834   1.191  0.00  0.00     0.002 A 
ATOM      6  C8  UNL d   1      -3.106  -2.795   0.683  0.00  0.00     0.002 A 
ENDROOT
BRANCH   1   7
ATOM      7  C2  UNL d   1      -3.581  -4.865  -0.685  0.00  0.00     0.056 C 
BRANCH   7   8
ATOM      8  C1  UNL d   1      -3.930  -5.957   0.331  0.00  0.00     0.007 C 
ATOM      9  C   UNL d   1      -5.323  -5.800   0.927  0.00  0.00     0.009 C 
ENDBRANCH   7   8
ENDBRANCH   1   7
TORSDOF 2
ENDMDL
