MODEL 1
REMARK minimizedAffinity 5.72969198
REMARK minimizedRMSD -1
REMARK  2 active torsions:
REMARK  status: ('A' for Active; 'I' for Inactive)
REMARK    1  A    between atoms: C1_2  and  C2_3 
REMARK    2  A    between atoms: C2_3  and  C3_4 
ROOT
ATOM      1  C3  UNL d   1       4.028   4.403   2.984  0.00  0.00    -0.075 A 
ATOM      2  C4  UNL d   1       2.666   4.166   2.751  0.00  0.00     0.002 A 
ATOM      3  C5  UNL d   1       2.233   2.928   2.277  0.00  0.00     0.002 A 
ATOM      4  C6  UNL d   1       3.155   1.915   2.021  0.00  0.00    -0.004 A 
ATOM      5  C7  UNL d   1       4.513   2.145   2.233  0.00  0.00     0.002 A 
ATOM      6  C8  UNL d   1       4.948   3.382   2.712  0.00  0.00     0.002 A 
ENDROOT
BRANCH   1   7
ATOM      7  C2  UNL d   1       4.500   5.732   3.525  0.00  0.00     0.056 C 
BRANCH   7   8
ATOM      8  C1  UNL d   1       4.090   5.995   4.978  0.00  0.00     0.007 C 
ATOM      9  C   UNL d   1       5.265   5.980   5.946  0.00  0.00     0.009 C 
ENDBRANCH   7   8
ENDBRANCH   1   7
TORSDOF 2
ENDMDL
