MODEL 1
REMARK minimizedAffinity 10.4954624
REMARK minimizedRMSD -1
REMARK  2 active torsions:
REMARK  status: ('A' for Active; 'I' for Inactive)
REMARK    1  A    between atoms: C1_2  and  C2_3 
REMARK    2  A    between atoms: C2_3  and  C3_4 
ROOT
ATOM      1  C3  UNL d   1      -3.892   0.896   0.119  0.00  0.00    -0.075 A 
ATOM      2  C4  UNL d   1      -3.885   2.292  -0.019  0.00  0.00     0.002 A 
ATOM      3  C5  UNL d   1      -4.894   2.938  -0.733  0.00  0.00     0.002 A 
ATOM      4  C6  UNL d   1      -5.915   2.199  -1.326  0.00  0.00    -0.004 A 
ATOM      5  C7  UNL d   1      -5.924   0.810  -1.208  0.00  0.00     0.002 A 
ATOM      6  C8  UNL d   1      -4.918   0.161  -0.491  0.00  0.00     0.002 A 
ENDROOT
BRANCH   1   7
ATOM      7  C2  UNL d   1      -2.819   0.193   0.916  0.00  0.00     0.056 C 
BRANCH   7   8
ATOM      8  C1  UNL d   1      -2.922  -1.336   0.887  0.00  0.00     0.007 C 
ATOM      9  C   UNL d   1      -1.651  -2.013   0.392  0.00  0.00     0.009 C 
ENDBRANCH   7   8
ENDBRANCH   1   7
TORSDOF 2
ENDMDL
