MODEL 1
REMARK minimizedAffinity 9.98052406
REMARK minimizedRMSD -1
REMARK  2 active torsions:
REMARK  status: ('A' for Active; 'I' for Inactive)
REMARK    1  A    between atoms: C1_2  and  C2_3 
REMARK    2  A    between atoms: C2_3  and  C3_4 
ROOT
ATOM      1  C3  UNL d   1       2.559   2.166   2.121  0.00  0.00    -0.075 A 
ATOM      2  C4  UNL d   1       2.216   3.509   2.337  0.00  0.00     0.002 A 
ATOM      3  C5  UNL d   1       3.208   4.467   2.552  0.00  0.00     0.002 A 
ATOM      4  C6  UNL d   1       4.550   4.094   2.566  0.00  0.00    -0.004 A 
ATOM      5  C7  UNL d   1       4.900   2.760   2.369  0.00  0.00     0.002 A 
ATOM      6  C8  UNL d   1       3.911   1.800   2.149  0.00  0.00     0.002 A 
ENDROOT
BRANCH   1   7
ATOM      7  C2  UNL d   1       1.492   1.130   1.858  0.00  0.00     0.056 C 
BRANCH   7   8
ATOM      8  C1  UNL d   1       1.526   0.546   0.442  0.00  0.00     0.007 C 
ATOM      9  C   UNL d   1       1.965  -0.911   0.404  0.00  0.00     0.009 C 
ENDBRANCH   7   8
ENDBRANCH   1   7
TORSDOF 2
ENDMDL
