MODEL 1
REMARK minimizedAffinity 10.7078772
REMARK minimizedRMSD -1
REMARK  2 active torsions:
REMARK  status: ('A' for Active; 'I' for Inactive)
REMARK    1  A    between atoms: C1_2  and  C2_3 
REMARK    2  A    between atoms: C2_3  and  C3_4 
ROOT
ATOM      1  C3  UNL d   1      -1.378  -3.502  -0.358  0.00  0.00    -0.075 A 
ATOM      2  C4  UNL d   1      -2.764  -3.700  -0.275  0.00  0.00     0.002 A 
ATOM      3  C5  UNL d   1      -3.320  -4.944  -0.575  0.00  0.00     0.002 A 
ATOM      4  C6  UNL d   1      -2.502  -6.000  -0.971  0.00  0.00    -0.004 A 
ATOM      5  C7  UNL d   1      -1.126  -5.809  -1.073  0.00  0.00     0.002 A 
ATOM      6  C8  UNL d   1      -0.565  -4.567  -0.769  0.00  0.00     0.002 A 
ENDROOT
BRANCH   1   7
ATOM      7  C2  UNL d   1      -0.766  -2.167  -0.006  0.00  0.00     0.056 C 
BRANCH   7   8
ATOM      8  C1  UNL d   1       0.708  -2.244   0.402  0.00  0.00     0.007 C 
ATOM      9  C   UNL d   1       1.493  -0.984   0.061  0.00  0.00     0.009 C 
ENDBRANCH   7   8
ENDBRANCH   1   7
TORSDOF 2
ENDMDL
