MODEL 1
REMARK minimizedAffinity 6.24900532
REMARK minimizedRMSD -1
REMARK  2 active torsions:
REMARK  status: ('A' for Active; 'I' for Inactive)
REMARK    1  A    between atoms: C1_2  and  C2_3 
REMARK    2  A    between atoms: C2_3  and  C3_4 
ROOT
ATOM      1  C3  UNL d   1      -1.551  -3.435  -0.502  0.00  0.00    -0.075 A 
ATOM      2  C4  UNL d   1      -2.625  -3.459  -1.404  0.00  0.00     0.002 A 
ATOM      3  C5  UNL d   1      -2.702  -4.446  -2.388  0.00  0.00     0.002 A 
ATOM      4  C6  UNL d   1      -1.704  -5.413  -2.489  0.00  0.00    -0.004 A 
ATOM      5  C7  UNL d   1      -0.624  -5.388  -1.609  0.00  0.00     0.002 A 
ATOM      6  C8  UNL d   1      -0.547  -4.405  -0.621  0.00  0.00     0.002 A 
ENDROOT
BRANCH   1   7
ATOM      7  C2  UNL d   1      -1.477  -2.388   0.583  0.00  0.00     0.056 C 
BRANCH   7   8
ATOM      8  C1  UNL d   1      -2.845  -1.930   1.103  0.00  0.00     0.007 C 
ATOM      9  C   UNL d   1      -2.766  -1.199   2.436  0.00  0.00     0.009 C 
ENDBRANCH   7   8
ENDBRANCH   1   7
TORSDOF 2
ENDMDL
