MODEL 1
REMARK minimizedAffinity 1.46378982
REMARK minimizedRMSD -1
REMARK  2 active torsions:
REMARK  status: ('A' for Active; 'I' for Inactive)
REMARK    1  A    between atoms: C1_2  and  C2_3 
REMARK    2  A    between atoms: C2_3  and  C3_4 
ROOT
ATOM      1  C3  UNL d   1       1.334  -3.285  -0.472  0.00  0.00    -0.075 A 
ATOM      2  C4  UNL d   1      -0.036  -3.010  -0.361  0.00  0.00     0.002 A 
ATOM      3  C5  UNL d   1      -0.982  -3.918  -0.838  0.00  0.00     0.002 A 
ATOM      4  C6  UNL d   1      -0.571  -5.105  -1.440  0.00  0.00    -0.004 A 
ATOM      5  C7  UNL d   1       0.789  -5.381  -1.571  0.00  0.00     0.002 A 
ATOM      6  C8  UNL d   1       1.737  -4.476  -1.090  0.00  0.00     0.002 A 
ENDROOT
BRANCH   1   7
ATOM      7  C2  UNL d   1       2.362  -2.320   0.069  0.00  0.00     0.056 C 
BRANCH   7   8
ATOM      8  C1  UNL d   1       2.333  -0.940  -0.596  0.00  0.00     0.007 C 
ATOM      9  C   UNL d   1       2.032   0.190   0.380  0.00  0.00     0.009 C 
ENDBRANCH   7   8
ENDBRANCH   1   7
TORSDOF 2
ENDMDL
