MODEL 1
REMARK minimizedAffinity 6.62170267
REMARK minimizedRMSD -1
REMARK  2 active torsions:
REMARK  status: ('A' for Active; 'I' for Inactive)
REMARK    1  A    between atoms: C1_2  and  C2_3 
REMARK    2  A    between atoms: C2_3  and  C3_4 
ROOT
ATOM      1  C3  UNL d   1      -0.409   1.331  -5.569  0.00  0.00    -0.075 A 
ATOM      2  C4  UNL d   1       0.102   0.308  -4.757  0.00  0.00     0.002 A 
ATOM      3  C5  UNL d   1       1.437   0.325  -4.352  0.00  0.00     0.002 A 
ATOM      4  C6  UNL d   1       2.278   1.357  -4.759  0.00  0.00    -0.004 A 
ATOM      5  C7  UNL d   1       1.786   2.370  -5.579  0.00  0.00     0.002 A 
ATOM      6  C8  UNL d   1       0.449   2.358  -5.983  0.00  0.00     0.002 A 
ENDROOT
BRANCH   1   7
ATOM      7  C2  UNL d   1      -1.860   1.334  -5.987  0.00  0.00     0.056 C 
BRANCH   7   8
ATOM      8  C1  UNL d   1      -2.523   2.715  -5.931  0.00  0.00     0.007 C 
ATOM      9  C   UNL d   1      -4.043   2.653  -5.983  0.00  0.00     0.009 C 
ENDBRANCH   7   8
ENDBRANCH   1   7
TORSDOF 2
ENDMDL
