MODEL 1
REMARK minimizedAffinity 2.2729671
REMARK minimizedRMSD -1
REMARK  2 active torsions:
REMARK  status: ('A' for Active; 'I' for Inactive)
REMARK    1  A    between atoms: C1_2  and  C2_3 
REMARK    2  A    between atoms: C2_3  and  C3_4 
ROOT
ATOM      1  C3  UNL d   1      -0.112  -2.828   0.058  0.00  0.00    -0.075 A 
ATOM      2  C4  UNL d   1      -0.339  -3.924  -0.787  0.00  0.00     0.002 A 
ATOM      3  C5  UNL d   1      -1.597  -4.134  -1.354  0.00  0.00     0.002 A 
ATOM      4  C6  UNL d   1      -2.644  -3.259  -1.075  0.00  0.00    -0.004 A 
ATOM      5  C7  UNL d   1      -2.435  -2.176  -0.224  0.00  0.00     0.002 A 
ATOM      6  C8  UNL d   1      -1.176  -1.961   0.341  0.00  0.00     0.002 A 
ENDROOT
BRANCH   1   7
ATOM      7  C2  UNL d   1       1.254  -2.579   0.650  0.00  0.00     0.056 C 
BRANCH   7   8
ATOM      8  C1  UNL d   1       2.107  -1.585  -0.145  0.00  0.00     0.007 C 
ATOM      9  C   UNL d   1       2.007  -0.157   0.375  0.00  0.00     0.009 C 
ENDBRANCH   7   8
ENDBRANCH   1   7
TORSDOF 2
ENDMDL
