MODEL 1
REMARK minimizedAffinity 8.84722996
REMARK minimizedRMSD -1
REMARK  2 active torsions:
REMARK  status: ('A' for Active; 'I' for Inactive)
REMARK    1  A    between atoms: C1_2  and  C2_3 
REMARK    2  A    between atoms: C2_3  and  C3_4 
ROOT
ATOM      1  C3  UNL d   1       3.620   1.460   1.581  0.00  0.00    -0.075 A 
ATOM      2  C4  UNL d   1       2.340   1.949   1.879  0.00  0.00     0.002 A 
ATOM      3  C5  UNL d   1       2.184   3.149   2.573  0.00  0.00     0.002 A 
ATOM      4  C6  UNL d   1       3.303   3.870   2.984  0.00  0.00    -0.004 A 
ATOM      5  C7  UNL d   1       4.580   3.386   2.707  0.00  0.00     0.002 A 
ATOM      6  C8  UNL d   1       4.739   2.187   2.010  0.00  0.00     0.002 A 
ENDROOT
BRANCH   1   7
ATOM      7  C2  UNL d   1       3.796   0.176   0.805  0.00  0.00     0.056 C 
BRANCH   7   8
ATOM      8  C1  UNL d   1       2.595  -0.191  -0.073  0.00  0.00     0.007 C 
ATOM      9  C   UNL d   1       2.327  -1.689  -0.127  0.00  0.00     0.009 C 
ENDBRANCH   7   8
ENDBRANCH   1   7
TORSDOF 2
ENDMDL
