MODEL 1
REMARK minimizedAffinity 9.50771809
REMARK minimizedRMSD -1
REMARK  0 active torsions:
REMARK  status: ('A' for Active; 'I' for Inactive)
ROOT
ATOM      1  C   UNL d   1      -2.780   1.134  -0.955  0.00  0.00     0.124 A 
ATOM      2  C1  UNL d   1      -1.806   1.487  -0.032  0.00  0.00     0.062 A 
ATOM      3  C2  UNL d   1      -0.642   2.125  -0.452  0.00  0.00     0.162 A 
ATOM      4  C3  UNL d   1      -0.446   2.414  -1.803  0.00  0.00    -0.034 A 
ATOM      5  C4  UNL d   1      -1.431   2.055  -2.725  0.00  0.00     0.162 A 
ATOM      6  C5  UNL d   1      -2.592   1.418  -2.300  0.00  0.00     0.062 A 
ATOM      7  F   UNL d   1      -3.532   1.077  -3.193  0.00  0.00    -0.097 F 
ATOM      8  F1  UNL d   1      -1.275   2.318  -4.031  0.00  0.00    -0.096 F 
ATOM      9  I   UNL d   1       1.293   3.367  -2.435  0.00  0.00    -0.060 I 
ATOM     10  F2  UNL d   1       0.283   2.454   0.462  0.00  0.00    -0.096 F 
ATOM     11  F3  UNL d   1      -1.985   1.213   1.268  0.00  0.00    -0.097 F 
ATOM     12  F4  UNL d   1      -3.899   0.520  -0.548  0.00  0.00    -0.092 F 
ENDROOT
TORSDOF 0
ENDMDL
