MODEL 1
REMARK minimizedAffinity 10.4952173
REMARK minimizedRMSD -1
REMARK  0 active torsions:
REMARK  status: ('A' for Active; 'I' for Inactive)
ROOT
ATOM      1  C   UNL d   1      -0.258  -0.371   1.221  0.00  0.00     0.124 A 
ATOM      2  C1  UNL d   1      -0.913  -1.577   1.017  0.00  0.00     0.062 A 
ATOM      3  C2  UNL d   1      -0.256  -2.634   0.393  0.00  0.00     0.162 A 
ATOM      4  C3  UNL d   1       1.065  -2.489  -0.030  0.00  0.00    -0.034 A 
ATOM      5  C4  UNL d   1       1.718  -1.273   0.178  0.00  0.00     0.162 A 
ATOM      6  C5  UNL d   1       1.056  -0.220   0.801  0.00  0.00     0.062 A 
ATOM      7  F   UNL d   1       1.691   0.945   0.998  0.00  0.00    -0.097 F 
ATOM      8  F1  UNL d   1       2.988  -1.100  -0.217  0.00  0.00    -0.096 F 
ATOM      9  I   UNL d   1       2.051  -4.067  -0.963  0.00  0.00    -0.060 I 
ATOM     10  F2  UNL d   1      -0.914  -3.788   0.209  0.00  0.00    -0.096 F 
ATOM     11  F3  UNL d   1      -2.183  -1.725   1.421  0.00  0.00    -0.097 F 
ATOM     12  F4  UNL d   1      -0.893   0.645   1.820  0.00  0.00    -0.092 F 
ENDROOT
TORSDOF 0
ENDMDL
