MODEL 1
REMARK minimizedAffinity 6.74585152
REMARK minimizedRMSD -1
REMARK  0 active torsions:
REMARK  status: ('A' for Active; 'I' for Inactive)
ROOT
ATOM      1  C   UNL d   1      -0.666  -1.771   0.641  0.00  0.00     0.124 A 
ATOM      2  C1  UNL d   1       0.059  -2.775   0.014  0.00  0.00     0.062 A 
ATOM      3  C2  UNL d   1       1.436  -2.651  -0.142  0.00  0.00     0.162 A 
ATOM      4  C3  UNL d   1       2.099  -1.519   0.332  0.00  0.00    -0.034 A 
ATOM      5  C4  UNL d   1       1.363  -0.513   0.961  0.00  0.00     0.162 A 
ATOM      6  C5  UNL d   1      -0.013  -0.641   1.114  0.00  0.00     0.062 A 
ATOM      7  F   UNL d   1      -0.712   0.330   1.721  0.00  0.00    -0.097 F 
ATOM      8  F1  UNL d   1       1.969   0.589   1.428  0.00  0.00    -0.096 F 
ATOM      9  I   UNL d   1       4.159  -1.330   0.101  0.00  0.00    -0.060 I 
ATOM     10  F2  UNL d   1       2.111  -3.636  -0.752  0.00  0.00    -0.096 F 
ATOM     11  F3  UNL d   1      -0.570  -3.867  -0.445  0.00  0.00    -0.097 F 
ATOM     12  F4  UNL d   1      -1.991  -1.892   0.789  0.00  0.00    -0.092 F 
ENDROOT
TORSDOF 0
ENDMDL
