MODEL 1
REMARK minimizedAffinity 2.77664399
REMARK minimizedRMSD -1
REMARK  0 active torsions:
REMARK  status: ('A' for Active; 'I' for Inactive)
ROOT
ATOM      1  C   UNL d   1       1.715  -2.796  -0.182  0.00  0.00     0.124 A 
ATOM      2  C1  UNL d   1       0.360  -3.066  -0.047  0.00  0.00     0.062 A 
ATOM      3  C2  UNL d   1      -0.468  -2.174   0.629  0.00  0.00     0.162 A 
ATOM      4  C3  UNL d   1       0.057  -1.002   1.174  0.00  0.00    -0.034 A 
ATOM      5  C4  UNL d   1       1.420  -0.738   1.034  0.00  0.00     0.162 A 
ATOM      6  C5  UNL d   1       2.243  -1.632   0.358  0.00  0.00     0.062 A 
ATOM      7  F   UNL d   1       3.552  -1.369   0.228  0.00  0.00    -0.097 F 
ATOM      8  F1  UNL d   1       1.958   0.380   1.546  0.00  0.00    -0.096 F 
ATOM      9  I   UNL d   1      -1.177   0.334   2.185  0.00  0.00    -0.060 I 
ATOM     10  F2  UNL d   1      -1.773  -2.461   0.745  0.00  0.00    -0.096 F 
ATOM     11  F3  UNL d   1      -0.153  -4.190  -0.567  0.00  0.00    -0.097 F 
ATOM     12  F4  UNL d   1       2.509  -3.656  -0.832  0.00  0.00    -0.092 F 
ENDROOT
TORSDOF 0
ENDMDL
