MODEL 1
REMARK minimizedAffinity -0.0420168787
REMARK minimizedRMSD -1
REMARK  0 active torsions:
REMARK  status: ('A' for Active; 'I' for Inactive)
ROOT
ATOM      1  C   UNL d   1       1.283  -2.517  -0.003  0.00  0.00     0.124 A 
ATOM      2  C1  UNL d   1      -0.089  -2.649   0.166  0.00  0.00     0.062 A 
ATOM      3  C2  UNL d   1      -0.812  -1.657   0.820  0.00  0.00     0.162 A 
ATOM      4  C3  UNL d   1      -0.166  -0.522   1.310  0.00  0.00    -0.034 A 
ATOM      5  C4  UNL d   1       1.214  -0.397   1.137  0.00  0.00     0.162 A 
ATOM      6  C5  UNL d   1       1.933  -1.392   0.483  0.00  0.00     0.062 A 
ATOM      7  F   UNL d   1       3.257  -1.262   0.321  0.00  0.00    -0.097 F 
ATOM      8  F1  UNL d   1       1.867   0.681   1.596  0.00  0.00    -0.096 F 
ATOM      9  I   UNL d   1      -1.244   0.965   2.289  0.00  0.00    -0.060 I 
ATOM     10  F2  UNL d   1      -2.136  -1.811   0.969  0.00  0.00    -0.096 F 
ATOM     11  F3  UNL d   1      -0.719  -3.737  -0.302  0.00  0.00    -0.097 F 
ATOM     12  F4  UNL d   1       1.977  -3.475  -0.632  0.00  0.00    -0.092 F 
ENDROOT
TORSDOF 0
ENDMDL
