MODEL 1
REMARK minimizedAffinity 6.77524519
REMARK minimizedRMSD -1
REMARK  0 active torsions:
REMARK  status: ('A' for Active; 'I' for Inactive)
ROOT
ATOM      1  C   UNL d   1       1.634  -2.621  -0.193  0.00  0.00     0.124 A 
ATOM      2  C1  UNL d   1       2.215  -1.466   0.311  0.00  0.00     0.062 A 
ATOM      3  C2  UNL d   1       1.436  -0.523   0.975  0.00  0.00     0.162 A 
ATOM      4  C3  UNL d   1       0.067  -0.732   1.142  0.00  0.00    -0.034 A 
ATOM      5  C4  UNL d   1      -0.511  -1.896   0.632  0.00  0.00     0.162 A 
ATOM      6  C5  UNL d   1       0.272  -2.835  -0.032  0.00  0.00     0.062 A 
ATOM      7  F   UNL d   1      -0.291  -3.951  -0.518  0.00  0.00    -0.097 F 
ATOM      8  F1  UNL d   1      -1.824  -2.128   0.774  0.00  0.00    -0.096 F 
ATOM      9  I   UNL d   1      -1.101   0.676   2.135  0.00  0.00    -0.060 I 
ATOM     10  F2  UNL d   1       2.025   0.585   1.451  0.00  0.00    -0.096 F 
ATOM     11  F3  UNL d   1       3.530  -1.256   0.156  0.00  0.00    -0.097 F 
ATOM     12  F4  UNL d   1       2.385  -3.526  -0.833  0.00  0.00    -0.092 F 
ENDROOT
TORSDOF 0
ENDMDL
