MODEL 1
REMARK minimizedAffinity 15.4589415
REMARK minimizedRMSD -1
REMARK  0 active torsions:
REMARK  status: ('A' for Active; 'I' for Inactive)
ROOT
ATOM      1  C   UNL d   1       1.131  -0.551  -0.959  0.00  0.00     0.124 A 
ATOM      2  C1  UNL d   1       2.225  -0.202  -0.178  0.00  0.00     0.062 A 
ATOM      3  C2  UNL d   1       2.135  -0.239   1.210  0.00  0.00     0.162 A 
ATOM      4  C3  UNL d   1       0.946  -0.627   1.828  0.00  0.00    -0.034 A 
ATOM      5  C4  UNL d   1      -0.151  -0.975   1.037  0.00  0.00     0.162 A 
ATOM      6  C5  UNL d   1      -0.055  -0.936  -0.351  0.00  0.00     0.062 A 
ATOM      7  F   UNL d   1      -1.113  -1.273  -1.103  0.00  0.00    -0.097 F 
ATOM      8  F1  UNL d   1      -1.309  -1.352   1.598  0.00  0.00    -0.096 F 
ATOM      9  I   UNL d   1       0.806  -0.683   3.904  0.00  0.00    -0.060 I 
ATOM     10  F2  UNL d   1       3.207   0.102   1.939  0.00  0.00    -0.096 F 
ATOM     11  F3  UNL d   1       3.372   0.171  -0.764  0.00  0.00    -0.097 F 
ATOM     12  F4  UNL d   1       1.220  -0.513  -2.294  0.00  0.00    -0.092 F 
ENDROOT
TORSDOF 0
ENDMDL
