MODEL 1
REMARK minimizedAffinity 10.5046759
REMARK minimizedRMSD -1
REMARK  0 active torsions:
REMARK  status: ('A' for Active; 'I' for Inactive)
ROOT
ATOM      1  C   UNL d   1      -0.831  -1.357   0.772  0.00  0.00     0.124 A 
ATOM      2  C1  UNL d   1      -0.020  -2.331   0.205  0.00  0.00     0.062 A 
ATOM      3  C2  UNL d   1       1.358  -2.148   0.147  0.00  0.00     0.162 A 
ATOM      4  C3  UNL d   1       1.936  -0.986   0.658  0.00  0.00    -0.034 A 
ATOM      5  C4  UNL d   1       1.115  -0.010   1.226  0.00  0.00     0.162 A 
ATOM      6  C5  UNL d   1      -0.263  -0.198   1.282  0.00  0.00     0.062 A 
ATOM      7  F   UNL d   1      -1.044   0.744   1.829  0.00  0.00    -0.097 F 
ATOM      8  F1  UNL d   1       1.637   1.119   1.726  0.00  0.00    -0.096 F 
ATOM      9  I   UNL d   1       3.997  -0.709   0.573  0.00  0.00    -0.060 I 
ATOM     10  F2  UNL d   1       2.117  -3.106  -0.406  0.00  0.00    -0.096 F 
ATOM     11  F3  UNL d   1      -0.567  -3.452  -0.288  0.00  0.00    -0.097 F 
ATOM     12  F4  UNL d   1      -2.157  -1.536   0.826  0.00  0.00    -0.092 F 
ENDROOT
TORSDOF 0
ENDMDL
