MODEL 1
REMARK minimizedAffinity 9.31852913
REMARK minimizedRMSD -1
REMARK  0 active torsions:
REMARK  status: ('A' for Active; 'I' for Inactive)
ROOT
ATOM      1  C   UNL d   1       2.250  -0.638   0.561  0.00  0.00     0.124 A 
ATOM      2  C1  UNL d   1       0.894  -0.736   0.281  0.00  0.00     0.062 A 
ATOM      3  C2  UNL d   1      -0.045  -0.542   1.289  0.00  0.00     0.162 A 
ATOM      4  C3  UNL d   1       0.368  -0.247   2.589  0.00  0.00    -0.034 A 
ATOM      5  C4  UNL d   1       1.734  -0.151   2.863  0.00  0.00     0.162 A 
ATOM      6  C5  UNL d   1       2.668  -0.346   1.851  0.00  0.00     0.062 A 
ATOM      7  F   UNL d   1       3.978  -0.250   2.124  0.00  0.00    -0.097 F 
ATOM      8  F1  UNL d   1       2.166   0.131   4.101  0.00  0.00    -0.096 F 
ATOM      9  I   UNL d   1      -1.033   0.043   4.100  0.00  0.00    -0.060 I 
ATOM     10  F2  UNL d   1      -1.348  -0.643   0.990  0.00  0.00    -0.096 F 
ATOM     11  F3  UNL d   1       0.488  -1.019  -0.965  0.00  0.00    -0.097 F 
ATOM     12  F4  UNL d   1       3.152  -0.825  -0.411  0.00  0.00    -0.092 F 
ENDROOT
TORSDOF 0
ENDMDL
