MODEL 1
REMARK minimizedAffinity 1.1025331
REMARK minimizedRMSD -1
REMARK  0 active torsions:
REMARK  status: ('A' for Active; 'I' for Inactive)
ROOT
ATOM      1  C   UNL d   1       0.293  -0.812   0.677  0.00  0.00     0.124 A 
ATOM      2  C1  UNL d   1      -0.219  -2.078   0.432  0.00  0.00     0.062 A 
ATOM      3  C2  UNL d   1       0.633  -3.121   0.078  0.00  0.00     0.162 A 
ATOM      4  C3  UNL d   1       2.007  -2.901  -0.031  0.00  0.00    -0.034 A 
ATOM      5  C4  UNL d   1       2.513  -1.624   0.217  0.00  0.00     0.162 A 
ATOM      6  C5  UNL d   1       1.657  -0.585   0.570  0.00  0.00     0.062 A 
ATOM      7  F   UNL d   1       2.153   0.638   0.806  0.00  0.00    -0.097 F 
ATOM      8  F1  UNL d   1       3.828  -1.378   0.121  0.00  0.00    -0.096 F 
ATOM      9  I   UNL d   1       3.284  -4.457  -0.559  0.00  0.00    -0.060 I 
ATOM     10  F2  UNL d   1       0.112  -4.335  -0.153  0.00  0.00    -0.096 F 
ATOM     11  F3  UNL d   1      -1.537  -2.299   0.534  0.00  0.00    -0.097 F 
ATOM     12  F4  UNL d   1      -0.530   0.190   1.016  0.00  0.00    -0.092 F 
ENDROOT
TORSDOF 0
ENDMDL
