MODEL 1
REMARK minimizedAffinity 5.37218857
REMARK minimizedRMSD -1
REMARK  0 active torsions:
REMARK  status: ('A' for Active; 'I' for Inactive)
ROOT
ATOM      1  C   UNL d   1       1.843  -1.635   0.413  0.00  0.00     0.124 A 
ATOM      2  C1  UNL d   1       1.083  -2.785   0.248  0.00  0.00     0.062 A 
ATOM      3  C2  UNL d   1      -0.306  -2.721   0.309  0.00  0.00     0.162 A 
ATOM      4  C3  UNL d   1      -0.945  -1.502   0.534  0.00  0.00    -0.034 A 
ATOM      5  C4  UNL d   1      -0.174  -0.350   0.700  0.00  0.00     0.162 A 
ATOM      6  C5  UNL d   1       1.214  -0.419   0.639  0.00  0.00     0.062 A 
ATOM      7  F   UNL d   1       1.946   0.693   0.798  0.00  0.00    -0.097 F 
ATOM      8  F1  UNL d   1      -0.756   0.838   0.918  0.00  0.00    -0.096 F 
ATOM      9  I   UNL d   1      -3.022  -1.402   0.625  0.00  0.00    -0.060 I 
ATOM     10  F2  UNL d   1      -1.015  -3.848   0.146  0.00  0.00    -0.096 F 
ATOM     11  F3  UNL d   1       1.689  -3.962   0.031  0.00  0.00    -0.097 F 
ATOM     12  F4  UNL d   1       3.179  -1.700   0.355  0.00  0.00    -0.092 F 
ENDROOT
TORSDOF 0
ENDMDL
