MODEL 1
REMARK minimizedAffinity 2.84317851
REMARK minimizedRMSD -1
REMARK  0 active torsions:
REMARK  status: ('A' for Active; 'I' for Inactive)
ROOT
ATOM      1  C   UNL d   1       1.372  -2.725  -0.049  0.00  0.00     0.124 A 
ATOM      2  C1  UNL d   1       0.006  -2.916   0.112  0.00  0.00     0.062 A 
ATOM      3  C2  UNL d   1      -0.772  -1.932   0.713  0.00  0.00     0.162 A 
ATOM      4  C3  UNL d   1      -0.187  -0.746   1.158  0.00  0.00    -0.034 A 
ATOM      5  C4  UNL d   1       1.187  -0.561   0.993  0.00  0.00     0.162 A 
ATOM      6  C5  UNL d   1       1.960  -1.548   0.391  0.00  0.00     0.062 A 
ATOM      7  F   UNL d   1       3.279  -1.362   0.237  0.00  0.00    -0.097 F 
ATOM      8  F1  UNL d   1       1.781   0.567   1.409  0.00  0.00    -0.096 F 
ATOM      9  I   UNL d   1      -1.348   0.729   2.058  0.00  0.00    -0.060 I 
ATOM     10  F2  UNL d   1      -2.089  -2.143   0.856  0.00  0.00    -0.096 F 
ATOM     11  F3  UNL d   1      -0.565  -4.053  -0.313  0.00  0.00    -0.097 F 
ATOM     12  F4  UNL d   1       2.118  -3.674  -0.628  0.00  0.00    -0.092 F 
ENDROOT
TORSDOF 0
ENDMDL
