MODEL 1
REMARK minimizedAffinity 18.4054413
REMARK minimizedRMSD -1
REMARK  0 active torsions:
REMARK  status: ('A' for Active; 'I' for Inactive)
ROOT
ATOM      1  C   UNL d   1      -0.552  -1.582   0.318  0.00  0.00     0.124 A 
ATOM      2  C1  UNL d   1       0.098  -0.561   0.996  0.00  0.00     0.062 A 
ATOM      3  C2  UNL d   1       1.461  -0.655   1.264  0.00  0.00     0.162 A 
ATOM      4  C3  UNL d   1       2.183  -1.775   0.851  0.00  0.00    -0.034 A 
ATOM      5  C4  UNL d   1       1.522  -2.798   0.170  0.00  0.00     0.162 A 
ATOM      6  C5  UNL d   1       0.160  -2.700  -0.094  0.00  0.00     0.062 A 
ATOM      7  F   UNL d   1      -0.467  -3.687  -0.750  0.00  0.00    -0.097 F 
ATOM      8  F1  UNL d   1       2.186  -3.889  -0.240  0.00  0.00    -0.096 F 
ATOM      9  I   UNL d   1       4.221  -1.919   1.249  0.00  0.00    -0.060 I 
ATOM     10  F2  UNL d   1       2.064   0.347   1.921  0.00  0.00    -0.096 F 
ATOM     11  F3  UNL d   1      -0.588   0.520   1.396  0.00  0.00    -0.097 F 
ATOM     12  F4  UNL d   1      -1.864  -1.490   0.063  0.00  0.00    -0.092 F 
ENDROOT
TORSDOF 0
ENDMDL
