MODEL 1
REMARK minimizedAffinity 4.42500782
REMARK minimizedRMSD -1
REMARK  0 active torsions:
REMARK  status: ('A' for Active; 'I' for Inactive)
ROOT
ATOM      1  C   UNL d   1      -0.088  -0.423   1.139  0.00  0.00     0.124 A 
ATOM      2  C1  UNL d   1       1.253  -0.216   0.845  0.00  0.00     0.062 A 
ATOM      3  C2  UNL d   1       2.008  -1.234   0.269  0.00  0.00     0.162 A 
ATOM      4  C3  UNL d   1       1.424  -2.468  -0.017  0.00  0.00    -0.034 A 
ATOM      5  C4  UNL d   1       0.075  -2.668   0.283  0.00  0.00     0.162 A 
ATOM      6  C5  UNL d   1      -0.675  -1.648   0.858  0.00  0.00     0.062 A 
ATOM      7  F   UNL d   1      -1.971  -1.849   1.141  0.00  0.00    -0.097 F 
ATOM      8  F1  UNL d   1      -0.518  -3.843   0.021  0.00  0.00    -0.096 F 
ATOM      9  I   UNL d   1       2.550  -3.992  -0.877  0.00  0.00    -0.060 I 
ATOM     10  F2  UNL d   1       3.301  -1.006  -0.004  0.00  0.00    -0.096 F 
ATOM     11  F3  UNL d   1       1.823   0.967   1.116  0.00  0.00    -0.097 F 
ATOM     12  F4  UNL d   1      -0.812   0.558   1.693  0.00  0.00    -0.092 F 
ENDROOT
TORSDOF 0
ENDMDL
