MODEL 1
REMARK minimizedAffinity 0.220145851
REMARK minimizedRMSD -1
REMARK  0 active torsions:
REMARK  status: ('A' for Active; 'I' for Inactive)
ROOT
ATOM      1  C   UNL d   1       0.151  -0.496   0.982  0.00  0.00     0.124 A 
ATOM      2  C1  UNL d   1       1.418  -0.196   0.500  0.00  0.00     0.062 A 
ATOM      3  C2  UNL d   1       2.214  -1.198  -0.048  0.00  0.00     0.162 A 
ATOM      4  C3  UNL d   1       1.745  -2.509  -0.119  0.00  0.00    -0.034 A 
ATOM      5  C4  UNL d   1       0.470  -2.804   0.369  0.00  0.00     0.162 A 
ATOM      6  C5  UNL d   1      -0.321  -1.799   0.916  0.00  0.00     0.062 A 
ATOM      7  F   UNL d   1      -1.545  -2.091   1.381  0.00  0.00    -0.097 F 
ATOM      8  F1  UNL d   1      -0.011  -4.054   0.316  0.00  0.00    -0.096 F 
ATOM      9  I   UNL d   1       2.932  -4.010  -0.938  0.00  0.00    -0.060 I 
ATOM     10  F2  UNL d   1       3.434  -0.879  -0.506  0.00  0.00    -0.096 F 
ATOM     11  F3  UNL d   1       1.877   1.062   0.564  0.00  0.00    -0.097 F 
ATOM     12  F4  UNL d   1      -0.612   0.469   1.510  0.00  0.00    -0.092 F 
ENDROOT
TORSDOF 0
ENDMDL
