MODEL 1
REMARK minimizedAffinity 10.6511288
REMARK minimizedRMSD -1
REMARK  0 active torsions:
REMARK  status: ('A' for Active; 'I' for Inactive)
ROOT
ATOM      1  C   UNL d   1       1.404  -0.438   2.304  0.00  0.00     0.124 A 
ATOM      2  C1  UNL d   1       2.424  -0.944   1.510  0.00  0.00     0.062 A 
ATOM      3  C2  UNL d   1       2.166  -1.323   0.196  0.00  0.00     0.162 A 
ATOM      4  C3  UNL d   1       0.882  -1.196  -0.334  0.00  0.00    -0.034 A 
ATOM      5  C4  UNL d   1      -0.139  -0.687   0.470  0.00  0.00     0.162 A 
ATOM      6  C5  UNL d   1       0.124  -0.310   1.783  0.00  0.00     0.062 A 
ATOM      7  F   UNL d   1      -0.863   0.179   2.549  0.00  0.00    -0.097 F 
ATOM      8  F1  UNL d   1      -1.385  -0.552  -0.007  0.00  0.00    -0.096 F 
ATOM      9  I   UNL d   1       0.492  -1.761  -2.299  0.00  0.00    -0.060 I 
ATOM     10  F2  UNL d   1       3.170  -1.809  -0.548  0.00  0.00    -0.096 F 
ATOM     11  F3  UNL d   1       3.661  -1.070   2.010  0.00  0.00    -0.097 F 
ATOM     12  F4  UNL d   1       1.655  -0.075   3.568  0.00  0.00    -0.092 F 
ENDROOT
TORSDOF 0
ENDMDL
