MODEL 1
REMARK minimizedAffinity 8.73412418
REMARK minimizedRMSD -1
REMARK  0 active torsions:
REMARK  status: ('A' for Active; 'I' for Inactive)
ROOT
ATOM      1  C   UNL d   1       1.884  -2.965   0.039  0.00  0.00     0.124 A 
ATOM      2  C1  UNL d   1       0.534  -3.224   0.236  0.00  0.00     0.062 A 
ATOM      3  C2  UNL d   1      -0.314  -2.215   0.683  0.00  0.00     0.162 A 
ATOM      4  C3  UNL d   1       0.184  -0.937   0.936  0.00  0.00    -0.034 A 
ATOM      5  C4  UNL d   1       1.543  -0.685   0.737  0.00  0.00     0.162 A 
ATOM      6  C5  UNL d   1       2.387  -1.696   0.290  0.00  0.00     0.062 A 
ATOM      7  F   UNL d   1       3.690  -1.444   0.101  0.00  0.00    -0.097 F 
ATOM      8  F1  UNL d   1       2.055   0.533   0.971  0.00  0.00    -0.096 F 
ATOM      9  I   UNL d   1      -1.081   0.574   1.605  0.00  0.00    -0.060 I 
ATOM     10  F2  UNL d   1      -1.614  -2.494   0.864  0.00  0.00    -0.096 F 
ATOM     11  F3  UNL d   1       0.046  -4.449  -0.005  0.00  0.00    -0.097 F 
ATOM     12  F4  UNL d   1       2.698  -3.938  -0.390  0.00  0.00    -0.092 F 
ENDROOT
TORSDOF 0
ENDMDL
