MODEL 1
REMARK minimizedAffinity -5.50409985
REMARK minimizedRMSD -1
REMARK  0 active torsions:
REMARK  status: ('A' for Active; 'I' for Inactive)
ROOT
ATOM      1  C2' OXE d   1      -0.268   1.438  -0.260  0.00  0.00     0.078 C 
ATOM      2  C1' OXE d   1       0.940  -1.086  -0.039  0.00  0.00     0.078 C 
ATOM      3  C1  OXE d   1      -0.425  -0.903   0.577  0.00  0.00    -0.078 A 
ATOM      4  C2  OXE d   1      -0.988   0.348   0.504  0.00  0.00    -0.078 A 
ATOM      5  C3  OXE d   1      -2.269   0.557   1.008  0.00  0.00     0.003 A 
ATOM      6  C4  OXE d   1      -2.923  -0.453   1.723  0.00  0.00    -0.002 A 
ATOM      7  C5  OXE d   1      -2.350  -1.724   1.843  0.00  0.00    -0.002 A 
ATOM      8  C6  OXE d   1      -1.122  -1.977   1.240  0.00  0.00     0.003 A 
ENDROOT
TORSDOF 0
ENDMDL
