MODEL 1
REMARK minimizedAffinity -5.77716589
REMARK minimizedRMSD -1
REMARK  0 active torsions:
REMARK  status: ('A' for Active; 'I' for Inactive)
ROOT
ATOM      1  C2' OXE d   1       0.687  -0.205   0.468  0.00  0.00     0.078 C 
ATOM      2  C1' OXE d   1      -1.212   1.479   1.668  0.00  0.00     0.078 C 
ATOM      3  C1  OXE d   1      -1.536   0.009   1.573  0.00  0.00    -0.078 A 
ATOM      4  C2  OXE d   1      -0.621  -0.800   0.943  0.00  0.00    -0.078 A 
ATOM      5  C3  OXE d   1      -0.845  -2.172   0.877  0.00  0.00     0.003 A 
ATOM      6  C4  OXE d   1      -2.062  -2.714   1.309  0.00  0.00    -0.002 A 
ATOM      7  C5  OXE d   1      -3.024  -1.901   1.918  0.00  0.00    -0.002 A 
ATOM      8  C6  OXE d   1      -2.759  -0.548   2.096  0.00  0.00     0.003 A 
ENDROOT
TORSDOF 0
ENDMDL
