MODEL 1
REMARK minimizedAffinity -2.76428843
REMARK minimizedRMSD -1
REMARK  0 active torsions:
REMARK  status: ('A' for Active; 'I' for Inactive)
ROOT
ATOM      1  C2' OXE d   1      -0.112  -0.744  -0.250  0.00  0.00     0.078 C 
ATOM      2  C1' OXE d   1      -0.009  -2.710   1.751  0.00  0.00     0.078 C 
ATOM      3  C1  OXE d   1      -1.057  -1.633   1.876  0.00  0.00    -0.078 A 
ATOM      4  C2  OXE d   1      -1.070  -0.649   0.918  0.00  0.00    -0.078 A 
ATOM      5  C3  OXE d   1      -2.051   0.338   0.956  0.00  0.00     0.003 A 
ATOM      6  C4  OXE d   1      -2.927   0.424   2.044  0.00  0.00    -0.002 A 
ATOM      7  C5  OXE d   1      -2.905  -0.545   3.052  0.00  0.00    -0.002 A 
ATOM      8  C6  OXE d   1      -2.006  -1.602   2.961  0.00  0.00     0.003 A 
ENDROOT
TORSDOF 0
ENDMDL
