MODEL 1
REMARK minimizedAffinity -4.78829861
REMARK minimizedRMSD -1
REMARK  0 active torsions:
REMARK  status: ('A' for Active; 'I' for Inactive)
ROOT
ATOM      1  C2' OXE d   1      -2.557  -2.420   2.329  0.00  0.00     0.078 C 
ATOM      2  C1' OXE d   1      -3.079   0.280   1.766  0.00  0.00     0.078 C 
ATOM      3  C1  OXE d   1      -1.795  -0.312   1.241  0.00  0.00    -0.078 A 
ATOM      4  C2  OXE d   1      -1.526  -1.621   1.561  0.00  0.00    -0.078 A 
ATOM      5  C3  OXE d   1      -0.382  -2.233   1.056  0.00  0.00     0.003 A 
ATOM      6  C4  OXE d   1       0.572  -1.485   0.355  0.00  0.00    -0.002 A 
ATOM      7  C5  OXE d   1       0.336  -0.139   0.052  0.00  0.00    -0.002 A 
ATOM      8  C6  OXE d   1      -0.860   0.449   0.450  0.00  0.00     0.003 A 
ENDROOT
TORSDOF 0
ENDMDL
