MODEL 1
REMARK minimizedAffinity -4.96109867
REMARK minimizedRMSD -1
REMARK  0 active torsions:
REMARK  status: ('A' for Active; 'I' for Inactive)
ROOT
ATOM      1  C2' OXE d   1       0.733   0.960  -0.279  0.00  0.00     0.078 C 
ATOM      2  C1' OXE d   1      -1.551   1.953   1.016  0.00  0.00     0.078 C 
ATOM      3  C1  OXE d   1      -1.361   0.458   0.972  0.00  0.00    -0.078 A 
ATOM      4  C2  OXE d   1      -0.265  -0.021   0.296  0.00  0.00    -0.078 A 
ATOM      5  C3  OXE d   1      -0.013  -1.390   0.272  0.00  0.00     0.003 A 
ATOM      6  C4  OXE d   1      -0.947  -2.291   0.798  0.00  0.00    -0.002 A 
ATOM      7  C5  OXE d   1      -2.090  -1.826   1.456  0.00  0.00    -0.002 A 
ATOM      8  C6  OXE d   1      -2.290  -0.457   1.589  0.00  0.00     0.003 A 
ENDROOT
TORSDOF 0
ENDMDL
