MODEL 1
REMARK minimizedAffinity -4.67792177
REMARK minimizedRMSD -1
REMARK  0 active torsions:
REMARK  status: ('A' for Active; 'I' for Inactive)
ROOT
ATOM      1  C2' OXE d   1       1.151  -1.597  -0.201  0.00  0.00     0.078 C 
ATOM      2  C1' OXE d   1       0.409   1.110  -0.188  0.00  0.00     0.078 C 
ATOM      3  C1  OXE d   1      -0.445   0.142   0.594  0.00  0.00    -0.078 A 
ATOM      4  C2  OXE d   1      -0.101  -1.187   0.543  0.00  0.00    -0.078 A 
ATOM      5  C3  OXE d   1      -0.823  -2.115   1.290  0.00  0.00     0.003 A 
ATOM      6  C4  OXE d   1      -1.985  -1.728   1.967  0.00  0.00    -0.002 A 
ATOM      7  C5  OXE d   1      -2.376  -0.386   1.999  0.00  0.00    -0.002 A 
ATOM      8  C6  OXE d   1      -1.595   0.567   1.354  0.00  0.00     0.003 A 
ENDROOT
TORSDOF 0
ENDMDL
