MODEL 1
REMARK minimizedAffinity 0.41701901
REMARK minimizedRMSD -1
REMARK  0 active torsions:
REMARK  status: ('A' for Active; 'I' for Inactive)
ROOT
ATOM      1  C2' OXE d   1       0.886   1.057  -0.681  0.00  0.00     0.078 C 
ATOM      2  C1' OXE d   1      -1.523   1.307   0.739  0.00  0.00     0.078 C 
ATOM      3  C1  OXE d   1      -0.751   0.019   0.884  0.00  0.00    -0.078 A 
ATOM      4  C2  OXE d   1       0.403  -0.113   0.149  0.00  0.00    -0.078 A 
ATOM      5  C3  OXE d   1       1.181  -1.258   0.288  0.00  0.00     0.003 A 
ATOM      6  C4  OXE d   1       0.722  -2.339   1.050  0.00  0.00    -0.002 A 
ATOM      7  C5  OXE d   1      -0.471  -2.241   1.775  0.00  0.00    -0.002 A 
ATOM      8  C6  OXE d   1      -1.196  -1.055   1.736  0.00  0.00     0.003 A 
ENDROOT
TORSDOF 0
ENDMDL
