MODEL 1
REMARK minimizedAffinity -4.59814119
REMARK minimizedRMSD -1
REMARK  0 active torsions:
REMARK  status: ('A' for Active; 'I' for Inactive)
ROOT
ATOM      1  C2' OXE d   1      -0.456   0.811  -0.533  0.00  0.00     0.078 C 
ATOM      2  C1' OXE d   1       1.457  -0.772   0.777  0.00  0.00     0.078 C 
ATOM      3  C1  OXE d   1       0.001  -1.086   1.016  0.00  0.00    -0.078 A 
ATOM      4  C2  OXE d   1      -0.928  -0.277   0.408  0.00  0.00    -0.078 A 
ATOM      5  C3  OXE d   1      -2.284  -0.556   0.552  0.00  0.00     0.003 A 
ATOM      6  C4  OXE d   1      -2.712  -1.558   1.432  0.00  0.00    -0.002 A 
ATOM      7  C5  OXE d   1      -1.782  -2.368   2.092  0.00  0.00    -0.002 A 
ATOM      8  C6  OXE d   1      -0.425  -2.173   1.862  0.00  0.00     0.003 A 
ENDROOT
TORSDOF 0
ENDMDL
