MODEL 1
REMARK minimizedAffinity -4.42762518
REMARK minimizedRMSD -1
REMARK  0 active torsions:
REMARK  status: ('A' for Active; 'I' for Inactive)
ROOT
ATOM      1  C2' OXE d   1      -0.793  -2.187   1.432  0.00  0.00     0.078 C 
ATOM      2  C1' OXE d   1       1.809  -1.482   0.649  0.00  0.00     0.078 C 
ATOM      3  C1  OXE d   1       0.758  -0.400   0.653  0.00  0.00    -0.078 A 
ATOM      4  C2  OXE d   1      -0.523  -0.764   0.993  0.00  0.00    -0.078 A 
ATOM      5  C3  OXE d   1      -1.519   0.206   1.066  0.00  0.00     0.003 A 
ATOM      6  C4  OXE d   1      -1.263   1.517   0.648  0.00  0.00    -0.002 A 
ATOM      7  C5  OXE d   1       0.026   1.900   0.260  0.00  0.00    -0.002 A 
ATOM      8  C6  OXE d   1       1.055   0.966   0.297  0.00  0.00     0.003 A 
ENDROOT
TORSDOF 0
ENDMDL
