MODEL 1
REMARK minimizedAffinity -2.42316651
REMARK minimizedRMSD -1
REMARK  0 active torsions:
REMARK  status: ('A' for Active; 'I' for Inactive)
ROOT
ATOM      1  C2' OXE d   1       0.673   1.317  -0.662  0.00  0.00     0.078 C 
ATOM      2  C1' OXE d   1      -1.468   1.635   1.126  0.00  0.00     0.078 C 
ATOM      3  C1  OXE d   1      -0.789   0.289   1.073  0.00  0.00    -0.078 A 
ATOM      4  C2  OXE d   1       0.227   0.129   0.162  0.00  0.00    -0.078 A 
ATOM      5  C3  OXE d   1       0.923  -1.076   0.111  0.00  0.00     0.003 A 
ATOM      6  C4  OXE d   1       0.497  -2.173   0.869  0.00  0.00    -0.002 A 
ATOM      7  C5  OXE d   1      -0.561  -2.043   1.774  0.00  0.00    -0.002 A 
ATOM      8  C6  OXE d   1      -1.186  -0.809   1.919  0.00  0.00     0.003 A 
ENDROOT
TORSDOF 0
ENDMDL
