MODEL 1
REMARK minimizedAffinity -3.47512722
REMARK minimizedRMSD -1
REMARK  0 active torsions:
REMARK  status: ('A' for Active; 'I' for Inactive)
ROOT
ATOM      1  C2' OXE d   1       0.125   0.236  -1.337  0.00  0.00     0.078 C 
ATOM      2  C1' OXE d   1       1.583  -0.292   1.003  0.00  0.00     0.078 C 
ATOM      3  C1  OXE d   1       0.191  -0.862   0.898  0.00  0.00    -0.078 A 
ATOM      4  C2  OXE d   1      -0.533  -0.560  -0.231  0.00  0.00    -0.078 A 
ATOM      5  C3  OXE d   1      -1.802  -1.105  -0.403  0.00  0.00     0.003 A 
ATOM      6  C4  OXE d   1      -2.407  -1.832   0.630  0.00  0.00    -0.002 A 
ATOM      7  C5  OXE d   1      -1.702  -2.118   1.804  0.00  0.00    -0.002 A 
ATOM      8  C6  OXE d   1      -0.390  -1.677   1.936  0.00  0.00     0.003 A 
ENDROOT
TORSDOF 0
ENDMDL
