MODEL 1
REMARK minimizedAffinity 6.168859
REMARK minimizedRMSD -1
REMARK  0 active torsions:
REMARK  status: ('A' for Active; 'I' for Inactive)
ROOT
ATOM      1  C2' OXE d   1      -1.779   0.935  -1.140  0.00  0.00     0.078 C 
ATOM      2  C1' OXE d   1       0.446  -0.100   0.222  0.00  0.00     0.078 C 
ATOM      3  C1  OXE d   1       0.699   0.713  -1.022  0.00  0.00    -0.078 A 
ATOM      4  C2  OXE d   1      -0.397   1.176  -1.709  0.00  0.00    -0.078 A 
ATOM      5  C3  OXE d   1      -0.219   1.978  -2.832  0.00  0.00     0.003 A 
ATOM      6  C4  OXE d   1       1.062   2.188  -3.357  0.00  0.00    -0.002 A 
ATOM      7  C5  OXE d   1       2.190   1.692  -2.696  0.00  0.00    -0.002 A 
ATOM      8  C6  OXE d   1       2.029   0.990  -1.507  0.00  0.00     0.003 A 
ENDROOT
TORSDOF 0
ENDMDL
