MODEL 1
REMARK minimizedAffinity -5.63472414
REMARK minimizedRMSD -1
REMARK  0 active torsions:
REMARK  status: ('A' for Active; 'I' for Inactive)
ROOT
ATOM      1  C2' OXE d   1       1.664  -1.442   0.437  0.00  0.00     0.078 C 
ATOM      2  C1' OXE d   1       0.204   0.881  -0.154  0.00  0.00     0.078 C 
ATOM      3  C1  OXE d   1      -0.523  -0.253   0.524  0.00  0.00    -0.078 A 
ATOM      4  C2  OXE d   1       0.188  -1.404   0.767  0.00  0.00    -0.078 A 
ATOM      5  C3  OXE d   1      -0.420  -2.461   1.440  0.00  0.00     0.003 A 
ATOM      6  C4  OXE d   1      -1.789  -2.421   1.733  0.00  0.00    -0.002 A 
ATOM      7  C5  OXE d   1      -2.541  -1.274   1.457  0.00  0.00    -0.002 A 
ATOM      8  C6  OXE d   1      -1.915  -0.168   0.893  0.00  0.00     0.003 A 
ENDROOT
TORSDOF 0
ENDMDL
