MODEL 1
REMARK minimizedAffinity -5.73758364
REMARK minimizedRMSD -1
REMARK  0 active torsions:
REMARK  status: ('A' for Active; 'I' for Inactive)
ROOT
ATOM      1  C2' OXE d   1       1.553  -0.883   1.211  0.00  0.00     0.078 C 
ATOM      2  C1' OXE d   1      -0.061   0.935  -0.192  0.00  0.00     0.078 C 
ATOM      3  C1  OXE d   1      -0.742  -0.213   0.510  0.00  0.00    -0.078 A 
ATOM      4  C2  OXE d   1       0.060  -1.124   1.155  0.00  0.00    -0.078 A 
ATOM      5  C3  OXE d   1      -0.520  -2.172   1.864  0.00  0.00     0.003 A 
ATOM      6  C4  OXE d   1      -1.901  -2.394   1.799  0.00  0.00    -0.002 A 
ATOM      7  C5  OXE d   1      -2.732  -1.500   1.114  0.00  0.00    -0.002 A 
ATOM      8  C6  OXE d   1      -2.174  -0.384   0.502  0.00  0.00     0.003 A 
ENDROOT
TORSDOF 0
ENDMDL
