MODEL 1
REMARK minimizedAffinity -5.40830183
REMARK minimizedRMSD -1
REMARK  0 active torsions:
REMARK  status: ('A' for Active; 'I' for Inactive)
ROOT
ATOM      1  C2' OXE d   1       0.905   0.809  -0.086  0.00  0.00     0.078 C 
ATOM      2  C1' OXE d   1      -1.556   1.803   0.828  0.00  0.00     0.078 C 
ATOM      3  C1  OXE d   1      -1.352   0.309   0.842  0.00  0.00    -0.078 A 
ATOM      4  C2  OXE d   1      -0.163  -0.171   0.349  0.00  0.00    -0.078 A 
ATOM      5  C3  OXE d   1       0.099  -1.538   0.390  0.00  0.00     0.003 A 
ATOM      6  C4  OXE d   1      -0.897  -2.439   0.785  0.00  0.00    -0.002 A 
ATOM      7  C5  OXE d   1      -2.131  -1.973   1.253  0.00  0.00    -0.002 A 
ATOM      8  C6  OXE d   1      -2.358  -0.603   1.328  0.00  0.00     0.003 A 
ENDROOT
TORSDOF 0
ENDMDL
