MODEL 1
REMARK minimizedAffinity -2.48565698
REMARK minimizedRMSD -1
REMARK  0 active torsions:
REMARK  status: ('A' for Active; 'I' for Inactive)
ROOT
ATOM      1  C2' OXE d   1       0.152   0.203   0.057  0.00  0.00     0.078 C 
ATOM      2  C1' OXE d   1       0.422  -2.566   0.427  0.00  0.00     0.078 C 
ATOM      3  C1  OXE d   1      -0.876  -1.924   0.846  0.00  0.00    -0.078 A 
ATOM      4  C2  OXE d   1      -0.982  -0.561   0.705  0.00  0.00    -0.078 A 
ATOM      5  C3  OXE d   1      -2.179   0.074   1.025  0.00  0.00     0.003 A 
ATOM      6  C4  OXE d   1      -3.219  -0.639   1.632  0.00  0.00    -0.002 A 
ATOM      7  C5  OXE d   1      -3.117  -2.021   1.822  0.00  0.00    -0.002 A 
ATOM      8  C6  OXE d   1      -1.971  -2.684   1.396  0.00  0.00     0.003 A 
ENDROOT
TORSDOF 0
ENDMDL
