MODEL 1
REMARK minimizedAffinity -1.04854584
REMARK minimizedRMSD -1
REMARK  0 active torsions:
REMARK  status: ('A' for Active; 'I' for Inactive)
ROOT
ATOM      1  C2' OXE d   1      -2.141  -0.420   2.649  0.00  0.00     0.078 C 
ATOM      2  C1' OXE d   1      -1.062   1.596   1.020  0.00  0.00     0.078 C 
ATOM      3  C1  OXE d   1      -0.376   0.252   1.024  0.00  0.00    -0.078 A 
ATOM      4  C2  OXE d   1      -0.884  -0.714   1.859  0.00  0.00    -0.078 A 
ATOM      5  C3  OXE d   1      -0.322  -1.988   1.861  0.00  0.00     0.003 A 
ATOM      6  C4  OXE d   1       0.847  -2.248   1.135  0.00  0.00    -0.002 A 
ATOM      7  C5  OXE d   1       1.403  -1.266   0.309  0.00  0.00    -0.002 A 
ATOM      8  C6  OXE d   1       0.780  -0.027   0.210  0.00  0.00     0.003 A 
ENDROOT
TORSDOF 0
ENDMDL
