MODEL 1
REMARK minimizedAffinity -6.1760869
REMARK minimizedRMSD -1
REMARK  0 active torsions:
REMARK  status: ('A' for Active; 'I' for Inactive)
ROOT
ATOM      1  C2' OXE d   1       0.627  -0.751   0.329  0.00  0.00     0.078 C 
ATOM      2  C1' OXE d   1      -1.220   1.271   0.944  0.00  0.00     0.078 C 
ATOM      3  C1  OXE d   1      -1.614  -0.155   1.238  0.00  0.00    -0.078 A 
ATOM      4  C2  OXE d   1      -0.723  -1.141   0.891  0.00  0.00    -0.078 A 
ATOM      5  C3  OXE d   1      -1.013  -2.469   1.190  0.00  0.00     0.003 A 
ATOM      6  C4  OXE d   1      -2.268  -2.823   1.701  0.00  0.00    -0.002 A 
ATOM      7  C5  OXE d   1      -3.206  -1.837   2.025  0.00  0.00    -0.002 A 
ATOM      8  C6  OXE d   1      -2.879  -0.498   1.840  0.00  0.00     0.003 A 
ENDROOT
TORSDOF 0
ENDMDL
