MODEL 1
REMARK minimizedAffinity -6.32012272
REMARK minimizedRMSD -1
REMARK  0 active torsions:
REMARK  status: ('A' for Active; 'I' for Inactive)
ROOT
ATOM      1  C2' OXE d   1      -0.281   1.008   0.055  0.00  0.00     0.078 C 
ATOM      2  C1' OXE d   1       0.320  -1.734   0.021  0.00  0.00     0.078 C 
ATOM      3  C1  OXE d   1      -0.876  -1.286   0.824  0.00  0.00    -0.078 A 
ATOM      4  C2  OXE d   1      -1.135   0.063   0.873  0.00  0.00    -0.078 A 
ATOM      5  C3  OXE d   1      -2.257   0.525   1.554  0.00  0.00     0.003 A 
ATOM      6  C4  OXE d   1      -3.036  -0.355   2.317  0.00  0.00    -0.002 A 
ATOM      7  C5  OXE d   1      -2.766  -1.727   2.313  0.00  0.00    -0.002 A 
ATOM      8  C6  OXE d   1      -1.717  -2.213   1.539  0.00  0.00     0.003 A 
ENDROOT
TORSDOF 0
ENDMDL
