MODEL 1
REMARK minimizedAffinity 2.37875724
REMARK minimizedRMSD -1
REMARK  0 active torsions:
REMARK  status: ('A' for Active; 'I' for Inactive)
ROOT
ATOM      1  C   UNL d   1      -1.301  -0.927   3.258  0.00  0.00     0.078 C 
ATOM      2  C1  UNL d   1      -0.586  -0.701   1.959  0.00  0.00    -0.077 A 
ATOM      3  C2  UNL d   1      -1.213  -0.037   0.897  0.00  0.00    -0.001 A 
ATOM      4  C3  UNL d   1      -0.539   0.158  -0.309  0.00  0.00     0.003 A 
ATOM      5  C4  UNL d   1       0.765  -0.309  -0.466  0.00  0.00    -0.005 A 
ATOM      6  C5  UNL d   1       1.396  -0.973   0.585  0.00  0.00     0.003 A 
ATOM      7  C6  UNL d   1       0.723  -1.168   1.792  0.00  0.00    -0.001 A 
ENDROOT
TORSDOF 0
ENDMDL
