MODEL 1
REMARK minimizedAffinity 0.00444707414
REMARK minimizedRMSD -1
REMARK  0 active torsions:
REMARK  status: ('A' for Active; 'I' for Inactive)
ROOT
ATOM      1  C   UNL d   1       4.574  -2.156  -5.999  0.00  0.00     0.078 C 
ATOM      2  C1  UNL d   1       4.924  -3.486  -5.402  0.00  0.00    -0.077 A 
ATOM      3  C2  UNL d   1       4.498  -4.679  -6.000  0.00  0.00    -0.001 A 
ATOM      4  C3  UNL d   1       4.823  -5.910  -5.427  0.00  0.00     0.003 A 
ATOM      5  C4  UNL d   1       5.574  -5.960  -4.255  0.00  0.00    -0.005 A 
ATOM      6  C5  UNL d   1       6.000  -4.778  -3.652  0.00  0.00     0.003 A 
ATOM      7  C6  UNL d   1       5.676  -3.547  -4.222  0.00  0.00    -0.001 A 
ENDROOT
TORSDOF 0
ENDMDL
