MODEL 1
REMARK minimizedAffinity 2.45717907
REMARK minimizedRMSD -1
REMARK  0 active torsions:
REMARK  status: ('A' for Active; 'I' for Inactive)
ROOT
ATOM      1  C   UNL d   1       1.507  -4.981  -6.000  0.00  0.00     0.078 C 
ATOM      2  C1  UNL d   1       2.855  -4.459  -5.604  0.00  0.00    -0.077 A 
ATOM      3  C2  UNL d   1       3.278  -3.183  -5.997  0.00  0.00    -0.001 A 
ATOM      4  C3  UNL d   1       4.540  -2.714  -5.629  0.00  0.00     0.003 A 
ATOM      5  C4  UNL d   1       5.390  -3.513  -4.867  0.00  0.00    -0.005 A 
ATOM      6  C5  UNL d   1       4.978  -4.785  -4.473  0.00  0.00     0.003 A 
ATOM      7  C6  UNL d   1       3.716  -5.256  -4.840  0.00  0.00    -0.001 A 
ENDROOT
TORSDOF 0
ENDMDL
