MODEL 1
REMARK minimizedAffinity 5.60825205
REMARK minimizedRMSD -1
REMARK  0 active torsions:
REMARK  status: ('A' for Active; 'I' for Inactive)
ROOT
ATOM      1  C   UNL d   1       4.444  -5.989  -2.429  0.00  0.00     0.078 C 
ATOM      2  C1  UNL d   1       4.673  -5.195  -3.680  0.00  0.00    -0.077 A 
ATOM      3  C2  UNL d   1       5.257  -5.781  -4.810  0.00  0.00    -0.001 A 
ATOM      4  C3  UNL d   1       5.473  -5.027  -5.964  0.00  0.00     0.003 A 
ATOM      5  C4  UNL d   1       5.109  -3.682  -6.000  0.00  0.00    -0.005 A 
ATOM      6  C5  UNL d   1       4.530  -3.090  -4.880  0.00  0.00     0.003 A 
ATOM      7  C6  UNL d   1       4.313  -3.842  -3.724  0.00  0.00    -0.001 A 
ENDROOT
TORSDOF 0
ENDMDL
