MODEL 1
REMARK minimizedAffinity -0.802977324
REMARK minimizedRMSD -1
REMARK  0 active torsions:
REMARK  status: ('A' for Active; 'I' for Inactive)
ROOT
ATOM      1  C   UNL d   1       4.533  -2.001  -6.000  0.00  0.00     0.078 C 
ATOM      2  C1  UNL d   1       4.820  -3.349  -5.408  0.00  0.00    -0.077 A 
ATOM      3  C2  UNL d   1       5.751  -4.212  -5.998  0.00  0.00    -0.001 A 
ATOM      4  C3  UNL d   1       6.000  -5.468  -5.442  0.00  0.00     0.003 A 
ATOM      5  C4  UNL d   1       5.321  -5.872  -4.294  0.00  0.00    -0.005 A 
ATOM      6  C5  UNL d   1       4.392  -5.021  -3.701  0.00  0.00     0.003 A 
ATOM      7  C6  UNL d   1       4.141  -3.764  -4.256  0.00  0.00    -0.001 A 
ENDROOT
TORSDOF 0
ENDMDL
