MODEL 1
REMARK minimizedAffinity 3.46719337
REMARK minimizedRMSD -1
REMARK  0 active torsions:
REMARK  status: ('A' for Active; 'I' for Inactive)
ROOT
ATOM      1  C   UNL d   1       5.963  -1.251   3.628  0.00  0.00     0.078 C 
ATOM      2  C1  UNL d   1       5.983  -1.265   2.129  0.00  0.00    -0.077 A 
ATOM      3  C2  UNL d   1       5.984  -0.071   1.397  0.00  0.00    -0.001 A 
ATOM      4  C3  UNL d   1       5.993  -0.099   0.001  0.00  0.00     0.003 A 
ATOM      5  C4  UNL d   1       5.999  -1.318  -0.674  0.00  0.00    -0.005 A 
ATOM      6  C5  UNL d   1       5.997  -2.511   0.046  0.00  0.00     0.003 A 
ATOM      7  C6  UNL d   1       5.988  -2.485   1.442  0.00  0.00    -0.001 A 
ENDROOT
TORSDOF 0
ENDMDL
