MODEL 1
REMARK minimizedAffinity -3.00041461
REMARK minimizedRMSD -1
REMARK  0 active torsions:
REMARK  status: ('A' for Active; 'I' for Inactive)
ROOT
ATOM      1  C   UNL d   1       4.473  -1.714  -5.317  0.00  0.00     0.078 C 
ATOM      2  C1  UNL d   1       4.716  -3.194  -5.281  0.00  0.00    -0.077 A 
ATOM      3  C2  UNL d   1       5.780  -3.732  -4.547  0.00  0.00    -0.001 A 
ATOM      4  C3  UNL d   1       6.000  -5.110  -4.530  0.00  0.00     0.003 A 
ATOM      5  C4  UNL d   1       5.161  -5.962  -5.247  0.00  0.00    -0.005 A 
ATOM      6  C5  UNL d   1       4.101  -5.435  -5.982  0.00  0.00     0.003 A 
ATOM      7  C6  UNL d   1       3.879  -4.057  -6.000  0.00  0.00    -0.001 A 
ENDROOT
TORSDOF 0
ENDMDL
