MODEL 1
REMARK minimizedAffinity 3.9992795
REMARK minimizedRMSD -1
REMARK  0 active torsions:
REMARK  status: ('A' for Active; 'I' for Inactive)
ROOT
ATOM      1  C   UNL d   1       2.786  -3.873  -3.141  0.00  0.00     0.078 C 
ATOM      2  C1  UNL d   1       3.904  -4.489  -3.929  0.00  0.00    -0.077 A 
ATOM      3  C2  UNL d   1       4.757  -5.437  -3.350  0.00  0.00    -0.001 A 
ATOM      4  C3  UNL d   1       5.799  -5.995  -4.092  0.00  0.00     0.003 A 
ATOM      5  C4  UNL d   1       6.000  -5.609  -5.416  0.00  0.00    -0.005 A 
ATOM      6  C5  UNL d   1       5.158  -4.665  -6.000  0.00  0.00     0.003 A 
ATOM      7  C6  UNL d   1       4.115  -4.106  -5.259  0.00  0.00    -0.001 A 
ENDROOT
TORSDOF 0
ENDMDL
