MODEL 1
REMARK minimizedAffinity 1.8389169
REMARK minimizedRMSD -1
REMARK  0 active torsions:
REMARK  status: ('A' for Active; 'I' for Inactive)
ROOT
ATOM      1  C   UNL d   1       5.996  -5.989  -4.553  0.00  0.00     0.078 C 
ATOM      2  C1  UNL d   1       5.076  -4.914  -5.049  0.00  0.00    -0.077 A 
ATOM      3  C2  UNL d   1       3.753  -5.203  -5.405  0.00  0.00    -0.001 A 
ATOM      4  C3  UNL d   1       2.911  -4.194  -5.875  0.00  0.00     0.003 A 
ATOM      5  C4  UNL d   1       3.383  -2.888  -5.994  0.00  0.00    -0.005 A 
ATOM      6  C5  UNL d   1       4.698  -2.591  -5.645  0.00  0.00     0.003 A 
ATOM      7  C6  UNL d   1       5.542  -3.599  -5.175  0.00  0.00    -0.001 A 
ENDROOT
TORSDOF 0
ENDMDL
