MODEL 1
REMARK minimizedAffinity 2.25575542
REMARK minimizedRMSD -1
REMARK  0 active torsions:
REMARK  status: ('A' for Active; 'I' for Inactive)
ROOT
ATOM      1  C   UNL d   1       3.805  -1.873  -5.997  0.00  0.00     0.078 C 
ATOM      2  C1  UNL d   1       4.246  -3.305  -5.943  0.00  0.00    -0.077 A 
ATOM      3  C2  UNL d   1       5.603  -3.645  -6.000  0.00  0.00    -0.001 A 
ATOM      4  C3  UNL d   1       5.998  -4.983  -5.959  0.00  0.00     0.003 A 
ATOM      5  C4  UNL d   1       5.042  -5.992  -5.862  0.00  0.00    -0.005 A 
ATOM      6  C5  UNL d   1       3.689  -5.664  -5.808  0.00  0.00     0.003 A 
ATOM      7  C6  UNL d   1       3.292  -4.326  -5.848  0.00  0.00    -0.001 A 
ENDROOT
TORSDOF 0
ENDMDL
