MODEL 1
REMARK minimizedAffinity 0.455386579
REMARK minimizedRMSD -1
REMARK  0 active torsions:
REMARK  status: ('A' for Active; 'I' for Inactive)
ROOT
ATOM      1  C   UNL d   1       2.972  -4.903  -2.626  0.00  0.00     0.078 C 
ATOM      2  C1  UNL d   1       3.897  -4.778  -3.800  0.00  0.00    -0.077 A 
ATOM      3  C2  UNL d   1       5.145  -5.413  -3.806  0.00  0.00    -0.001 A 
ATOM      4  C3  UNL d   1       6.000  -5.279  -4.901  0.00  0.00     0.003 A 
ATOM      5  C4  UNL d   1       5.617  -4.510  -5.998  0.00  0.00    -0.005 A 
ATOM      6  C5  UNL d   1       4.378  -3.872  -6.000  0.00  0.00     0.003 A 
ATOM      7  C6  UNL d   1       3.521  -4.005  -4.906  0.00  0.00    -0.001 A 
ENDROOT
TORSDOF 0
ENDMDL
