MODEL 1
REMARK minimizedAffinity 1.32786036
REMARK minimizedRMSD -1
REMARK  0 active torsions:
REMARK  status: ('A' for Active; 'I' for Inactive)
ROOT
ATOM      1  C   UNL d   1      -0.853  -2.690  -2.050  0.00  0.00     0.078 C 
ATOM      2  C1  UNL d   1      -2.047  -3.492  -1.626  0.00  0.00    -0.077 A 
ATOM      3  C2  UNL d   1      -3.145  -2.880  -1.010  0.00  0.00    -0.001 A 
ATOM      4  C3  UNL d   1      -4.245  -3.640  -0.612  0.00  0.00     0.003 A 
ATOM      5  C4  UNL d   1      -4.258  -5.017  -0.825  0.00  0.00    -0.005 A 
ATOM      6  C5  UNL d   1      -3.170  -5.635  -1.435  0.00  0.00     0.003 A 
ATOM      7  C6  UNL d   1      -2.068  -4.877  -1.834  0.00  0.00    -0.001 A 
ENDROOT
TORSDOF 0
ENDMDL
