MODEL 1
REMARK minimizedAffinity -0.94720602
REMARK minimizedRMSD -1
REMARK  0 active torsions:
REMARK  status: ('A' for Active; 'I' for Inactive)
ROOT
ATOM      1  C   UNL d   1       4.556  -2.164  -5.937  0.00  0.00     0.078 C 
ATOM      2  C1  UNL d   1       4.943  -3.491  -5.354  0.00  0.00    -0.077 A 
ATOM      3  C2  UNL d   1       4.609  -4.687  -6.000  0.00  0.00    -0.001 A 
ATOM      4  C3  UNL d   1       4.968  -5.915  -5.441  0.00  0.00     0.003 A 
ATOM      5  C4  UNL d   1       5.662  -5.958  -4.233  0.00  0.00    -0.005 A 
ATOM      6  C5  UNL d   1       5.997  -4.772  -3.582  0.00  0.00     0.003 A 
ATOM      7  C6  UNL d   1       5.639  -3.544  -4.139  0.00  0.00    -0.001 A 
ENDROOT
TORSDOF 0
ENDMDL
