MODEL 1
REMARK minimizedAffinity 3.63893199
REMARK minimizedRMSD -1
REMARK  0 active torsions:
REMARK  status: ('A' for Active; 'I' for Inactive)
ROOT
ATOM      1  C   UNL d   1       2.401  -4.519  -5.999  0.00  0.00     0.078 C 
ATOM      2  C1  UNL d   1       3.600  -4.870  -5.170  0.00  0.00    -0.077 A 
ATOM      3  C2  UNL d   1       3.471  -5.180  -3.810  0.00  0.00    -0.001 A 
ATOM      4  C3  UNL d   1       4.597  -5.496  -3.048  0.00  0.00     0.003 A 
ATOM      5  C4  UNL d   1       5.860  -5.504  -3.637  0.00  0.00    -0.005 A 
ATOM      6  C5  UNL d   1       5.999  -5.194  -4.988  0.00  0.00     0.003 A 
ATOM      7  C6  UNL d   1       4.874  -4.878  -5.752  0.00  0.00    -0.001 A 
ENDROOT
TORSDOF 0
ENDMDL
