MODEL 1
REMARK minimizedAffinity 1.12624931
REMARK minimizedRMSD -1
REMARK  0 active torsions:
REMARK  status: ('A' for Active; 'I' for Inactive)
ROOT
ATOM      1  C   UNL d   1       3.343  -2.517  -5.921  0.00  0.00     0.078 C 
ATOM      2  C1  UNL d   1       4.198  -3.571  -5.282  0.00  0.00    -0.077 A 
ATOM      3  C2  UNL d   1       5.219  -4.205  -6.000  0.00  0.00    -0.001 A 
ATOM      4  C3  UNL d   1       6.000  -5.191  -5.395  0.00  0.00     0.003 A 
ATOM      5  C4  UNL d   1       5.767  -5.553  -4.070  0.00  0.00    -0.005 A 
ATOM      6  C5  UNL d   1       4.752  -4.929  -3.348  0.00  0.00     0.003 A 
ATOM      7  C6  UNL d   1       3.970  -3.943  -3.951  0.00  0.00    -0.001 A 
ENDROOT
TORSDOF 0
ENDMDL
