MODEL 1
REMARK minimizedAffinity 1.54478729
REMARK minimizedRMSD -1
REMARK  0 active torsions:
REMARK  status: ('A' for Active; 'I' for Inactive)
ROOT
ATOM      1  C   UNL d   1       4.672  -3.044  -2.823  0.00  0.00     0.078 C 
ATOM      2  C1  UNL d   1       4.724  -4.063  -3.922  0.00  0.00    -0.077 A 
ATOM      3  C2  UNL d   1       5.703  -5.064  -3.932  0.00  0.00    -0.001 A 
ATOM      4  C3  UNL d   1       5.746  -5.999  -4.966  0.00  0.00     0.003 A 
ATOM      5  C4  UNL d   1       4.813  -5.943  -6.000  0.00  0.00    -0.005 A 
ATOM      6  C5  UNL d   1       3.836  -4.949  -6.000  0.00  0.00     0.003 A 
ATOM      7  C6  UNL d   1       3.792  -4.012  -4.966  0.00  0.00    -0.001 A 
ENDROOT
TORSDOF 0
ENDMDL
