MODEL 1
REMARK minimizedAffinity -0.605909169
REMARK minimizedRMSD -1
REMARK  0 active torsions:
REMARK  status: ('A' for Active; 'I' for Inactive)
ROOT
ATOM      1  C   UNL d   1       5.997  -3.379  -2.469  0.00  0.00     0.078 C 
ATOM      2  C1  UNL d   1       5.307  -3.903  -3.692  0.00  0.00    -0.077 A 
ATOM      3  C2  UNL d   1       4.726  -5.177  -3.702  0.00  0.00    -0.001 A 
ATOM      4  C3  UNL d   1       4.095  -5.657  -4.851  0.00  0.00     0.003 A 
ATOM      5  C4  UNL d   1       4.040  -4.869  -5.999  0.00  0.00    -0.005 A 
ATOM      6  C5  UNL d   1       4.617  -3.601  -6.000  0.00  0.00     0.003 A 
ATOM      7  C6  UNL d   1       5.249  -3.120  -4.852  0.00  0.00    -0.001 A 
ENDROOT
TORSDOF 0
ENDMDL
