MODEL 1
REMARK minimizedAffinity 2.85596776
REMARK minimizedRMSD -1
REMARK  0 active torsions:
REMARK  status: ('A' for Active; 'I' for Inactive)
ROOT
ATOM      1  C   UNL d   1       2.487  -0.472   0.398  0.00  0.00     0.020 A 
ATOM      2  C1  UNL d   1       1.848  -1.003  -0.722  0.00  0.00     0.020 A 
ATOM      3  C2  UNL d   1       0.453  -1.016  -0.790  0.00  0.00     0.034 A 
ATOM      4  C3  UNL d   1      -0.307  -0.498   0.264  0.00  0.00     0.017 A 
ATOM      5  C4  UNL d   1       0.334   0.034   1.389  0.00  0.00     0.017 A 
ATOM      6  C5  UNL d   1       1.731   0.045   1.451  0.00  0.00     0.034 A 
ATOM      7 Cl   UNL d   1      -0.537   0.692   2.729  0.00  0.00    -0.070 Cl
ATOM      8 Cl1  UNL d   1      -2.028  -0.546   0.113  0.00  0.00    -0.070 Cl
ENDROOT
TORSDOF 0
ENDMDL
