MODEL 1
REMARK minimizedAffinity -0.247937933
REMARK minimizedRMSD -1
REMARK  0 active torsions:
REMARK  status: ('A' for Active; 'I' for Inactive)
ROOT
ATOM      1  C   UNL d   1       1.742  -0.474  -0.235  0.00  0.00     0.020 A 
ATOM      2  C1  UNL d   1       2.122  -0.155   1.068  0.00  0.00     0.020 A 
ATOM      3  C2  UNL d   1       1.148   0.055   2.047  0.00  0.00     0.034 A 
ATOM      4  C3  UNL d   1      -0.209  -0.053   1.725  0.00  0.00     0.017 A 
ATOM      5  C4  UNL d   1      -0.589  -0.374   0.417  0.00  0.00     0.017 A 
ATOM      6  C5  UNL d   1       0.389  -0.584  -0.559  0.00  0.00     0.034 A 
ATOM      7 Cl   UNL d   1      -2.245  -0.526  -0.056  0.00  0.00    -0.070 Cl
ATOM      8 Cl1  UNL d   1      -1.359   0.219   2.986  0.00  0.00    -0.070 Cl
ENDROOT
TORSDOF 0
ENDMDL
