MODEL 1
REMARK minimizedAffinity 2.72674513
REMARK minimizedRMSD -1
REMARK  0 active torsions:
REMARK  status: ('A' for Active; 'I' for Inactive)
ROOT
ATOM      1  C   UNL d   1      -1.266   0.390   3.289  0.00  0.00     0.020 A 
ATOM      2  C1  UNL d   1      -0.111   1.139   3.511  0.00  0.00     0.020 A 
ATOM      3  C2  UNL d   1       0.900   1.165   2.549  0.00  0.00     0.034 A 
ATOM      4  C3  UNL d   1       0.759   0.441   1.359  0.00  0.00     0.017 A 
ATOM      5  C4  UNL d   1      -0.401  -0.311   1.137  0.00  0.00     0.017 A 
ATOM      6  C5  UNL d   1      -1.410  -0.333   2.105  0.00  0.00     0.034 A 
ATOM      7 Cl   UNL d   1      -0.648  -1.230  -0.305  0.00  0.00    -0.070 Cl
ATOM      8 Cl1  UNL d   1       2.049   0.519   0.213  0.00  0.00    -0.070 Cl
ENDROOT
TORSDOF 0
ENDMDL
