MODEL 1
REMARK minimizedAffinity -2.30379152
REMARK minimizedRMSD -1
REMARK  0 active torsions:
REMARK  status: ('A' for Active; 'I' for Inactive)
ROOT
ATOM      1  C   UNL d   1      -2.271  -0.451   0.412  0.00  0.00     0.020 A 
ATOM      2  C1  UNL d   1      -1.188  -1.055  -0.227  0.00  0.00     0.020 A 
ATOM      3  C2  UNL d   1       0.115  -0.761   0.181  0.00  0.00     0.034 A 
ATOM      4  C3  UNL d   1       0.339   0.138   1.230  0.00  0.00     0.017 A 
ATOM      5  C4  UNL d   1      -0.748   0.743   1.870  0.00  0.00     0.017 A 
ATOM      6  C5  UNL d   1      -2.051   0.446   1.458  0.00  0.00     0.034 A 
ATOM      7 Cl   UNL d   1      -0.551   1.862   3.173  0.00  0.00    -0.070 Cl
ATOM      8 Cl1  UNL d   1       1.977   0.453   1.682  0.00  0.00    -0.070 Cl
ENDROOT
TORSDOF 0
ENDMDL
