MODEL 1
REMARK minimizedAffinity 0.211197868
REMARK minimizedRMSD -1
REMARK  0 active torsions:
REMARK  status: ('A' for Active; 'I' for Inactive)
ROOT
ATOM      1  C   UNL d   1       1.954   0.014   0.974  0.00  0.00     0.020 A 
ATOM      2  C1  UNL d   1       0.592  -0.204   0.767  0.00  0.00     0.020 A 
ATOM      3  C2  UNL d   1       0.011   0.129  -0.459  0.00  0.00     0.034 A 
ATOM      4  C3  UNL d   1       0.792   0.681  -1.481  0.00  0.00     0.017 A 
ATOM      5  C4  UNL d   1       2.158   0.899  -1.272  0.00  0.00     0.017 A 
ATOM      6  C5  UNL d   1       2.735   0.564  -0.043  0.00  0.00     0.034 A 
ATOM      7 Cl   UNL d   1       3.186   1.576  -2.485  0.00  0.00    -0.070 Cl
ATOM      8 Cl1  UNL d   1       0.007   1.068  -2.971  0.00  0.00    -0.070 Cl
ENDROOT
TORSDOF 0
ENDMDL
