MODEL 1
REMARK minimizedAffinity -3.51090407
REMARK minimizedRMSD -1
REMARK  0 active torsions:
REMARK  status: ('A' for Active; 'I' for Inactive)
ROOT
ATOM      1  C   UNL d   1      -1.261   0.610   3.042  0.00  0.00     0.020 A 
ATOM      2  C1  UNL d   1      -0.122   1.347   2.721  0.00  0.00     0.020 A 
ATOM      3  C2  UNL d   1       0.389   1.312   1.422  0.00  0.00     0.034 A 
ATOM      4  C3  UNL d   1      -0.238   0.538   0.439  0.00  0.00     0.017 A 
ATOM      5  C4  UNL d   1      -1.382  -0.201   0.762  0.00  0.00     0.017 A 
ATOM      6  C5  UNL d   1      -1.889  -0.162   2.064  0.00  0.00     0.034 A 
ATOM      7 Cl   UNL d   1      -2.211  -1.180  -0.397  0.00  0.00    -0.070 Cl
ATOM      8 Cl1  UNL d   1       0.448   0.542  -1.147  0.00  0.00    -0.070 Cl
ENDROOT
TORSDOF 0
ENDMDL
