MODEL 1
REMARK minimizedAffinity 0.39790678
REMARK minimizedRMSD -1
REMARK  0 active torsions:
REMARK  status: ('A' for Active; 'I' for Inactive)
ROOT
ATOM      1  C   UNL d   1       1.392  -0.767   0.901  0.00  0.00     0.020 A 
ATOM      2  C1  UNL d   1       0.666   0.265   1.494  0.00  0.00     0.020 A 
ATOM      3  C2  UNL d   1      -0.060   1.155   0.700  0.00  0.00     0.034 A 
ATOM      4  C3  UNL d   1      -0.062   1.014  -0.693  0.00  0.00     0.017 A 
ATOM      5  C4  UNL d   1       0.666  -0.022  -1.288  0.00  0.00     0.017 A 
ATOM      6  C5  UNL d   1       1.392  -0.910  -0.487  0.00  0.00     0.034 A 
ATOM      7 Cl   UNL d   1       0.712  -0.260  -2.999  0.00  0.00    -0.070 Cl
ATOM      8 Cl1  UNL d   1      -0.983   2.150  -1.614  0.00  0.00    -0.070 Cl
ENDROOT
TORSDOF 0
ENDMDL
