MODEL 1
REMARK minimizedAffinity -2.09202504
REMARK minimizedRMSD -1
REMARK  2 active torsions:
REMARK  status: ('A' for Active; 'I' for Inactive)
REMARK    1  A    between atoms: C2'_3  and  C1'_4 
REMARK    2  A    between atoms: C1'_4  and  C1_5 
ROOT
ATOM      1  C1  I4B d   1       1.396  -4.114   2.393  0.00  0.00    -0.075 A 
ATOM      2  C2  I4B d   1       0.315  -4.905   2.692  0.00  0.00     0.003 A 
ATOM      3  C3  I4B d   1      -0.975  -4.334   2.814  0.00  0.00     0.002 A 
ATOM      4  C4  I4B d   1      -1.129  -2.969   2.680  0.00  0.00    -0.004 A 
ATOM      5  C5  I4B d   1      -0.036  -2.171   2.354  0.00  0.00     0.002 A 
ATOM      6  C6  I4B d   1       1.233  -2.749   2.197  0.00  0.00     0.003 A 
ENDROOT
BRANCH   1   7
ATOM      7  C1' I4B d   1       2.749  -4.745   2.304  0.00  0.00     0.060 C 
BRANCH   7   8
ATOM      8  C2' I4B d   1       3.127  -4.835   0.839  0.00  0.00    -0.013 C 
ATOM      9  C4' I4B d   1       2.679  -3.611   0.085  0.00  0.00     0.013 C 
ATOM     10  C3' I4B d   1       4.614  -5.009   0.755  0.00  0.00     0.013 C 
ENDBRANCH   7   8
ENDBRANCH   1   7
TORSDOF 2
ENDMDL
