MODEL 1
REMARK minimizedAffinity 0.443165362
REMARK minimizedRMSD -1
REMARK  2 active torsions:
REMARK  status: ('A' for Active; 'I' for Inactive)
REMARK    1  A    between atoms: C2'_3  and  C1'_4 
REMARK    2  A    between atoms: C1'_4  and  C1_5 
ROOT
ATOM      1  C1  I4B d   1       1.074  -2.892   1.858  0.00  0.00    -0.075 A 
ATOM      2  C2  I4B d   1       1.672  -3.782   2.716  0.00  0.00     0.003 A 
ATOM      3  C3  I4B d   1       2.795  -4.533   2.294  0.00  0.00     0.002 A 
ATOM      4  C4  I4B d   1       3.254  -4.401   0.999  0.00  0.00    -0.004 A 
ATOM      5  C5  I4B d   1       2.661  -3.482   0.139  0.00  0.00     0.002 A 
ATOM      6  C6  I4B d   1       1.572  -2.713   0.574  0.00  0.00     0.003 A 
ENDROOT
BRANCH   1   7
ATOM      7  C1' I4B d   1      -0.131  -2.139   2.326  0.00  0.00     0.060 C 
BRANCH   7   8
ATOM      8  C2' I4B d   1      -1.312  -3.086   2.300  0.00  0.00    -0.013 C 
ATOM      9  C4' I4B d   1      -2.020  -3.111   3.629  0.00  0.00     0.013 C 
ATOM     10  C3' I4B d   1      -2.235  -2.646   1.203  0.00  0.00     0.013 C 
ENDBRANCH   7   8
ENDBRANCH   1   7
TORSDOF 2
ENDMDL
