MODEL 1
REMARK minimizedAffinity 3.01653028
REMARK minimizedRMSD -1
REMARK  2 active torsions:
REMARK  status: ('A' for Active; 'I' for Inactive)
REMARK    1  A    between atoms: C2'_3  and  C1'_4 
REMARK    2  A    between atoms: C1'_4  and  C1_5 
ROOT
ATOM      1  C1  I4B d   1       1.763  -2.015   0.293  0.00  0.00    -0.075 A 
ATOM      2  C2  I4B d   1       0.543  -2.003   0.924  0.00  0.00     0.003 A 
ATOM      3  C3  I4B d   1       0.064  -0.815   1.527  0.00  0.00     0.002 A 
ATOM      4  C4  I4B d   1       0.854   0.317   1.521  0.00  0.00    -0.004 A 
ATOM      5  C5  I4B d   1       2.079   0.310   0.861  0.00  0.00     0.002 A 
ATOM      6  C6  I4B d   1       2.532  -0.860   0.233  0.00  0.00     0.003 A 
ENDROOT
BRANCH   1   7
ATOM      7  C1' I4B d   1       2.253  -3.295  -0.305  0.00  0.00     0.060 C 
BRANCH   7   8
ATOM      8  C2' I4B d   1       3.626  -3.582   0.266  0.00  0.00    -0.013 C 
ATOM      9  C4' I4B d   1       3.530  -4.147   1.659  0.00  0.00     0.013 C 
ATOM     10  C3' I4B d   1       4.323  -4.535  -0.658  0.00  0.00     0.013 C 
ENDBRANCH   7   8
ENDBRANCH   1   7
TORSDOF 2
ENDMDL
