MODEL 1
REMARK minimizedAffinity 2.52097058
REMARK minimizedRMSD -1
REMARK  2 active torsions:
REMARK  status: ('A' for Active; 'I' for Inactive)
REMARK    1  A    between atoms: C2'_3  and  C1'_4 
REMARK    2  A    between atoms: C1'_4  and  C1_5 
ROOT
ATOM      1  C1  I4B d   1      -1.938   3.773  -4.241  0.00  0.00    -0.075 A 
ATOM      2  C2  I4B d   1      -1.714   4.267  -2.980  0.00  0.00     0.003 A 
ATOM      3  C3  I4B d   1      -2.659   4.044  -1.950  0.00  0.00     0.002 A 
ATOM      4  C4  I4B d   1      -3.829   3.370  -2.235  0.00  0.00    -0.004 A 
ATOM      5  C5  I4B d   1      -4.044   2.851  -3.508  0.00  0.00     0.002 A 
ATOM      6  C6  I4B d   1      -3.086   3.043  -4.515  0.00  0.00     0.003 A 
ENDROOT
BRANCH   1   7
ATOM      7  C1' I4B d   1      -0.934   4.056  -5.314  0.00  0.00     0.060 C 
BRANCH   7   8
ATOM      8  C2' I4B d   1       0.199   3.062  -5.167  0.00  0.00    -0.013 C 
ATOM      9  C4' I4B d   1      -0.209   1.694  -5.646  0.00  0.00     0.013 C 
ATOM     10  C3' I4B d   1       1.373   3.579  -5.943  0.00  0.00     0.013 C 
ENDBRANCH   7   8
ENDBRANCH   1   7
TORSDOF 2
ENDMDL
