MODEL 1
REMARK minimizedAffinity -1.33856034
REMARK minimizedRMSD -1
REMARK  2 active torsions:
REMARK  status: ('A' for Active; 'I' for Inactive)
REMARK    1  A    between atoms: C2'_3  and  C1'_4 
REMARK    2  A    between atoms: C1'_4  and  C1_5 
ROOT
ATOM      1  C1  I4B d   1       2.277  -3.423   0.550  0.00  0.00    -0.075 A 
ATOM      2  C2  I4B d   1       1.382  -3.134   1.550  0.00  0.00     0.003 A 
ATOM      3  C3  I4B d   1       0.669  -1.911   1.537  0.00  0.00     0.002 A 
ATOM      4  C4  I4B d   1       0.917  -0.991   0.539  0.00  0.00    -0.004 A 
ATOM      5  C5  I4B d   1       1.808  -1.295  -0.486  0.00  0.00     0.002 A 
ATOM      6  C6  I4B d   1       2.483  -2.524  -0.488  0.00  0.00     0.003 A 
ENDROOT
BRANCH   1   7
ATOM      7  C1' I4B d   1       3.037  -4.710   0.613  0.00  0.00     0.060 C 
BRANCH   7   8
ATOM      8  C2' I4B d   1       4.235  -4.590  -0.307  0.00  0.00    -0.013 C 
ATOM      9  C4' I4B d   1       5.457  -4.130   0.445  0.00  0.00     0.013 C 
ATOM     10  C3' I4B d   1       4.464  -5.927  -0.946  0.00  0.00     0.013 C 
ENDBRANCH   7   8
ENDBRANCH   1   7
TORSDOF 2
ENDMDL
