MODEL 1
REMARK minimizedAffinity 4.40050268
REMARK minimizedRMSD -1
REMARK  2 active torsions:
REMARK  status: ('A' for Active; 'I' for Inactive)
REMARK    1  A    between atoms: C2'_3  and  C1'_4 
REMARK    2  A    between atoms: C1'_4  and  C1_5 
ROOT
ATOM      1  C1  I4B d   1       2.036  -4.107   1.115  0.00  0.00    -0.075 A 
ATOM      2  C2  I4B d   1       0.798  -4.275   1.683  0.00  0.00     0.003 A 
ATOM      3  C3  I4B d   1      -0.096  -3.181   1.782  0.00  0.00     0.002 A 
ATOM      4  C4  I4B d   1       0.306  -1.934   1.351  0.00  0.00    -0.004 A 
ATOM      5  C5  I4B d   1       1.553  -1.770   0.755  0.00  0.00     0.002 A 
ATOM      6  C6  I4B d   1       2.419  -2.865   0.625  0.00  0.00     0.003 A 
ENDROOT
BRANCH   1   7
ATOM      7  C1' I4B d   1       2.967  -5.276   1.056  0.00  0.00     0.060 C 
BRANCH   7   8
ATOM      8  C2' I4B d   1       4.170  -4.873   0.227  0.00  0.00    -0.013 C 
ATOM      9  C4' I4B d   1       5.446  -5.013   1.015  0.00  0.00     0.013 C 
ATOM     10  C3' I4B d   1       4.194  -5.734  -1.001  0.00  0.00     0.013 C 
ENDBRANCH   7   8
ENDBRANCH   1   7
TORSDOF 2
ENDMDL
