MODEL 1
REMARK minimizedAffinity 6.76875687
REMARK minimizedRMSD -1
REMARK  2 active torsions:
REMARK  status: ('A' for Active; 'I' for Inactive)
REMARK    1  A    between atoms: C2'_3  and  C1'_4 
REMARK    2  A    between atoms: C1'_4  and  C1_5 
ROOT
ATOM      1  C1  I4B d   1      -3.746   3.226   5.356  0.00  0.00    -0.075 A 
ATOM      2  C2  I4B d   1      -4.959   3.119   5.989  0.00  0.00     0.003 A 
ATOM      3  C3  I4B d   1      -6.000   2.352   5.410  0.00  0.00     0.002 A 
ATOM      4  C4  I4B d   1      -5.802   1.755   4.182  0.00  0.00    -0.004 A 
ATOM      5  C5  I4B d   1      -4.563   1.846   3.553  0.00  0.00     0.002 A 
ATOM      6  C6  I4B d   1      -3.525   2.576   4.149  0.00  0.00     0.003 A 
ENDROOT
BRANCH   1   7
ATOM      7  C1' I4B d   1      -2.680   4.071   5.979  0.00  0.00     0.060 C 
BRANCH   7   8
ATOM      8  C2' I4B d   1      -3.008   5.522   5.692  0.00  0.00    -0.013 C 
ATOM      9  C4' I4B d   1      -2.678   5.884   4.268  0.00  0.00     0.013 C 
ATOM     10  C3' I4B d   1      -4.464   5.734   5.981  0.00  0.00     0.013 C 
ENDBRANCH   7   8
ENDBRANCH   1   7
TORSDOF 2
ENDMDL
