MODEL 1
REMARK minimizedAffinity 0.870084763
REMARK minimizedRMSD -1
REMARK  0 active torsions:
REMARK  status: ('A' for Active; 'I' for Inactive)
ROOT
ATOM      1  C   UNL d   1      -5.512  -0.776   3.165  0.00  0.00    -0.002 A 
ATOM      2  C1  UNL d   1      -4.952  -1.768   2.373  0.00  0.00     0.010 A 
ATOM      3  C2  UNL d   1      -3.568  -1.845   2.203  0.00  0.00     0.041 A 
ATOM      4  C3  UNL d   1      -2.749  -0.899   2.850  0.00  0.00    -0.075 A 
ATOM      5  S   UNL d   1      -1.029  -0.798   2.787  0.00  0.00     0.015 SA
ATOM      6  C4  UNL d   1      -0.997   0.564   3.811  0.00  0.00     0.022 A 
ATOM      7  C5  UNL d   1      -2.259   0.947   4.200  0.00  0.00     0.026 A 
ATOM      8  C6  UNL d   1      -3.289   0.109   3.653  0.00  0.00    -0.082 A 
ATOM      9  C7  UNL d   1      -4.696   0.161   3.805  0.00  0.00     0.045 A 
ENDROOT
TORSDOF 0
ENDMDL
