MODEL 1
REMARK minimizedAffinity 2.59780979
REMARK minimizedRMSD -1
REMARK  0 active torsions:
REMARK  status: ('A' for Active; 'I' for Inactive)
ROOT
ATOM      1  C   UNL d   1      -5.627  -1.309   4.687  0.00  0.00    -0.002 A 
ATOM      2  C1  UNL d   1      -5.155  -1.492   3.394  0.00  0.00     0.010 A 
ATOM      3  C2  UNL d   1      -3.937  -0.937   2.998  0.00  0.00     0.041 A 
ATOM      4  C3  UNL d   1      -3.191  -0.191   3.932  0.00  0.00    -0.075 A 
ATOM      5  S   UNL d   1      -1.671   0.579   3.671  0.00  0.00     0.015 SA
ATOM      6  C4  UNL d   1      -1.611   1.168   5.270  0.00  0.00     0.022 A 
ATOM      7  C5  UNL d   1      -2.716   0.795   5.998  0.00  0.00     0.026 A 
ATOM      8  C6  UNL d   1      -3.644   0.005   5.240  0.00  0.00    -0.082 A 
ATOM      9  C7  UNL d   1      -4.884  -0.569   5.610  0.00  0.00     0.045 A 
ENDROOT
TORSDOF 0
ENDMDL
