MODEL 1
REMARK minimizedAffinity 3.69117308
REMARK minimizedRMSD -1
REMARK  0 active torsions:
REMARK  status: ('A' for Active; 'I' for Inactive)
ROOT
ATOM      1  C   UNL d   1      -0.067   4.506  -3.955  0.00  0.00    -0.002 A 
ATOM      2  C1  UNL d   1       0.041   4.849  -5.295  0.00  0.00     0.010 A 
ATOM      3  C2  UNL d   1      -1.069   5.319  -6.000  0.00  0.00     0.041 A 
ATOM      4  C3  UNL d   1      -2.301   5.441  -5.328  0.00  0.00    -0.075 A 
ATOM      5  S   UNL d   1      -3.794   5.995  -5.988  0.00  0.00     0.015 SA
ATOM      6  C4  UNL d   1      -4.611   5.790  -4.506  0.00  0.00     0.022 A 
ATOM      7  C5  UNL d   1      -3.780   5.311  -3.521  0.00  0.00     0.026 A 
ATOM      8  C6  UNL d   1      -2.435   5.103  -3.978  0.00  0.00    -0.082 A 
ATOM      9  C7  UNL d   1      -1.291   4.628  -3.292  0.00  0.00     0.045 A 
ENDROOT
TORSDOF 0
ENDMDL
