MODEL 1
REMARK minimizedAffinity 12.52145
REMARK minimizedRMSD -1
REMARK  0 active torsions:
REMARK  status: ('A' for Active; 'I' for Inactive)
ROOT
ATOM      1  C   UNL d   1      -0.169   5.375  -0.382  0.00  0.00    -0.002 A 
ATOM      2  C1  UNL d   1      -1.463   5.864  -0.273  0.00  0.00     0.010 A 
ATOM      3  C2  UNL d   1      -2.430   5.161   0.448  0.00  0.00     0.041 A 
ATOM      4  C3  UNL d   1      -2.071   3.946   1.065  0.00  0.00    -0.075 A 
ATOM      5  S   UNL d   1      -3.088   2.915   2.000  0.00  0.00     0.015 SA
ATOM      6  C4  UNL d   1      -1.828   1.801   2.278  0.00  0.00     0.022 A 
ATOM      7  C5  UNL d   1      -0.654   2.191   1.679  0.00  0.00     0.026 A 
ATOM      8  C6  UNL d   1      -0.774   3.434   0.971  0.00  0.00    -0.082 A 
ATOM      9  C7  UNL d   1       0.183   4.170   0.232  0.00  0.00     0.045 A 
ENDROOT
TORSDOF 0
ENDMDL
