MODEL 1
REMARK minimizedAffinity 9.4461441
REMARK minimizedRMSD -1
REMARK  0 active torsions:
REMARK  status: ('A' for Active; 'I' for Inactive)
ROOT
ATOM      1  C   UNL d   1       2.228  -2.374   0.747  0.00  0.00    -0.002 A 
ATOM      2  C1  UNL d   1       3.373  -1.609   0.576  0.00  0.00     0.010 A 
ATOM      3  C2  UNL d   1       4.579  -2.210   0.209  0.00  0.00     0.041 A 
ATOM      4  C3  UNL d   1       4.615  -3.604   0.014  0.00  0.00    -0.075 A 
ATOM      5  S   UNL d   1       5.979  -4.556  -0.438  0.00  0.00     0.015 SA
ATOM      6  C4  UNL d   1       5.073  -6.000  -0.416  0.00  0.00     0.022 A 
ATOM      7  C5  UNL d   1       3.760  -5.779  -0.073  0.00  0.00     0.026 A 
ATOM      8  C6  UNL d   1       3.474  -4.395   0.180  0.00  0.00    -0.082 A 
ATOM      9  C7  UNL d   1       2.267  -3.757   0.553  0.00  0.00     0.045 A 
ENDROOT
TORSDOF 0
ENDMDL
