MODEL 1
REMARK minimizedAffinity 13.173913
REMARK minimizedRMSD -1
REMARK  0 active torsions:
REMARK  status: ('A' for Active; 'I' for Inactive)
ROOT
ATOM      1  C   UNL d   1       1.155  -3.748  -0.625  0.00  0.00    -0.002 A 
ATOM      2  C1  UNL d   1       0.401  -3.186   0.396  0.00  0.00     0.010 A 
ATOM      3  C2  UNL d   1       0.961  -2.236   1.253  0.00  0.00     0.041 A 
ATOM      4  C3  UNL d   1       2.304  -1.854   1.062  0.00  0.00    -0.075 A 
ATOM      5  S   UNL d   1       3.200  -0.708   1.987  0.00  0.00     0.015 SA
ATOM      6  C4  UNL d   1       4.604  -0.936   1.048  0.00  0.00     0.022 A 
ATOM      7  C5  UNL d   1       4.412  -1.860   0.049  0.00  0.00     0.026 A 
ATOM      8  C6  UNL d   1       3.083  -2.404   0.040  0.00  0.00    -0.082 A 
ATOM      9  C7  UNL d   1       2.486  -3.366  -0.811  0.00  0.00     0.045 A 
ENDROOT
TORSDOF 0
ENDMDL
