MODEL 1
REMARK minimizedAffinity 9.44716358
REMARK minimizedRMSD -1
REMARK  0 active torsions:
REMARK  status: ('A' for Active; 'I' for Inactive)
ROOT
ATOM      1  C   UNL d   1       1.347  -2.297   0.529  0.00  0.00    -0.002 A 
ATOM      2  C1  UNL d   1       0.811  -3.452   1.080  0.00  0.00     0.010 A 
ATOM      3  C2  UNL d   1       1.540  -4.643   1.081  0.00  0.00     0.041 A 
ATOM      4  C3  UNL d   1       2.830  -4.653   0.516  0.00  0.00    -0.075 A 
ATOM      5  S   UNL d   1       3.906  -5.996   0.406  0.00  0.00     0.015 SA
ATOM      6  C4  UNL d   1       5.104  -5.067  -0.373  0.00  0.00     0.022 A 
ATOM      7  C5  UNL d   1       4.709  -3.763  -0.554  0.00  0.00     0.026 A 
ATOM      8  C6  UNL d   1       3.392  -3.502  -0.044  0.00  0.00    -0.082 A 
ATOM      9  C7  UNL d   1       2.628  -2.311  -0.031  0.00  0.00     0.045 A 
ENDROOT
TORSDOF 0
ENDMDL
