MODEL 1
REMARK minimizedAffinity 8.76731682
REMARK minimizedRMSD -1
REMARK  0 active torsions:
REMARK  status: ('A' for Active; 'I' for Inactive)
ROOT
ATOM      1  C   UNL d   1       3.325  -1.568   0.142  0.00  0.00    -0.002 A 
ATOM      2  C1  UNL d   1       2.218  -2.364   0.400  0.00  0.00     0.010 A 
ATOM      3  C2  UNL d   1       2.352  -3.749   0.514  0.00  0.00     0.041 A 
ATOM      4  C3  UNL d   1       3.629  -4.326   0.366  0.00  0.00    -0.075 A 
ATOM      5  S   UNL d   1       4.032  -5.999   0.466  0.00  0.00     0.015 SA
ATOM      6  C4  UNL d   1       5.683  -5.696   0.169  0.00  0.00     0.022 A 
ATOM      7  C5  UNL d   1       5.937  -4.356  -0.005  0.00  0.00     0.026 A 
ATOM      8  C6  UNL d   1       4.758  -3.544   0.106  0.00  0.00    -0.082 A 
ATOM      9  C7  UNL d   1       4.590  -2.143  -0.005  0.00  0.00     0.045 A 
ENDROOT
TORSDOF 0
ENDMDL
