MODEL 1
REMARK minimizedAffinity 2.38870406
REMARK minimizedRMSD -1
REMARK  0 active torsions:
REMARK  status: ('A' for Active; 'I' for Inactive)
ROOT
ATOM      1  C   UNL d   1      -1.146  -1.209   2.342  0.00  0.00    -0.002 A 
ATOM      2  C1  UNL d   1      -2.275  -1.646   1.663  0.00  0.00     0.010 A 
ATOM      3  C2  UNL d   1      -2.172  -2.615   0.663  0.00  0.00     0.041 A 
ATOM      4  C3  UNL d   1      -0.903  -3.144   0.354  0.00  0.00    -0.075 A 
ATOM      5  S   UNL d   1      -0.536  -4.339  -0.832  0.00  0.00     0.015 SA
ATOM      6  C4  UNL d   1       1.128  -4.299  -0.465  0.00  0.00     0.022 A 
ATOM      7  C5  UNL d   1       1.414  -3.401   0.535  0.00  0.00     0.026 A 
ATOM      8  C6  UNL d   1       0.248  -2.720   1.025  0.00  0.00    -0.082 A 
ATOM      9  C7  UNL d   1       0.111  -1.736   2.033  0.00  0.00     0.045 A 
ENDROOT
TORSDOF 0
ENDMDL
