MODEL 1
REMARK minimizedAffinity 7.47278309
REMARK minimizedRMSD -1
REMARK  0 active torsions:
REMARK  status: ('A' for Active; 'I' for Inactive)
ROOT
ATOM      1  C   UNL d   1       1.601  -1.876   0.777  0.00  0.00    -0.002 A 
ATOM      2  C1  UNL d   1       0.853  -2.967   0.356  0.00  0.00     0.010 A 
ATOM      3  C2  UNL d   1       1.483  -4.140  -0.065  0.00  0.00     0.041 A 
ATOM      4  C3  UNL d   1       2.891  -4.199  -0.054  0.00  0.00    -0.075 A 
ATOM      5  S   UNL d   1       3.879  -5.531  -0.526  0.00  0.00     0.015 SA
ATOM      6  C4  UNL d   1       5.316  -4.684  -0.179  0.00  0.00     0.022 A 
ATOM      7  C5  UNL d   1       5.067  -3.414   0.286  0.00  0.00     0.026 A 
ATOM      8  C6  UNL d   1       3.665  -3.114   0.366  0.00  0.00    -0.082 A 
ATOM      9  C7  UNL d   1       2.997  -1.939   0.786  0.00  0.00     0.045 A 
ENDROOT
TORSDOF 0
ENDMDL
