MODEL 1
REMARK minimizedAffinity 19.1877346
REMARK minimizedRMSD -1
REMARK  0 active torsions:
REMARK  status: ('A' for Active; 'I' for Inactive)
ROOT
ATOM      1  C   UNL d   1       5.280  -5.999  -0.177  0.00  0.00    -0.002 A 
ATOM      2  C1  UNL d   1       6.000  -4.813  -0.140  0.00  0.00     0.010 A 
ATOM      3  C2  UNL d   1       5.349  -3.594   0.057  0.00  0.00     0.041 A 
ATOM      4  C3  UNL d   1       3.950  -3.586   0.220  0.00  0.00    -0.075 A 
ATOM      5  S   UNL d   1       2.940  -2.212   0.476  0.00  0.00     0.015 SA
ATOM      6  C4  UNL d   1       1.530  -3.167   0.543  0.00  0.00     0.022 A 
ATOM      7  C5  UNL d   1       1.805  -4.504   0.376  0.00  0.00     0.026 A 
ATOM      8  C6  UNL d   1       3.204  -4.768   0.188  0.00  0.00    -0.082 A 
ATOM      9  C7  UNL d   1       3.892  -5.988  -0.015  0.00  0.00     0.045 A 
ENDROOT
TORSDOF 0
ENDMDL
