MODEL 1
REMARK minimizedAffinity -2.97586441
REMARK minimizedRMSD -1
REMARK  0 active torsions:
REMARK  status: ('A' for Active; 'I' for Inactive)
ROOT
ATOM      1  O1  BZF d   1      -0.598   2.554   0.677  0.00  0.00    -0.204 OA
ATOM      2  C2  BZF d   1       0.666   3.043   0.415  0.00  0.00     0.174 A 
ATOM      3  C3  BZF d   1       1.543   2.034   0.236  0.00  0.00    -0.012 A 
ATOM      4  C3A BZF d   1       0.759   0.839   0.305  0.00  0.00    -0.107 A 
ATOM      5  C4  BZF d   1       1.058  -0.488   0.187  0.00  0.00     0.055 A 
ATOM      6  C5  BZF d   1       0.075  -1.407   0.379  0.00  0.00    -0.016 A 
ATOM      7  C6  BZF d   1      -1.214  -1.034   0.696  0.00  0.00     0.022 A 
ATOM      8  C7  BZF d   1      -1.561   0.270   0.819  0.00  0.00     0.029 A 
ATOM      9  C7A BZF d   1      -0.577   1.202   0.593  0.00  0.00     0.058 A 
ENDROOT
TORSDOF 0
ENDMDL
