MODEL 1
REMARK minimizedAffinity -1.8947314
REMARK minimizedRMSD -1
REMARK  0 active torsions:
REMARK  status: ('A' for Active; 'I' for Inactive)
ROOT
ATOM      1  O1  BZF d   1      -0.218  -1.008   0.480  0.00  0.00    -0.204 OA
ATOM      2  C2  BZF d   1       0.915  -1.432  -0.188  0.00  0.00     0.174 A 
ATOM      3  C3  BZF d   1       1.580  -0.383  -0.714  0.00  0.00    -0.012 A 
ATOM      4  C3A BZF d   1       0.866   0.776  -0.273  0.00  0.00    -0.107 A 
ATOM      5  C4  BZF d   1       1.048   2.117  -0.455  0.00  0.00     0.055 A 
ATOM      6  C5  BZF d   1       0.129   2.982   0.049  0.00  0.00    -0.016 A 
ATOM      7  C6  BZF d   1      -0.985   2.542   0.734  0.00  0.00     0.022 A 
ATOM      8  C7  BZF d   1      -1.205   1.221   0.944  0.00  0.00     0.029 A 
ATOM      9  C7A BZF d   1      -0.261   0.346   0.465  0.00  0.00     0.058 A 
ENDROOT
TORSDOF 0
ENDMDL
