MODEL 1
REMARK minimizedAffinity -3.08312726
REMARK minimizedRMSD -1
REMARK  0 active torsions:
REMARK  status: ('A' for Active; 'I' for Inactive)
ROOT
ATOM      1  O1  BZF d   1       1.364  -0.564   0.271  0.00  0.00    -0.204 OA
ATOM      2  C2  BZF d   1       0.075  -1.043   0.141  0.00  0.00     0.174 A 
ATOM      3  C3  BZF d   1      -0.823  -0.054   0.324  0.00  0.00    -0.012 A 
ATOM      4  C3A BZF d   1      -0.045   1.135   0.494  0.00  0.00    -0.107 A 
ATOM      5  C4  BZF d   1      -0.366   2.446   0.699  0.00  0.00     0.055 A 
ATOM      6  C5  BZF d   1       0.632   3.347   0.897  0.00  0.00    -0.016 A 
ATOM      7  C6  BZF d   1       1.959   2.971   0.902  0.00  0.00     0.022 A 
ATOM      8  C7  BZF d   1       2.327   1.683   0.699  0.00  0.00     0.029 A 
ATOM      9  C7A BZF d   1       1.323   0.776   0.465  0.00  0.00     0.058 A 
ENDROOT
TORSDOF 0
ENDMDL
