MODEL 1
REMARK minimizedAffinity 0.427515864
REMARK minimizedRMSD -1
REMARK  0 active torsions:
REMARK  status: ('A' for Active; 'I' for Inactive)
ROOT
ATOM      1  O1  BZF d   1      -0.964  -2.906  -0.261  0.00  0.00    -0.204 OA
ATOM      2  C2  BZF d   1      -0.561  -3.337  -1.511  0.00  0.00     0.174 A 
ATOM      3  C3  BZF d   1      -0.121  -2.302  -2.255  0.00  0.00    -0.012 A 
ATOM      4  C3A BZF d   1      -0.171  -1.166  -1.387  0.00  0.00    -0.107 A 
ATOM      5  C4  BZF d   1       0.155   0.151  -1.544  0.00  0.00     0.055 A 
ATOM      6  C5  BZF d   1      -0.081   1.016  -0.523  0.00  0.00    -0.016 A 
ATOM      7  C6  BZF d   1      -0.645   0.600   0.665  0.00  0.00     0.022 A 
ATOM      8  C7  BZF d   1      -0.981  -0.697   0.870  0.00  0.00     0.029 A 
ATOM      9  C7A BZF d   1      -0.713  -1.579  -0.148  0.00  0.00     0.058 A 
ENDROOT
TORSDOF 0
ENDMDL
