MODEL 1
REMARK minimizedAffinity -3.11900306
REMARK minimizedRMSD -1
REMARK  0 active torsions:
REMARK  status: ('A' for Active; 'I' for Inactive)
ROOT
ATOM      1  O1  BZF d   1      -1.292  -0.103   1.277  0.00  0.00    -0.204 OA
ATOM      2  C2  BZF d   1      -0.704  -1.215   0.706  0.00  0.00     0.174 A 
ATOM      3  C3  BZF d   1       0.177  -0.853  -0.249  0.00  0.00    -0.012 A 
ATOM      4  C3A BZF d   1       0.206   0.577  -0.212  0.00  0.00    -0.107 A 
ATOM      5  C4  BZF d   1       0.902   1.520  -0.912  0.00  0.00     0.055 A 
ATOM      6  C5  BZF d   1       0.644   2.835  -0.685  0.00  0.00    -0.016 A 
ATOM      7  C6  BZF d   1      -0.304   3.242   0.230  0.00  0.00     0.022 A 
ATOM      8  C7  BZF d   1      -1.016   2.343   0.953  0.00  0.00     0.029 A 
ATOM      9  C7A BZF d   1      -0.735   1.014   0.749  0.00  0.00     0.058 A 
ENDROOT
TORSDOF 0
ENDMDL
