MODEL 1
REMARK minimizedAffinity -2.81183076
REMARK minimizedRMSD -1
REMARK  0 active torsions:
REMARK  status: ('A' for Active; 'I' for Inactive)
ROOT
ATOM      1  O1  BZF d   1       1.191  -1.136  -1.182  0.00  0.00    -0.204 OA
ATOM      2  C2  BZF d   1       0.992  -0.701   0.114  0.00  0.00     0.174 A 
ATOM      3  C3  BZF d   1      -0.210  -1.104   0.574  0.00  0.00    -0.012 A 
ATOM      4  C3A BZF d   1      -0.759  -1.916  -0.469  0.00  0.00    -0.107 A 
ATOM      5  C4  BZF d   1      -1.926  -2.614  -0.600  0.00  0.00     0.055 A 
ATOM      6  C5  BZF d   1      -2.190  -3.243  -1.775  0.00  0.00    -0.016 A 
ATOM      7  C6  BZF d   1      -1.316  -3.191  -2.840  0.00  0.00     0.022 A 
ATOM      8  C7  BZF d   1      -0.144  -2.515  -2.756  0.00  0.00     0.029 A 
ATOM      9  C7A BZF d   1       0.142  -1.905  -1.559  0.00  0.00     0.058 A 
ENDROOT
TORSDOF 0
ENDMDL
