MODEL 1
REMARK minimizedAffinity 7.92039204
REMARK minimizedRMSD -1
REMARK  0 active torsions:
REMARK  status: ('A' for Active; 'I' for Inactive)
ROOT
ATOM      1  O1  BZF d   1      -0.525  -1.270   1.932  0.00  0.00    -0.204 OA
ATOM      2  C2  BZF d   1      -1.649  -1.311   2.734  0.00  0.00     0.174 A 
ATOM      3  C3  BZF d   1      -2.174  -0.078   2.885  0.00  0.00    -0.012 A 
ATOM      4  C3A BZF d   1      -1.379   0.774   2.055  0.00  0.00    -0.107 A 
ATOM      5  C4  BZF d   1      -1.416   2.109   1.771  0.00  0.00     0.055 A 
ATOM      6  C5  BZF d   1      -0.451   2.643   0.978  0.00  0.00    -0.016 A 
ATOM      7  C6  BZF d   1       0.569   1.873   0.457  0.00  0.00     0.022 A 
ATOM      8  C7  BZF d   1       0.645   0.543   0.707  0.00  0.00     0.029 A 
ATOM      9  C7A BZF d   1      -0.348  -0.005   1.481  0.00  0.00     0.058 A 
ENDROOT
TORSDOF 0
ENDMDL
