MODEL 1
REMARK minimizedAffinity 5.99447775
REMARK minimizedRMSD -1
REMARK  0 active torsions:
REMARK  status: ('A' for Active; 'I' for Inactive)
ROOT
ATOM      1  O1  BZF d   1       0.051   1.197   0.093  0.00  0.00    -0.204 OA
ATOM      2  C2  BZF d   1      -0.783   2.244   0.437  0.00  0.00     0.174 A 
ATOM      3  C3  BZF d   1      -0.093   3.220   1.061  0.00  0.00    -0.012 A 
ATOM      4  C3A BZF d   1       1.274   2.796   1.027  0.00  0.00    -0.107 A 
ATOM      5  C4  BZF d   1       2.440   3.350   1.473  0.00  0.00     0.055 A 
ATOM      6  C5  BZF d   1       3.595   2.645   1.349  0.00  0.00    -0.016 A 
ATOM      7  C6  BZF d   1       3.620   1.384   0.790  0.00  0.00     0.022 A 
ATOM      8  C7  BZF d   1       2.489   0.796   0.328  0.00  0.00     0.029 A 
ATOM      9  C7A BZF d   1       1.326   1.519   0.422  0.00  0.00     0.058 A 
ENDROOT
TORSDOF 0
ENDMDL
