MODEL 1
REMARK minimizedAffinity -2.54888272
REMARK minimizedRMSD -1
REMARK  0 active torsions:
REMARK  status: ('A' for Active; 'I' for Inactive)
ROOT
ATOM      1  O1  BZF d   1       2.068   2.614   1.423  0.00  0.00    -0.204 OA
ATOM      2  C2  BZF d   1       3.127   1.744   1.249  0.00  0.00     0.174 A 
ATOM      3  C3  BZF d   1       2.692   0.536   0.839  0.00  0.00    -0.012 A 
ATOM      4  C3A BZF d   1       1.280   0.685   0.662  0.00  0.00    -0.107 A 
ATOM      5  C4  BZF d   1       0.290  -0.163   0.253  0.00  0.00     0.055 A 
ATOM      6  C5  BZF d   1      -0.997   0.272   0.259  0.00  0.00    -0.016 A 
ATOM      7  C6  BZF d   1      -1.331   1.545   0.673  0.00  0.00     0.022 A 
ATOM      8  C7  BZF d   1      -0.384   2.423   1.084  0.00  0.00     0.029 A 
ATOM      9  C7A BZF d   1       0.922   1.997   1.047  0.00  0.00     0.058 A 
ENDROOT
TORSDOF 0
ENDMDL
