MODEL 1
REMARK minimizedAffinity -2.34022093
REMARK minimizedRMSD -1
REMARK  0 active torsions:
REMARK  status: ('A' for Active; 'I' for Inactive)
ROOT
ATOM      1  O1  BZF d   1       1.277   2.435  -0.280  0.00  0.00    -0.204 OA
ATOM      2  C2  BZF d   1       0.303   3.358   0.048  0.00  0.00     0.174 A 
ATOM      3  C3  BZF d   1      -0.852   2.741   0.368  0.00  0.00    -0.012 A 
ATOM      4  C3A BZF d   1      -0.557   1.341   0.320  0.00  0.00    -0.107 A 
ATOM      5  C4  BZF d   1      -1.296   0.217   0.556  0.00  0.00     0.055 A 
ATOM      6  C5  BZF d   1      -0.730  -1.001   0.350  0.00  0.00    -0.016 A 
ATOM      7  C6  BZF d   1       0.569  -1.131  -0.096  0.00  0.00     0.022 A 
ATOM      8  C7  BZF d   1       1.343  -0.045  -0.339  0.00  0.00     0.029 A 
ATOM      9  C7A BZF d   1       0.784   1.187  -0.100  0.00  0.00     0.058 A 
ENDROOT
TORSDOF 0
ENDMDL
