MODEL 1
REMARK minimizedAffinity 3.62924266
REMARK minimizedRMSD -1
REMARK  0 active torsions:
REMARK  status: ('A' for Active; 'I' for Inactive)
ROOT
ATOM      1  O1  BZF d   1      -2.190   3.023  -0.835  0.00  0.00    -0.204 OA
ATOM      2  C2  BZF d   1      -2.948   2.233   0.008  0.00  0.00     0.174 A 
ATOM      3  C3  BZF d   1      -2.155   1.497   0.814  0.00  0.00    -0.012 A 
ATOM      4  C3A BZF d   1      -0.821   1.917   0.515  0.00  0.00    -0.107 A 
ATOM      5  C4  BZF d   1       0.406   1.563   1.000  0.00  0.00     0.055 A 
ATOM      6  C5  BZF d   1       1.519   2.109   0.443  0.00  0.00    -0.016 A 
ATOM      7  C6  BZF d   1       1.443   3.006  -0.601  0.00  0.00     0.022 A 
ATOM      8  C7  BZF d   1       0.248   3.392  -1.113  0.00  0.00     0.029 A 
ATOM      9  C7A BZF d   1      -0.880   2.868  -0.530  0.00  0.00     0.058 A 
ENDROOT
TORSDOF 0
ENDMDL
