MODEL 1
REMARK minimizedAffinity -5.20031118
REMARK minimizedRMSD -1
REMARK  0 active torsions:
REMARK  status: ('A' for Active; 'I' for Inactive)
ROOT
ATOM      1  O1  BZF d   1       1.776  -0.425   0.700  0.00  0.00    -0.204 OA
ATOM      2  C2  BZF d   1       0.660  -1.230   0.821  0.00  0.00     0.174 A 
ATOM      3  C3  BZF d   1      -0.469  -0.497   0.740  0.00  0.00    -0.012 A 
ATOM      4  C3A BZF d   1      -0.033   0.838   0.464  0.00  0.00    -0.107 A 
ATOM      5  C4  BZF d   1      -0.691   2.017   0.260  0.00  0.00     0.055 A 
ATOM      6  C5  BZF d   1       0.032   3.155   0.088  0.00  0.00    -0.016 A 
ATOM      7  C6  BZF d   1       1.411   3.151   0.120  0.00  0.00     0.022 A 
ATOM      8  C7  BZF d   1       2.107   2.005   0.315  0.00  0.00     0.029 A 
ATOM      9  C7A BZF d   1       1.381   0.848   0.456  0.00  0.00     0.058 A 
ENDROOT
TORSDOF 0
ENDMDL
