MODEL 1
REMARK minimizedAffinity 2.82071328
REMARK minimizedRMSD -1
REMARK  0 active torsions:
REMARK  status: ('A' for Active; 'I' for Inactive)
ROOT
ATOM      1  O1  BZF d   1      -1.889   3.296  -0.982  0.00  0.00    -0.204 OA
ATOM      2  C2  BZF d   1      -2.731   2.499  -0.230  0.00  0.00     0.174 A 
ATOM      3  C3  BZF d   1      -2.023   1.685   0.579  0.00  0.00    -0.012 A 
ATOM      4  C3A BZF d   1      -0.656   2.057   0.384  0.00  0.00    -0.107 A 
ATOM      5  C4  BZF d   1       0.522   1.620   0.921  0.00  0.00     0.055 A 
ATOM      6  C5  BZF d   1       1.690   2.141   0.462  0.00  0.00    -0.016 A 
ATOM      7  C6  BZF d   1       1.718   3.096  -0.534  0.00  0.00     0.022 A 
ATOM      8  C7  BZF d   1       0.576   3.564  -1.093  0.00  0.00     0.029 A 
ATOM      9  C7A BZF d   1      -0.608   3.063  -0.609  0.00  0.00     0.058 A 
ENDROOT
TORSDOF 0
ENDMDL
