MODEL 1
REMARK minimizedAffinity -4.27168941
REMARK minimizedRMSD -1
REMARK  0 active torsions:
REMARK  status: ('A' for Active; 'I' for Inactive)
ROOT
ATOM      1  O1  BZF d   1      -1.378   0.996   0.446  0.00  0.00    -0.204 OA
ATOM      2  C2  BZF d   1      -1.052   2.335   0.355  0.00  0.00     0.174 A 
ATOM      3  C3  BZF d   1       0.277   2.495   0.194  0.00  0.00    -0.012 A 
ATOM      4  C3A BZF d   1       0.805   1.169   0.092  0.00  0.00    -0.107 A 
ATOM      5  C4  BZF d   1       2.064   0.672  -0.093  0.00  0.00     0.055 A 
ATOM      6  C5  BZF d   1       2.251  -0.674  -0.073  0.00  0.00    -0.016 A 
ATOM      7  C6  BZF d   1       1.206  -1.550   0.133  0.00  0.00     0.022 A 
ATOM      8  C7  BZF d   1      -0.061  -1.104   0.316  0.00  0.00     0.029 A 
ATOM      9  C7A BZF d   1      -0.259   0.254   0.264  0.00  0.00     0.058 A 
ENDROOT
TORSDOF 0
ENDMDL
