MODEL 1
REMARK minimizedAffinity -5.31434107
REMARK minimizedRMSD -1
REMARK  0 active torsions:
REMARK  status: ('A' for Active; 'I' for Inactive)
ROOT
ATOM      1  O1  BZF d   1      -0.471   0.630   0.780  0.00  0.00    -0.204 OA
ATOM      2  C2  BZF d   1      -0.457   1.415  -0.358  0.00  0.00     0.174 A 
ATOM      3  C3  BZF d   1      -0.550   0.652  -1.466  0.00  0.00    -0.012 A 
ATOM      4  C3A BZF d   1      -0.719  -0.686  -0.989  0.00  0.00    -0.107 A 
ATOM      5  C4  BZF d   1      -0.884  -1.891  -1.610  0.00  0.00     0.055 A 
ATOM      6  C5  BZF d   1      -0.947  -3.020  -0.857  0.00  0.00    -0.016 A 
ATOM      7  C6  BZF d   1      -0.845  -2.982   0.518  0.00  0.00     0.022 A 
ATOM      8  C7  BZF d   1      -0.687  -1.810   1.180  0.00  0.00     0.029 A 
ATOM      9  C7A BZF d   1      -0.655  -0.664   0.424  0.00  0.00     0.058 A 
ENDROOT
TORSDOF 0
ENDMDL
