MODEL 1
REMARK minimizedAffinity -4.36611128
REMARK minimizedRMSD -1
REMARK  0 active torsions:
REMARK  status: ('A' for Active; 'I' for Inactive)
ROOT
ATOM      1  O1  BZF d   1       1.423  -0.316   0.274  0.00  0.00    -0.204 OA
ATOM      2  C2  BZF d   1       0.136  -0.808   0.377  0.00  0.00     0.174 A 
ATOM      3  C3  BZF d   1      -0.759   0.200   0.415  0.00  0.00    -0.012 A 
ATOM      4  C3A BZF d   1       0.009   1.394   0.238  0.00  0.00    -0.107 A 
ATOM      5  C4  BZF d   1      -0.316   2.718   0.169  0.00  0.00     0.055 A 
ATOM      6  C5  BZF d   1       0.679   3.638   0.064  0.00  0.00    -0.016 A 
ATOM      7  C6  BZF d   1       2.008   3.269   0.030  0.00  0.00     0.022 A 
ATOM      8  C7  BZF d   1       2.379   1.967   0.089  0.00  0.00     0.029 A 
ATOM      9  C7A BZF d   1       1.375   1.033   0.163  0.00  0.00     0.058 A 
ENDROOT
TORSDOF 0
ENDMDL
