MODEL 1
REMARK minimizedAffinity -4.09165907
REMARK minimizedRMSD -1
REMARK  0 active torsions:
REMARK  status: ('A' for Active; 'I' for Inactive)
ROOT
ATOM      1  N1  IND d   1      -0.683   0.640   0.015  0.00  0.00    -0.196 N 
ATOM      2  C2  IND d   1       0.313   1.266  -0.682  0.00  0.00     0.054 A 
ATOM      3  C3  IND d   1       1.488   0.621  -0.504  0.00  0.00    -0.031 A 
ATOM      4  C4  IND d   1       1.987  -1.539   0.804  0.00  0.00     0.051 A 
ATOM      5  C5  IND d   1       1.404  -2.454   1.636  0.00  0.00    -0.031 A 
ATOM      6  C6  IND d   1       0.068  -2.384   1.974  0.00  0.00     0.015 A 
ATOM      7  C7  IND d   1      -0.741  -1.399   1.483  0.00  0.00    -0.016 A 
ATOM      8  C8  IND d   1      -0.151  -0.465   0.643  0.00  0.00    -0.047 A 
ATOM      9  C9  IND d   1       1.214  -0.506   0.330  0.00  0.00    -0.096 A 
ATOM     10  HN1 IND d   1      -1.503   0.893   0.054  0.00  0.00     0.298 HD
ENDROOT
TORSDOF 0
ENDMDL
