MODEL 1
REMARK minimizedAffinity -4.85534954
REMARK minimizedRMSD -1
REMARK  0 active torsions:
REMARK  status: ('A' for Active; 'I' for Inactive)
ROOT
ATOM      1  N1  IND d   1      -0.439  -1.881   1.378  0.00  0.00    -0.196 N 
ATOM      2  C2  IND d   1       0.763  -2.505   1.196  0.00  0.00     0.054 A 
ATOM      3  C3  IND d   1       1.680  -1.632   0.722  0.00  0.00    -0.031 A 
ATOM      4  C4  IND d   1       1.454   0.892   0.270  0.00  0.00     0.051 A 
ATOM      5  C5  IND d   1       0.537   1.905   0.253  0.00  0.00    -0.031 A 
ATOM      6  C6  IND d   1      -0.778   1.705   0.619  0.00  0.00     0.015 A 
ATOM      7  C7  IND d   1      -1.225   0.481   1.030  0.00  0.00    -0.016 A 
ATOM      8  C8  IND d   1      -0.298  -0.552   1.042  0.00  0.00    -0.047 A 
ATOM      9  C9  IND d   1       1.028  -0.364   0.631  0.00  0.00    -0.096 A 
ATOM     10  HN1 IND d   1      -1.162  -2.255   1.655  0.00  0.00     0.298 HD
ENDROOT
TORSDOF 0
ENDMDL
