MODEL 1
REMARK minimizedAffinity -2.13979459
REMARK minimizedRMSD -1
REMARK  0 active torsions:
REMARK  status: ('A' for Active; 'I' for Inactive)
ROOT
ATOM      1  N1  IND d   1      -0.279   1.625  -0.539  0.00  0.00    -0.196 N 
ATOM      2  C2  IND d   1       0.775   0.892  -1.009  0.00  0.00     0.054 A 
ATOM      3  C3  IND d   1       0.604  -0.418  -0.719  0.00  0.00    -0.031 A 
ATOM      4  C4  IND d   1      -1.378  -1.593   0.427  0.00  0.00     0.051 A 
ATOM      5  C5  IND d   1      -2.561  -1.338   1.063  0.00  0.00    -0.031 A 
ATOM      6  C6  IND d   1      -3.054  -0.056   1.198  0.00  0.00     0.015 A 
ATOM      7  C7  IND d   1      -2.386   1.021   0.690  0.00  0.00    -0.016 A 
ATOM      8  C8  IND d   1      -1.182   0.766   0.049  0.00  0.00    -0.047 A 
ATOM      9  C9  IND d   1      -0.655  -0.528  -0.054  0.00  0.00    -0.096 A 
ATOM     10  HN1 IND d   1      -0.364   2.478  -0.601  0.00  0.00     0.298 HD
ENDROOT
TORSDOF 0
ENDMDL
