MODEL 1
REMARK minimizedAffinity -4.1536088
REMARK minimizedRMSD -1
REMARK  0 active torsions:
REMARK  status: ('A' for Active; 'I' for Inactive)
ROOT
ATOM      1  N1  IND d   1      -0.491   1.061   0.335  0.00  0.00    -0.196 N 
ATOM      2  C2  IND d   1       0.352   1.588  -0.603  0.00  0.00     0.054 A 
ATOM      3  C3  IND d   1       1.226   0.650  -1.031  0.00  0.00    -0.031 A 
ATOM      4  C4  IND d   1       1.388  -1.841  -0.403  0.00  0.00     0.051 A 
ATOM      5  C5  IND d   1       0.857  -2.777   0.440  0.00  0.00    -0.031 A 
ATOM      6  C6  IND d   1      -0.174  -2.475   1.307  0.00  0.00     0.015 A 
ATOM      7  C7  IND d   1      -0.722  -1.224   1.355  0.00  0.00    -0.016 A 
ATOM      8  C8  IND d   1      -0.180  -0.270   0.505  0.00  0.00    -0.047 A 
ATOM      9  C9  IND d   1       0.895  -0.559  -0.346  0.00  0.00    -0.096 A 
ATOM     10  HN1 IND d   1      -1.112   1.488   0.749  0.00  0.00     0.298 HD
ENDROOT
TORSDOF 0
ENDMDL
