MODEL 1
REMARK minimizedAffinity -4.44410419
REMARK minimizedRMSD -1
REMARK  0 active torsions:
REMARK  status: ('A' for Active; 'I' for Inactive)
ROOT
ATOM      1  N1  IND d   1      -2.200  -1.357   2.085  0.00  0.00    -0.196 N 
ATOM      2  C2  IND d   1      -1.789  -2.643   2.298  0.00  0.00     0.054 A 
ATOM      3  C3  IND d   1      -0.669  -2.903   1.587  0.00  0.00    -0.031 A 
ATOM      4  C4  IND d   1       0.717  -1.335   0.087  0.00  0.00     0.051 A 
ATOM      5  C5  IND d   1       0.718  -0.075  -0.444  0.00  0.00    -0.031 A 
ATOM      6  C6  IND d   1      -0.272   0.840  -0.151  0.00  0.00     0.015 A 
ATOM      7  C7  IND d   1      -1.298   0.533   0.696  0.00  0.00    -0.016 A 
ATOM      8  C8  IND d   1      -1.306  -0.747   1.232  0.00  0.00    -0.047 A 
ATOM      9  C9  IND d   1      -0.328  -1.694   0.905  0.00  0.00    -0.096 A 
ATOM     10  HN1 IND d   1      -2.899  -0.990   2.426  0.00  0.00     0.298 HD
ENDROOT
TORSDOF 0
ENDMDL
