MODEL 1
REMARK minimizedAffinity -3.48189545
REMARK minimizedRMSD -1
REMARK  0 active torsions:
REMARK  status: ('A' for Active; 'I' for Inactive)
ROOT
ATOM      1  N1  IND d   1      -0.761  -0.078  -1.094  0.00  0.00    -0.196 N 
ATOM      2  C2  IND d   1      -0.248  -0.420   0.126  0.00  0.00     0.054 A 
ATOM      3  C3  IND d   1       0.920   0.226   0.342  0.00  0.00    -0.031 A 
ATOM      4  C4  IND d   1       2.123   1.966  -1.126  0.00  0.00     0.051 A 
ATOM      5  C5  IND d   1       2.058   2.574  -2.348  0.00  0.00    -0.031 A 
ATOM      6  C6  IND d   1       1.027   2.326  -3.232  0.00  0.00     0.015 A 
ATOM      7  C7  IND d   1       0.013   1.465  -2.920  0.00  0.00    -0.016 A 
ATOM      8  C8  IND d   1       0.080   0.841  -1.682  0.00  0.00    -0.047 A 
ATOM      9  C9  IND d   1       1.145   1.056  -0.799  0.00  0.00    -0.096 A 
ATOM     10  HN1 IND d   1      -1.487  -0.386  -1.437  0.00  0.00     0.298 HD
ENDROOT
TORSDOF 0
ENDMDL
