MODEL 1
REMARK minimizedAffinity -6.43730974
REMARK minimizedRMSD -1
REMARK  0 active torsions:
REMARK  status: ('A' for Active; 'I' for Inactive)
ROOT
ATOM      1  N1  IND d   1      -0.125   1.100  -0.444  0.00  0.00    -0.196 N 
ATOM      2  C2  IND d   1       0.907   0.330  -0.902  0.00  0.00     0.054 A 
ATOM      3  C3  IND d   1       0.822  -0.920  -0.393  0.00  0.00    -0.031 A 
ATOM      4  C4  IND d   1      -0.982  -1.948   1.128  0.00  0.00     0.051 A 
ATOM      5  C5  IND d   1      -2.104  -1.625   1.838  0.00  0.00    -0.031 A 
ATOM      6  C6  IND d   1      -2.636  -0.352   1.822  0.00  0.00     0.015 A 
ATOM      7  C7  IND d   1      -2.069   0.647   1.082  0.00  0.00    -0.016 A 
ATOM      8  C8  IND d   1      -0.926   0.325   0.365  0.00  0.00    -0.047 A 
ATOM      9  C9  IND d   1      -0.357  -0.955   0.411  0.00  0.00    -0.096 A 
ATOM     10  HN1 IND d   1      -0.252   1.930  -0.629  0.00  0.00     0.298 HD
ENDROOT
TORSDOF 0
ENDMDL
