MODEL 1
REMARK minimizedAffinity -4.06715059
REMARK minimizedRMSD -1
REMARK  0 active torsions:
REMARK  status: ('A' for Active; 'I' for Inactive)
ROOT
ATOM      1  N1  IND d   1      -2.035   0.751   1.559  0.00  0.00    -0.196 N 
ATOM      2  C2  IND d   1      -2.734   0.003   2.464  0.00  0.00     0.054 A 
ATOM      3  C3  IND d   1      -2.237  -1.253   2.519  0.00  0.00    -0.031 A 
ATOM      4  C4  IND d   1      -0.217  -2.269   1.288  0.00  0.00     0.051 A 
ATOM      5  C5  IND d   1       0.715  -1.984   0.330  0.00  0.00    -0.031 A 
ATOM      6  C6  IND d   1       0.781  -0.747  -0.278  0.00  0.00     0.015 A 
ATOM      7  C7  IND d   1      -0.079   0.259   0.060  0.00  0.00    -0.016 A 
ATOM      8  C8  IND d   1      -1.031  -0.028   1.027  0.00  0.00    -0.047 A 
ATOM      9  C9  IND d   1      -1.131  -1.295   1.617  0.00  0.00    -0.096 A 
ATOM     10  HN1 IND d   1      -2.195   1.572   1.356  0.00  0.00     0.298 HD
ENDROOT
TORSDOF 0
ENDMDL
