MODEL 1
REMARK minimizedAffinity -5.33888721
REMARK minimizedRMSD -1
REMARK  0 active torsions:
REMARK  status: ('A' for Active; 'I' for Inactive)
ROOT
ATOM      1  N1  IND d   1      -1.149   1.324   0.799  0.00  0.00    -0.196 N 
ATOM      2  C2  IND d   1       0.105   1.756   0.468  0.00  0.00     0.054 A 
ATOM      3  C3  IND d   1       0.915   0.702   0.219  0.00  0.00    -0.031 A 
ATOM      4  C4  IND d   1       0.366  -1.813   0.196  0.00  0.00     0.051 A 
ATOM      5  C5  IND d   1      -0.638  -2.699   0.470  0.00  0.00    -0.031 A 
ATOM      6  C6  IND d   1      -1.890  -2.281   0.873  0.00  0.00     0.015 A 
ATOM      7  C7  IND d   1      -2.189  -0.955   1.007  0.00  0.00    -0.016 A 
ATOM      8  C8  IND d   1      -1.170  -0.052   0.737  0.00  0.00    -0.047 A 
ATOM      9  C9  IND d   1       0.115  -0.472   0.368  0.00  0.00    -0.096 A 
ATOM     10  HN1 IND d   1      -1.813   1.827   1.011  0.00  0.00     0.298 HD
ENDROOT
TORSDOF 0
ENDMDL
