MODEL 1
REMARK minimizedAffinity -5.00790119
REMARK minimizedRMSD -1
REMARK  0 active torsions:
REMARK  status: ('A' for Active; 'I' for Inactive)
ROOT
ATOM      1  N1  IND d   1       0.410  -2.666   0.654  0.00  0.00    -0.196 N 
ATOM      2  C2  IND d   1      -0.831  -3.171   0.926  0.00  0.00     0.054 A 
ATOM      3  C3  IND d   1      -1.753  -2.183   0.914  0.00  0.00    -0.031 A 
ATOM      4  C4  IND d   1      -1.466   0.318   0.373  0.00  0.00     0.051 A 
ATOM      5  C5  IND d   1      -0.512   1.258   0.100  0.00  0.00    -0.031 A 
ATOM      6  C6  IND d   1       0.824   0.931  -0.007  0.00  0.00     0.015 A 
ATOM      7  C7  IND d   1       1.257  -0.355   0.144  0.00  0.00    -0.016 A 
ATOM      8  C8  IND d   1       0.293  -1.312   0.429  0.00  0.00    -0.047 A 
ATOM      9  C9  IND d   1      -1.059  -0.979   0.580  0.00  0.00    -0.096 A 
ATOM     10  HN1 IND d   1       1.141  -3.118   0.628  0.00  0.00     0.298 HD
ENDROOT
TORSDOF 0
ENDMDL
