MODEL 1
REMARK minimizedAffinity -5.18543482
REMARK minimizedRMSD -1
REMARK  0 active torsions:
REMARK  status: ('A' for Active; 'I' for Inactive)
ROOT
ATOM      1  N1  IND d   1       0.163   0.643  -0.230  0.00  0.00    -0.196 N 
ATOM      2  C2  IND d   1       1.503   0.384  -0.144  0.00  0.00     0.054 A 
ATOM      3  C3  IND d   1       1.712  -0.870   0.314  0.00  0.00    -0.031 A 
ATOM      4  C4  IND d   1       0.002  -2.707   0.890  0.00  0.00     0.051 A 
ATOM      5  C5  IND d   1      -1.342  -2.930   1.005  0.00  0.00    -0.031 A 
ATOM      6  C6  IND d   1      -2.271  -1.955   0.705  0.00  0.00     0.015 A 
ATOM      7  C7  IND d   1      -1.890  -0.718   0.266  0.00  0.00    -0.016 A 
ATOM      8  C8  IND d   1      -0.526  -0.486   0.156  0.00  0.00    -0.047 A 
ATOM      9  C9  IND d   1       0.422  -1.457   0.499  0.00  0.00    -0.096 A 
ATOM     10  HN1 IND d   1      -0.189   1.385  -0.482  0.00  0.00     0.298 HD
ENDROOT
TORSDOF 0
ENDMDL
