MODEL 1
REMARK minimizedAffinity -4.52875233
REMARK minimizedRMSD -1
REMARK  0 active torsions:
REMARK  status: ('A' for Active; 'I' for Inactive)
ROOT
ATOM      1  N1  IND d   1      -0.349  -2.421  -0.124  0.00  0.00    -0.196 N 
ATOM      2  C2  IND d   1      -1.443  -3.008   0.447  0.00  0.00     0.054 A 
ATOM      3  C3  IND d   1      -2.192  -2.084   1.089  0.00  0.00    -0.031 A 
ATOM      4  C4  IND d   1      -1.866   0.465   1.242  0.00  0.00     0.051 A 
ATOM      5  C5  IND d   1      -0.991   1.461   0.910  0.00  0.00    -0.031 A 
ATOM      6  C6  IND d   1       0.165   1.209   0.200  0.00  0.00     0.015 A 
ATOM      7  C7  IND d   1       0.485  -0.052  -0.217  0.00  0.00    -0.016 A 
ATOM      8  C8  IND d   1      -0.398  -1.067   0.125  0.00  0.00    -0.047 A 
ATOM      9  C9  IND d   1      -1.551  -0.824   0.882  0.00  0.00    -0.096 A 
ATOM     10  HN1 IND d   1       0.267  -2.828  -0.565  0.00  0.00     0.298 HD
ENDROOT
TORSDOF 0
ENDMDL
