MODEL 1
REMARK minimizedAffinity -5.22814798
REMARK minimizedRMSD -1
REMARK  0 active torsions:
REMARK  status: ('A' for Active; 'I' for Inactive)
ROOT
ATOM      1  N1  IND d   1      -1.115   1.965   0.732  0.00  0.00    -0.196 N 
ATOM      2  C2  IND d   1       0.133   2.008   0.178  0.00  0.00     0.054 A 
ATOM      3  C3  IND d   1       0.583   0.757  -0.066  0.00  0.00    -0.031 A 
ATOM      4  C4  IND d   1      -0.604  -1.502   0.271  0.00  0.00     0.051 A 
ATOM      5  C5  IND d   1      -1.745  -2.054   0.783  0.00  0.00    -0.031 A 
ATOM      6  C6  IND d   1      -2.756  -1.278   1.313  0.00  0.00     0.015 A 
ATOM      7  C7  IND d   1      -2.668   0.085   1.340  0.00  0.00    -0.016 A 
ATOM      8  C8  IND d   1      -1.508   0.648   0.827  0.00  0.00    -0.047 A 
ATOM      9  C9  IND d   1      -0.460  -0.136   0.327  0.00  0.00    -0.096 A 
ATOM     10  HN1 IND d   1      -1.578   2.647   0.980  0.00  0.00     0.298 HD
ENDROOT
TORSDOF 0
ENDMDL
