MODEL 1
REMARK minimizedAffinity 4.57554579
REMARK minimizedRMSD -1
REMARK  1 active torsions:
REMARK  status: ('A' for Active; 'I' for Inactive)
REMARK    1  A    between atoms: C3_4  and  O_7 
ROOT
ATOM      1  C   UNL d   1       1.156   4.117   1.822  0.00  0.00    -0.033 A 
ATOM      2  C1  UNL d   1      -0.181   4.136   1.421  0.00  0.00     0.039 A 
ATOM      3  C2  UNL d   1      -1.004   3.038   1.678  0.00  0.00    -0.080 A 
ATOM      4  C3  UNL d   1      -0.479   1.929   2.337  0.00  0.00     0.150 A 
ATOM      5  C4  UNL d   1       0.851   1.905   2.743  0.00  0.00    -0.007 A 
ATOM      6  C5  UNL d   1       1.672   3.002   2.485  0.00  0.00     0.039 A 
ENDROOT
BRANCH   4   7
ATOM      7  O   UNL d   1      -1.243   0.832   2.606  0.00  0.00    -0.526 OA
ATOM      8  H5  UNL d   1      -2.132   0.980   2.242  0.00  0.00     0.418 HD
ENDBRANCH   4   7
TORSDOF 1
ENDMDL
