MODEL 1
REMARK minimizedAffinity 6.0004611
REMARK minimizedRMSD -1
REMARK  1 active torsions:
REMARK  status: ('A' for Active; 'I' for Inactive)
REMARK    1  A    between atoms: C3_4  and  O_7 
ROOT
ATOM      1  C   UNL d   1      -0.355   2.112  -5.945  0.00  0.00    -0.033 A 
ATOM      2  C1  UNL d   1       0.212   2.649  -4.787  0.00  0.00     0.039 A 
ATOM      3  C2  UNL d   1      -0.593   2.937  -3.683  0.00  0.00    -0.080 A 
ATOM      4  C3  UNL d   1      -1.960   2.684  -3.749  0.00  0.00     0.150 A 
ATOM      5  C4  UNL d   1      -2.531   2.146  -4.898  0.00  0.00    -0.007 A 
ATOM      6  C5  UNL d   1      -1.726   1.859  -6.000  0.00  0.00     0.039 A 
ENDROOT
BRANCH   4   7
ATOM      7  O   UNL d   1      -2.787   2.954  -2.699  0.00  0.00    -0.526 OA
ATOM      8  H5  UNL d   1      -2.259   3.348  -1.985  0.00  0.00     0.418 HD
ENDBRANCH   4   7
TORSDOF 1
ENDMDL
