MODEL 1
REMARK minimizedAffinity 6.46324492
REMARK minimizedRMSD -1
REMARK  1 active torsions:
REMARK  status: ('A' for Active; 'I' for Inactive)
REMARK    1  A    between atoms: C3_4  and  O_7 
ROOT
ATOM      1  C   UNL d   1       0.802   6.000   5.638  0.00  0.00    -0.033 A 
ATOM      2  C1  UNL d   1       0.162   5.967   4.397  0.00  0.00     0.039 A 
ATOM      3  C2  UNL d   1       0.398   4.911   3.515  0.00  0.00    -0.080 A 
ATOM      4  C3  UNL d   1       1.274   3.895   3.885  0.00  0.00     0.150 A 
ATOM      5  C4  UNL d   1       1.913   3.919   5.121  0.00  0.00    -0.007 A 
ATOM      6  C5  UNL d   1       1.677   4.975   6.000  0.00  0.00     0.039 A 
ENDROOT
BRANCH   4   7
ATOM      7  O   UNL d   1       1.540   2.846   3.056  0.00  0.00    -0.526 OA
ATOM      8  H5  UNL d   1       1.050   2.977   2.227  0.00  0.00     0.418 HD
ENDBRANCH   4   7
TORSDOF 1
ENDMDL
