MODEL 1
REMARK minimizedAffinity 1.94472182
REMARK minimizedRMSD -1
REMARK  1 active torsions:
REMARK  status: ('A' for Active; 'I' for Inactive)
REMARK    1  A    between atoms: C3_4  and  O_7 
ROOT
ATOM      1  C   UNL d   1      -5.709   3.428  -5.999  0.00  0.00    -0.033 A 
ATOM      2  C1  UNL d   1      -5.162   4.533  -5.345  0.00  0.00     0.039 A 
ATOM      3  C2  UNL d   1      -3.936   4.421  -4.686  0.00  0.00    -0.080 A 
ATOM      4  C3  UNL d   1      -3.268   3.200  -4.690  0.00  0.00     0.150 A 
ATOM      5  C4  UNL d   1      -3.805   2.096  -5.344  0.00  0.00    -0.007 A 
ATOM      6  C5  UNL d   1      -5.030   2.209  -6.000  0.00  0.00     0.039 A 
ENDROOT
BRANCH   4   7
ATOM      7  O   UNL d   1      -2.071   3.041  -4.058  0.00  0.00    -0.526 OA
ATOM      8  H5  UNL d   1      -1.837   3.879  -3.626  0.00  0.00     0.418 HD
ENDBRANCH   4   7
TORSDOF 1
ENDMDL
