MODEL 1
REMARK minimizedAffinity 1.55915129
REMARK minimizedRMSD -1
REMARK  1 active torsions:
REMARK  status: ('A' for Active; 'I' for Inactive)
REMARK    1  A    between atoms: C3_4  and  O_7 
ROOT
ATOM      1  C   UNL d   1       3.251  -3.779   0.405  0.00  0.00    -0.033 A 
ATOM      2  C1  UNL d   1       3.821  -4.921   0.972  0.00  0.00     0.039 A 
ATOM      3  C2  UNL d   1       4.372  -4.865   2.253  0.00  0.00    -0.080 A 
ATOM      4  C3  UNL d   1       4.347  -3.664   2.956  0.00  0.00     0.150 A 
ATOM      5  C4  UNL d   1       3.778  -2.523   2.399  0.00  0.00    -0.007 A 
ATOM      6  C5  UNL d   1       3.229  -2.580   1.119  0.00  0.00     0.039 A 
ENDROOT
BRANCH   4   7
ATOM      7  O   UNL d   1       4.877  -3.559   4.208  0.00  0.00    -0.526 OA
ATOM      8  H5  UNL d   1       5.260  -4.418   4.452  0.00  0.00     0.418 HD
ENDBRANCH   4   7
TORSDOF 1
ENDMDL
