MODEL 1
REMARK minimizedAffinity 4.59787989
REMARK minimizedRMSD -1
REMARK  1 active torsions:
REMARK  status: ('A' for Active; 'I' for Inactive)
REMARK    1  A    between atoms: C3_4  and  O_7 
ROOT
ATOM      1  C   UNL d   1       1.854  -2.808   0.725  0.00  0.00    -0.033 A 
ATOM      2  C1  UNL d   1       2.834  -3.802   0.728  0.00  0.00     0.039 A 
ATOM      3  C2  UNL d   1       3.751  -3.879   1.778  0.00  0.00    -0.080 A 
ATOM      4  C3  UNL d   1       3.675  -2.958   2.820  0.00  0.00     0.150 A 
ATOM      5  C4  UNL d   1       2.698  -1.968   2.826  0.00  0.00    -0.007 A 
ATOM      6  C5  UNL d   1       1.785  -1.892   1.775  0.00  0.00     0.039 A 
ENDROOT
BRANCH   4   7
ATOM      7  O   UNL d   1       4.550  -2.991   3.865  0.00  0.00    -0.526 OA
ATOM      8  H5  UNL d   1       5.186  -3.709   3.711  0.00  0.00     0.418 HD
ENDBRANCH   4   7
TORSDOF 1
ENDMDL
