MODEL 1
REMARK minimizedAffinity 2.33970857
REMARK minimizedRMSD -1
REMARK  1 active torsions:
REMARK  status: ('A' for Active; 'I' for Inactive)
REMARK    1  A    between atoms: C3_4  and  O_7 
ROOT
ATOM      1  C   UNL d   1      -4.042  -0.610  -3.962  0.00  0.00    -0.033 A 
ATOM      2  C1  UNL d   1      -5.071  -1.450  -3.532  0.00  0.00     0.039 A 
ATOM      3  C2  UNL d   1      -5.025  -2.015  -2.256  0.00  0.00    -0.080 A 
ATOM      4  C3  UNL d   1      -3.948  -1.730  -1.421  0.00  0.00     0.150 A 
ATOM      5  C4  UNL d   1      -2.922  -0.891  -1.842  0.00  0.00    -0.007 A 
ATOM      6  C5  UNL d   1      -2.969  -0.329  -3.117  0.00  0.00     0.039 A 
ENDROOT
BRANCH   4   7
ATOM      7  O   UNL d   1      -3.857  -2.262  -0.168  0.00  0.00    -0.526 OA
ATOM      8  H5  UNL d   1      -4.622  -2.844  -0.025  0.00  0.00     0.418 HD
ENDBRANCH   4   7
TORSDOF 1
ENDMDL
