MODEL 1
REMARK minimizedAffinity 12.7762346
REMARK minimizedRMSD -1
REMARK  1 active torsions:
REMARK  status: ('A' for Active; 'I' for Inactive)
REMARK    1  A    between atoms: C3_4  and  O_7 
ROOT
ATOM      1  C   UNL d   1      -3.668   0.340  -1.821  0.00  0.00    -0.033 A 
ATOM      2  C1  UNL d   1      -3.037  -0.898  -1.681  0.00  0.00     0.039 A 
ATOM      3  C2  UNL d   1      -3.546  -2.020  -2.338  0.00  0.00    -0.080 A 
ATOM      4  C3  UNL d   1      -4.683  -1.890  -3.131  0.00  0.00     0.150 A 
ATOM      5  C4  UNL d   1      -5.313  -0.659  -3.278  0.00  0.00    -0.007 A 
ATOM      6  C5  UNL d   1      -4.805   0.460  -2.620  0.00  0.00     0.039 A 
ENDROOT
BRANCH   4   7
ATOM      7  O   UNL d   1      -5.219  -2.958  -3.788  0.00  0.00    -0.526 OA
ATOM      8  H5  UNL d   1      -4.695  -3.747  -3.571  0.00  0.00     0.418 HD
ENDBRANCH   4   7
TORSDOF 1
ENDMDL
