MODEL 1
REMARK minimizedAffinity 6.41640854
REMARK minimizedRMSD -1
REMARK  1 active torsions:
REMARK  status: ('A' for Active; 'I' for Inactive)
REMARK    1  A    between atoms: C3_4  and  O_7 
ROOT
ATOM      1  C   UNL d   1       1.712  -3.124   0.096  0.00  0.00    -0.033 A 
ATOM      2  C1  UNL d   1       2.552  -4.189   0.427  0.00  0.00     0.039 A 
ATOM      3  C2  UNL d   1       3.227  -4.194   1.649  0.00  0.00    -0.080 A 
ATOM      4  C3  UNL d   1       3.053  -3.131   2.531  0.00  0.00     0.150 A 
ATOM      5  C4  UNL d   1       2.214  -2.068   2.209  0.00  0.00    -0.007 A 
ATOM      6  C5  UNL d   1       1.542  -2.065   0.988  0.00  0.00     0.039 A 
ENDROOT
BRANCH   4   7
ATOM      7  O   UNL d   1       3.695  -3.089   3.733  0.00  0.00    -0.526 OA
ATOM      8  H5  UNL d   1       4.262  -3.875   3.806  0.00  0.00     0.418 HD
ENDBRANCH   4   7
TORSDOF 1
ENDMDL
