MODEL 1
REMARK minimizedAffinity 1.13090003
REMARK minimizedRMSD -1
REMARK  1 active torsions:
REMARK  status: ('A' for Active; 'I' for Inactive)
REMARK    1  A    between atoms: C3_4  and  O_7 
ROOT
ATOM      1  C   UNL d   1       5.688  -3.722   1.942  0.00  0.00    -0.033 A 
ATOM      2  C1  UNL d   1       5.365  -3.221   0.680  0.00  0.00     0.039 A 
ATOM      3  C2  UNL d   1       4.044  -2.884   0.378  0.00  0.00    -0.080 A 
ATOM      4  C3  UNL d   1       3.057  -3.051   1.346  0.00  0.00     0.150 A 
ATOM      5  C4  UNL d   1       3.373  -3.546   2.607  0.00  0.00    -0.007 A 
ATOM      6  C5  UNL d   1       4.692  -3.883   2.907  0.00  0.00     0.039 A 
ENDROOT
BRANCH   4   7
ATOM      7  O   UNL d   1       1.754  -2.740   1.096  0.00  0.00    -0.526 OA
ATOM      8  H5  UNL d   1       1.680  -2.438   0.176  0.00  0.00     0.418 HD
ENDBRANCH   4   7
TORSDOF 1
ENDMDL
