MODEL 1
REMARK minimizedAffinity 5.16927671
REMARK minimizedRMSD -1
REMARK  1 active torsions:
REMARK  status: ('A' for Active; 'I' for Inactive)
REMARK    1  A    between atoms: N_2  and  C1_3 
ROOT
ATOM      1  C1  UNL d   1       1.602   3.755  -1.537  0.00  0.00     0.143 A 
ATOM      2  C2  UNL d   1       0.575   3.149  -2.270  0.00  0.00    -0.057 A 
ATOM      3  C3  UNL d   1       0.384   1.763  -2.242  0.00  0.00     0.033 A 
ATOM      4  C4  UNL d   1       1.237   0.951  -1.501  0.00  0.00    -0.042 A 
ATOM      5  C5  UNL d   1       2.279   1.529  -0.784  0.00  0.00     0.033 A 
ATOM      6  C6  UNL d   1       2.461   2.915  -0.811  0.00  0.00    -0.057 A 
ENDROOT
BRANCH   1   7
ATOM      7  N   UNL d   1       1.905   5.117  -1.602  0.00  0.00    -0.732 N 
ATOM      8  C   UNL d   1       1.570   6.000  -0.505  0.00  0.00     0.284 C 
ATOM      9  H3  UNL d   1       2.819   5.293  -2.012  0.00  0.00     0.395 HD
ENDBRANCH   1   7
TORSDOF 1
ENDMDL
