MODEL 1
REMARK minimizedAffinity -1.30047405
REMARK minimizedRMSD -1
REMARK  1 active torsions:
REMARK  status: ('A' for Active; 'I' for Inactive)
REMARK    1  A    between atoms: N_2  and  C1_3 
ROOT
ATOM      1  C1  UNL d   1       1.469   3.375  -0.934  0.00  0.00     0.143 A 
ATOM      2  C2  UNL d   1       1.989   2.270  -0.251  0.00  0.00    -0.057 A 
ATOM      3  C3  UNL d   1       1.839   0.971  -0.750  0.00  0.00     0.033 A 
ATOM      4  C4  UNL d   1       1.138   0.750  -1.931  0.00  0.00    -0.042 A 
ATOM      5  C5  UNL d   1       0.591   1.830  -2.614  0.00  0.00     0.033 A 
ATOM      6  C6  UNL d   1       0.750   3.126  -2.114  0.00  0.00    -0.057 A 
ENDROOT
BRANCH   1   7
ATOM      7  N   UNL d   1       1.500   4.681  -0.439  0.00  0.00    -0.732 N 
ATOM      8  C   UNL d   1       2.250   5.712  -1.125  0.00  0.00     0.284 C 
ATOM      9  H3  UNL d   1       0.594   4.987  -0.093  0.00  0.00     0.395 HD
ENDBRANCH   1   7
TORSDOF 1
ENDMDL
