MODEL 1
REMARK minimizedAffinity -2.52981353
REMARK minimizedRMSD -1
REMARK  1 active torsions:
REMARK  status: ('A' for Active; 'I' for Inactive)
REMARK    1  A    between atoms: N_2  and  C1_3 
ROOT
ATOM      1  C1  UNL d   1       1.304   3.048  -0.338  0.00  0.00     0.143 A 
ATOM      2  C2  UNL d   1       0.943   2.861  -1.676  0.00  0.00    -0.057 A 
ATOM      3  C3  UNL d   1       1.033   1.602  -2.284  0.00  0.00     0.033 A 
ATOM      4  C4  UNL d   1       1.514   0.511  -1.568  0.00  0.00    -0.042 A 
ATOM      5  C5  UNL d   1       1.902   0.679  -0.244  0.00  0.00     0.033 A 
ATOM      6  C6  UNL d   1       1.804   1.936   0.359  0.00  0.00    -0.057 A 
ENDROOT
BRANCH   1   7
ATOM      7  N   UNL d   1       1.330   4.293   0.294  0.00  0.00    -0.732 N 
ATOM      8  C   UNL d   1       1.911   5.443  -0.366  0.00  0.00     0.284 C 
ATOM      9  H3  UNL d   1       0.467   4.493   0.795  0.00  0.00     0.395 HD
ENDBRANCH   1   7
TORSDOF 1
ENDMDL
