MODEL 1
REMARK minimizedAffinity 1.85836494
REMARK minimizedRMSD -1
REMARK  1 active torsions:
REMARK  status: ('A' for Active; 'I' for Inactive)
REMARK    1  A    between atoms: N_2  and  C1_3 
ROOT
ATOM      1  C1  UNL d   1      -2.580   1.060   3.743  0.00  0.00     0.143 A 
ATOM      2  C2  UNL d   1      -2.554   1.309   5.119  0.00  0.00    -0.057 A 
ATOM      3  C3  UNL d   1      -1.804   0.508   5.988  0.00  0.00     0.033 A 
ATOM      4  C4  UNL d   1      -1.087  -0.578   5.498  0.00  0.00    -0.042 A 
ATOM      5  C5  UNL d   1      -1.117  -0.860   4.137  0.00  0.00     0.033 A 
ATOM      6  C6  UNL d   1      -1.863  -0.052   3.273  0.00  0.00    -0.057 A 
ENDROOT
BRANCH   1   7
ATOM      7  N   UNL d   1      -3.384   1.760   2.840  0.00  0.00    -0.732 N 
ATOM      8  C   UNL d   1      -3.047   1.805   1.433  0.00  0.00     0.284 C 
ATOM      9  H3  UNL d   1      -4.376   1.634   3.026  0.00  0.00     0.395 HD
ENDBRANCH   1   7
TORSDOF 1
ENDMDL
