MODEL 1
REMARK minimizedAffinity 0.920949519
REMARK minimizedRMSD -1
REMARK  1 active torsions:
REMARK  status: ('A' for Active; 'I' for Inactive)
REMARK    1  A    between atoms: N_2  and  C1_3 
ROOT
ATOM      1  C1  UNL d   1       1.183   3.923  -1.045  0.00  0.00     0.143 A 
ATOM      2  C2  UNL d   1       0.033   3.749  -1.823  0.00  0.00    -0.057 A 
ATOM      3  C3  UNL d   1      -0.183   2.569  -2.545  0.00  0.00     0.033 A 
ATOM      4  C4  UNL d   1       0.765   1.551  -2.526  0.00  0.00    -0.042 A 
ATOM      5  C5  UNL d   1       1.927   1.713  -1.780  0.00  0.00     0.033 A 
ATOM      6  C6  UNL d   1       2.134   2.891  -1.056  0.00  0.00    -0.057 A 
ENDROOT
BRANCH   1   7
ATOM      7  N   UNL d   1       1.501   5.112  -0.383  0.00  0.00    -0.732 N 
ATOM      8  C   UNL d   1       2.517   5.999  -0.909  0.00  0.00     0.284 C 
ATOM      9  H3  UNL d   1       0.678   5.589  -0.024  0.00  0.00     0.395 HD
ENDBRANCH   1   7
TORSDOF 1
ENDMDL
