MODEL 1
REMARK minimizedAffinity 1.58810711
REMARK minimizedRMSD -1
REMARK  1 active torsions:
REMARK  status: ('A' for Active; 'I' for Inactive)
REMARK    1  A    between atoms: N_2  and  C1_3 
ROOT
ATOM      1  C1  UNL d   1       1.131   1.007   0.247  0.00  0.00     0.143 A 
ATOM      2  C2  UNL d   1       1.420   1.807  -0.863  0.00  0.00    -0.057 A 
ATOM      3  C3  UNL d   1       1.619   1.245  -2.130  0.00  0.00     0.033 A 
ATOM      4  C4  UNL d   1       1.561  -0.134  -2.303  0.00  0.00    -0.042 A 
ATOM      5  C5  UNL d   1       1.299  -0.950  -1.209  0.00  0.00     0.033 A 
ATOM      6  C6  UNL d   1       1.095  -0.383   0.053  0.00  0.00    -0.057 A 
ENDROOT
BRANCH   1   7
ATOM      7  N   UNL d   1       1.020   1.497   1.551  0.00  0.00    -0.732 N 
ATOM      8  C   UNL d   1       2.200   1.708   2.362  0.00  0.00     0.284 C 
ATOM      9  H3  UNL d   1       0.323   2.234   1.631  0.00  0.00     0.395 HD
ENDBRANCH   1   7
TORSDOF 1
ENDMDL
