MODEL 1
REMARK minimizedAffinity -5.69179487
REMARK minimizedRMSD -1
REMARK  1 active torsions:
REMARK  status: ('A' for Active; 'I' for Inactive)
REMARK    1  A    between atoms: N_2  and  C1_3 
ROOT
ATOM      1  C1  UNL d   1       1.162   1.149  -0.400  0.00  0.00     0.143 A 
ATOM      2  C2  UNL d   1       0.982   1.675   0.884  0.00  0.00    -0.057 A 
ATOM      3  C3  UNL d   1       1.105   3.048   1.130  0.00  0.00     0.033 A 
ATOM      4  C4  UNL d   1       1.441   3.918   0.098  0.00  0.00    -0.042 A 
ATOM      5  C5  UNL d   1       1.649   3.414  -1.181  0.00  0.00     0.033 A 
ATOM      6  C6  UNL d   1       1.518   2.043  -1.421  0.00  0.00    -0.057 A 
ENDROOT
BRANCH   1   7
ATOM      7  N   UNL d   1       1.150  -0.218  -0.689  0.00  0.00    -0.732 N 
ATOM      8  C   UNL d   1       1.396  -0.689  -2.035  0.00  0.00     0.284 C 
ATOM      9  H3  UNL d   1       1.602  -0.772   0.035  0.00  0.00     0.395 HD
ENDBRANCH   1   7
TORSDOF 1
ENDMDL
