MODEL 1
REMARK minimizedAffinity -0.768213272
REMARK minimizedRMSD -1
REMARK  1 active torsions:
REMARK  status: ('A' for Active; 'I' for Inactive)
REMARK    1  A    between atoms: N_2  and  C1_3 
ROOT
ATOM      1  C1  UNL d   1      -5.412  -0.042   3.393  0.00  0.00     0.143 A 
ATOM      2  C2  UNL d   1      -5.993   1.030   4.078  0.00  0.00    -0.057 A 
ATOM      3  C3  UNL d   1      -5.313   2.244   4.239  0.00  0.00     0.033 A 
ATOM      4  C4  UNL d   1      -4.024   2.396   3.741  0.00  0.00    -0.042 A 
ATOM      5  C5  UNL d   1      -3.417   1.336   3.078  0.00  0.00     0.033 A 
ATOM      6  C6  UNL d   1      -4.104   0.129   2.915  0.00  0.00    -0.057 A 
ENDROOT
BRANCH   1   7
ATOM      7  N   UNL d   1      -5.998  -1.305   3.285  0.00  0.00    -0.732 N 
ATOM      8  C   UNL d   1      -5.179  -2.498   3.258  0.00  0.00     0.284 C 
ATOM      9  H3  UNL d   1      -6.841  -1.392   3.849  0.00  0.00     0.395 HD
ENDBRANCH   1   7
TORSDOF 1
ENDMDL
