MODEL 1
REMARK minimizedAffinity -1.63156664
REMARK minimizedRMSD -1
REMARK  1 active torsions:
REMARK  status: ('A' for Active; 'I' for Inactive)
REMARK    1  A    between atoms: N_2  and  C1_3 
ROOT
ATOM      1  C1  UNL d   1       1.382   3.680  -0.574  0.00  0.00     0.143 A 
ATOM      2  C2  UNL d   1       1.346   3.323   0.778  0.00  0.00    -0.057 A 
ATOM      3  C3  UNL d   1       1.260   1.983   1.174  0.00  0.00     0.033 A 
ATOM      4  C4  UNL d   1       1.179   0.974   0.220  0.00  0.00    -0.042 A 
ATOM      5  C5  UNL d   1       1.188   1.307  -1.130  0.00  0.00     0.033 A 
ATOM      6  C6  UNL d   1       1.281   2.646  -1.519  0.00  0.00    -0.057 A 
ENDROOT
BRANCH   1   7
ATOM      7  N   UNL d   1       1.368   5.000  -1.031  0.00  0.00    -0.732 N 
ATOM      8  C   UNL d   1       2.604   5.729  -1.217  0.00  0.00     0.284 C 
ATOM      9  H3  UNL d   1       0.683   5.148  -1.769  0.00  0.00     0.395 HD
ENDBRANCH   1   7
TORSDOF 1
ENDMDL
