MODEL 1
REMARK minimizedAffinity -1.566787
REMARK minimizedRMSD -1
REMARK  1 active torsions:
REMARK  status: ('A' for Active; 'I' for Inactive)
REMARK    1  A    between atoms: N_2  and  C1_3 
ROOT
ATOM      1  C1  UNL d   1       1.431   3.861  -1.045  0.00  0.00     0.143 A 
ATOM      2  C2  UNL d   1       1.423   3.008  -2.154  0.00  0.00    -0.057 A 
ATOM      3  C3  UNL d   1       1.539   1.621  -2.003  0.00  0.00     0.033 A 
ATOM      4  C4  UNL d   1       1.694   1.063  -0.739  0.00  0.00    -0.042 A 
ATOM      5  C5  UNL d   1       1.730   1.894   0.376  0.00  0.00     0.033 A 
ATOM      6  C6  UNL d   1       1.607   3.278   0.220  0.00  0.00    -0.057 A 
ENDROOT
BRANCH   1   7
ATOM      7  N   UNL d   1       1.419   5.255  -1.136  0.00  0.00    -0.732 N 
ATOM      8  C   UNL d   1       2.657   6.000  -1.210  0.00  0.00     0.284 C 
ATOM      9  H3  UNL d   1       0.690   5.597  -1.758  0.00  0.00     0.395 HD
ENDBRANCH   1   7
TORSDOF 1
ENDMDL
