MODEL 1
REMARK minimizedAffinity 1.45309961
REMARK minimizedRMSD -1
REMARK  1 active torsions:
REMARK  status: ('A' for Active; 'I' for Inactive)
REMARK    1  A    between atoms: N_2  and  C1_3 
ROOT
ATOM      1  C1  UNL d   1      -0.564   1.423  -1.703  0.00  0.00     0.143 A 
ATOM      2  C2  UNL d   1       0.428   2.410  -1.682  0.00  0.00    -0.057 A 
ATOM      3  C3  UNL d   1       1.768   2.089  -1.435  0.00  0.00     0.033 A 
ATOM      4  C4  UNL d   1       2.137   0.773  -1.175  0.00  0.00    -0.042 A 
ATOM      5  C5  UNL d   1       1.164  -0.221  -1.166  0.00  0.00     0.033 A 
ATOM      6  C6  UNL d   1      -0.171   0.106  -1.420  0.00  0.00    -0.057 A 
ENDROOT
BRANCH   1   7
ATOM      7  N   UNL d   1      -1.927   1.693  -1.845  0.00  0.00    -0.732 N 
ATOM      8  C   UNL d   1      -2.379   2.994  -2.290  0.00  0.00     0.284 C 
ATOM      9  H3  UNL d   1      -2.437   0.914  -2.255  0.00  0.00     0.395 HD
ENDBRANCH   1   7
TORSDOF 1
ENDMDL
