MODEL 1
REMARK minimizedAffinity -3.64403796
REMARK minimizedRMSD -1
REMARK  1 active torsions:
REMARK  status: ('A' for Active; 'I' for Inactive)
REMARK    1  A    between atoms: N_2  and  C1_3 
ROOT
ATOM      1  C1  UNL d   1       1.473   2.955  -0.928  0.00  0.00     0.143 A 
ATOM      2  C2  UNL d   1       1.406   2.721   0.450  0.00  0.00    -0.057 A 
ATOM      3  C3  UNL d   1       1.297   1.422   0.961  0.00  0.00     0.033 A 
ATOM      4  C4  UNL d   1       1.224   0.333   0.099  0.00  0.00    -0.042 A 
ATOM      5  C5  UNL d   1       1.263   0.544  -1.275  0.00  0.00     0.033 A 
ATOM      6  C6  UNL d   1       1.379   1.843  -1.779  0.00  0.00    -0.057 A 
ENDROOT
BRANCH   1   7
ATOM      7  N   UNL d   1       1.482   4.230  -1.501  0.00  0.00    -0.732 N 
ATOM      8  C   UNL d   1       1.939   5.375  -0.743  0.00  0.00     0.284 C 
ATOM      9  H3  UNL d   1       1.798   4.218  -2.468  0.00  0.00     0.395 HD
ENDBRANCH   1   7
TORSDOF 1
ENDMDL
