MODEL 1
REMARK minimizedAffinity 6.66400528
REMARK minimizedRMSD -1
REMARK  1 active torsions:
REMARK  status: ('A' for Active; 'I' for Inactive)
REMARK    1  A    between atoms: N_2  and  C1_3 
ROOT
ATOM      1  C1  UNL d   1       1.505   3.700  -0.823  0.00  0.00     0.143 A 
ATOM      2  C2  UNL d   1       1.217   3.494  -2.176  0.00  0.00    -0.057 A 
ATOM      3  C3  UNL d   1       1.007   2.207  -2.686  0.00  0.00     0.033 A 
ATOM      4  C4  UNL d   1       1.110   1.097  -1.854  0.00  0.00    -0.042 A 
ATOM      5  C5  UNL d   1       1.420   1.276  -0.511  0.00  0.00     0.033 A 
ATOM      6  C6  UNL d   1       1.622   2.564  -0.006  0.00  0.00    -0.057 A 
ENDROOT
BRANCH   1   7
ATOM      7  N   UNL d   1       1.822   4.946  -0.276  0.00  0.00    -0.732 N 
ATOM      8  C   UNL d   1       2.365   5.999  -1.106  0.00  0.00     0.284 C 
ATOM      9  H3  UNL d   1       1.127   5.263   0.396  0.00  0.00     0.395 HD
ENDBRANCH   1   7
TORSDOF 1
ENDMDL
