MODEL 1
REMARK minimizedAffinity -3.28052902
REMARK minimizedRMSD -1
REMARK  0 active torsions:
REMARK  status: ('A' for Active; 'I' for Inactive)
ROOT
ATOM      1  C1  BNZ d   1       5.990   4.176  -3.460  0.00  0.00     0.000 A 
ATOM      2  C2  BNZ d   1       6.000   4.193  -4.829  0.00  0.00     0.000 A 
ATOM      3  C3  BNZ d   1       5.271   5.119  -5.522  0.00  0.00     0.000 A 
ATOM      4  C4  BNZ d   1       4.503   5.998  -4.848  0.00  0.00     0.000 A 
ATOM      5  C5  BNZ d   1       4.476   5.987  -3.467  0.00  0.00     0.000 A 
ATOM      6  C6  BNZ d   1       5.241   5.079  -2.772  0.00  0.00     0.000 A 
ENDROOT
TORSDOF 0
ENDMDL
