MODEL 1
REMARK minimizedAffinity 1.28466666
REMARK minimizedRMSD -1
REMARK  0 active torsions:
REMARK  status: ('A' for Active; 'I' for Inactive)
ROOT
ATOM      1  C1  BNZ d   1       4.843   4.511  -1.649  0.00  0.00     0.000 A 
ATOM      2  C2  BNZ d   1       3.778   4.532  -2.509  0.00  0.00     0.000 A 
ATOM      3  C3  BNZ d   1       3.826   5.261  -3.665  0.00  0.00     0.000 A 
ATOM      4  C4  BNZ d   1       4.921   5.999  -3.938  0.00  0.00     0.000 A 
ATOM      5  C5  BNZ d   1       5.999   5.996  -3.076  0.00  0.00     0.000 A 
ATOM      6  C6  BNZ d   1       5.963   5.230  -1.933  0.00  0.00     0.000 A 
ENDROOT
TORSDOF 0
ENDMDL
