MODEL 1
REMARK minimizedAffinity -2.8641901
REMARK minimizedRMSD -1
REMARK  0 active torsions:
REMARK  status: ('A' for Active; 'I' for Inactive)
ROOT
ATOM      1  C1  BNZ d   1       6.000   3.517  -3.939  0.00  0.00     0.000 A 
ATOM      2  C2  BNZ d   1       5.814   4.123  -2.725  0.00  0.00     0.000 A 
ATOM      3  C3  BNZ d   1       5.232   5.356  -2.639  0.00  0.00     0.000 A 
ATOM      4  C4  BNZ d   1       4.873   6.000  -3.769  0.00  0.00     0.000 A 
ATOM      5  C5  BNZ d   1       5.062   5.407  -5.002  0.00  0.00     0.000 A 
ATOM      6  C6  BNZ d   1       5.613   4.148  -5.081  0.00  0.00     0.000 A 
ENDROOT
TORSDOF 0
ENDMDL
