MODEL 1
REMARK minimizedAffinity -0.595965743
REMARK minimizedRMSD -1
REMARK  0 active torsions:
REMARK  status: ('A' for Active; 'I' for Inactive)
ROOT
ATOM      1  C1  BNZ d   1       4.840  -5.966   5.398  0.00  0.00     0.000 A 
ATOM      2  C2  BNZ d   1       3.883  -5.201   4.785  0.00  0.00     0.000 A 
ATOM      3  C3  BNZ d   1       3.991  -3.839   4.753  0.00  0.00     0.000 A 
ATOM      4  C4  BNZ d   1       5.032  -3.241   5.367  0.00  0.00     0.000 A 
ATOM      5  C5  BNZ d   1       6.000  -3.998   5.998  0.00  0.00     0.000 A 
ATOM      6  C6  BNZ d   1       5.909  -5.371   5.995  0.00  0.00     0.000 A 
ENDROOT
TORSDOF 0
ENDMDL
