MODEL 1
REMARK minimizedAffinity -3.66645026
REMARK minimizedRMSD -1
REMARK  0 active torsions:
REMARK  status: ('A' for Active; 'I' for Inactive)
ROOT
ATOM      1  C1  BNZ d   1       4.766   3.390  -4.675  0.00  0.00     0.000 A 
ATOM      2  C2  BNZ d   1       5.534   3.965  -5.652  0.00  0.00     0.000 A 
ATOM      3  C3  BNZ d   1       5.362   5.277  -5.996  0.00  0.00     0.000 A 
ATOM      4  C4  BNZ d   1       4.396   6.000  -5.392  0.00  0.00     0.000 A 
ATOM      5  C5  BNZ d   1       3.607   5.431  -4.412  0.00  0.00     0.000 A 
ATOM      6  C6  BNZ d   1       3.810   4.122  -4.041  0.00  0.00     0.000 A 
ENDROOT
TORSDOF 0
ENDMDL
