MODEL 1
REMARK minimizedAffinity -4.06461811
REMARK minimizedRMSD -1
REMARK  0 active torsions:
REMARK  status: ('A' for Active; 'I' for Inactive)
ROOT
ATOM      1  C1  BNZ d   1       3.639   4.119  -4.114  0.00  0.00     0.000 A 
ATOM      2  C2  BNZ d   1       3.647   4.827  -2.942  0.00  0.00     0.000 A 
ATOM      3  C3  BNZ d   1       4.825   5.178  -2.344  0.00  0.00     0.000 A 
ATOM      4  C4  BNZ d   1       5.992   4.787  -2.897  0.00  0.00     0.000 A 
ATOM      5  C5  BNZ d   1       6.000   4.065  -4.074  0.00  0.00     0.000 A 
ATOM      6  C6  BNZ d   1       4.813   3.747  -4.693  0.00  0.00     0.000 A 
ENDROOT
TORSDOF 0
ENDMDL
