MODEL 1
REMARK minimizedAffinity -1.0652535
REMARK minimizedRMSD -1
REMARK  0 active torsions:
REMARK  status: ('A' for Active; 'I' for Inactive)
ROOT
ATOM      1  C1  BNZ d   1       5.963   5.259  -2.030  0.00  0.00     0.000 A 
ATOM      2  C2  BNZ d   1       6.000   5.985  -3.191  0.00  0.00     0.000 A 
ATOM      3  C3  BNZ d   1       4.930   6.000  -4.041  0.00  0.00     0.000 A 
ATOM      4  C4  BNZ d   1       3.841   5.258  -3.751  0.00  0.00     0.000 A 
ATOM      5  C5  BNZ d   1       3.792   4.514  -2.589  0.00  0.00     0.000 A 
ATOM      6  C6  BNZ d   1       4.856   4.532  -1.716  0.00  0.00     0.000 A 
ENDROOT
TORSDOF 0
ENDMDL
