MODEL 1
REMARK minimizedAffinity -0.0787385777
REMARK minimizedRMSD -1
REMARK  0 active torsions:
REMARK  status: ('A' for Active; 'I' for Inactive)
ROOT
ATOM      1  C1  BNZ d   1       4.116   4.019  -3.117  0.00  0.00     0.000 A 
ATOM      2  C2  BNZ d   1       5.070   4.023  -2.134  0.00  0.00     0.000 A 
ATOM      3  C3  BNZ d   1       6.000   5.022  -2.064  0.00  0.00     0.000 A 
ATOM      4  C4  BNZ d   1       6.000   5.994  -2.999  0.00  0.00     0.000 A 
ATOM      5  C5  BNZ d   1       5.050   6.000  -4.002  0.00  0.00     0.000 A 
ATOM      6  C6  BNZ d   1       4.092   5.013  -4.046  0.00  0.00     0.000 A 
ENDROOT
TORSDOF 0
ENDMDL
