MODEL 1
REMARK minimizedAffinity 3.30236483
REMARK minimizedRMSD -1
REMARK  0 active torsions:
REMARK  status: ('A' for Active; 'I' for Inactive)
ROOT
ATOM      1  C1  BNZ d   1       4.922   5.655  -2.321  0.00  0.00     0.000 A 
ATOM      2  C2  BNZ d   1       3.841   5.657  -3.161  0.00  0.00     0.000 A 
ATOM      3  C3  BNZ d   1       3.822   4.870  -4.279  0.00  0.00     0.000 A 
ATOM      4  C4  BNZ d   1       4.898   4.113  -4.575  0.00  0.00     0.000 A 
ATOM      5  C5  BNZ d   1       5.999   4.106  -3.742  0.00  0.00     0.000 A 
ATOM      6  C6  BNZ d   1       5.999   4.870  -2.598  0.00  0.00     0.000 A 
ENDROOT
TORSDOF 0
ENDMDL
