MODEL 1
REMARK minimizedAffinity -2.79548955
REMARK minimizedRMSD -1
REMARK  0 active torsions:
REMARK  status: ('A' for Active; 'I' for Inactive)
ROOT
ATOM      1  C1  BNZ d   1       2.353   5.307  -3.893  0.00  0.00     0.000 A 
ATOM      2  C2  BNZ d   1       3.478   5.766  -4.525  0.00  0.00     0.000 A 
ATOM      3  C3  BNZ d   1       4.722   5.480  -4.036  0.00  0.00     0.000 A 
ATOM      4  C4  BNZ d   1       4.839   4.769  -2.896  0.00  0.00     0.000 A 
ATOM      5  C5  BNZ d   1       3.714   4.307  -2.242  0.00  0.00     0.000 A 
ATOM      6  C6  BNZ d   1       2.465   4.564  -2.758  0.00  0.00     0.000 A 
ENDROOT
TORSDOF 0
ENDMDL
