MODEL 1
REMARK minimizedAffinity -3.20874047
REMARK minimizedRMSD -1
REMARK  0 active torsions:
REMARK  status: ('A' for Active; 'I' for Inactive)
ROOT
ATOM      1  C1  BNZ d   1       3.793   5.866  -5.391  0.00  0.00     0.000 A 
ATOM      2  C2  BNZ d   1       4.925   5.392  -5.999  0.00  0.00     0.000 A 
ATOM      3  C3  BNZ d   1       5.999   4.983  -5.259  0.00  0.00     0.000 A 
ATOM      4  C4  BNZ d   1       5.955   5.086  -3.915  0.00  0.00     0.000 A 
ATOM      5  C5  BNZ d   1       4.825   5.571  -3.287  0.00  0.00     0.000 A 
ATOM      6  C6  BNZ d   1       3.732   5.945  -4.033  0.00  0.00     0.000 A 
ENDROOT
TORSDOF 0
ENDMDL
