MODEL 1
REMARK minimizedAffinity -3.70726562
REMARK minimizedRMSD -1
REMARK  0 active torsions:
REMARK  status: ('A' for Active; 'I' for Inactive)
ROOT
ATOM      1  C1  BNZ d   1       3.590   6.000  -3.016  0.00  0.00     0.000 A 
ATOM      2  C2  BNZ d   1       4.763   5.994  -2.310  0.00  0.00     0.000 A 
ATOM      3  C3  BNZ d   1       5.968   5.999  -2.956  0.00  0.00     0.000 A 
ATOM      4  C4  BNZ d   1       5.999   5.970  -4.303  0.00  0.00     0.000 A 
ATOM      5  C5  BNZ d   1       4.824   5.966  -5.029  0.00  0.00     0.000 A 
ATOM      6  C6  BNZ d   1       3.613   6.000  -4.377  0.00  0.00     0.000 A 
ENDROOT
TORSDOF 0
ENDMDL
