MODEL 1
REMARK minimizedAffinity -3.91480017
REMARK minimizedRMSD -1
REMARK  0 active torsions:
REMARK  status: ('A' for Active; 'I' for Inactive)
ROOT
ATOM      1  C1  BNZ d   1       3.635   4.860  -2.953  0.00  0.00     0.000 A 
ATOM      2  C2  BNZ d   1       3.655   4.154  -4.126  0.00  0.00     0.000 A 
ATOM      3  C3  BNZ d   1       4.839   3.779  -4.698  0.00  0.00     0.000 A 
ATOM      4  C4  BNZ d   1       6.000   4.146  -4.119  0.00  0.00     0.000 A 
ATOM      5  C5  BNZ d   1       5.997   4.867  -2.941  0.00  0.00     0.000 A 
ATOM      6  C6  BNZ d   1       4.803   5.208  -2.348  0.00  0.00     0.000 A 
ENDROOT
TORSDOF 0
ENDMDL
