MODEL 1
REMARK minimizedAffinity -2.25649524
REMARK minimizedRMSD -1
REMARK  0 active torsions:
REMARK  status: ('A' for Active; 'I' for Inactive)
ROOT
ATOM      1  C1  BNZ d   1       4.030   5.335  -4.870  0.00  0.00     0.000 A 
ATOM      2  C2  BNZ d   1       4.026   5.999  -3.673  0.00  0.00     0.000 A 
ATOM      3  C3  BNZ d   1       5.017   5.793  -2.755  0.00  0.00     0.000 A 
ATOM      4  C4  BNZ d   1       5.987   4.893  -3.018  0.00  0.00     0.000 A 
ATOM      5  C5  BNZ d   1       6.000   4.209  -4.217  0.00  0.00     0.000 A 
ATOM      6  C6  BNZ d   1       5.022   4.448  -5.155  0.00  0.00     0.000 A 
ENDROOT
TORSDOF 0
ENDMDL
