MODEL 1
REMARK minimizedAffinity -2.99675655
REMARK minimizedRMSD -1
REMARK  0 active torsions:
REMARK  status: ('A' for Active; 'I' for Inactive)
ROOT
ATOM      1  C1  BNZ d   1       5.998   3.669  -3.780  0.00  0.00     0.000 A 
ATOM      2  C2  BNZ d   1       6.000   3.713  -5.149  0.00  0.00     0.000 A 
ATOM      3  C3  BNZ d   1       5.261   4.646  -5.820  0.00  0.00     0.000 A 
ATOM      4  C4  BNZ d   1       4.491   5.508  -5.125  0.00  0.00     0.000 A 
ATOM      5  C5  BNZ d   1       4.470   5.470  -3.745  0.00  0.00     0.000 A 
ATOM      6  C6  BNZ d   1       5.246   4.555  -3.071  0.00  0.00     0.000 A 
ENDROOT
TORSDOF 0
ENDMDL
