MODEL 1
REMARK minimizedAffinity 1.43148625
REMARK minimizedRMSD -1
REMARK  0 active torsions:
REMARK  status: ('A' for Active; 'I' for Inactive)
ROOT
ATOM      1  C   UNL d   1       3.606  -2.024  -4.193  0.00  0.00     0.078 C 
ATOM      2  C1  UNL d   1       3.156  -0.603  -4.356  0.00  0.00    -0.077 A 
ATOM      3  C2  UNL d   1       1.802  -0.260  -4.265  0.00  0.00    -0.001 A 
ATOM      4  C3  UNL d   1       1.397   1.066  -4.429  0.00  0.00     0.003 A 
ATOM      5  C4  UNL d   1       2.340   2.059  -4.686  0.00  0.00    -0.005 A 
ATOM      6  C5  UNL d   1       3.690   1.727  -4.781  0.00  0.00     0.003 A 
ATOM      7  C6  UNL d   1       4.097   0.402  -4.617  0.00  0.00    -0.001 A 
ENDROOT
TORSDOF 0
ENDMDL
