MODEL 1
REMARK minimizedAffinity -3.59675956
REMARK minimizedRMSD -1
REMARK  0 active torsions:
REMARK  status: ('A' for Active; 'I' for Inactive)
ROOT
ATOM      1  C   UNL d   1       1.501  -0.007  -0.960  0.00  0.00     0.078 C 
ATOM      2  C1  UNL d   1       1.658   0.575  -2.333  0.00  0.00    -0.077 A 
ATOM      3  C2  UNL d   1       0.601   0.551  -3.251  0.00  0.00    -0.001 A 
ATOM      4  C3  UNL d   1       0.765   1.088  -4.529  0.00  0.00     0.003 A 
ATOM      5  C4  UNL d   1       1.984   1.651  -4.901  0.00  0.00    -0.005 A 
ATOM      6  C5  UNL d   1       3.042   1.677  -3.995  0.00  0.00     0.003 A 
ATOM      7  C6  UNL d   1       2.880   1.141  -2.716  0.00  0.00    -0.001 A 
ENDROOT
TORSDOF 0
ENDMDL
