MODEL 1
REMARK minimizedAffinity 0.608210564
REMARK minimizedRMSD -1
REMARK  0 active torsions:
REMARK  status: ('A' for Active; 'I' for Inactive)
ROOT
ATOM      1  C   UNL d   1       1.020   0.031  -0.326  0.00  0.00     0.078 C 
ATOM      2  C1  UNL d   1       1.655   1.286  -0.847  0.00  0.00    -0.077 A 
ATOM      3  C2  UNL d   1       1.959   2.349   0.012  0.00  0.00    -0.001 A 
ATOM      4  C3  UNL d   1       2.541   3.516  -0.488  0.00  0.00     0.003 A 
ATOM      5  C4  UNL d   1       2.822   3.630  -1.848  0.00  0.00    -0.005 A 
ATOM      6  C5  UNL d   1       2.520   2.578  -2.710  0.00  0.00     0.003 A 
ATOM      7  C6  UNL d   1       1.939   1.411  -2.212  0.00  0.00    -0.001 A 
ENDROOT
TORSDOF 0
ENDMDL
