MODEL 1
REMARK minimizedAffinity -1.38921082
REMARK minimizedRMSD -1
REMARK  0 active torsions:
REMARK  status: ('A' for Active; 'I' for Inactive)
ROOT
ATOM      1  C   UNL d   1       2.204   1.761   2.385  0.00  0.00     0.078 C 
ATOM      2  C1  UNL d   1       1.945   0.628   1.438  0.00  0.00    -0.077 A 
ATOM      3  C2  UNL d   1       3.002  -0.067   0.838  0.00  0.00    -0.001 A 
ATOM      4  C3  UNL d   1       2.746  -1.114  -0.049  0.00  0.00     0.003 A 
ATOM      5  C4  UNL d   1       1.433  -1.475  -0.345  0.00  0.00    -0.005 A 
ATOM      6  C5  UNL d   1       0.374  -0.787   0.245  0.00  0.00     0.003 A 
ATOM      7  C6  UNL d   1       0.629   0.260   1.132  0.00  0.00    -0.001 A 
ENDROOT
TORSDOF 0
ENDMDL
