MODEL 1
REMARK minimizedAffinity 4.32823992
REMARK minimizedRMSD -1
REMARK  0 active torsions:
REMARK  status: ('A' for Active; 'I' for Inactive)
ROOT
ATOM      1  C   UNL d   1       1.945   1.886   2.424  0.00  0.00     0.078 C 
ATOM      2  C1  UNL d   1       3.357   2.268   2.754  0.00  0.00    -0.077 A 
ATOM      3  C2  UNL d   1       4.309   2.451   1.743  0.00  0.00    -0.001 A 
ATOM      4  C3  UNL d   1       5.623   2.797   2.066  0.00  0.00     0.003 A 
ATOM      5  C4  UNL d   1       5.996   2.962   3.398  0.00  0.00    -0.005 A 
ATOM      6  C5  UNL d   1       5.056   2.780   4.410  0.00  0.00     0.003 A 
ATOM      7  C6  UNL d   1       3.742   2.434   4.090  0.00  0.00    -0.001 A 
ENDROOT
TORSDOF 0
ENDMDL
