MODEL 1
REMARK minimizedAffinity 3.09076214
REMARK minimizedRMSD -1
REMARK  0 active torsions:
REMARK  status: ('A' for Active; 'I' for Inactive)
ROOT
ATOM      1  C   UNL d   1      -1.375  -5.999  -2.161  0.00  0.00     0.078 C 
ATOM      2  C1  UNL d   1      -0.745  -5.398  -3.382  0.00  0.00    -0.077 A 
ATOM      3  C2  UNL d   1       0.554  -5.748  -3.770  0.00  0.00    -0.001 A 
ATOM      4  C3  UNL d   1       1.131  -5.174  -4.903  0.00  0.00     0.003 A 
ATOM      5  C4  UNL d   1       0.417  -4.245  -5.658  0.00  0.00    -0.005 A 
ATOM      6  C5  UNL d   1      -0.875  -3.889  -5.279  0.00  0.00     0.003 A 
ATOM      7  C6  UNL d   1      -1.454  -4.462  -4.145  0.00  0.00    -0.001 A 
ENDROOT
TORSDOF 0
ENDMDL
