MODEL 1
REMARK minimizedAffinity 2.17152166
REMARK minimizedRMSD -1
REMARK  0 active torsions:
REMARK  status: ('A' for Active; 'I' for Inactive)
ROOT
ATOM      1  C   UNL d   1       3.450  -0.833  -0.866  0.00  0.00     0.078 C 
ATOM      2  C1  UNL d   1       2.030  -0.803  -0.384  0.00  0.00    -0.077 A 
ATOM      3  C2  UNL d   1       0.997  -1.361  -1.148  0.00  0.00    -0.001 A 
ATOM      4  C3  UNL d   1      -0.321  -1.317  -0.692  0.00  0.00     0.003 A 
ATOM      5  C4  UNL d   1      -0.619  -0.715   0.529  0.00  0.00    -0.005 A 
ATOM      6  C5  UNL d   1       0.401  -0.155   1.295  0.00  0.00     0.003 A 
ATOM      7  C6  UNL d   1       1.720  -0.198   0.840  0.00  0.00    -0.001 A 
ENDROOT
TORSDOF 0
ENDMDL
