MODEL 1
REMARK minimizedAffinity 1.78176236
REMARK minimizedRMSD -1
REMARK  0 active torsions:
REMARK  status: ('A' for Active; 'I' for Inactive)
ROOT
ATOM      1  C   UNL d   1      -4.212  -0.133  -1.528  0.00  0.00     0.078 C 
ATOM      2  C1  UNL d   1      -3.637  -0.168  -0.143  0.00  0.00    -0.077 A 
ATOM      3  C2  UNL d   1      -3.488   1.005   0.606  0.00  0.00    -0.001 A 
ATOM      4  C3  UNL d   1      -2.943   0.959   1.890  0.00  0.00     0.003 A 
ATOM      5  C4  UNL d   1      -2.540  -0.259   2.436  0.00  0.00    -0.005 A 
ATOM      6  C5  UNL d   1      -2.683  -1.431   1.697  0.00  0.00     0.003 A 
ATOM      7  C6  UNL d   1      -3.228  -1.387   0.413  0.00  0.00    -0.001 A 
ENDROOT
TORSDOF 0
ENDMDL
