MODEL 1
REMARK minimizedAffinity 1.04866791
REMARK minimizedRMSD -1
REMARK  2 active torsions:
REMARK  status: ('A' for Active; 'I' for Inactive)
REMARK    1  A    between atoms: C1_2  and  C2_3 
REMARK    2  A    between atoms: C2_3  and  C3_4 
ROOT
ATOM      1  C3  UNL d   1       0.544  -0.757   2.546  0.00  0.00    -0.075 A 
ATOM      2  C4  UNL d   1       0.685   0.205   1.535  0.00  0.00     0.002 A 
ATOM      3  C5  UNL d   1      -0.440   0.780   0.943  0.00  0.00     0.002 A 
ATOM      4  C6  UNL d   1      -1.717   0.395   1.345  0.00  0.00    -0.004 A 
ATOM      5  C7  UNL d   1      -1.869  -0.572   2.337  0.00  0.00     0.002 A 
ATOM      6  C8  UNL d   1      -0.745  -1.146   2.934  0.00  0.00     0.002 A 
ENDROOT
BRANCH   1   7
ATOM      7  C2  UNL d   1       1.757  -1.362   3.212  0.00  0.00     0.056 C 
BRANCH   7   8
ATOM      8  C1  UNL d   1       1.426  -2.292   4.384  0.00  0.00     0.007 C 
ATOM      9  C   UNL d   1       2.662  -2.898   5.036  0.00  0.00     0.009 C 
ENDBRANCH   7   8
ENDBRANCH   1   7
TORSDOF 2
ENDMDL
