MODEL 1
REMARK minimizedAffinity -5.46952248
REMARK minimizedRMSD -1
REMARK  2 active torsions:
REMARK  status: ('A' for Active; 'I' for Inactive)
REMARK    1  A    between atoms: C1_2  and  C2_3 
REMARK    2  A    between atoms: C2_3  and  C3_4 
ROOT
ATOM      1  C3  UNL d   1       0.809  -1.791   3.447  0.00  0.00    -0.075 A 
ATOM      2  C4  UNL d   1       0.669  -0.707   2.568  0.00  0.00     0.002 A 
ATOM      3  C5  UNL d   1      -0.574  -0.397   2.017  0.00  0.00     0.002 A 
ATOM      4  C6  UNL d   1      -1.690  -1.171   2.330  0.00  0.00    -0.004 A 
ATOM      5  C7  UNL d   1      -1.560  -2.260   3.189  0.00  0.00     0.002 A 
ATOM      6  C8  UNL d   1      -0.317  -2.569   3.745  0.00  0.00     0.002 A 
ENDROOT
BRANCH   1   7
ATOM      7  C2  UNL d   1       2.146  -2.114   4.069  0.00  0.00     0.056 C 
BRANCH   7   8
ATOM      8  C1  UNL d   1       2.303  -1.609   5.508  0.00  0.00     0.007 C 
ATOM      9  C   UNL d   1       3.753  -1.552   5.969  0.00  0.00     0.009 C 
ENDBRANCH   7   8
ENDBRANCH   1   7
TORSDOF 2
ENDMDL
