MODEL 1
REMARK minimizedAffinity 4.45613289
REMARK minimizedRMSD -1
REMARK  2 active torsions:
REMARK  status: ('A' for Active; 'I' for Inactive)
REMARK    1  A    between atoms: C1_2  and  C2_3 
REMARK    2  A    between atoms: C2_3  and  C3_4 
ROOT
ATOM      1  C3  UNL d   1       0.442  -1.102   3.273  0.00  0.00    -0.075 A 
ATOM      2  C4  UNL d   1      -0.883  -0.717   3.022  0.00  0.00     0.002 A 
ATOM      3  C5  UNL d   1      -1.219  -0.065   1.835  0.00  0.00     0.002 A 
ATOM      4  C6  UNL d   1      -0.235   0.219   0.891  0.00  0.00    -0.004 A 
ATOM      5  C7  UNL d   1       1.087  -0.144   1.137  0.00  0.00     0.002 A 
ATOM      6  C8  UNL d   1       1.425  -0.800   2.321  0.00  0.00     0.002 A 
ENDROOT
BRANCH   1   7
ATOM      7  C2  UNL d   1       0.807  -1.834   4.542  0.00  0.00     0.056 C 
BRANCH   7   8
ATOM      8  C1  UNL d   1       2.298  -2.166   4.664  0.00  0.00     0.007 C 
ATOM      9  C   UNL d   1       2.900  -1.748   5.998  0.00  0.00     0.009 C 
ENDBRANCH   7   8
ENDBRANCH   1   7
TORSDOF 2
ENDMDL
