MODEL 1
REMARK minimizedAffinity -3.4220674
REMARK minimizedRMSD -1
REMARK  2 active torsions:
REMARK  status: ('A' for Active; 'I' for Inactive)
REMARK    1  A    between atoms: C1_2  and  C2_3 
REMARK    2  A    between atoms: C2_3  and  C3_4 
ROOT
ATOM      1  C3  UNL d   1       0.857  -1.290   3.815  0.00  0.00    -0.075 A 
ATOM      2  C4  UNL d   1       1.851  -1.124   2.840  0.00  0.00     0.002 A 
ATOM      3  C5  UNL d   1       1.512  -0.761   1.537  0.00  0.00     0.002 A 
ATOM      4  C6  UNL d   1       0.177  -0.569   1.189  0.00  0.00    -0.004 A 
ATOM      5  C7  UNL d   1      -0.821  -0.747   2.145  0.00  0.00     0.002 A 
ATOM      6  C8  UNL d   1      -0.484  -1.107   3.451  0.00  0.00     0.002 A 
ENDROOT
BRANCH   1   7
ATOM      7  C2  UNL d   1       1.219  -1.655   5.235  0.00  0.00     0.056 C 
BRANCH   7   8
ATOM      8  C1  UNL d   1       2.623  -2.251   5.387  0.00  0.00     0.007 C 
ATOM      9  C   UNL d   1       3.624  -1.281   5.999  0.00  0.00     0.009 C 
ENDBRANCH   7   8
ENDBRANCH   1   7
TORSDOF 2
ENDMDL
