MODEL 1
REMARK minimizedAffinity 0.872693479
REMARK minimizedRMSD -1
REMARK  2 active torsions:
REMARK  status: ('A' for Active; 'I' for Inactive)
REMARK    1  A    between atoms: C1_2  and  C2_3 
REMARK    2  A    between atoms: C2_3  and  C3_4 
ROOT
ATOM      1  C3  UNL d   1       0.744  -1.141   3.467  0.00  0.00    -0.075 A 
ATOM      2  C4  UNL d   1       0.521  -0.756   2.137  0.00  0.00     0.002 A 
ATOM      3  C5  UNL d   1      -0.776  -0.549   1.667  0.00  0.00     0.002 A 
ATOM      4  C6  UNL d   1      -1.865  -0.732   2.517  0.00  0.00    -0.004 A 
ATOM      5  C7  UNL d   1      -1.656  -1.130   3.835  0.00  0.00     0.002 A 
ATOM      6  C8  UNL d   1      -0.359  -1.335   4.309  0.00  0.00     0.002 A 
ENDROOT
BRANCH   1   7
ATOM      7  C2  UNL d   1       2.147  -1.339   3.989  0.00  0.00     0.056 C 
BRANCH   7   8
ATOM      8  C1  UNL d   1       2.230  -1.501   5.510  0.00  0.00     0.007 C 
ATOM      9  C   UNL d   1       3.622  -1.877   6.000  0.00  0.00     0.009 C 
ENDBRANCH   7   8
ENDBRANCH   1   7
TORSDOF 2
ENDMDL
