MODEL 1
REMARK minimizedAffinity 5.85129309
REMARK minimizedRMSD -1
REMARK  2 active torsions:
REMARK  status: ('A' for Active; 'I' for Inactive)
REMARK    1  A    between atoms: C1_2  and  C2_3 
REMARK    2  A    between atoms: C2_3  and  C3_4 
ROOT
ATOM      1  C3  UNL d   1       0.230  -5.402  -5.014  0.00  0.00    -0.075 A 
ATOM      2  C4  UNL d   1       0.153  -5.649  -3.636  0.00  0.00     0.002 A 
ATOM      3  C5  UNL d   1       1.304  -5.936  -2.902  0.00  0.00     0.002 A 
ATOM      4  C6  UNL d   1       2.543  -5.990  -3.537  0.00  0.00    -0.004 A 
ATOM      5  C7  UNL d   1       2.629  -5.762  -4.909  0.00  0.00     0.002 A 
ATOM      6  C8  UNL d   1       1.480  -5.471  -5.645  0.00  0.00     0.002 A 
ENDROOT
BRANCH   1   7
ATOM      7  C2  UNL d   1      -1.008  -5.062  -5.809  0.00  0.00     0.056 C 
BRANCH   7   8
ATOM      8  C1  UNL d   1      -1.234  -3.558  -5.998  0.00  0.00     0.007 C 
ATOM      9  C   UNL d   1      -1.033  -2.755  -4.720  0.00  0.00     0.009 C 
ENDBRANCH   7   8
ENDBRANCH   1   7
TORSDOF 2
ENDMDL
