MODEL 1
REMARK minimizedAffinity 1.32850635
REMARK minimizedRMSD -1
REMARK  2 active torsions:
REMARK  status: ('A' for Active; 'I' for Inactive)
REMARK    1  A    between atoms: C1_2  and  C2_3 
REMARK    2  A    between atoms: C2_3  and  C3_4 
ROOT
ATOM      1  C3  UNL d   1       0.593  -1.342   3.171  0.00  0.00    -0.075 A 
ATOM      2  C4  UNL d   1       1.136  -0.459   2.227  0.00  0.00     0.002 A 
ATOM      3  C5  UNL d   1       0.308   0.398   1.500  0.00  0.00     0.002 A 
ATOM      4  C6  UNL d   1      -1.070   0.376   1.701  0.00  0.00    -0.004 A 
ATOM      5  C7  UNL d   1      -1.622  -0.509   2.625  0.00  0.00     0.002 A 
ATOM      6  C8  UNL d   1      -0.796  -1.364   3.356  0.00  0.00     0.002 A 
ENDROOT
BRANCH   1   7
ATOM      7  C2  UNL d   1       1.485  -2.251   3.982  0.00  0.00     0.056 C 
BRANCH   7   8
ATOM      8  C1  UNL d   1       1.579  -1.874   5.464  0.00  0.00     0.007 C 
ATOM      9  C   UNL d   1       3.005  -1.883   5.997  0.00  0.00     0.009 C 
ENDBRANCH   7   8
ENDBRANCH   1   7
TORSDOF 2
ENDMDL
