MODEL 1
REMARK minimizedAffinity -3.37993503
REMARK minimizedRMSD -1
REMARK  3 active torsions:
REMARK  status: ('A' for Active; 'I' for Inactive)
REMARK    1  A    between atoms: C3'_2  and  C2'_3 
REMARK    2  A    between atoms: C2'_3  and  C1'_4 
REMARK    3  A    between atoms: C1'_4  and  C1_5 
ROOT
ATOM      1  C1  N4B d   1       1.406   0.566   0.740  0.00  0.00    -0.075 A 
ATOM      2  C2  N4B d   1       2.196   1.036  -0.331  0.00  0.00     0.002 A 
ATOM      3  C3  N4B d   1       3.129   2.021  -0.116  0.00  0.00     0.002 A 
ATOM      4  C4  N4B d   1       3.275   2.561   1.153  0.00  0.00    -0.004 A 
ATOM      5  C5  N4B d   1       2.526   2.083   2.188  0.00  0.00     0.002 A 
ATOM      6  C6  N4B d   1       1.588   1.091   1.987  0.00  0.00     0.002 A 
ENDROOT
BRANCH   1   7
ATOM      7  C1' N4B d   1       0.314  -0.449   0.536  0.00  0.00     0.057 C 
BRANCH   7   8
ATOM      8  C2' N4B d   1      -0.582   0.004  -0.613  0.00  0.00     0.009 C 
BRANCH   8   9
ATOM      9  C3' N4B d   1      -2.040  -0.341  -0.366  0.00  0.00     0.004 C 
ATOM     10  C4' N4B d   1      -2.655  -1.108  -1.499  0.00  0.00     0.003 C 
ENDBRANCH   8   9
ENDBRANCH   7   8
ENDBRANCH   1   7
TORSDOF 3
ENDMDL
