MODEL 1
REMARK minimizedAffinity -3.96572804
REMARK minimizedRMSD -1
REMARK  3 active torsions:
REMARK  status: ('A' for Active; 'I' for Inactive)
REMARK    1  A    between atoms: C3'_2  and  C2'_3 
REMARK    2  A    between atoms: C2'_3  and  C1'_4 
REMARK    3  A    between atoms: C1'_4  and  C1_5 
ROOT
ATOM      1  C1  N4B d   1      -0.359  -0.116   0.007  0.00  0.00    -0.075 A 
ATOM      2  C2  N4B d   1      -0.436  -0.911   1.171  0.00  0.00     0.002 A 
ATOM      3  C3  N4B d   1      -1.608  -1.556   1.485  0.00  0.00     0.002 A 
ATOM      4  C4  N4B d   1      -2.715  -1.405   0.665  0.00  0.00    -0.004 A 
ATOM      5  C5  N4B d   1      -2.625  -0.655  -0.472  0.00  0.00     0.002 A 
ATOM      6  C6  N4B d   1      -1.453  -0.005  -0.802  0.00  0.00     0.002 A 
ENDROOT
BRANCH   1   7
ATOM      7  C1' N4B d   1       0.874   0.677  -0.333  0.00  0.00     0.057 C 
BRANCH   7   8
ATOM      8  C2' N4B d   1       1.323   1.457   0.899  0.00  0.00     0.009 C 
BRANCH   8   9
ATOM      9  C3' N4B d   1       2.298   2.567   0.545  0.00  0.00     0.004 C 
ATOM     10  C4' N4B d   1       2.260   3.706   1.520  0.00  0.00     0.003 C 
ENDBRANCH   8   9
ENDBRANCH   7   8
ENDBRANCH   1   7
TORSDOF 3
ENDMDL
