MODEL 1
REMARK minimizedAffinity -5.80203056
REMARK minimizedRMSD -1
REMARK  3 active torsions:
REMARK  status: ('A' for Active; 'I' for Inactive)
REMARK    1  A    between atoms: C3'_2  and  C2'_3 
REMARK    2  A    between atoms: C2'_3  and  C1'_4 
REMARK    3  A    between atoms: C1'_4  and  C1_5 
ROOT
ATOM      1  C1  N4B d   1      -0.141  -0.120  -0.107  0.00  0.00    -0.075 A 
ATOM      2  C2  N4B d   1      -1.047   0.237  -1.130  0.00  0.00     0.002 A 
ATOM      3  C3  N4B d   1      -2.360  -0.158  -1.052  0.00  0.00     0.002 A 
ATOM      4  C4  N4B d   1      -2.783  -0.924   0.024  0.00  0.00    -0.004 A 
ATOM      5  C5  N4B d   1      -1.907  -1.242   1.020  0.00  0.00     0.002 A 
ATOM      6  C6  N4B d   1      -0.586  -0.848   0.957  0.00  0.00     0.002 A 
ENDROOT
BRANCH   1   7
ATOM      7  C1' N4B d   1       1.323   0.217  -0.191  0.00  0.00     0.057 C 
BRANCH   7   8
ATOM      8  C2' N4B d   1       1.748   0.929   1.090  0.00  0.00     0.009 C 
BRANCH   8   9
ATOM      9  C3' N4B d   1       1.956   2.418   0.870  0.00  0.00     0.004 C 
ATOM     10  C4' N4B d   1       2.227   3.161   2.144  0.00  0.00     0.003 C 
ENDBRANCH   8   9
ENDBRANCH   7   8
ENDBRANCH   1   7
TORSDOF 3
ENDMDL
