MODEL 1
REMARK minimizedAffinity -5.57923365
REMARK minimizedRMSD -1
REMARK  3 active torsions:
REMARK  status: ('A' for Active; 'I' for Inactive)
REMARK    1  A    between atoms: C3'_2  and  C2'_3 
REMARK    2  A    between atoms: C2'_3  and  C1'_4 
REMARK    3  A    between atoms: C1'_4  and  C1_5 
ROOT
ATOM      1  C1  N4B d   1      -0.004  -0.454   0.501  0.00  0.00    -0.075 A 
ATOM      2  C2  N4B d   1      -0.530  -0.052  -0.746  0.00  0.00     0.002 A 
ATOM      3  C3  N4B d   1      -1.873  -0.188  -1.001  0.00  0.00     0.002 A 
ATOM      4  C4  N4B d   1      -2.702  -0.738  -0.035  0.00  0.00    -0.004 A 
ATOM      5  C5  N4B d   1      -2.190  -1.100   1.177  0.00  0.00     0.002 A 
ATOM      6  C6  N4B d   1      -0.843  -0.966   1.448  0.00  0.00     0.002 A 
ENDROOT
BRANCH   1   7
ATOM      7  C1' N4B d   1       1.471  -0.405   0.794  0.00  0.00     0.057 C 
BRANCH   7   8
ATOM      8  C2' N4B d   1       1.804   0.922   1.469  0.00  0.00     0.009 C 
BRANCH   8   9
ATOM      9  C3' N4B d   1       2.606   1.837   0.559  0.00  0.00     0.004 C 
ATOM     10  C4' N4B d   1       2.924   3.156   1.197  0.00  0.00     0.003 C 
ENDBRANCH   8   9
ENDBRANCH   7   8
ENDBRANCH   1   7
TORSDOF 3
ENDMDL
