MODEL 1
REMARK minimizedAffinity -5.36325216
REMARK minimizedRMSD -1
REMARK  3 active torsions:
REMARK  status: ('A' for Active; 'I' for Inactive)
REMARK    1  A    between atoms: C3'_2  and  C2'_3 
REMARK    2  A    between atoms: C2'_3  and  C1'_4 
REMARK    3  A    between atoms: C1'_4  and  C1_5 
ROOT
ATOM      1  C1  N4B d   1       2.046   1.369   0.357  0.00  0.00    -0.075 A 
ATOM      2  C2  N4B d   1       2.867   1.894  -0.665  0.00  0.00     0.002 A 
ATOM      3  C3  N4B d   1       3.251   3.212  -0.628  0.00  0.00     0.002 A 
ATOM      4  C4  N4B d   1       2.812   4.026   0.406  0.00  0.00    -0.004 A 
ATOM      5  C5  N4B d   1       2.040   3.505   1.402  0.00  0.00     0.002 A 
ATOM      6  C6  N4B d   1       1.650   2.181   1.380  0.00  0.00     0.002 A 
ENDROOT
BRANCH   1   7
ATOM      7  C1' N4B d   1       1.530  -0.043   0.314  0.00  0.00     0.057 C 
BRANCH   7   8
ATOM      8  C2' N4B d   1       0.332  -0.111  -0.629  0.00  0.00     0.009 C 
BRANCH   8   9
ATOM      9  C3' N4B d   1      -0.984  -0.172   0.127  0.00  0.00     0.004 C 
ATOM     10  C4' N4B d   1      -2.150  -0.485  -0.762  0.00  0.00     0.003 C 
ENDBRANCH   8   9
ENDBRANCH   7   8
ENDBRANCH   1   7
TORSDOF 3
ENDMDL
