MODEL 1
REMARK minimizedAffinity 3.38194609
REMARK minimizedRMSD -1
REMARK  1 active torsions:
REMARK  status: ('A' for Active; 'I' for Inactive)
REMARK    1  A    between atoms: C1_2  and  C2_3 
ROOT
ATOM      1  C2  UNL d   1      -2.766   0.160   1.390  0.00  0.00    -0.081 A 
ATOM      2  C3  UNL d   1      -1.775  -0.784   1.095  0.00  0.00     0.006 A 
ATOM      3  C4  UNL d   1      -0.574  -0.796   1.808  0.00  0.00     0.002 A 
ATOM      4  C5  UNL d   1      -0.348   0.130   2.832  0.00  0.00    -0.080 A 
ATOM      5  C6  UNL d   1       0.925   0.108   3.626  0.00  0.00     0.076 C 
ATOM      6  C7  UNL d   1      -1.331   1.084   3.116  0.00  0.00     0.002 A 
ATOM      7  C8  UNL d   1      -2.531   1.097   2.402  0.00  0.00     0.006 A 
ENDROOT
BRANCH   1   8
ATOM      8  C1  UNL d   1      -4.088   0.135   0.666  0.00  0.00     0.054 C 
ATOM      9  C   UNL d   1      -4.515  -1.290   0.342  0.00  0.00     0.018 C 
ENDBRANCH   1   8
TORSDOF 1
ENDMDL
