MODEL 1
REMARK minimizedAffinity 11.3748474
REMARK minimizedRMSD -1
REMARK  1 active torsions:
REMARK  status: ('A' for Active; 'I' for Inactive)
REMARK    1  A    between atoms: C1_2  and  C2_3 
ROOT
ATOM      1  C2  UNL d   1      -3.803  -3.291  -5.928  0.00  0.00    -0.081 A 
ATOM      2  C3  UNL d   1      -4.070  -1.917  -5.882  0.00  0.00     0.006 A 
ATOM      3  C4  UNL d   1      -3.024  -0.991  -5.886  0.00  0.00     0.002 A 
ATOM      4  C5  UNL d   1      -1.695  -1.423  -5.945  0.00  0.00    -0.080 A 
ATOM      5  C6  UNL d   1      -0.563  -0.439  -5.981  0.00  0.00     0.076 C 
ATOM      6  C7  UNL d   1      -1.427  -2.796  -5.974  0.00  0.00     0.002 A 
ATOM      7  C8  UNL d   1      -2.472  -3.722  -5.969  0.00  0.00     0.006 A 
ENDROOT
BRANCH   1   8
ATOM      8  C1  UNL d   1      -4.930  -4.289  -5.989  0.00  0.00     0.054 C 
ATOM      9  C   UNL d   1      -4.405  -5.718  -5.991  0.00  0.00     0.018 C 
ENDBRANCH   1   8
TORSDOF 1
ENDMDL
