MODEL 1
REMARK minimizedAffinity 7.99846649
REMARK minimizedRMSD -1
REMARK  1 active torsions:
REMARK  status: ('A' for Active; 'I' for Inactive)
REMARK    1  A    between atoms: C1_2  and  C2_3 
ROOT
ATOM      1  C2  UNL d   1      -3.416   0.560   0.873  0.00  0.00    -0.081 A 
ATOM      2  C3  UNL d   1      -3.617   1.922   1.129  0.00  0.00     0.006 A 
ATOM      3  C4  UNL d   1      -2.594   2.698   1.681  0.00  0.00     0.002 A 
ATOM      4  C5  UNL d   1      -1.353   2.126   1.979  0.00  0.00    -0.080 A 
ATOM      5  C6  UNL d   1      -0.237   2.954   2.543  0.00  0.00     0.076 C 
ATOM      6  C7  UNL d   1      -1.158   0.762   1.740  0.00  0.00     0.002 A 
ATOM      7  C8  UNL d   1      -2.180  -0.014   1.189  0.00  0.00     0.006 A 
ENDROOT
BRANCH   1   8
ATOM      8  C1  UNL d   1      -4.495  -0.264   0.219  0.00  0.00     0.054 C 
ATOM      9  C   UNL d   1      -4.151  -1.746   0.245  0.00  0.00     0.018 C 
ENDBRANCH   1   8
TORSDOF 1
ENDMDL
