MODEL 1
REMARK minimizedAffinity 11.9119577
REMARK minimizedRMSD -1
REMARK  1 active torsions:
REMARK  status: ('A' for Active; 'I' for Inactive)
REMARK    1  A    between atoms: C1_2  and  C2_3 
ROOT
ATOM      1  C2  UNL d   1      -3.601   0.003   1.402  0.00  0.00    -0.081 A 
ATOM      2  C3  UNL d   1      -3.551   1.213   2.105  0.00  0.00     0.006 A 
ATOM      3  C4  UNL d   1      -2.328   1.728   2.542  0.00  0.00     0.002 A 
ATOM      4  C5  UNL d   1      -1.135   1.048   2.276  0.00  0.00    -0.080 A 
ATOM      5  C6  UNL d   1       0.187   1.605   2.713  0.00  0.00     0.076 C 
ATOM      6  C7  UNL d   1      -1.186  -0.170   1.589  0.00  0.00     0.002 A 
ATOM      7  C8  UNL d   1      -2.409  -0.686   1.153  0.00  0.00     0.006 A 
ENDROOT
BRANCH   1   8
ATOM      8  C1  UNL d   1      -4.911  -0.523   0.874  0.00  0.00     0.054 C 
ATOM      9  C   UNL d   1      -4.842  -2.022   0.617  0.00  0.00     0.018 C 
ENDBRANCH   1   8
TORSDOF 1
ENDMDL
