MODEL 1
REMARK minimizedAffinity 11.4571886
REMARK minimizedRMSD -1
REMARK  1 active torsions:
REMARK  status: ('A' for Active; 'I' for Inactive)
REMARK    1  A    between atoms: C1_2  and  C2_3 
ROOT
ATOM      1  C2  UNL d   1      -4.016  -0.223   0.440  0.00  0.00    -0.081 A 
ATOM      2  C3  UNL d   1      -2.801  -0.240   1.135  0.00  0.00     0.006 A 
ATOM      3  C4  UNL d   1      -2.323   0.918   1.753  0.00  0.00     0.002 A 
ATOM      4  C5  UNL d   1      -3.055   2.108   1.693  0.00  0.00    -0.080 A 
ATOM      5  C6  UNL d   1      -2.567   3.350   2.378  0.00  0.00     0.076 C 
ATOM      6  C7  UNL d   1      -4.260   2.130   0.984  0.00  0.00     0.002 A 
ATOM      7  C8  UNL d   1      -4.739   0.973   0.365  0.00  0.00     0.006 A 
ENDROOT
BRANCH   1   8
ATOM      8  C1  UNL d   1      -4.566  -1.486  -0.173  0.00  0.00     0.054 C 
ATOM      9  C   UNL d   1      -4.235  -2.703   0.678  0.00  0.00     0.018 C 
ENDBRANCH   1   8
TORSDOF 1
ENDMDL
