MODEL 1
REMARK minimizedAffinity 10.4683971
REMARK minimizedRMSD -1
REMARK  1 active torsions:
REMARK  status: ('A' for Active; 'I' for Inactive)
REMARK    1  A    between atoms: C1_2  and  C2_3 
ROOT
ATOM      1  C2  UNL d   1      -1.281  -0.041   2.823  0.00  0.00    -0.081 A 
ATOM      2  C3  UNL d   1      -2.422   0.015   3.633  0.00  0.00     0.006 A 
ATOM      3  C4  UNL d   1      -3.670   0.307   3.079  0.00  0.00     0.002 A 
ATOM      4  C5  UNL d   1      -3.800   0.540   1.706  0.00  0.00    -0.080 A 
ATOM      5  C6  UNL d   1      -5.140   0.825   1.094  0.00  0.00     0.076 C 
ATOM      6  C7  UNL d   1      -2.658   0.502   0.899  0.00  0.00     0.002 A 
ATOM      7  C8  UNL d   1      -1.409   0.211   1.453  0.00  0.00     0.006 A 
ENDROOT
BRANCH   1   8
ATOM      8  C1  UNL d   1       0.056  -0.419   3.407  0.00  0.00     0.054 C 
ATOM      9  C   UNL d   1       1.120   0.615   3.070  0.00  0.00     0.018 C 
ENDBRANCH   1   8
TORSDOF 1
ENDMDL
