MODEL 1
REMARK minimizedAffinity 14.8483181
REMARK minimizedRMSD -1
REMARK  1 active torsions:
REMARK  status: ('A' for Active; 'I' for Inactive)
REMARK    1  A    between atoms: C1_2  and  C2_3 
ROOT
ATOM      1  C2  UNL d   1      -4.586   0.755   4.228  0.00  0.00    -0.081 A 
ATOM      2  C3  UNL d   1      -5.601   1.127   3.338  0.00  0.00     0.006 A 
ATOM      3  C4  UNL d   1      -5.325   1.297   1.980  0.00  0.00     0.002 A 
ATOM      4  C5  UNL d   1      -4.032   1.091   1.487  0.00  0.00    -0.080 A 
ATOM      5  C6  UNL d   1      -3.729   1.240   0.025  0.00  0.00     0.076 C 
ATOM      6  C7  UNL d   1      -3.014   0.736   2.378  0.00  0.00     0.002 A 
ATOM      7  C8  UNL d   1      -3.289   0.567   3.737  0.00  0.00     0.006 A 
ENDROOT
BRANCH   1   8
ATOM      8  C1  UNL d   1      -4.894   0.508   5.683  0.00  0.00     0.054 C 
ATOM      9  C   UNL d   1      -4.912  -0.981   5.999  0.00  0.00     0.018 C 
ENDBRANCH   1   8
TORSDOF 1
ENDMDL
