MODEL 1
REMARK minimizedAffinity 3.84960222
REMARK minimizedRMSD -1
REMARK  1 active torsions:
REMARK  status: ('A' for Active; 'I' for Inactive)
REMARK    1  A    between atoms: C1_2  and  C2_3 
ROOT
ATOM      1  C2  UNL d   1      -3.628  -2.626  -5.937  0.00  0.00    -0.081 A 
ATOM      2  C3  UNL d   1      -4.165  -1.334  -5.881  0.00  0.00     0.006 A 
ATOM      3  C4  UNL d   1      -3.325  -0.217  -5.887  0.00  0.00     0.002 A 
ATOM      4  C5  UNL d   1      -1.937  -0.374  -5.958  0.00  0.00    -0.080 A 
ATOM      5  C6  UNL d   1      -1.026   0.817  -5.996  0.00  0.00     0.076 C 
ATOM      6  C7  UNL d   1      -1.400  -1.665  -5.996  0.00  0.00     0.002 A 
ATOM      7  C8  UNL d   1      -2.239  -2.782  -5.989  0.00  0.00     0.006 A 
ENDROOT
BRANCH   1   8
ATOM      8  C1  UNL d   1      -4.534  -3.830  -5.996  0.00  0.00     0.054 C 
ATOM      9  C   UNL d   1      -6.000  -3.420  -5.993  0.00  0.00     0.018 C 
ENDBRANCH   1   8
TORSDOF 1
ENDMDL
