MODEL 1
REMARK minimizedAffinity 5.10549593
REMARK minimizedRMSD -1
REMARK  1 active torsions:
REMARK  status: ('A' for Active; 'I' for Inactive)
REMARK    1  A    between atoms: C1_2  and  C2_3 
ROOT
ATOM      1  C2  UNL d   1       3.521  -5.571   2.238  0.00  0.00    -0.081 A 
ATOM      2  C3  UNL d   1       2.628  -6.000   3.227  0.00  0.00     0.006 A 
ATOM      3  C4  UNL d   1       1.277  -5.650   3.161  0.00  0.00     0.002 A 
ATOM      4  C5  UNL d   1       0.796  -4.873   2.102  0.00  0.00    -0.080 A 
ATOM      5  C6  UNL d   1      -0.658  -4.517   2.003  0.00  0.00     0.076 C 
ATOM      6  C7  UNL d   1       1.692  -4.430   1.123  0.00  0.00     0.002 A 
ATOM      7  C8  UNL d   1       3.042  -4.779   1.189  0.00  0.00     0.006 A 
ENDROOT
BRANCH   1   8
ATOM      8  C1  UNL d   1       4.966  -6.000   2.272  0.00  0.00     0.054 C 
ATOM      9  C   UNL d   1       5.897  -4.831   1.985  0.00  0.00     0.018 C 
ENDBRANCH   1   8
TORSDOF 1
ENDMDL
