MODEL 1
REMARK minimizedAffinity 7.62085247
REMARK minimizedRMSD -1
REMARK  1 active torsions:
REMARK  status: ('A' for Active; 'I' for Inactive)
REMARK    1  A    between atoms: C1_2  and  C2_3 
ROOT
ATOM      1  C2  UNL d   1      -0.474  -0.870  -5.179  0.00  0.00    -0.081 A 
ATOM      2  C3  UNL d   1      -0.706  -2.133  -5.739  0.00  0.00     0.006 A 
ATOM      3  C4  UNL d   1      -2.010  -2.565  -5.994  0.00  0.00     0.002 A 
ATOM      4  C5  UNL d   1      -3.101  -1.741  -5.702  0.00  0.00    -0.080 A 
ATOM      5  C6  UNL d   1      -4.504  -2.181  -5.998  0.00  0.00     0.076 C 
ATOM      6  C7  UNL d   1      -2.870  -0.487  -5.126  0.00  0.00     0.002 A 
ATOM      7  C8  UNL d   1      -1.567  -0.054  -4.870  0.00  0.00     0.006 A 
ENDROOT
BRANCH   1   8
ATOM      8  C1  UNL d   1       0.933  -0.375  -4.963  0.00  0.00     0.054 C 
ATOM      9  C   UNL d   1       1.315  -0.419  -3.490  0.00  0.00     0.018 C 
ENDBRANCH   1   8
TORSDOF 1
ENDMDL
