MODEL 1
REMARK minimizedAffinity 1.26472867
REMARK minimizedRMSD -1
REMARK  1 active torsions:
REMARK  status: ('A' for Active; 'I' for Inactive)
REMARK    1  A    between atoms: C1_2  and  C2_3 
ROOT
ATOM      1  C2  UNL d   1       2.615   0.160  -4.328  0.00  0.00    -0.081 A 
ATOM      2  C3  UNL d   1       1.521  -0.473  -3.726  0.00  0.00     0.006 A 
ATOM      3  C4  UNL d   1       1.173  -0.182  -2.404  0.00  0.00     0.002 A 
ATOM      4  C5  UNL d   1       1.908   0.752  -1.666  0.00  0.00    -0.080 A 
ATOM      5  C6  UNL d   1       1.528   1.096  -0.257  0.00  0.00     0.076 C 
ATOM      6  C7  UNL d   1       3.012   1.372  -2.262  0.00  0.00     0.002 A 
ATOM      7  C8  UNL d   1       3.360   1.081  -3.583  0.00  0.00     0.006 A 
ENDROOT
BRANCH   1   8
ATOM      8  C1  UNL d   1       2.953  -0.103  -5.773  0.00  0.00     0.054 C 
ATOM      9  C   UNL d   1       4.417  -0.484  -5.938  0.00  0.00     0.018 C 
ENDBRANCH   1   8
TORSDOF 1
ENDMDL
