MODEL 1
REMARK minimizedAffinity 14.8982258
REMARK minimizedRMSD -1
REMARK  1 active torsions:
REMARK  status: ('A' for Active; 'I' for Inactive)
REMARK    1  A    between atoms: C1_2  and  C2_3 
ROOT
ATOM      1  C2  UNL d   1       1.218   0.791  -0.037  0.00  0.00    -0.081 A 
ATOM      2  C3  UNL d   1       1.353   1.358   1.236  0.00  0.00     0.006 A 
ATOM      3  C4  UNL d   1       0.532   0.943   2.287  0.00  0.00     0.002 A 
ATOM      4  C5  UNL d   1      -0.433  -0.050   2.084  0.00  0.00    -0.080 A 
ATOM      5  C6  UNL d   1      -1.300  -0.526   3.211  0.00  0.00     0.076 C 
ATOM      6  C7  UNL d   1      -0.580  -0.604   0.808  0.00  0.00     0.002 A 
ATOM      7  C8  UNL d   1       0.241  -0.189  -0.243  0.00  0.00     0.006 A 
ENDROOT
BRANCH   1   8
ATOM      8  C1  UNL d   1       2.146   1.190  -1.156  0.00  0.00     0.054 C 
ATOM      9  C   UNL d   1       2.190   0.127  -2.244  0.00  0.00     0.018 C 
ENDBRANCH   1   8
TORSDOF 1
ENDMDL
