MODEL 1
REMARK minimizedAffinity 11.8435163
REMARK minimizedRMSD -1
REMARK  1 active torsions:
REMARK  status: ('A' for Active; 'I' for Inactive)
REMARK    1  A    between atoms: C1_2  and  C2_3 
ROOT
ATOM      1  C2  UNL d   1      -3.375   0.614   2.467  0.00  0.00    -0.081 A 
ATOM      2  C3  UNL d   1      -3.245   1.785   1.710  0.00  0.00     0.006 A 
ATOM      3  C4  UNL d   1      -1.992   2.192   1.245  0.00  0.00     0.002 A 
ATOM      4  C5  UNL d   1      -0.851   1.432   1.522  0.00  0.00    -0.080 A 
ATOM      5  C6  UNL d   1       0.495   1.841   1.002  0.00  0.00     0.076 C 
ATOM      6  C7  UNL d   1      -0.978   0.271   2.292  0.00  0.00     0.002 A 
ATOM      7  C8  UNL d   1      -2.230  -0.136   2.758  0.00  0.00     0.006 A 
ENDROOT
BRANCH   1   8
ATOM      8  C1  UNL d   1      -4.733   0.138   2.915  0.00  0.00     0.054 C 
ATOM      9  C   UNL d   1      -5.607  -0.240   1.727  0.00  0.00     0.018 C 
ENDBRANCH   1   8
TORSDOF 1
ENDMDL
