MODEL 1
REMARK minimizedAffinity 7.88191986
REMARK minimizedRMSD -1
REMARK  0 active torsions:
REMARK  status: ('A' for Active; 'I' for Inactive)
ROOT
ATOM      1  C   UNL d   1      -1.107  -1.511   1.769  0.00  0.00     0.124 A 
ATOM      2  C1  UNL d   1      -1.478  -0.321   1.159  0.00  0.00     0.062 A 
ATOM      3  C2  UNL d   1      -0.534   0.441   0.477  0.00  0.00     0.162 A 
ATOM      4  C3  UNL d   1       0.792   0.014   0.401  0.00  0.00    -0.034 A 
ATOM      5  C4  UNL d   1       1.158  -1.184   1.018  0.00  0.00     0.162 A 
ATOM      6  C5  UNL d   1       0.210  -1.941   1.698  0.00  0.00     0.062 A 
ATOM      7  F   UNL d   1       0.571  -3.091   2.287  0.00  0.00    -0.097 F 
ATOM      8  F1  UNL d   1       2.424  -1.623   0.964  0.00  0.00    -0.096 F 
ATOM      9  I   UNL d   1       2.208   1.150  -0.618  0.00  0.00    -0.060 I 
ATOM     10  F2  UNL d   1      -0.921   1.586  -0.103  0.00  0.00    -0.096 F 
ATOM     11  F3  UNL d   1      -2.751   0.097   1.227  0.00  0.00    -0.097 F 
ATOM     12  F4  UNL d   1      -2.018  -2.241   2.426  0.00  0.00    -0.092 F 
ENDROOT
TORSDOF 0
ENDMDL
