MODEL 1
REMARK minimizedAffinity -0.382281393
REMARK minimizedRMSD -1
REMARK  0 active torsions:
REMARK  status: ('A' for Active; 'I' for Inactive)
ROOT
ATOM      1  C   UNL d   1      -1.552  -1.290   0.600  0.00  0.00     0.124 A 
ATOM      2  C1  UNL d   1      -0.367  -1.666   1.216  0.00  0.00     0.062 A 
ATOM      3  C2  UNL d   1       0.749  -0.837   1.153  0.00  0.00     0.162 A 
ATOM      4  C3  UNL d   1       0.685   0.378   0.471  0.00  0.00    -0.034 A 
ATOM      5  C4  UNL d   1      -0.510   0.749  -0.147  0.00  0.00     0.162 A 
ATOM      6  C5  UNL d   1      -1.623  -0.083  -0.081  0.00  0.00     0.062 A 
ATOM      7  F   UNL d   1      -2.767   0.282  -0.678  0.00  0.00    -0.097 F 
ATOM      8  F1  UNL d   1      -0.606   1.911  -0.811  0.00  0.00    -0.096 F 
ATOM      9  I   UNL d   1       2.352   1.621   0.374  0.00  0.00    -0.060 I 
ATOM     10  F2  UNL d   1       1.881  -1.226   1.758  0.00  0.00    -0.096 F 
ATOM     11  F3  UNL d   1      -0.296  -2.833   1.874  0.00  0.00    -0.097 F 
ATOM     12  F4  UNL d   1      -2.624  -2.090   0.662  0.00  0.00    -0.092 F 
ENDROOT
TORSDOF 0
ENDMDL
