MODEL 1
REMARK minimizedAffinity 0.118702821
REMARK minimizedRMSD -1
REMARK  0 active torsions:
REMARK  status: ('A' for Active; 'I' for Inactive)
ROOT
ATOM      1  C   UNL d   1      -2.047  -0.866  -0.090  0.00  0.00     0.124 A 
ATOM      2  C1  UNL d   1      -1.147  -0.988   0.959  0.00  0.00     0.062 A 
ATOM      3  C2  UNL d   1       0.139  -0.467   0.842  0.00  0.00     0.162 A 
ATOM      4  C3  UNL d   1       0.531   0.182  -0.328  0.00  0.00    -0.034 A 
ATOM      5  C4  UNL d   1      -0.380   0.300  -1.380  0.00  0.00     0.162 A 
ATOM      6  C5  UNL d   1      -1.663  -0.222  -1.258  0.00  0.00     0.062 A 
ATOM      7  F   UNL d   1      -2.532  -0.104  -2.273  0.00  0.00    -0.097 F 
ATOM      8  F1  UNL d   1      -0.036   0.918  -2.519  0.00  0.00    -0.096 F 
ATOM      9  I   UNL d   1       2.452   0.963  -0.507  0.00  0.00    -0.060 I 
ATOM     10  F2  UNL d   1       0.988  -0.600   1.872  0.00  0.00    -0.096 F 
ATOM     11  F3  UNL d   1      -1.515  -1.611   2.088  0.00  0.00    -0.097 F 
ATOM     12  F4  UNL d   1      -3.283  -1.370   0.024  0.00  0.00    -0.092 F 
ENDROOT
TORSDOF 0
ENDMDL
