MODEL 1
REMARK minimizedAffinity -1.77821016
REMARK minimizedRMSD -1
REMARK  0 active torsions:
REMARK  status: ('A' for Active; 'I' for Inactive)
ROOT
ATOM      1  C   UNL d   1      -2.034  -1.014  -0.166  0.00  0.00     0.124 A 
ATOM      2  C1  UNL d   1      -1.139  -1.122   0.890  0.00  0.00     0.062 A 
ATOM      3  C2  UNL d   1       0.113  -0.519   0.811  0.00  0.00     0.162 A 
ATOM      4  C3  UNL d   1       0.477   0.200  -0.328  0.00  0.00    -0.034 A 
ATOM      5  C4  UNL d   1      -0.428   0.304  -1.385  0.00  0.00     0.162 A 
ATOM      6  C5  UNL d   1      -1.678  -0.301  -1.302  0.00  0.00     0.062 A 
ATOM      7  F   UNL d   1      -2.542  -0.194  -2.322  0.00  0.00    -0.097 F 
ATOM      8  F1  UNL d   1      -0.110   0.988  -2.495  0.00  0.00    -0.096 F 
ATOM      9  I   UNL d   1       2.348   1.104  -0.449  0.00  0.00    -0.060 I 
ATOM     10  F2  UNL d   1       0.957  -0.641   1.846  0.00  0.00    -0.096 F 
ATOM     11  F3  UNL d   1      -1.481  -1.811   1.988  0.00  0.00    -0.097 F 
ATOM     12  F4  UNL d   1      -3.238  -1.596  -0.087  0.00  0.00    -0.092 F 
ENDROOT
TORSDOF 0
ENDMDL
