MODEL 1
REMARK minimizedAffinity 3.71557689
REMARK minimizedRMSD -1
REMARK  0 active torsions:
REMARK  status: ('A' for Active; 'I' for Inactive)
ROOT
ATOM      1  C   UNL d   1      -1.236  -0.457  -0.924  0.00  0.00     0.124 A 
ATOM      2  C1  UNL d   1      -1.684  -0.011   0.312  0.00  0.00     0.062 A 
ATOM      3  C2  UNL d   1      -0.814   0.647   1.176  0.00  0.00     0.162 A 
ATOM      4  C3  UNL d   1       0.514   0.864   0.807  0.00  0.00    -0.034 A 
ATOM      5  C4  UNL d   1       0.958   0.412  -0.437  0.00  0.00     0.162 A 
ATOM      6  C5  UNL d   1       0.084  -0.246  -1.297  0.00  0.00     0.062 A 
ATOM      7  F   UNL d   1       0.519  -0.676  -2.490  0.00  0.00    -0.097 F 
ATOM      8  F1  UNL d   1       2.228   0.604  -0.823  0.00  0.00    -0.096 F 
ATOM      9  I   UNL d   1       1.818   1.848   2.097  0.00  0.00    -0.060 I 
ATOM     10  F2  UNL d   1      -1.274   1.068   2.363  0.00  0.00    -0.096 F 
ATOM     11  F3  UNL d   1      -2.958  -0.215   0.675  0.00  0.00    -0.097 F 
ATOM     12  F4  UNL d   1      -2.075  -1.091  -1.753  0.00  0.00    -0.092 F 
ENDROOT
TORSDOF 0
ENDMDL
