MODEL 1
REMARK minimizedAffinity -2.990839
REMARK minimizedRMSD -1
REMARK  0 active torsions:
REMARK  status: ('A' for Active; 'I' for Inactive)
ROOT
ATOM      1  C   UNL d   1      -1.144  -0.734  -1.405  0.00  0.00     0.124 A 
ATOM      2  C1  UNL d   1      -1.623  -0.307  -0.174  0.00  0.00     0.062 A 
ATOM      3  C2  UNL d   1      -0.814   0.448   0.669  0.00  0.00     0.162 A 
ATOM      4  C3  UNL d   1       0.484   0.783   0.284  0.00  0.00    -0.034 A 
ATOM      5  C4  UNL d   1       0.960   0.349  -0.955  0.00  0.00     0.162 A 
ATOM      6  C5  UNL d   1       0.147  -0.406  -1.794  0.00  0.00     0.062 A 
ATOM      7  F   UNL d   1       0.613  -0.817  -2.982  0.00  0.00    -0.097 F 
ATOM      8  F1  UNL d   1       2.204   0.653  -1.356  0.00  0.00    -0.096 F 
ATOM      9  I   UNL d   1       1.698   1.912   1.542  0.00  0.00    -0.060 I 
ATOM     10  F2  UNL d   1      -1.304   0.847   1.852  0.00  0.00    -0.096 F 
ATOM     11  F3  UNL d   1      -2.870  -0.624   0.204  0.00  0.00    -0.097 F 
ATOM     12  F4  UNL d   1      -1.924  -1.462  -2.214  0.00  0.00    -0.092 F 
ENDROOT
TORSDOF 0
ENDMDL
