MODEL 1
REMARK minimizedAffinity -2.8337338
REMARK minimizedRMSD -1
REMARK  0 active torsions:
REMARK  status: ('A' for Active; 'I' for Inactive)
ROOT
ATOM      1  C   UNL d   1      -2.430  -1.358   0.111  0.00  0.00     0.124 A 
ATOM      2  C1  UNL d   1      -1.527  -1.591   1.138  0.00  0.00     0.062 A 
ATOM      3  C2  UNL d   1      -0.235  -1.079   1.064  0.00  0.00     0.162 A 
ATOM      4  C3  UNL d   1       0.162  -0.329  -0.043  0.00  0.00    -0.034 A 
ATOM      5  C4  UNL d   1      -0.751  -0.100  -1.073  0.00  0.00     0.162 A 
ATOM      6  C5  UNL d   1      -2.042  -0.613  -0.994  0.00  0.00     0.062 A 
ATOM      7  F   UNL d   1      -2.913  -0.387  -1.988  0.00  0.00    -0.097 F 
ATOM      8  F1  UNL d   1      -0.403   0.618  -2.152  0.00  0.00    -0.096 F 
ATOM      9  I   UNL d   1       2.094   0.437  -0.159  0.00  0.00    -0.060 I 
ATOM     10  F2  UNL d   1       0.617  -1.320   2.071  0.00  0.00    -0.096 F 
ATOM     11  F3  UNL d   1      -1.899  -2.311   2.206  0.00  0.00    -0.097 F 
ATOM     12  F4  UNL d   1      -3.673  -1.852   0.185  0.00  0.00    -0.092 F 
ENDROOT
TORSDOF 0
ENDMDL
