MODEL 1
REMARK minimizedAffinity -1.91395855
REMARK minimizedRMSD -1
REMARK  0 active torsions:
REMARK  status: ('A' for Active; 'I' for Inactive)
ROOT
ATOM      1  C   UNL d   1       2.058   0.525   0.911  0.00  0.00     0.124 A 
ATOM      2  C1  UNL d   1       1.560  -0.755   1.114  0.00  0.00     0.062 A 
ATOM      3  C2  UNL d   1       0.234  -1.047   0.812  0.00  0.00     0.162 A 
ATOM      4  C3  UNL d   1      -0.606  -0.056   0.300  0.00  0.00    -0.034 A 
ATOM      5  C4  UNL d   1      -0.098   1.228   0.099  0.00  0.00     0.162 A 
ATOM      6  C5  UNL d   1       1.229   1.515   0.403  0.00  0.00     0.062 A 
ATOM      7  F   UNL d   1       1.708   2.752   0.206  0.00  0.00    -0.097 F 
ATOM      8  F1  UNL d   1      -0.877   2.204  -0.391  0.00  0.00    -0.096 F 
ATOM      9  I   UNL d   1      -2.590  -0.488  -0.154  0.00  0.00    -0.060 I 
ATOM     10  F2  UNL d   1      -0.220  -2.292   1.019  0.00  0.00    -0.096 F 
ATOM     11  F3  UNL d   1       2.359  -1.713   1.605  0.00  0.00    -0.097 F 
ATOM     12  F4  UNL d   1       3.335   0.803   1.204  0.00  0.00    -0.092 F 
ENDROOT
TORSDOF 0
ENDMDL
