MODEL 1
REMARK minimizedAffinity 0.22288473
REMARK minimizedRMSD -1
REMARK  0 active torsions:
REMARK  status: ('A' for Active; 'I' for Inactive)
ROOT
ATOM      1  C   UNL d   1      -0.917  -1.341   1.470  0.00  0.00     0.124 A 
ATOM      2  C1  UNL d   1      -1.081  -0.345   0.518  0.00  0.00     0.062 A 
ATOM      3  C2  UNL d   1       0.009   0.414   0.104  0.00  0.00     0.162 A 
ATOM      4  C3  UNL d   1       1.274   0.180   0.642  0.00  0.00    -0.034 A 
ATOM      5  C4  UNL d   1       1.432  -0.823   1.601  0.00  0.00     0.162 A 
ATOM      6  C5  UNL d   1       0.339  -1.579   2.011  0.00  0.00     0.062 A 
ATOM      7  F   UNL d   1       0.499  -2.541   2.931  0.00  0.00    -0.097 F 
ATOM      8  F1  UNL d   1       2.634  -1.074   2.139  0.00  0.00    -0.096 F 
ATOM      9  I   UNL d   1       2.907   1.314   0.027  0.00  0.00    -0.060 I 
ATOM     10  F2  UNL d   1      -0.179   1.370  -0.818  0.00  0.00    -0.096 F 
ATOM     11  F3  UNL d   1      -2.294  -0.113  -0.005  0.00  0.00    -0.097 F 
ATOM     12  F4  UNL d   1      -1.968  -2.070   1.867  0.00  0.00    -0.092 F 
ENDROOT
TORSDOF 0
ENDMDL
