MODEL 1
REMARK minimizedAffinity -0.204105407
REMARK minimizedRMSD -1
REMARK  0 active torsions:
REMARK  status: ('A' for Active; 'I' for Inactive)
ROOT
ATOM      1  C   UNL d   1      -1.437  -0.678  -1.545  0.00  0.00     0.124 A 
ATOM      2  C1  UNL d   1      -0.192  -0.197  -1.924  0.00  0.00     0.062 A 
ATOM      3  C2  UNL d   1       0.620   0.452  -0.998  0.00  0.00     0.162 A 
ATOM      4  C3  UNL d   1       0.189   0.622   0.318  0.00  0.00    -0.034 A 
ATOM      5  C4  UNL d   1      -1.065   0.136   0.692  0.00  0.00     0.162 A 
ATOM      6  C5  UNL d   1      -1.872  -0.512  -0.238  0.00  0.00     0.062 A 
ATOM      7  F   UNL d   1      -3.075  -0.976   0.130  0.00  0.00    -0.097 F 
ATOM      8  F1  UNL d   1      -1.510   0.283   1.948  0.00  0.00    -0.096 F 
ATOM      9  I   UNL d   1       1.400   1.591   1.706  0.00  0.00    -0.060 I 
ATOM     10  F2  UNL d   1       1.818   0.907  -1.392  0.00  0.00    -0.096 F 
ATOM     11  F3  UNL d   1       0.231  -0.356  -3.187  0.00  0.00    -0.097 F 
ATOM     12  F4  UNL d   1      -2.216  -1.301  -2.438  0.00  0.00    -0.092 F 
ENDROOT
TORSDOF 0
ENDMDL
