MODEL 1
REMARK minimizedAffinity -2.64706683
REMARK minimizedRMSD -1
REMARK  0 active torsions:
REMARK  status: ('A' for Active; 'I' for Inactive)
ROOT
ATOM      1  C   UNL d   1      -2.637  -0.736  -0.648  0.00  0.00     0.124 A 
ATOM      2  C1  UNL d   1      -2.101  -1.010   0.603  0.00  0.00     0.062 A 
ATOM      3  C2  UNL d   1      -0.808  -0.601   0.915  0.00  0.00     0.162 A 
ATOM      4  C3  UNL d   1      -0.041   0.088  -0.025  0.00  0.00    -0.034 A 
ATOM      5  C4  UNL d   1      -0.586   0.359  -1.281  0.00  0.00     0.162 A 
ATOM      6  C5  UNL d   1      -1.879  -0.052  -1.589  0.00  0.00     0.062 A 
ATOM      7  F   UNL d   1      -2.395   0.214  -2.798  0.00  0.00    -0.097 F 
ATOM      8  F1  UNL d   1       0.124   1.020  -2.208  0.00  0.00    -0.096 F 
ATOM      9  I   UNL d   1       1.893   0.702   0.439  0.00  0.00    -0.060 I 
ATOM     10  F2  UNL d   1      -0.316  -0.879   2.132  0.00  0.00    -0.096 F 
ATOM     11  F3  UNL d   1      -2.831  -1.671   1.512  0.00  0.00    -0.097 F 
ATOM     12  F4  UNL d   1      -3.881  -1.131  -0.947  0.00  0.00    -0.092 F 
ENDROOT
TORSDOF 0
ENDMDL
