MODEL 1
REMARK minimizedAffinity -1.59596324
REMARK minimizedRMSD -1
REMARK  0 active torsions:
REMARK  status: ('A' for Active; 'I' for Inactive)
ROOT
ATOM      1  C   UNL d   1      -2.015  -0.945  -0.483  0.00  0.00     0.124 A 
ATOM      2  C1  UNL d   1      -1.315  -0.506  -1.598  0.00  0.00     0.062 A 
ATOM      3  C2  UNL d   1      -0.108   0.169  -1.445  0.00  0.00     0.162 A 
ATOM      4  C3  UNL d   1       0.408   0.409  -0.172  0.00  0.00    -0.034 A 
ATOM      5  C4  UNL d   1      -0.303  -0.034   0.945  0.00  0.00     0.162 A 
ATOM      6  C5  UNL d   1      -1.509  -0.709   0.787  0.00  0.00     0.062 A 
ATOM      7  F   UNL d   1      -2.184  -1.132   1.866  0.00  0.00    -0.097 F 
ATOM      8  F1  UNL d   1       0.165   0.180   2.184  0.00  0.00    -0.096 F 
ATOM      9  I   UNL d   1       2.213   1.419   0.061  0.00  0.00    -0.060 I 
ATOM     10  F2  UNL d   1       0.547   0.582  -2.540  0.00  0.00    -0.096 F 
ATOM     11  F3  UNL d   1      -1.803  -0.733  -2.826  0.00  0.00    -0.097 F 
ATOM     12  F4  UNL d   1      -3.177  -1.594  -0.633  0.00  0.00    -0.092 F 
ENDROOT
TORSDOF 0
ENDMDL
