MODEL 1
REMARK minimizedAffinity 1.42906606
REMARK minimizedRMSD -1
REMARK  0 active torsions:
REMARK  status: ('A' for Active; 'I' for Inactive)
ROOT
ATOM      1  C   UNL d   1      -1.804  -0.868  -0.157  0.00  0.00     0.124 A 
ATOM      2  C1  UNL d   1      -0.987  -0.625   0.938  0.00  0.00     0.062 A 
ATOM      3  C2  UNL d   1       0.227   0.036   0.773  0.00  0.00     0.162 A 
ATOM      4  C3  UNL d   1       0.631   0.459  -0.493  0.00  0.00    -0.034 A 
ATOM      5  C4  UNL d   1      -0.196   0.210  -1.590  0.00  0.00     0.162 A 
ATOM      6  C5  UNL d   1      -1.408  -0.451  -1.420  0.00  0.00     0.062 A 
ATOM      7  F   UNL d   1      -2.196  -0.685  -2.479  0.00  0.00    -0.097 F 
ATOM      8  F1  UNL d   1       0.163   0.603  -2.821  0.00  0.00    -0.096 F 
ATOM      9  I   UNL d   1       2.446   1.447  -0.744  0.00  0.00    -0.060 I 
ATOM     10  F2  UNL d   1       0.996   0.257   1.849  0.00  0.00    -0.096 F 
ATOM     11  F3  UNL d   1      -1.368  -1.028   2.159  0.00  0.00    -0.097 F 
ATOM     12  F4  UNL d   1      -2.972  -1.505   0.005  0.00  0.00    -0.092 F 
ENDROOT
TORSDOF 0
ENDMDL
