MODEL 1
REMARK minimizedAffinity 5.48912239
REMARK minimizedRMSD -1
REMARK  0 active torsions:
REMARK  status: ('A' for Active; 'I' for Inactive)
ROOT
ATOM      1  C   UNL d   1       2.658   5.542  -5.996  0.00  0.00     0.023 A 
ATOM      2  C1  UNL d   1       4.043   5.372  -6.000  0.00  0.00     0.003 A 
ATOM      3  C2  UNL d   1       4.589   4.087  -6.000  0.00  0.00     0.048 A 
ATOM      4  C3  UNL d   1       3.746   2.977  -5.996  0.00  0.00     0.023 A 
ATOM      5  C4  UNL d   1       2.360   3.142  -5.993  0.00  0.00     0.048 A 
ATOM      6  C5  UNL d   1       1.818   4.429  -5.992  0.00  0.00     0.003 A 
ATOM      7  I   UNL d   1       4.557   1.063  -5.997  0.00  0.00    -0.146 I 
ENDROOT
TORSDOF 0
ENDMDL
