MODEL 1
REMARK minimizedAffinity 6.20708752
REMARK minimizedRMSD -1
REMARK  0 active torsions:
REMARK  status: ('A' for Active; 'I' for Inactive)
ROOT
ATOM      1  C   UNL d   1      -1.206   5.554   4.115  0.00  0.00     0.023 A 
ATOM      2  C1  UNL d   1      -0.135   5.352   3.243  0.00  0.00     0.003 A 
ATOM      3  C2  UNL d   1       1.176   5.472   3.707  0.00  0.00     0.048 A 
ATOM      4  C3  UNL d   1       1.411   5.793   5.044  0.00  0.00     0.023 A 
ATOM      5  C4  UNL d   1       0.343   5.995   5.920  0.00  0.00     0.048 A 
ATOM      6  C5  UNL d   1      -0.967   5.875   5.451  0.00  0.00     0.003 A 
ATOM      7  I   UNL d   1       3.362   5.971   5.736  0.00  0.00    -0.146 I 
ENDROOT
TORSDOF 0
ENDMDL
