MODEL 1
REMARK minimizedAffinity 0.917182446
REMARK minimizedRMSD -1
REMARK  0 active torsions:
REMARK  status: ('A' for Active; 'I' for Inactive)
ROOT
ATOM      1  C   UNL d   1       2.846  -3.604   0.220  0.00  0.00     0.023 A 
ATOM      2  C1  UNL d   1       2.467  -2.639   1.154  0.00  0.00     0.003 A 
ATOM      3  C2  UNL d   1       3.135  -2.549   2.377  0.00  0.00     0.048 A 
ATOM      4  C3  UNL d   1       4.182  -3.425   2.659  0.00  0.00     0.023 A 
ATOM      5  C4  UNL d   1       4.565  -4.391   1.728  0.00  0.00     0.048 A 
ATOM      6  C5  UNL d   1       3.894  -4.479   0.507  0.00  0.00     0.003 A 
ATOM      7  I   UNL d   1       5.178  -3.292   4.478  0.00  0.00    -0.146 I 
ENDROOT
TORSDOF 0
ENDMDL
