MODEL 1
REMARK minimizedAffinity 10.6332264
REMARK minimizedRMSD -1
REMARK  0 active torsions:
REMARK  status: ('A' for Active; 'I' for Inactive)
ROOT
ATOM      1  C   UNL d   1       0.961   4.638  -5.815  0.00  0.00     0.023 A 
ATOM      2  C1  UNL d   1       1.575   5.890  -5.799  0.00  0.00     0.003 A 
ATOM      3  C2  UNL d   1       2.967   5.987  -5.849  0.00  0.00     0.048 A 
ATOM      4  C3  UNL d   1       3.739   4.828  -5.918  0.00  0.00     0.023 A 
ATOM      5  C4  UNL d   1       3.129   3.573  -5.935  0.00  0.00     0.048 A 
ATOM      6  C5  UNL d   1       1.737   3.481  -5.883  0.00  0.00     0.003 A 
ATOM      7  I   UNL d   1       5.811   4.971  -5.993  0.00  0.00    -0.146 I 
ENDROOT
TORSDOF 0
ENDMDL
