MODEL 1
REMARK minimizedAffinity -1.43482506
REMARK minimizedRMSD -1
REMARK  0 active torsions:
REMARK  status: ('A' for Active; 'I' for Inactive)
ROOT
ATOM      1  C   UNL d   1       4.531   5.545  -5.999  0.00  0.00     0.023 A 
ATOM      2  C1  UNL d   1       4.953   4.215  -5.998  0.00  0.00     0.003 A 
ATOM      3  C2  UNL d   1       4.012   3.183  -5.997  0.00  0.00     0.048 A 
ATOM      4  C3  UNL d   1       2.652   3.488  -5.998  0.00  0.00     0.023 A 
ATOM      5  C4  UNL d   1       2.225   4.817  -6.000  0.00  0.00     0.048 A 
ATOM      6  C5  UNL d   1       3.169   5.846  -6.000  0.00  0.00     0.003 A 
ATOM      7  I   UNL d   1       1.250   1.954  -5.997  0.00  0.00    -0.146 I 
ENDROOT
TORSDOF 0
ENDMDL
