MODEL 1
REMARK minimizedAffinity 0.23543641
REMARK minimizedRMSD -1
REMARK  0 active torsions:
REMARK  status: ('A' for Active; 'I' for Inactive)
ROOT
ATOM      1  C   UNL d   1       4.677  -3.811   5.998  0.00  0.00     0.023 A 
ATOM      2  C1  UNL d   1       4.418  -5.046   5.403  0.00  0.00     0.003 A 
ATOM      3  C2  UNL d   1       4.259  -5.135   4.018  0.00  0.00     0.048 A 
ATOM      4  C3  UNL d   1       4.361  -3.986   3.235  0.00  0.00     0.023 A 
ATOM      5  C4  UNL d   1       4.620  -2.748   3.827  0.00  0.00     0.048 A 
ATOM      6  C5  UNL d   1       4.778  -2.664   5.211  0.00  0.00     0.003 A 
ATOM      7  I   UNL d   1       4.124  -4.116   1.175  0.00  0.00    -0.146 I 
ENDROOT
TORSDOF 0
ENDMDL
