MODEL 1
REMARK minimizedAffinity 3.6298511
REMARK minimizedRMSD -1
REMARK  0 active torsions:
REMARK  status: ('A' for Active; 'I' for Inactive)
ROOT
ATOM      1  C   UNL d   1       5.666  -4.017   5.889  0.00  0.00     0.023 A 
ATOM      2  C1  UNL d   1       5.969  -2.858   5.174  0.00  0.00     0.003 A 
ATOM      3  C2  UNL d   1       5.606  -2.749   3.831  0.00  0.00     0.048 A 
ATOM      4  C3  UNL d   1       4.938  -3.803   3.208  0.00  0.00     0.023 A 
ATOM      5  C4  UNL d   1       4.632  -4.965   3.919  0.00  0.00     0.048 A 
ATOM      6  C5  UNL d   1       4.999  -5.069   5.262  0.00  0.00     0.003 A 
ATOM      7  I   UNL d   1       4.396  -3.644   1.208  0.00  0.00    -0.146 I 
ENDROOT
TORSDOF 0
ENDMDL
