MODEL 1
REMARK minimizedAffinity -0.744626462
REMARK minimizedRMSD -1
REMARK  0 active torsions:
REMARK  status: ('A' for Active; 'I' for Inactive)
ROOT
ATOM      1  C   UNL d   1       4.607   5.340  -5.985  0.00  0.00     0.023 A 
ATOM      2  C1  UNL d   1       3.254   5.679  -5.991  0.00  0.00     0.003 A 
ATOM      3  C2  UNL d   1       2.282   4.677  -5.995  0.00  0.00     0.048 A 
ATOM      4  C3  UNL d   1       2.669   3.337  -5.991  0.00  0.00     0.023 A 
ATOM      5  C4  UNL d   1       4.022   2.993  -5.984  0.00  0.00     0.048 A 
ATOM      6  C5  UNL d   1       4.991   3.999  -5.981  0.00  0.00     0.003 A 
ATOM      7  I   UNL d   1       1.224   1.844  -5.996  0.00  0.00    -0.146 I 
ENDROOT
TORSDOF 0
ENDMDL
