MODEL 1
REMARK minimizedAffinity -0.300774157
REMARK minimizedRMSD -1
REMARK  0 active torsions:
REMARK  status: ('A' for Active; 'I' for Inactive)
ROOT
ATOM      1  C   UNL d   1       4.281   1.075  -5.998  0.00  0.00     0.023 A 
ATOM      2  C1  UNL d   1       3.042   1.717  -5.998  0.00  0.00     0.003 A 
ATOM      3  C2  UNL d   1       2.977   3.112  -5.997  0.00  0.00     0.048 A 
ATOM      4  C3  UNL d   1       4.155   3.858  -5.996  0.00  0.00     0.023 A 
ATOM      5  C4  UNL d   1       5.396   3.220  -5.997  0.00  0.00     0.048 A 
ATOM      6  C5  UNL d   1       5.456   1.826  -5.998  0.00  0.00     0.003 A 
ATOM      7  I   UNL d   1       4.061   5.935  -5.994  0.00  0.00    -0.146 I 
ENDROOT
TORSDOF 0
ENDMDL
