MODEL 1
REMARK minimizedAffinity -1.62916744
REMARK minimizedRMSD -1
REMARK  0 active torsions:
REMARK  status: ('A' for Active; 'I' for Inactive)
ROOT
ATOM      1  C   UNL d   1       3.621   5.954  -5.863  0.00  0.00     0.023 A 
ATOM      2  C1  UNL d   1       5.016   5.929  -5.904  0.00  0.00     0.003 A 
ATOM      3  C2  UNL d   1       5.692   4.708  -5.937  0.00  0.00     0.048 A 
ATOM      4  C3  UNL d   1       4.969   3.516  -5.929  0.00  0.00     0.023 A 
ATOM      5  C4  UNL d   1       3.573   3.536  -5.889  0.00  0.00     0.048 A 
ATOM      6  C5  UNL d   1       2.901   4.760  -5.856  0.00  0.00     0.003 A 
ATOM      7  I   UNL d   1       5.974   1.697  -5.978  0.00  0.00    -0.146 I 
ENDROOT
TORSDOF 0
ENDMDL
