MODEL 1
REMARK minimizedAffinity 13.5314417
REMARK minimizedRMSD -1
REMARK  0 active torsions:
REMARK  status: ('A' for Active; 'I' for Inactive)
ROOT
ATOM      1  C   UNL d   1       4.408  -3.703   2.250  0.00  0.00     0.124 A 
ATOM      2  C1  UNL d   1       4.115  -3.097   3.464  0.00  0.00     0.062 A 
ATOM      3  C2  UNL d   1       2.970  -2.316   3.598  0.00  0.00     0.162 A 
ATOM      4  C3  UNL d   1       2.110  -2.137   2.515  0.00  0.00    -0.034 A 
ATOM      5  C4  UNL d   1       2.412  -2.749   1.297  0.00  0.00     0.162 A 
ATOM      6  C5  UNL d   1       3.557  -3.529   1.168  0.00  0.00     0.062 A 
ATOM      7  F   UNL d   1       3.838  -4.114  -0.005  0.00  0.00    -0.097 F 
ATOM      8  F1  UNL d   1       1.606  -2.598   0.236  0.00  0.00    -0.096 F 
ATOM      9  I   UNL d   1       0.398  -0.970   2.711  0.00  0.00    -0.060 I 
ATOM     10  F2  UNL d   1       2.712  -1.742   4.782  0.00  0.00    -0.096 F 
ATOM     11  F3  UNL d   1       4.936  -3.263   4.511  0.00  0.00    -0.097 F 
ATOM     12  F4  UNL d   1       5.510  -4.453   2.124  0.00  0.00    -0.092 F 
ENDROOT
TORSDOF 0
ENDMDL
