MODEL 1
REMARK minimizedAffinity 9.81008911
REMARK minimizedRMSD -1
REMARK  0 active torsions:
REMARK  status: ('A' for Active; 'I' for Inactive)
ROOT
ATOM      1  C   UNL d   1       2.463   0.197  -0.796  0.00  0.00     0.124 A 
ATOM      2  C1  UNL d   1       1.909  -1.011  -0.396  0.00  0.00     0.062 A 
ATOM      3  C2  UNL d   1       2.732  -2.074  -0.036  0.00  0.00     0.162 A 
ATOM      4  C3  UNL d   1       4.119  -1.935  -0.074  0.00  0.00    -0.034 A 
ATOM      5  C4  UNL d   1       4.670  -0.717  -0.479  0.00  0.00     0.162 A 
ATOM      6  C5  UNL d   1       3.843   0.342  -0.837  0.00  0.00     0.062 A 
ATOM      7  F   UNL d   1       4.380   1.509  -1.224  0.00  0.00    -0.097 F 
ATOM      8  F1  UNL d   1       5.999  -0.548  -0.527  0.00  0.00    -0.096 F 
ATOM      9  I   UNL d   1       5.353  -3.522   0.463  0.00  0.00    -0.060 I 
ATOM     10  F2  UNL d   1       2.168  -3.230   0.347  0.00  0.00    -0.096 F 
ATOM     11  F3  UNL d   1       0.576  -1.155  -0.356  0.00  0.00    -0.097 F 
ATOM     12  F4  UNL d   1       1.669   1.218  -1.143  0.00  0.00    -0.092 F 
ENDROOT
TORSDOF 0
ENDMDL
