MODEL 1
REMARK minimizedAffinity 22.4680576
REMARK minimizedRMSD -1
REMARK  0 active torsions:
REMARK  status: ('A' for Active; 'I' for Inactive)
ROOT
ATOM      1  C   UNL d   1      -4.271   0.215  -2.828  0.00  0.00     0.124 A 
ATOM      2  C1  UNL d   1      -3.819   1.506  -2.587  0.00  0.00     0.062 A 
ATOM      3  C2  UNL d   1      -4.100   2.526  -3.492  0.00  0.00     0.162 A 
ATOM      4  C3  UNL d   1      -4.838   2.260  -4.645  0.00  0.00    -0.034 A 
ATOM      5  C4  UNL d   1      -5.288   0.960  -4.881  0.00  0.00     0.162 A 
ATOM      6  C5  UNL d   1      -5.004  -0.056  -3.974  0.00  0.00     0.062 A 
ATOM      7  F   UNL d   1      -5.442  -1.302  -4.208  0.00  0.00    -0.097 F 
ATOM      8  F1  UNL d   1      -6.000   0.669  -5.980  0.00  0.00    -0.096 F 
ATOM      9  I   UNL d   1      -5.260   3.783  -6.000  0.00  0.00    -0.060 I 
ATOM     10  F2  UNL d   1      -3.651   3.763  -3.234  0.00  0.00    -0.096 F 
ATOM     11  F3  UNL d   1      -3.109   1.771  -1.481  0.00  0.00    -0.097 F 
ATOM     12  F4  UNL d   1      -3.998  -0.764  -1.956  0.00  0.00    -0.092 F 
ENDROOT
TORSDOF 0
ENDMDL
