MODEL 1
REMARK minimizedAffinity 20.5874119
REMARK minimizedRMSD -1
REMARK  0 active torsions:
REMARK  status: ('A' for Active; 'I' for Inactive)
ROOT
ATOM      1  C   UNL d   1       2.067   0.786  -1.193  0.00  0.00     0.124 A 
ATOM      2  C1  UNL d   1       2.041  -0.570  -1.485  0.00  0.00     0.062 A 
ATOM      3  C2  UNL d   1       3.116  -1.383  -1.134  0.00  0.00     0.162 A 
ATOM      4  C3  UNL d   1       4.225  -0.841  -0.485  0.00  0.00    -0.034 A 
ATOM      5  C4  UNL d   1       4.244   0.525  -0.195  0.00  0.00     0.162 A 
ATOM      6  C5  UNL d   1       3.168   1.332  -0.548  0.00  0.00     0.062 A 
ATOM      7  F   UNL d   1       3.195   2.643  -0.265  0.00  0.00    -0.097 F 
ATOM      8  F1  UNL d   1       5.295   1.079   0.428  0.00  0.00    -0.096 F 
ATOM      9  I   UNL d   1       5.833  -2.052   0.042  0.00  0.00    -0.060 I 
ATOM     10  F2  UNL d   1       3.064  -2.690  -1.429  0.00  0.00    -0.096 F 
ATOM     11  F3  UNL d   1       0.979  -1.100  -2.109  0.00  0.00    -0.097 F 
ATOM     12  F4  UNL d   1       1.033   1.566  -1.533  0.00  0.00    -0.092 F 
ENDROOT
TORSDOF 0
ENDMDL
