MODEL 1
REMARK minimizedAffinity 12.1379347
REMARK minimizedRMSD -1
REMARK  0 active torsions:
REMARK  status: ('A' for Active; 'I' for Inactive)
ROOT
ATOM      1  C   UNL d   1       2.574  -0.251  -0.723  0.00  0.00     0.124 A 
ATOM      2  C1  UNL d   1       1.866  -1.247  -0.065  0.00  0.00     0.062 A 
ATOM      3  C2  UNL d   1       2.544  -2.269   0.593  0.00  0.00     0.162 A 
ATOM      4  C3  UNL d   1       3.938  -2.301   0.598  0.00  0.00    -0.034 A 
ATOM      5  C4  UNL d   1       4.644  -1.296  -0.066  0.00  0.00     0.162 A 
ATOM      6  C5  UNL d   1       3.962  -0.276  -0.723  0.00  0.00     0.062 A 
ATOM      7  F   UNL d   1       4.648   0.686  -1.357  0.00  0.00    -0.097 F 
ATOM      8  F1  UNL d   1       5.985  -1.295  -0.082  0.00  0.00    -0.096 F 
ATOM      9  I   UNL d   1       4.955  -3.828   1.581  0.00  0.00    -0.060 I 
ATOM     10  F2  UNL d   1       1.833  -3.219   1.220  0.00  0.00    -0.096 F 
ATOM     11  F3  UNL d   1       0.526  -1.226  -0.064  0.00  0.00    -0.097 F 
ATOM     12  F4  UNL d   1       1.920   0.731  -1.356  0.00  0.00    -0.092 F 
ENDROOT
TORSDOF 0
ENDMDL
