MODEL 1
REMARK minimizedAffinity 16.7973919
REMARK minimizedRMSD -1
REMARK  0 active torsions:
REMARK  status: ('A' for Active; 'I' for Inactive)
ROOT
ATOM      1  C   UNL d   1       3.437  -3.646   0.748  0.00  0.00     0.124 A 
ATOM      2  C1  UNL d   1       4.541  -4.394   1.134  0.00  0.00     0.062 A 
ATOM      3  C2  UNL d   1       4.928  -4.432   2.471  0.00  0.00     0.162 A 
ATOM      4  C3  UNL d   1       4.210  -3.721   3.432  0.00  0.00    -0.034 A 
ATOM      5  C4  UNL d   1       3.101  -2.970   3.036  0.00  0.00     0.162 A 
ATOM      6  C5  UNL d   1       2.719  -2.935   1.699  0.00  0.00     0.062 A 
ATOM      7  F   UNL d   1       1.652  -2.212   1.328  0.00  0.00    -0.097 F 
ATOM      8  F1  UNL d   1       2.388  -2.274   3.934  0.00  0.00    -0.096 F 
ATOM      9  I   UNL d   1       4.785  -3.775   5.431  0.00  0.00    -0.060 I 
ATOM     10  F2  UNL d   1       5.998  -5.163   2.815  0.00  0.00    -0.096 F 
ATOM     11  F3  UNL d   1       5.237  -5.081   0.217  0.00  0.00    -0.097 F 
ATOM     12  F4  UNL d   1       3.068  -3.610  -0.539  0.00  0.00    -0.092 F 
ENDROOT
TORSDOF 0
ENDMDL
