MODEL 1
REMARK minimizedAffinity 4.66634607
REMARK minimizedRMSD -1
REMARK  0 active torsions:
REMARK  status: ('A' for Active; 'I' for Inactive)
ROOT
ATOM      1  C   UNL d   1       1.360  -3.154   2.423  0.00  0.00     0.124 A 
ATOM      2  C1  UNL d   1       0.177  -2.755   3.029  0.00  0.00     0.062 A 
ATOM      3  C2  UNL d   1      -0.478  -1.605   2.597  0.00  0.00     0.162 A 
ATOM      4  C3  UNL d   1       0.048  -0.847   1.551  0.00  0.00    -0.034 A 
ATOM      5  C4  UNL d   1       1.239  -1.255   0.947  0.00  0.00     0.162 A 
ATOM      6  C5  UNL d   1       1.889  -2.404   1.383  0.00  0.00     0.062 A 
ATOM      7  F   UNL d   1       3.032  -2.789   0.796  0.00  0.00    -0.097 F 
ATOM      8  F1  UNL d   1       1.773  -0.549  -0.062  0.00  0.00    -0.096 F 
ATOM      9  I   UNL d   1      -0.927   0.873   0.901  0.00  0.00    -0.060 I 
ATOM     10  F2  UNL d   1      -1.619  -1.242   3.201  0.00  0.00    -0.096 F 
ATOM     11  F3  UNL d   1      -0.337  -3.477   4.036  0.00  0.00    -0.097 F 
ATOM     12  F4  UNL d   1       1.988  -4.260   2.842  0.00  0.00    -0.092 F 
ENDROOT
TORSDOF 0
ENDMDL
