MODEL 1
REMARK minimizedAffinity 12.5477133
REMARK minimizedRMSD -1
REMARK  0 active torsions:
REMARK  status: ('A' for Active; 'I' for Inactive)
ROOT
ATOM      1  C   UNL d   1      -1.151  -0.876   2.525  0.00  0.00     0.124 A 
ATOM      2  C1  UNL d   1      -1.651   0.072   1.642  0.00  0.00     0.062 A 
ATOM      3  C2  UNL d   1      -0.936   0.407   0.496  0.00  0.00     0.162 A 
ATOM      4  C3  UNL d   1       0.286  -0.208   0.224  0.00  0.00    -0.034 A 
ATOM      5  C4  UNL d   1       0.783  -1.160   1.117  0.00  0.00     0.162 A 
ATOM      6  C5  UNL d   1       0.064  -1.491   2.261  0.00  0.00     0.062 A 
ATOM      7  F   UNL d   1       0.548  -2.407   3.112  0.00  0.00    -0.097 F 
ATOM      8  F1  UNL d   1       1.954  -1.771   0.886  0.00  0.00    -0.096 F 
ATOM      9  I   UNL d   1       1.358   0.290  -1.489  0.00  0.00    -0.060 I 
ATOM     10  F2  UNL d   1      -1.442   1.326  -0.339  0.00  0.00    -0.096 F 
ATOM     11  F3  UNL d   1      -2.825   0.668   1.895  0.00  0.00    -0.097 F 
ATOM     12  F4  UNL d   1      -1.841  -1.195   3.627  0.00  0.00    -0.092 F 
ENDROOT
TORSDOF 0
ENDMDL
