MODEL 1
REMARK minimizedAffinity 7.64974785
REMARK minimizedRMSD -1
REMARK  0 active torsions:
REMARK  status: ('A' for Active; 'I' for Inactive)
ROOT
ATOM      1  C   UNL d   1      -0.333  -1.435   1.657  0.00  0.00     0.124 A 
ATOM      2  C1  UNL d   1       0.935  -1.920   1.369  0.00  0.00     0.062 A 
ATOM      3  C2  UNL d   1       1.703  -1.324   0.374  0.00  0.00     0.162 A 
ATOM      4  C3  UNL d   1       1.206  -0.235  -0.342  0.00  0.00    -0.034 A 
ATOM      5  C4  UNL d   1      -0.071   0.248  -0.047  0.00  0.00     0.162 A 
ATOM      6  C5  UNL d   1      -0.835  -0.351   0.949  0.00  0.00     0.062 A 
ATOM      7  F   UNL d   1      -2.060   0.119   1.226  0.00  0.00    -0.097 F 
ATOM      8  F1  UNL d   1      -0.579   1.294  -0.715  0.00  0.00    -0.096 F 
ATOM      9  I   UNL d   1       2.352   0.659  -1.831  0.00  0.00    -0.060 I 
ATOM     10  F2  UNL d   1       2.925  -1.814   0.117  0.00  0.00    -0.096 F 
ATOM     11  F3  UNL d   1       1.421  -2.967   2.052  0.00  0.00    -0.097 F 
ATOM     12  F4  UNL d   1      -1.071  -2.010   2.615  0.00  0.00    -0.092 F 
ENDROOT
TORSDOF 0
ENDMDL
