MODEL 1
REMARK minimizedAffinity -4.13711071
REMARK minimizedRMSD -1
REMARK  2 active torsions:
REMARK  status: ('A' for Active; 'I' for Inactive)
REMARK    1  A    between atoms: C1_2  and  C2_3 
REMARK    2  A    between atoms: C2_3  and  C3_4 
ROOT
ATOM      1  C3  UNL d   1      -0.117  -0.315  -0.666  0.00  0.00    -0.075 A 
ATOM      2  C4  UNL d   1       0.752  -0.542   0.411  0.00  0.00     0.002 A 
ATOM      3  C5  UNL d   1       0.353  -0.256   1.716  0.00  0.00     0.002 A 
ATOM      4  C6  UNL d   1      -0.915   0.269   1.961  0.00  0.00    -0.004 A 
ATOM      5  C7  UNL d   1      -1.780   0.514   0.897  0.00  0.00     0.002 A 
ATOM      6  C8  UNL d   1      -1.384   0.224  -0.410  0.00  0.00     0.002 A 
ENDROOT
BRANCH   1   7
ATOM      7  C2  UNL d   1       0.299  -0.651  -2.078  0.00  0.00     0.056 C 
BRANCH   7   8
ATOM      8  C1  UNL d   1       0.756   0.560  -2.899  0.00  0.00     0.007 C 
ATOM      9  C   UNL d   1       2.199   0.454  -3.373  0.00  0.00     0.009 C 
ENDBRANCH   7   8
ENDBRANCH   1   7
TORSDOF 2
ENDMDL
