MODEL 1
REMARK minimizedAffinity -5.13129854
REMARK minimizedRMSD -1
REMARK  2 active torsions:
REMARK  status: ('A' for Active; 'I' for Inactive)
REMARK    1  A    between atoms: C1_2  and  C2_3 
REMARK    2  A    between atoms: C2_3  and  C3_4 
ROOT
ATOM      1  C3  UNL d   1       0.184  -0.417   0.513  0.00  0.00    -0.075 A 
ATOM      2  C4  UNL d   1      -1.158  -0.122   0.796  0.00  0.00     0.002 A 
ATOM      3  C5  UNL d   1      -1.566   0.136   2.105  0.00  0.00     0.002 A 
ATOM      4  C6  UNL d   1      -0.643   0.092   3.147  0.00  0.00    -0.004 A 
ATOM      5  C7  UNL d   1       0.689  -0.215   2.880  0.00  0.00     0.002 A 
ATOM      6  C8  UNL d   1       1.101  -0.470   1.571  0.00  0.00     0.002 A 
ENDROOT
BRANCH   1   7
ATOM      7  C2  UNL d   1       0.638  -0.668  -0.905  0.00  0.00     0.056 C 
BRANCH   7   8
ATOM      8  C1  UNL d   1       0.264   0.448  -1.886  0.00  0.00     0.007 C 
ATOM      9  C   UNL d   1       0.848   0.245  -3.278  0.00  0.00     0.009 C 
ENDBRANCH   7   8
ENDBRANCH   1   7
TORSDOF 2
ENDMDL
