MODEL 1
REMARK minimizedAffinity -3.32057428
REMARK minimizedRMSD -1
REMARK  2 active torsions:
REMARK  status: ('A' for Active; 'I' for Inactive)
REMARK    1  A    between atoms: C1_2  and  C2_3 
REMARK    2  A    between atoms: C2_3  and  C3_4 
ROOT
ATOM      1  C3  UNL d   1      -0.281  -0.140   2.467  0.00  0.00    -0.075 A 
ATOM      2  C4  UNL d   1       0.577  -0.541   3.501  0.00  0.00     0.002 A 
ATOM      3  C5  UNL d   1       1.926  -0.790   3.246  0.00  0.00     0.002 A 
ATOM      4  C6  UNL d   1       2.431  -0.652   1.955  0.00  0.00    -0.004 A 
ATOM      5  C7  UNL d   1       1.584  -0.270   0.917  0.00  0.00     0.002 A 
ATOM      6  C8  UNL d   1       0.235  -0.015   1.170  0.00  0.00     0.002 A 
ENDROOT
BRANCH   1   7
ATOM      7  C2  UNL d   1      -1.735   0.160   2.742  0.00  0.00     0.056 C 
BRANCH   7   8
ATOM      8  C1  UNL d   1      -2.365   1.150   1.756  0.00  0.00     0.007 C 
ATOM      9  C   UNL d   1      -3.208   0.474   0.683  0.00  0.00     0.009 C 
ENDBRANCH   7   8
ENDBRANCH   1   7
TORSDOF 2
ENDMDL
