MODEL 1
REMARK minimizedAffinity -4.70959234
REMARK minimizedRMSD -1
REMARK  2 active torsions:
REMARK  status: ('A' for Active; 'I' for Inactive)
REMARK    1  A    between atoms: C1_2  and  C2_3 
REMARK    2  A    between atoms: C2_3  and  C3_4 
ROOT
ATOM      1  C3  UNL d   1       0.131  -0.001   0.521  0.00  0.00    -0.075 A 
ATOM      2  C4  UNL d   1      -0.444   0.909   1.420  0.00  0.00     0.002 A 
ATOM      3  C5  UNL d   1       0.098   1.086   2.693  0.00  0.00     0.002 A 
ATOM      4  C6  UNL d   1       1.213   0.348   3.088  0.00  0.00    -0.004 A 
ATOM      5  C7  UNL d   1       1.782  -0.571   2.209  0.00  0.00     0.002 A 
ATOM      6  C8  UNL d   1       1.244  -0.746   0.932  0.00  0.00     0.002 A 
ENDROOT
BRANCH   1   7
ATOM      7  C2  UNL d   1      -0.433  -0.175  -0.869  0.00  0.00     0.056 C 
BRANCH   7   8
ATOM      8  C1  UNL d   1       0.491   0.327  -1.984  0.00  0.00     0.007 C 
ATOM      9  C   UNL d   1       0.065  -0.136  -3.370  0.00  0.00     0.009 C 
ENDBRANCH   7   8
ENDBRANCH   1   7
TORSDOF 2
ENDMDL
