MODEL 1
REMARK minimizedAffinity -0.318277836
REMARK minimizedRMSD -1
REMARK  2 active torsions:
REMARK  status: ('A' for Active; 'I' for Inactive)
REMARK    1  A    between atoms: C1_2  and  C2_3 
REMARK    2  A    between atoms: C2_3  and  C3_4 
ROOT
ATOM      1  C3  UNL d   1       0.386  -0.225  -1.015  0.00  0.00    -0.075 A 
ATOM      2  C4  UNL d   1       0.055   0.916  -0.271  0.00  0.00     0.002 A 
ATOM      3  C5  UNL d   1       0.359   0.988   1.089  0.00  0.00     0.002 A 
ATOM      4  C6  UNL d   1       0.988  -0.081   1.723  0.00  0.00    -0.004 A 
ATOM      5  C7  UNL d   1       1.306  -1.227   0.997  0.00  0.00     0.002 A 
ATOM      6  C8  UNL d   1       1.007  -1.300  -0.365  0.00  0.00     0.002 A 
ENDROOT
BRANCH   1   7
ATOM      7  C2  UNL d   1       0.086  -0.297  -2.493  0.00  0.00     0.056 C 
BRANCH   7   8
ATOM      8  C1  UNL d   1       1.127   0.398  -3.376  0.00  0.00     0.007 C 
ATOM      9  C   UNL d   1       0.509   1.263  -4.466  0.00  0.00     0.009 C 
ENDBRANCH   7   8
ENDBRANCH   1   7
TORSDOF 2
ENDMDL
