MODEL 1
REMARK minimizedAffinity -4.72114468
REMARK minimizedRMSD -1
REMARK  2 active torsions:
REMARK  status: ('A' for Active; 'I' for Inactive)
REMARK    1  A    between atoms: C1_2  and  C2_3 
REMARK    2  A    between atoms: C2_3  and  C3_4 
ROOT
ATOM      1  C3  UNL d   1       0.566   0.013   1.104  0.00  0.00    -0.075 A 
ATOM      2  C4  UNL d   1       1.435  -0.130   2.196  0.00  0.00     0.002 A 
ATOM      3  C5  UNL d   1       1.157   0.499   3.410  0.00  0.00     0.002 A 
ATOM      4  C6  UNL d   1       0.015   1.286   3.544  0.00  0.00    -0.004 A 
ATOM      5  C7  UNL d   1      -0.846   1.449   2.462  0.00  0.00     0.002 A 
ATOM      6  C8  UNL d   1      -0.573   0.817   1.247  0.00  0.00     0.002 A 
ENDROOT
BRANCH   1   7
ATOM      7  C2  UNL d   1       0.845  -0.689  -0.203  0.00  0.00     0.056 C 
BRANCH   7   8
ATOM      8  C1  UNL d   1      -0.289  -0.576  -1.227  0.00  0.00     0.007 C 
ATOM      9  C   UNL d   1       0.201  -0.265  -2.635  0.00  0.00     0.009 C 
ENDBRANCH   7   8
ENDBRANCH   1   7
TORSDOF 2
ENDMDL
