MODEL 1
REMARK minimizedAffinity -3.23097277
REMARK minimizedRMSD -1
REMARK  2 active torsions:
REMARK  status: ('A' for Active; 'I' for Inactive)
REMARK    1  A    between atoms: C1_2  and  C2_3 
REMARK    2  A    between atoms: C2_3  and  C3_4 
ROOT
ATOM      1  C3  UNL d   1       5.709   3.514   3.599  0.00  0.00    -0.075 A 
ATOM      2  C4  UNL d   1       5.411   2.153   3.437  0.00  0.00     0.002 A 
ATOM      3  C5  UNL d   1       5.124   1.354   4.545  0.00  0.00     0.002 A 
ATOM      4  C6  UNL d   1       5.142   1.901   5.826  0.00  0.00    -0.004 A 
ATOM      5  C7  UNL d   1       5.453   3.248   6.000  0.00  0.00     0.002 A 
ATOM      6  C8  UNL d   1       5.736   4.051   4.893  0.00  0.00     0.002 A 
ENDROOT
BRANCH   1   7
ATOM      7  C2  UNL d   1       5.991   4.390   2.402  0.00  0.00     0.056 C 
BRANCH   7   8
ATOM      8  C1  UNL d   1       4.733   4.897   1.689  0.00  0.00     0.007 C 
ATOM      9  C   UNL d   1       4.010   5.996   2.456  0.00  0.00     0.009 C 
ENDBRANCH   7   8
ENDBRANCH   1   7
TORSDOF 2
ENDMDL
