MODEL 1
REMARK minimizedAffinity -4.52174759
REMARK minimizedRMSD -1
REMARK  2 active torsions:
REMARK  status: ('A' for Active; 'I' for Inactive)
REMARK    1  A    between atoms: C1_2  and  C2_3 
REMARK    2  A    between atoms: C2_3  and  C3_4 
ROOT
ATOM      1  C3  UNL d   1       1.686   0.465   2.251  0.00  0.00    -0.075 A 
ATOM      2  C4  UNL d   1       0.519   0.572   1.481  0.00  0.00     0.002 A 
ATOM      3  C5  UNL d   1      -0.729   0.310   2.046  0.00  0.00     0.002 A 
ATOM      4  C6  UNL d   1      -0.826  -0.072   3.382  0.00  0.00    -0.004 A 
ATOM      5  C7  UNL d   1       0.329  -0.198   4.152  0.00  0.00     0.002 A 
ATOM      6  C8  UNL d   1       1.578   0.068   3.590  0.00  0.00     0.002 A 
ENDROOT
BRANCH   1   7
ATOM      7  C2  UNL d   1       3.038   0.776   1.653  0.00  0.00     0.056 C 
BRANCH   7   8
ATOM      8  C1  UNL d   1       3.608   2.134   2.074  0.00  0.00     0.007 C 
ATOM      9  C   UNL d   1       4.715   2.024   3.114  0.00  0.00     0.009 C 
ENDBRANCH   7   8
ENDBRANCH   1   7
TORSDOF 2
ENDMDL
