MODEL 1
REMARK minimizedAffinity 4.65672112
REMARK minimizedRMSD -1
REMARK  1 active torsions:
REMARK  status: ('A' for Active; 'I' for Inactive)
REMARK    1  A    between atoms: C1_2  and  C2_3 
ROOT
ATOM      1  C2  UNL d   1       5.411  -3.519   2.878  0.00  0.00    -0.076 A 
ATOM      2  C3  UNL d   1       6.000  -4.704   2.405  0.00  0.00     0.004 A 
ATOM      3  C4  UNL d   1       5.708  -5.934   2.993  0.00  0.00    -0.003 A 
ATOM      4  C5  UNL d   1       4.822  -5.998   4.063  0.00  0.00     0.000 A 
ATOM      5  C6  UNL d   1       4.216  -4.835   4.534  0.00  0.00     0.000 A 
ATOM      6  C7  UNL d   1       4.486  -3.589   3.942  0.00  0.00    -0.073 A 
ATOM      7  C8  UNL d   1       3.809  -2.365   4.494  0.00  0.00     0.078 C 
ENDROOT
BRANCH   1   8
ATOM      8  C1  UNL d   1       5.786  -2.211   2.219  0.00  0.00     0.053 C 
ATOM      9  C   UNL d   1       6.000  -2.354   0.720  0.00  0.00     0.018 C 
ENDBRANCH   1   8
TORSDOF 1
ENDMDL
