MODEL 1
REMARK minimizedAffinity -0.91608727
REMARK minimizedRMSD -1
REMARK  1 active torsions:
REMARK  status: ('A' for Active; 'I' for Inactive)
REMARK    1  A    between atoms: C1_2  and  C2_3 
ROOT
ATOM      1  C2  UNL d   1       5.926  -4.171   3.344  0.00  0.00    -0.076 A 
ATOM      2  C3  UNL d   1       5.999  -5.544   3.635  0.00  0.00     0.004 A 
ATOM      3  C4  UNL d   1       5.992  -6.000   4.952  0.00  0.00    -0.003 A 
ATOM      4  C5  UNL d   1       5.911  -5.089   6.000  0.00  0.00     0.000 A 
ATOM      5  C6  UNL d   1       5.820  -3.724   5.729  0.00  0.00     0.000 A 
ATOM      6  C7  UNL d   1       5.809  -3.249   4.406  0.00  0.00    -0.073 A 
ATOM      7  C8  UNL d   1       5.716  -1.767   4.172  0.00  0.00     0.078 C 
ENDROOT
BRANCH   1   8
ATOM      8  C1  UNL d   1       5.965  -3.734   1.897  0.00  0.00     0.053 C 
ATOM      9  C   UNL d   1       5.998  -4.911   0.933  0.00  0.00     0.018 C 
ENDBRANCH   1   8
TORSDOF 1
ENDMDL
