MODEL 1
REMARK minimizedAffinity -2.33038521
REMARK minimizedRMSD -1
REMARK  1 active torsions:
REMARK  status: ('A' for Active; 'I' for Inactive)
REMARK    1  A    between atoms: C1_2  and  C2_3 
ROOT
ATOM      1  C2  UNL d   1       5.801  -4.669   4.452  0.00  0.00    -0.076 A 
ATOM      2  C3  UNL d   1       5.816  -5.380   3.240  0.00  0.00     0.004 A 
ATOM      3  C4  UNL d   1       5.912  -4.713   2.019  0.00  0.00    -0.003 A 
ATOM      4  C5  UNL d   1       5.994  -3.325   1.992  0.00  0.00     0.000 A 
ATOM      5  C6  UNL d   1       5.998  -2.606   3.186  0.00  0.00     0.000 A 
ATOM      6  C7  UNL d   1       5.919  -3.263   4.426  0.00  0.00    -0.073 A 
ATOM      7  C8  UNL d   1       5.921  -2.437   5.682  0.00  0.00     0.078 C 
ENDROOT
BRANCH   1   8
ATOM      8  C1  UNL d   1       5.668  -5.444   5.744  0.00  0.00     0.053 C 
ATOM      9  C   UNL d   1       4.244  -5.912   5.999  0.00  0.00     0.018 C 
ENDBRANCH   1   8
TORSDOF 1
ENDMDL
