MODEL 1
REMARK minimizedAffinity -0.171802357
REMARK minimizedRMSD -1
REMARK  1 active torsions:
REMARK  status: ('A' for Active; 'I' for Inactive)
REMARK    1  A    between atoms: C1_2  and  C2_3 
ROOT
ATOM      1  C2  UNL d   1       5.884  -3.496   3.630  0.00  0.00    -0.076 A 
ATOM      2  C3  UNL d   1       6.000  -2.113   3.405  0.00  0.00     0.004 A 
ATOM      3  C4  UNL d   1       5.914  -1.206   4.460  0.00  0.00    -0.003 A 
ATOM      4  C5  UNL d   1       5.712  -1.666   5.756  0.00  0.00     0.000 A 
ATOM      5  C6  UNL d   1       5.613  -3.035   6.000  0.00  0.00     0.000 A 
ATOM      6  C7  UNL d   1       5.713  -3.965   4.951  0.00  0.00    -0.073 A 
ATOM      7  C8  UNL d   1       5.593  -5.430   5.270  0.00  0.00     0.078 C 
ENDROOT
BRANCH   1   8
ATOM      8  C1  UNL d   1       5.958  -4.432   2.445  0.00  0.00     0.053 C 
ATOM      9  C   UNL d   1       5.909  -3.693   1.116  0.00  0.00     0.018 C 
ENDBRANCH   1   8
TORSDOF 1
ENDMDL
