MODEL 1
REMARK minimizedAffinity -1.13447332
REMARK minimizedRMSD -1
REMARK  1 active torsions:
REMARK  status: ('A' for Active; 'I' for Inactive)
REMARK    1  A    between atoms: C1_2  and  C2_3 
ROOT
ATOM      1  C2  UNL d   1       5.270  -3.680   3.796  0.00  0.00    -0.076 A 
ATOM      2  C3  UNL d   1       5.996  -4.010   4.953  0.00  0.00     0.004 A 
ATOM      3  C4  UNL d   1       5.402  -4.720   5.995  0.00  0.00    -0.003 A 
ATOM      4  C5  UNL d   1       4.071  -5.111   5.897  0.00  0.00     0.000 A 
ATOM      5  C6  UNL d   1       3.340  -4.806   4.749  0.00  0.00     0.000 A 
ATOM      6  C7  UNL d   1       3.929  -4.106   3.682  0.00  0.00    -0.073 A 
ATOM      7  C8  UNL d   1       3.093  -3.799   2.470  0.00  0.00     0.078 C 
ENDROOT
BRANCH   1   8
ATOM      8  C1  UNL d   1       5.960  -2.885   2.710  0.00  0.00     0.053 C 
ATOM      9  C   UNL d   1       5.999  -3.625   1.382  0.00  0.00     0.018 C 
ENDBRANCH   1   8
TORSDOF 1
ENDMDL
