MODEL 1
REMARK minimizedAffinity -2.09544659
REMARK minimizedRMSD -1
REMARK  1 active torsions:
REMARK  status: ('A' for Active; 'I' for Inactive)
REMARK    1  A    between atoms: C1_2  and  C2_3 
ROOT
ATOM      1  C2  UNL d   1       5.789  -4.061   3.647  0.00  0.00    -0.076 A 
ATOM      2  C3  UNL d   1       5.824  -2.690   3.341  0.00  0.00     0.004 A 
ATOM      3  C4  UNL d   1       5.928  -1.732   4.348  0.00  0.00    -0.003 A 
ATOM      4  C5  UNL d   1       5.999  -2.130   5.678  0.00  0.00     0.000 A 
ATOM      5  C6  UNL d   1       5.983  -3.487   5.999  0.00  0.00     0.000 A 
ATOM      6  C7  UNL d   1       5.896  -4.466   4.995  0.00  0.00    -0.073 A 
ATOM      7  C8  UNL d   1       5.877  -5.915   5.398  0.00  0.00     0.078 C 
ENDROOT
BRANCH   1   8
ATOM      8  C1  UNL d   1       5.648  -5.053   2.514  0.00  0.00     0.053 C 
ATOM      9  C   UNL d   1       6.000  -4.449   1.164  0.00  0.00     0.018 C 
ENDBRANCH   1   8
TORSDOF 1
ENDMDL
