MODEL 1
REMARK minimizedAffinity -3.00855947
REMARK minimizedRMSD -1
REMARK  1 active torsions:
REMARK  status: ('A' for Active; 'I' for Inactive)
REMARK    1  A    between atoms: C1_2  and  C2_3 
ROOT
ATOM      1  C2  UNL d   1       5.981  -3.143   3.587  0.00  0.00    -0.076 A 
ATOM      2  C3  UNL d   1       5.963  -2.098   2.647  0.00  0.00     0.004 A 
ATOM      3  C4  UNL d   1       5.970  -2.363   1.279  0.00  0.00    -0.003 A 
ATOM      4  C5  UNL d   1       5.996  -3.678   0.827  0.00  0.00     0.000 A 
ATOM      5  C6  UNL d   1       5.997  -4.728   1.745  0.00  0.00     0.000 A 
ATOM      6  C7  UNL d   1       5.973  -4.478   3.128  0.00  0.00    -0.073 A 
ATOM      7  C8  UNL d   1       5.981  -5.648   4.073  0.00  0.00     0.078 C 
ENDROOT
BRANCH   1   8
ATOM      8  C1  UNL d   1       6.000  -2.795   5.058  0.00  0.00     0.053 C 
ATOM      9  C   UNL d   1       4.630  -2.926   5.705  0.00  0.00     0.018 C 
ENDBRANCH   1   8
TORSDOF 1
ENDMDL
