MODEL 1
REMARK minimizedAffinity -3.37571573
REMARK minimizedRMSD -1
REMARK  1 active torsions:
REMARK  status: ('A' for Active; 'I' for Inactive)
REMARK    1  A    between atoms: C1_2  and  C2_3 
ROOT
ATOM      1  C2  UNL d   1       5.614  -4.326   3.769  0.00  0.00    -0.076 A 
ATOM      2  C3  UNL d   1       5.914  -3.005   3.392  0.00  0.00     0.004 A 
ATOM      3  C4  UNL d   1       5.785  -1.954   4.299  0.00  0.00    -0.003 A 
ATOM      4  C5  UNL d   1       5.355  -2.207   5.597  0.00  0.00     0.000 A 
ATOM      5  C6  UNL d   1       5.070  -3.513   5.992  0.00  0.00     0.000 A 
ATOM      6  C7  UNL d   1       5.210  -4.586   5.096  0.00  0.00    -0.073 A 
ATOM      7  C8  UNL d   1       4.883  -5.974   5.574  0.00  0.00     0.078 C 
ENDROOT
BRANCH   1   8
ATOM      8  C1  UNL d   1       5.746  -5.421   2.735  0.00  0.00     0.053 C 
ATOM      9  C   UNL d   1       5.996  -4.876   1.337  0.00  0.00     0.018 C 
ENDBRANCH   1   8
TORSDOF 1
ENDMDL
