MODEL 1
REMARK minimizedAffinity -2.30439234
REMARK minimizedRMSD -1
REMARK  1 active torsions:
REMARK  status: ('A' for Active; 'I' for Inactive)
REMARK    1  A    between atoms: C1_2  and  C2_3 
ROOT
ATOM      1  C2  UNL d   1       5.979  -4.229   4.405  0.00  0.00    -0.076 A 
ATOM      2  C3  UNL d   1       5.997  -5.055   3.268  0.00  0.00     0.004 A 
ATOM      3  C4  UNL d   1       6.000  -4.509   1.985  0.00  0.00    -0.003 A 
ATOM      4  C5  UNL d   1       5.986  -3.129   1.819  0.00  0.00     0.000 A 
ATOM      5  C6  UNL d   1       5.986  -2.294   2.937  0.00  0.00     0.000 A 
ATOM      6  C7  UNL d   1       5.999  -2.828   4.237  0.00  0.00    -0.073 A 
ATOM      7  C8  UNL d   1       5.992  -1.882   5.406  0.00  0.00     0.078 C 
ENDROOT
BRANCH   1   8
ATOM      8  C1  UNL d   1       5.949  -4.878   5.771  0.00  0.00     0.053 C 
ATOM      9  C   UNL d   1       4.724  -5.758   5.971  0.00  0.00     0.018 C 
ENDBRANCH   1   8
TORSDOF 1
ENDMDL
