MODEL 1
REMARK minimizedAffinity -2.41133165
REMARK minimizedRMSD -1
REMARK  1 active torsions:
REMARK  status: ('A' for Active; 'I' for Inactive)
REMARK    1  A    between atoms: C1_2  and  C2_3 
ROOT
ATOM      1  C2  UNL d   1       5.750  -3.524   3.732  0.00  0.00    -0.076 A 
ATOM      2  C3  UNL d   1       5.538  -4.702   2.995  0.00  0.00     0.004 A 
ATOM      3  C4  UNL d   1       5.364  -5.928   3.636  0.00  0.00    -0.003 A 
ATOM      4  C5  UNL d   1       5.398  -5.995   5.024  0.00  0.00     0.000 A 
ATOM      5  C6  UNL d   1       5.589  -4.833   5.772  0.00  0.00     0.000 A 
ATOM      6  C7  UNL d   1       5.750  -3.587   5.142  0.00  0.00    -0.073 A 
ATOM      7  C8  UNL d   1       5.959  -2.368   5.997  0.00  0.00     0.078 C 
ENDROOT
BRANCH   1   8
ATOM      8  C1  UNL d   1       5.959  -2.228   2.981  0.00  0.00     0.053 C 
ATOM      9  C   UNL d   1       5.995  -2.427   1.474  0.00  0.00     0.018 C 
ENDBRANCH   1   8
TORSDOF 1
ENDMDL
