MODEL 1
REMARK minimizedAffinity -0.450382769
REMARK minimizedRMSD -1
REMARK  1 active torsions:
REMARK  status: ('A' for Active; 'I' for Inactive)
REMARK    1  A    between atoms: C1_2  and  C2_3 
ROOT
ATOM      1  C2  UNL d   1       5.358  -4.256   3.715  0.00  0.00    -0.076 A 
ATOM      2  C3  UNL d   1       5.113  -3.122   4.509  0.00  0.00     0.004 A 
ATOM      3  C4  UNL d   1       5.265  -1.837   3.992  0.00  0.00    -0.003 A 
ATOM      4  C5  UNL d   1       5.665  -1.664   2.672  0.00  0.00     0.000 A 
ATOM      5  C6  UNL d   1       5.896  -2.777   1.864  0.00  0.00     0.000 A 
ATOM      6  C7  UNL d   1       5.731  -4.080   2.365  0.00  0.00    -0.073 A 
ATOM      7  C8  UNL d   1       6.000  -5.244   1.451  0.00  0.00     0.078 C 
ENDROOT
BRANCH   1   8
ATOM      8  C1  UNL d   1       5.203  -5.625   4.338  0.00  0.00     0.053 C 
ATOM      9  C   UNL d   1       4.111  -5.663   5.395  0.00  0.00     0.018 C 
ENDBRANCH   1   8
TORSDOF 1
ENDMDL
