MODEL 1
REMARK minimizedAffinity 0.463742286
REMARK minimizedRMSD -1
REMARK  1 active torsions:
REMARK  status: ('A' for Active; 'I' for Inactive)
REMARK    1  A    between atoms: C1_2  and  C2_3 
ROOT
ATOM      1  C2  UNL d   1       5.970  -3.397   3.257  0.00  0.00    -0.076 A 
ATOM      2  C3  UNL d   1       5.935  -4.416   4.225  0.00  0.00     0.004 A 
ATOM      3  C4  UNL d   1       5.935  -4.113   5.585  0.00  0.00    -0.003 A 
ATOM      4  C5  UNL d   1       5.969  -2.787   6.000  0.00  0.00     0.000 A 
ATOM      5  C6  UNL d   1       5.986  -1.763   5.053  0.00  0.00     0.000 A 
ATOM      6  C7  UNL d   1       5.970  -2.050   3.678  0.00  0.00    -0.073 A 
ATOM      7  C8  UNL d   1       5.995  -0.907   2.701  0.00  0.00     0.078 C 
ENDROOT
BRANCH   1   8
ATOM      8  C1  UNL d   1       5.995  -3.787   1.796  0.00  0.00     0.053 C 
ATOM      9  C   UNL d   1       4.868  -3.146   1.002  0.00  0.00     0.018 C 
ENDBRANCH   1   8
TORSDOF 1
ENDMDL
