MODEL 1
REMARK minimizedAffinity -3.85177946
REMARK minimizedRMSD -1
REMARK  1 active torsions:
REMARK  status: ('A' for Active; 'I' for Inactive)
REMARK    1  A    between atoms: C1_2  and  C2_3 
ROOT
ATOM      1  C2  UNL d   1       5.936  -4.358   4.258  0.00  0.00    -0.076 A 
ATOM      2  C3  UNL d   1       5.883  -3.175   5.016  0.00  0.00     0.004 A 
ATOM      3  C4  UNL d   1       5.879  -1.926   4.396  0.00  0.00    -0.003 A 
ATOM      4  C5  UNL d   1       5.928  -1.840   3.009  0.00  0.00     0.000 A 
ATOM      5  C6  UNL d   1       5.964  -3.004   2.242  0.00  0.00     0.000 A 
ATOM      6  C7  UNL d   1       5.952  -4.271   2.850  0.00  0.00    -0.073 A 
ATOM      7  C8  UNL d   1       5.998  -5.493   1.974  0.00  0.00     0.078 C 
ENDROOT
BRANCH   1   8
ATOM      8  C1  UNL d   1       5.965  -5.683   4.986  0.00  0.00     0.053 C 
ATOM      9  C   UNL d   1       4.832  -5.820   5.992  0.00  0.00     0.018 C 
ENDBRANCH   1   8
TORSDOF 1
ENDMDL
