MODEL 1
REMARK minimizedAffinity 2.35990787
REMARK minimizedRMSD -1
REMARK  1 active torsions:
REMARK  status: ('A' for Active; 'I' for Inactive)
REMARK    1  A    between atoms: C1_2  and  C2_3 
ROOT
ATOM      1  C2  UNL d   1       0.239   0.873  -1.311  0.00  0.00    -0.081 A 
ATOM      2  C3  UNL d   1      -0.533   1.346  -0.243  0.00  0.00     0.006 A 
ATOM      3  C4  UNL d   1      -0.578   2.712   0.048  0.00  0.00     0.002 A 
ATOM      4  C5  UNL d   1       0.140   3.627  -0.728  0.00  0.00    -0.080 A 
ATOM      5  C6  UNL d   1       0.075   5.099  -0.446  0.00  0.00     0.076 C 
ATOM      6  C7  UNL d   1       0.925   3.153  -1.785  0.00  0.00     0.002 A 
ATOM      7  C8  UNL d   1       0.972   1.788  -2.076  0.00  0.00     0.006 A 
ENDROOT
BRANCH   1   8
ATOM      8  C1  UNL d   1       0.240  -0.591  -1.667  0.00  0.00     0.054 C 
ATOM      9  C   UNL d   1      -1.008  -0.970  -2.452  0.00  0.00     0.018 C 
ENDBRANCH   1   8
TORSDOF 1
ENDMDL
