MODEL 1
REMARK minimizedAffinity 8.25041389
REMARK minimizedRMSD -1
REMARK  1 active torsions:
REMARK  status: ('A' for Active; 'I' for Inactive)
REMARK    1  A    between atoms: C1_2  and  C2_3 
ROOT
ATOM      1  C2  UNL d   1       3.274  -1.637  -0.087  0.00  0.00    -0.081 A 
ATOM      2  C3  UNL d   1       2.291  -2.634  -0.099  0.00  0.00     0.006 A 
ATOM      3  C4  UNL d   1       2.594  -3.933   0.315  0.00  0.00     0.002 A 
ATOM      4  C5  UNL d   1       3.883  -4.255   0.754  0.00  0.00    -0.080 A 
ATOM      5  C6  UNL d   1       4.214  -5.639   1.230  0.00  0.00     0.076 C 
ATOM      6  C7  UNL d   1       4.870  -3.264   0.749  0.00  0.00     0.002 A 
ATOM      7  C8  UNL d   1       4.567  -1.965   0.335  0.00  0.00     0.006 A 
ENDROOT
BRANCH   1   8
ATOM      8  C1  UNL d   1       2.934  -0.220  -0.471  0.00  0.00     0.054 C 
ATOM      9  C   UNL d   1       1.453  -0.074  -0.793  0.00  0.00     0.018 C 
ENDBRANCH   1   8
TORSDOF 1
ENDMDL
