MODEL 1
REMARK minimizedAffinity 8.95121384
REMARK minimizedRMSD -1
REMARK  1 active torsions:
REMARK  status: ('A' for Active; 'I' for Inactive)
REMARK    1  A    between atoms: C1_2  and  C2_3 
ROOT
ATOM      1  C2  UNL d   1       1.177  -2.908  -1.064  0.00  0.00    -0.081 A 
ATOM      2  C3  UNL d   1       1.929  -2.029  -0.276  0.00  0.00     0.006 A 
ATOM      3  C4  UNL d   1       3.152  -2.433   0.266  0.00  0.00     0.002 A 
ATOM      4  C5  UNL d   1       3.646  -3.718   0.022  0.00  0.00    -0.080 A 
ATOM      5  C6  UNL d   1       4.972  -4.154   0.572  0.00  0.00     0.076 C 
ATOM      6  C7  UNL d   1       2.887  -4.602  -0.752  0.00  0.00     0.002 A 
ATOM      7  C8  UNL d   1       1.664  -4.200  -1.293  0.00  0.00     0.006 A 
ENDROOT
BRANCH   1   8
ATOM      8  C1  UNL d   1      -0.110  -2.454  -1.703  0.00  0.00     0.054 C 
ATOM      9  C   UNL d   1      -0.080  -0.964  -2.012  0.00  0.00     0.018 C 
ENDBRANCH   1   8
TORSDOF 1
ENDMDL
