MODEL 1
REMARK minimizedAffinity 9.88051033
REMARK minimizedRMSD -1
REMARK  1 active torsions:
REMARK  status: ('A' for Active; 'I' for Inactive)
REMARK    1  A    between atoms: C1_2  and  C2_3 
ROOT
ATOM      1  C2  UNL d   1      -1.603   2.353   1.058  0.00  0.00    -0.081 A 
ATOM      2  C3  UNL d   1      -1.554   3.751   0.997  0.00  0.00     0.006 A 
ATOM      3  C4  UNL d   1      -0.881   4.391  -0.046  0.00  0.00     0.002 A 
ATOM      4  C5  UNL d   1      -0.252   3.645  -1.049  0.00  0.00    -0.080 A 
ATOM      5  C6  UNL d   1       0.448   4.320  -2.191  0.00  0.00     0.076 C 
ATOM      6  C7  UNL d   1      -0.286   2.248  -0.978  0.00  0.00     0.002 A 
ATOM      7  C8  UNL d   1      -0.959   1.608   0.065  0.00  0.00     0.006 A 
ENDROOT
BRANCH   1   8
ATOM      8  C1  UNL d   1      -2.383   1.660   2.147  0.00  0.00     0.054 C 
ATOM      9  C   UNL d   1      -1.457   0.961   3.131  0.00  0.00     0.018 C 
ENDBRANCH   1   8
TORSDOF 1
ENDMDL
