MODEL 1
REMARK minimizedAffinity 7.33469105
REMARK minimizedRMSD -1
REMARK  1 active torsions:
REMARK  status: ('A' for Active; 'I' for Inactive)
REMARK    1  A    between atoms: C1_2  and  C2_3 
ROOT
ATOM      1  C2  UNL d   1       0.304   0.895  -1.450  0.00  0.00    -0.081 A 
ATOM      2  C3  UNL d   1      -0.257   1.037  -0.175  0.00  0.00     0.006 A 
ATOM      3  C4  UNL d   1      -0.550   2.306   0.332  0.00  0.00     0.002 A 
ATOM      4  C5  UNL d   1      -0.296   3.451  -0.430  0.00  0.00    -0.080 A 
ATOM      5  C6  UNL d   1      -0.634   4.816   0.090  0.00  0.00     0.076 C 
ATOM      6  C7  UNL d   1       0.281   3.310  -1.697  0.00  0.00     0.002 A 
ATOM      7  C8  UNL d   1       0.575   2.042  -2.204  0.00  0.00     0.006 A 
ENDROOT
BRANCH   1   8
ATOM      8  C1  UNL d   1       0.561  -0.474  -2.026  0.00  0.00     0.054 C 
ATOM      9  C   UNL d   1      -0.719  -1.100  -2.560  0.00  0.00     0.018 C 
ENDBRANCH   1   8
TORSDOF 1
ENDMDL
