MODEL 1
REMARK minimizedAffinity 7.07446671
REMARK minimizedRMSD -1
REMARK  1 active torsions:
REMARK  status: ('A' for Active; 'I' for Inactive)
REMARK    1  A    between atoms: C1_2  and  C2_3 
ROOT
ATOM      1  C2  UNL d   1      -0.808   2.152   1.275  0.00  0.00    -0.081 A 
ATOM      2  C3  UNL d   1      -0.497   1.167   0.330  0.00  0.00     0.006 A 
ATOM      3  C4  UNL d   1      -0.080   1.525  -0.954  0.00  0.00     0.002 A 
ATOM      4  C5  UNL d   1       0.042   2.872  -1.312  0.00  0.00    -0.080 A 
ATOM      5  C6  UNL d   1       0.518   3.269  -2.677  0.00  0.00     0.076 C 
ATOM      6  C7  UNL d   1      -0.285   3.856  -0.373  0.00  0.00     0.002 A 
ATOM      7  C8  UNL d   1      -0.704   3.499   0.911  0.00  0.00     0.006 A 
ENDROOT
BRANCH   1   8
ATOM      8  C1  UNL d   1      -1.197   1.770   2.681  0.00  0.00     0.054 C 
ATOM      9  C   UNL d   1      -0.102   2.131   3.675  0.00  0.00     0.018 C 
ENDBRANCH   1   8
TORSDOF 1
ENDMDL
