MODEL 1
REMARK minimizedAffinity 11.1443672
REMARK minimizedRMSD -1
REMARK  1 active torsions:
REMARK  status: ('A' for Active; 'I' for Inactive)
REMARK    1  A    between atoms: C1_2  and  C2_3 
ROOT
ATOM      1  C2  UNL d   1      -0.294   1.735  -1.079  0.00  0.00    -0.081 A 
ATOM      2  C3  UNL d   1      -0.143   3.039  -1.565  0.00  0.00     0.006 A 
ATOM      3  C4  UNL d   1      -0.137   4.125  -0.686  0.00  0.00     0.002 A 
ATOM      4  C5  UNL d   1      -0.273   3.925   0.691  0.00  0.00    -0.080 A 
ATOM      5  C6  UNL d   1      -0.237   5.080   1.648  0.00  0.00     0.076 C 
ATOM      6  C7  UNL d   1      -0.441   2.623   1.175  0.00  0.00     0.002 A 
ATOM      7  C8  UNL d   1      -0.448   1.537   0.298  0.00  0.00     0.006 A 
ENDROOT
BRANCH   1   8
ATOM      8  C1  UNL d   1      -0.236   0.556  -2.017  0.00  0.00     0.054 C 
ATOM      9  C   UNL d   1      -1.621  -0.030  -2.255  0.00  0.00     0.018 C 
ENDBRANCH   1   8
TORSDOF 1
ENDMDL
