MODEL 1
REMARK minimizedAffinity 11.1309099
REMARK minimizedRMSD -1
REMARK  1 active torsions:
REMARK  status: ('A' for Active; 'I' for Inactive)
REMARK    1  A    between atoms: C1_2  and  C2_3 
ROOT
ATOM      1  C2  UNL d   1      -0.031   0.130  -1.453  0.00  0.00    -0.081 A 
ATOM      2  C3  UNL d   1      -0.583   1.416  -1.410  0.00  0.00     0.006 A 
ATOM      3  C4  UNL d   1      -1.905   1.632  -1.806  0.00  0.00     0.002 A 
ATOM      4  C5  UNL d   1      -2.699   0.566  -2.243  0.00  0.00    -0.080 A 
ATOM      5  C6  UNL d   1      -4.129   0.779  -2.641  0.00  0.00     0.076 C 
ATOM      6  C7  UNL d   1      -2.141  -0.716  -2.302  0.00  0.00     0.002 A 
ATOM      7  C8  UNL d   1      -0.819  -0.932  -1.907  0.00  0.00     0.006 A 
ENDROOT
BRANCH   1   8
ATOM      8  C1  UNL d   1       1.374  -0.117  -0.966  0.00  0.00     0.054 C 
ATOM      9  C   UNL d   1       1.422  -0.233   0.551  0.00  0.00     0.018 C 
ENDBRANCH   1   8
TORSDOF 1
ENDMDL
