MODEL 1
REMARK minimizedAffinity 10.4843178
REMARK minimizedRMSD -1
REMARK  1 active torsions:
REMARK  status: ('A' for Active; 'I' for Inactive)
REMARK    1  A    between atoms: C1_2  and  C2_3 
ROOT
ATOM      1  C2  UNL d   1       2.992  -2.000   1.054  0.00  0.00    -0.081 A 
ATOM      2  C3  UNL d   1       2.140  -3.111   1.017  0.00  0.00     0.006 A 
ATOM      3  C4  UNL d   1       2.662  -4.406   1.068  0.00  0.00     0.002 A 
ATOM      4  C5  UNL d   1       4.043  -4.611   1.165  0.00  0.00    -0.080 A 
ATOM      5  C6  UNL d   1       4.614  -5.995   1.251  0.00  0.00     0.076 C 
ATOM      6  C7  UNL d   1       4.895  -3.502   1.184  0.00  0.00     0.002 A 
ATOM      7  C8  UNL d   1       4.374  -2.207   1.132  0.00  0.00     0.006 A 
ENDROOT
BRANCH   1   8
ATOM      8  C1  UNL d   1       2.428  -0.602   1.064  0.00  0.00     0.054 C 
ATOM      9  C   UNL d   1       1.551  -0.368   2.286  0.00  0.00     0.018 C 
ENDBRANCH   1   8
TORSDOF 1
ENDMDL
