MODEL 1
REMARK minimizedAffinity 5.94820166
REMARK minimizedRMSD -1
REMARK  1 active torsions:
REMARK  status: ('A' for Active; 'I' for Inactive)
REMARK    1  A    between atoms: C1_2  and  C2_3 
ROOT
ATOM      1  C2  UNL d   1      -0.353   2.450  -1.608  0.00  0.00    -0.081 A 
ATOM      2  C3  UNL d   1      -1.594   2.119  -2.166  0.00  0.00     0.006 A 
ATOM      3  C4  UNL d   1      -1.865   0.808  -2.564  0.00  0.00     0.002 A 
ATOM      4  C5  UNL d   1      -0.904  -0.196  -2.403  0.00  0.00    -0.080 A 
ATOM      5  C6  UNL d   1      -1.194  -1.614  -2.797  0.00  0.00     0.076 C 
ATOM      6  C7  UNL d   1       0.342   0.137  -1.861  0.00  0.00     0.002 A 
ATOM      7  C8  UNL d   1       0.614   1.449  -1.464  0.00  0.00     0.006 A 
ENDROOT
BRANCH   1   8
ATOM      8  C1  UNL d   1      -0.081   3.849  -1.119  0.00  0.00     0.054 C 
ATOM      9  C   UNL d   1      -0.060   3.910   0.401  0.00  0.00     0.018 C 
ENDBRANCH   1   8
TORSDOF 1
ENDMDL
