MODEL 1
REMARK minimizedAffinity 0.64934653
REMARK minimizedRMSD -1
REMARK  1 active torsions:
REMARK  status: ('A' for Active; 'I' for Inactive)
REMARK    1  A    between atoms: C1_2  and  C2_3 
ROOT
ATOM      1  C2  UNL d   1      -1.776   4.729   0.196  0.00  0.00    -0.081 A 
ATOM      2  C3  UNL d   1      -2.074   3.489   0.772  0.00  0.00     0.006 A 
ATOM      3  C4  UNL d   1      -1.500   2.318   0.270  0.00  0.00     0.002 A 
ATOM      4  C5  UNL d   1      -0.615   2.370  -0.812  0.00  0.00    -0.080 A 
ATOM      5  C6  UNL d   1       0.031   1.124  -1.342  0.00  0.00     0.076 C 
ATOM      6  C7  UNL d   1      -0.331   3.607  -1.399  0.00  0.00     0.002 A 
ATOM      7  C8  UNL d   1      -0.905   4.778  -0.898  0.00  0.00     0.006 A 
ENDROOT
BRANCH   1   8
ATOM      8  C1  UNL d   1      -2.343   6.000   0.776  0.00  0.00     0.054 C 
ATOM      9  C   UNL d   1      -3.854   5.912   0.931  0.00  0.00     0.018 C 
ENDBRANCH   1   8
TORSDOF 1
ENDMDL
