MODEL 1
REMARK minimizedAffinity -2.0596292
REMARK minimizedRMSD -1
REMARK  1 active torsions:
REMARK  status: ('A' for Active; 'I' for Inactive)
REMARK    1  A    between atoms: C1_2  and  C2_3 
ROOT
ATOM      1  C2  UNL d   1       5.978   1.604   4.846  0.00  0.00    -0.073 A 
ATOM      2  C3  UNL d   1       5.990   1.235   3.496  0.00  0.00    -0.002 A 
ATOM      3  C4  UNL d   1       5.998   2.211   2.499  0.00  0.00     0.004 A 
ATOM      4  C5  UNL d   1       6.000   3.563   2.839  0.00  0.00    -0.004 A 
ATOM      5  C6  UNL d   1       5.999   3.952   4.183  0.00  0.00    -0.075 A 
ATOM      6  C7  UNL d   1       5.999   5.403   4.566  0.00  0.00     0.076 C 
ATOM      7  C8  UNL d   1       5.989   2.966   5.179  0.00  0.00     0.001 A 
ENDROOT
BRANCH   1   8
ATOM      8  C1  UNL d   1       5.976   0.554   5.927  0.00  0.00     0.053 C 
ATOM      9  C   UNL d   1       5.994  -0.854   5.354  0.00  0.00     0.018 C 
ENDBRANCH   1   8
TORSDOF 1
ENDMDL
