MODEL 1
REMARK minimizedAffinity -2.01486278
REMARK minimizedRMSD -1
REMARK  1 active torsions:
REMARK  status: ('A' for Active; 'I' for Inactive)
REMARK    1  A    between atoms: C1_2  and  C2_3 
ROOT
ATOM      1  C2  UNL d   1       5.933   2.516   4.992  0.00  0.00    -0.073 A 
ATOM      2  C3  UNL d   1       5.990   2.417   3.597  0.00  0.00    -0.002 A 
ATOM      3  C4  UNL d   1       5.982   1.166   2.978  0.00  0.00     0.004 A 
ATOM      4  C5  UNL d   1       5.910   0.004   3.745  0.00  0.00    -0.004 A 
ATOM      5  C6  UNL d   1       5.840   0.082   5.140  0.00  0.00    -0.075 A 
ATOM      6  C7  UNL d   1       5.764  -1.159   5.979  0.00  0.00     0.076 C 
ATOM      7  C8  UNL d   1       5.851   1.341   5.754  0.00  0.00     0.001 A 
ENDROOT
BRANCH   1   8
ATOM      8  C1  UNL d   1       5.935   3.864   5.665  0.00  0.00     0.053 C 
ATOM      9  C   UNL d   1       5.891   5.003   4.659  0.00  0.00     0.018 C 
ENDBRANCH   1   8
TORSDOF 1
ENDMDL
