MODEL 1
REMARK minimizedAffinity -2.93468308
REMARK minimizedRMSD -1
REMARK  1 active torsions:
REMARK  status: ('A' for Active; 'I' for Inactive)
REMARK    1  A    between atoms: C1_2  and  C2_3 
ROOT
ATOM      1  C2  UNL d   1       5.976   1.621   4.463  0.00  0.00    -0.073 A 
ATOM      2  C3  UNL d   1       5.993   1.120   3.157  0.00  0.00    -0.002 A 
ATOM      3  C4  UNL d   1       6.000   1.992   2.068  0.00  0.00     0.004 A 
ATOM      4  C5  UNL d   1       5.997   3.371   2.273  0.00  0.00    -0.004 A 
ATOM      5  C6  UNL d   1       5.993   3.892   3.571  0.00  0.00    -0.075 A 
ATOM      6  C7  UNL d   1       5.987   5.373   3.809  0.00  0.00     0.076 C 
ATOM      7  C8  UNL d   1       5.983   3.009   4.660  0.00  0.00     0.001 A 
ENDROOT
BRANCH   1   8
ATOM      8  C1  UNL d   1       5.975   0.683   5.643  0.00  0.00     0.053 C 
ATOM      9  C   UNL d   1       5.949  -0.775   5.212  0.00  0.00     0.018 C 
ENDBRANCH   1   8
TORSDOF 1
ENDMDL
