MODEL 1
REMARK minimizedAffinity -2.85013103
REMARK minimizedRMSD -1
REMARK  1 active torsions:
REMARK  status: ('A' for Active; 'I' for Inactive)
REMARK    1  A    between atoms: C1_2  and  C2_3 
ROOT
ATOM      1  C2  UNL d   1       5.787   2.134   4.717  0.00  0.00    -0.073 A 
ATOM      2  C3  UNL d   1       5.774   1.460   5.944  0.00  0.00    -0.002 A 
ATOM      3  C4  UNL d   1       5.585   0.078   5.986  0.00  0.00     0.004 A 
ATOM      4  C5  UNL d   1       5.415  -0.644   4.805  0.00  0.00    -0.004 A 
ATOM      5  C6  UNL d   1       5.437   0.010   3.569  0.00  0.00    -0.075 A 
ATOM      6  C7  UNL d   1       5.254  -0.752   2.289  0.00  0.00     0.076 C 
ATOM      7  C8  UNL d   1       5.625   1.398   3.535  0.00  0.00     0.001 A 
ENDROOT
BRANCH   1   8
ATOM      8  C1  UNL d   1       5.998   3.625   4.666  0.00  0.00     0.053 C 
ATOM      9  C   UNL d   1       5.999   4.152   3.240  0.00  0.00     0.018 C 
ENDBRANCH   1   8
TORSDOF 1
ENDMDL
