MODEL 1
REMARK minimizedAffinity -0.10665042
REMARK minimizedRMSD -1
REMARK  1 active torsions:
REMARK  status: ('A' for Active; 'I' for Inactive)
REMARK    1  A    between atoms: C1_2  and  C2_3 
ROOT
ATOM      1  C2  UNL d   1       5.983   0.572   4.500  0.00  0.00    -0.073 A 
ATOM      2  C3  UNL d   1       5.991  -0.283   3.392  0.00  0.00    -0.002 A 
ATOM      3  C4  UNL d   1       5.993   0.241   2.099  0.00  0.00     0.004 A 
ATOM      4  C5  UNL d   1       5.993   1.621   1.900  0.00  0.00    -0.004 A 
ATOM      5  C6  UNL d   1       5.997   2.492   2.994  0.00  0.00    -0.075 A 
ATOM      6  C7  UNL d   1       5.995   3.979   2.797  0.00  0.00     0.076 C 
ATOM      7  C8  UNL d   1       5.993   1.959   4.290  0.00  0.00     0.001 A 
ENDROOT
BRANCH   1   8
ATOM      8  C1  UNL d   1       5.988   0.012   5.899  0.00  0.00     0.053 C 
ATOM      9  C   UNL d   1       5.981  -1.509   5.904  0.00  0.00     0.018 C 
ENDBRANCH   1   8
TORSDOF 1
ENDMDL
