MODEL 1
REMARK minimizedAffinity -2.10259056
REMARK minimizedRMSD -1
REMARK  1 active torsions:
REMARK  status: ('A' for Active; 'I' for Inactive)
REMARK    1  A    between atoms: C1_2  and  C2_3 
ROOT
ATOM      1  C2  UNL d   1       5.720   3.425   4.162  0.00  0.00    -0.073 A 
ATOM      2  C3  UNL d   1       5.963   3.259   2.793  0.00  0.00    -0.002 A 
ATOM      3  C4  UNL d   1       5.998   1.981   2.234  0.00  0.00     0.004 A 
ATOM      4  C5  UNL d   1       5.785   0.858   3.033  0.00  0.00    -0.004 A 
ATOM      5  C6  UNL d   1       5.529   1.004   4.401  0.00  0.00    -0.075 A 
ATOM      6  C7  UNL d   1       5.299  -0.194   5.275  0.00  0.00     0.076 C 
ATOM      7  C8  UNL d   1       5.498   2.291   4.956  0.00  0.00     0.001 A 
ENDROOT
BRANCH   1   8
ATOM      8  C1  UNL d   1       5.675   4.803   4.769  0.00  0.00     0.053 C 
ATOM      9  C   UNL d   1       5.994   5.886   3.751  0.00  0.00     0.018 C 
ENDBRANCH   1   8
TORSDOF 1
ENDMDL
