MODEL 1
REMARK minimizedAffinity -3.45491958
REMARK minimizedRMSD -1
REMARK  1 active torsions:
REMARK  status: ('A' for Active; 'I' for Inactive)
REMARK    1  A    between atoms: C1_2  and  C2_3 
ROOT
ATOM      1  C2  UNL d   1       5.769   2.046   3.404  0.00  0.00    -0.073 A 
ATOM      2  C3  UNL d   1       5.366   1.885   4.735  0.00  0.00    -0.002 A 
ATOM      3  C4  UNL d   1       5.162   0.608   5.260  0.00  0.00     0.004 A 
ATOM      4  C5  UNL d   1       5.365  -0.519   4.464  0.00  0.00    -0.004 A 
ATOM      5  C6  UNL d   1       5.779  -0.379   3.135  0.00  0.00    -0.075 A 
ATOM      6  C7  UNL d   1       5.999  -1.582   2.265  0.00  0.00     0.076 C 
ATOM      7  C8  UNL d   1       5.979   0.906   2.614  0.00  0.00     0.001 A 
ENDROOT
BRANCH   1   8
ATOM      8  C1  UNL d   1       5.997   3.422   2.834  0.00  0.00     0.053 C 
ATOM      9  C   UNL d   1       6.000   4.493   3.914  0.00  0.00     0.018 C 
ENDBRANCH   1   8
TORSDOF 1
ENDMDL
