MODEL 1
REMARK minimizedAffinity 14.3669834
REMARK minimizedRMSD -1
REMARK  1 active torsions:
REMARK  status: ('A' for Active; 'I' for Inactive)
REMARK    1  A    between atoms: C1_2  and  C2_3 
ROOT
ATOM      1  C2  UNL d   1       5.544   3.453   3.210  0.00  0.00    -0.073 A 
ATOM      2  C3  UNL d   1       4.720   2.989   4.242  0.00  0.00    -0.002 A 
ATOM      3  C4  UNL d   1       4.306   1.657   4.268  0.00  0.00     0.004 A 
ATOM      4  C5  UNL d   1       4.716   0.775   3.268  0.00  0.00    -0.004 A 
ATOM      5  C6  UNL d   1       5.549   1.217   2.235  0.00  0.00    -0.075 A 
ATOM      6  C7  UNL d   1       5.997   0.281   1.151  0.00  0.00     0.076 C 
ATOM      7  C8  UNL d   1       5.958   2.557   2.215  0.00  0.00     0.001 A 
ENDROOT
BRANCH   1   8
ATOM      8  C1  UNL d   1       5.999   4.890   3.182  0.00  0.00     0.053 C 
ATOM      9  C   UNL d   1       5.990   5.518   4.567  0.00  0.00     0.018 C 
ENDBRANCH   1   8
TORSDOF 1
ENDMDL
