MODEL 1
REMARK minimizedAffinity 3.84911346
REMARK minimizedRMSD -1
REMARK  1 active torsions:
REMARK  status: ('A' for Active; 'I' for Inactive)
REMARK    1  A    between atoms: C1_2  and  C2_3 
ROOT
ATOM      1  C2  UNL d   1       5.972   2.131   3.524  0.00  0.00    -0.073 A 
ATOM      2  C3  UNL d   1       5.964   2.180   4.923  0.00  0.00    -0.002 A 
ATOM      3  C4  UNL d   1       5.948   1.001   5.669  0.00  0.00     0.004 A 
ATOM      4  C5  UNL d   1       5.948  -0.237   5.026  0.00  0.00    -0.004 A 
ATOM      5  C6  UNL d   1       5.969  -0.306   3.629  0.00  0.00    -0.075 A 
ATOM      6  C7  UNL d   1       5.966  -1.630   2.922  0.00  0.00     0.076 C 
ATOM      7  C8  UNL d   1       5.981   0.882   2.887  0.00  0.00     0.001 A 
ENDROOT
BRANCH   1   8
ATOM      8  C1  UNL d   1       5.995   3.402   2.714  0.00  0.00     0.053 C 
ATOM      9  C   UNL d   1       5.966   4.640   3.595  0.00  0.00     0.018 C 
ENDBRANCH   1   8
TORSDOF 1
ENDMDL
