MODEL 1
REMARK minimizedAffinity -0.114998117
REMARK minimizedRMSD -1
REMARK  1 active torsions:
REMARK  status: ('A' for Active; 'I' for Inactive)
REMARK    1  A    between atoms: C1_2  and  C2_3 
ROOT
ATOM      1  C2  UNL d   1       5.987   0.772   4.439  0.00  0.00    -0.073 A 
ATOM      2  C3  UNL d   1       5.998   0.222   3.152  0.00  0.00    -0.002 A 
ATOM      3  C4  UNL d   1       6.000   1.051   2.030  0.00  0.00     0.004 A 
ATOM      4  C5  UNL d   1       5.997   2.438   2.183  0.00  0.00    -0.004 A 
ATOM      5  C6  UNL d   1       5.998   3.007   3.460  0.00  0.00    -0.075 A 
ATOM      6  C7  UNL d   1       5.994   4.497   3.641  0.00  0.00     0.076 C 
ATOM      7  C8  UNL d   1       5.994   2.167   4.582  0.00  0.00     0.001 A 
ENDROOT
BRANCH   1   8
ATOM      8  C1  UNL d   1       5.992  -0.119   5.653  0.00  0.00     0.053 C 
ATOM      9  C   UNL d   1       6.000  -1.593   5.279  0.00  0.00     0.018 C 
ENDBRANCH   1   8
TORSDOF 1
ENDMDL
