MODEL 1
REMARK minimizedAffinity -2.36983252
REMARK minimizedRMSD -1
REMARK  1 active torsions:
REMARK  status: ('A' for Active; 'I' for Inactive)
REMARK    1  A    between atoms: C1_2  and  C2_3 
ROOT
ATOM      1  C2  UNL d   1       5.729   1.526   4.950  0.00  0.00    -0.073 A 
ATOM      2  C3  UNL d   1       5.478   0.530   5.901  0.00  0.00    -0.002 A 
ATOM      3  C4  UNL d   1       5.388  -0.807   5.514  0.00  0.00     0.004 A 
ATOM      4  C5  UNL d   1       5.555  -1.164   4.176  0.00  0.00    -0.004 A 
ATOM      5  C6  UNL d   1       5.818  -0.184   3.213  0.00  0.00    -0.075 A 
ATOM      6  C7  UNL d   1       5.997  -0.551   1.769  0.00  0.00     0.076 C 
ATOM      7  C8  UNL d   1       5.904   1.157   3.609  0.00  0.00     0.001 A 
ENDROOT
BRANCH   1   8
ATOM      8  C1  UNL d   1       5.834   2.971   5.365  0.00  0.00     0.053 C 
ATOM      9  C   UNL d   1       5.999   3.896   4.169  0.00  0.00     0.018 C 
ENDBRANCH   1   8
TORSDOF 1
ENDMDL
