MODEL 1
REMARK minimizedAffinity 0.0960137621
REMARK minimizedRMSD -1
REMARK  1 active torsions:
REMARK  status: ('A' for Active; 'I' for Inactive)
REMARK    1  A    between atoms: C1_2  and  C2_3 
ROOT
ATOM      1  C2  UNL d   1       6.000   3.041   3.097  0.00  0.00    -0.073 A 
ATOM      2  C3  UNL d   1       5.993   3.698   4.333  0.00  0.00    -0.002 A 
ATOM      3  C4  UNL d   1       5.996   5.093   4.390  0.00  0.00     0.004 A 
ATOM      4  C5  UNL d   1       5.999   5.843   3.214  0.00  0.00    -0.004 A 
ATOM      5  C6  UNL d   1       5.994   5.205   1.970  0.00  0.00    -0.075 A 
ATOM      6  C7  UNL d   1       6.000   5.998   0.696  0.00  0.00     0.076 C 
ATOM      7  C8  UNL d   1       5.994   3.804   1.921  0.00  0.00     0.001 A 
ENDROOT
BRANCH   1   8
ATOM      8  C1  UNL d   1       5.990   1.536   3.031  0.00  0.00     0.053 C 
ATOM      9  C   UNL d   1       5.894   0.905   4.411  0.00  0.00     0.018 C 
ENDBRANCH   1   8
TORSDOF 1
ENDMDL
