MODEL 1
REMARK minimizedAffinity -2.69593096
REMARK minimizedRMSD -1
REMARK  1 active torsions:
REMARK  status: ('A' for Active; 'I' for Inactive)
REMARK    1  A    between atoms: C1_2  and  C2_3 
ROOT
ATOM      1  C2  UNL d   1       5.999   3.211   3.382  0.00  0.00    -0.073 A 
ATOM      2  C3  UNL d   1       5.982   4.077   4.482  0.00  0.00    -0.002 A 
ATOM      3  C4  UNL d   1       5.975   5.459   4.291  0.00  0.00     0.004 A 
ATOM      4  C5  UNL d   1       5.979   5.990   3.001  0.00  0.00    -0.004 A 
ATOM      5  C6  UNL d   1       5.985   5.141   1.889  0.00  0.00    -0.075 A 
ATOM      6  C7  UNL d   1       5.991   5.696   0.495  0.00  0.00     0.076 C 
ATOM      7  C8  UNL d   1       5.994   3.754   2.089  0.00  0.00     0.001 A 
ENDROOT
BRANCH   1   8
ATOM      8  C1  UNL d   1       6.000   1.718   3.584  0.00  0.00     0.053 C 
ATOM      9  C   UNL d   1       5.927   1.341   5.055  0.00  0.00     0.018 C 
ENDBRANCH   1   8
TORSDOF 1
ENDMDL
