MODEL 1
REMARK minimizedAffinity 5.08821821
REMARK minimizedRMSD -1
REMARK  3 active torsions:
REMARK  status: ('A' for Active; 'I' for Inactive)
REMARK    1  A    between atoms: C3'_2  and  C2'_3 
REMARK    2  A    between atoms: C2'_3  and  C1'_4 
REMARK    3  A    between atoms: C1'_4  and  C1_5 
ROOT
ATOM      1  C1  N4B d   1       3.802   1.775  -0.383  0.00  0.00    -0.075 A 
ATOM      2  C2  N4B d   1       4.908   2.271   0.342  0.00  0.00     0.002 A 
ATOM      3  C3  N4B d   1       5.989   2.791  -0.326  0.00  0.00     0.002 A 
ATOM      4  C4  N4B d   1       5.995   2.809  -1.713  0.00  0.00    -0.004 A 
ATOM      5  C5  N4B d   1       4.912   2.352  -2.405  0.00  0.00     0.002 A 
ATOM      6  C6  N4B d   1       3.817   1.830  -1.747  0.00  0.00     0.002 A 
ENDROOT
BRANCH   1   7
ATOM      7  C1' N4B d   1       2.634   1.118   0.301  0.00  0.00     0.057 C 
BRANCH   7   8
ATOM      8  C2' N4B d   1       2.666  -0.381   0.016  0.00  0.00     0.009 C 
BRANCH   8   9
ATOM      9  C3' N4B d   1       2.143  -1.192   1.189  0.00  0.00     0.004 C 
ATOM     10  C4' N4B d   1       3.036  -1.118   2.391  0.00  0.00     0.003 C 
ENDBRANCH   8   9
ENDBRANCH   7   8
ENDBRANCH   1   7
TORSDOF 3
ENDMDL
