MODEL 1
REMARK minimizedAffinity 3.68761444
REMARK minimizedRMSD -1
REMARK  3 active torsions:
REMARK  status: ('A' for Active; 'I' for Inactive)
REMARK    1  A    between atoms: C3'_2  and  C2'_3 
REMARK    2  A    between atoms: C2'_3  and  C1'_4 
REMARK    3  A    between atoms: C1'_4  and  C1_5 
ROOT
ATOM      1  C1  N4B d   1       3.879   1.892  -1.223  0.00  0.00    -0.075 A 
ATOM      2  C2  N4B d   1       2.692   1.128  -1.175  0.00  0.00     0.002 A 
ATOM      3  C3  N4B d   1       2.176   0.737   0.036  0.00  0.00     0.002 A 
ATOM      4  C4  N4B d   1       2.836   1.079   1.206  0.00  0.00    -0.004 A 
ATOM      5  C5  N4B d   1       3.968   1.838   1.153  0.00  0.00     0.002 A 
ATOM      6  C6  N4B d   1       4.497   2.242  -0.057  0.00  0.00     0.002 A 
ENDROOT
BRANCH   1   7
ATOM      7  C1' N4B d   1       4.528   2.270  -2.526  0.00  0.00     0.057 C 
BRANCH   7   8
ATOM      8  C2' N4B d   1       5.943   2.773  -2.253  0.00  0.00     0.009 C 
BRANCH   8   9
ATOM      9  C3' N4B d   1       6.000   4.289  -2.167  0.00  0.00     0.004 C 
ATOM     10  C4' N4B d   1       5.674   4.958  -3.469  0.00  0.00     0.003 C 
ENDBRANCH   8   9
ENDBRANCH   7   8
ENDBRANCH   1   7
TORSDOF 3
ENDMDL
