MODEL 1
REMARK minimizedAffinity 20.4850216
REMARK minimizedRMSD -1
REMARK  3 active torsions:
REMARK  status: ('A' for Active; 'I' for Inactive)
REMARK    1  A    between atoms: C3'_2  and  C2'_3 
REMARK    2  A    between atoms: C2'_3  and  C1'_4 
REMARK    3  A    between atoms: C1'_4  and  C1_5 
ROOT
ATOM      1  C1  N4B d   1      -3.320  -0.029  -1.002  0.00  0.00    -0.075 A 
ATOM      2  C2  N4B d   1      -3.747   0.877  -0.007  0.00  0.00     0.002 A 
ATOM      3  C3  N4B d   1      -5.078   0.958   0.324  0.00  0.00     0.002 A 
ATOM      4  C4  N4B d   1      -5.998   0.159  -0.338  0.00  0.00    -0.004 A 
ATOM      5  C5  N4B d   1      -5.574  -0.732  -1.280  0.00  0.00     0.002 A 
ATOM      6  C6  N4B d   1      -4.239  -0.826  -1.620  0.00  0.00     0.002 A 
ENDROOT
BRANCH   1   7
ATOM      7  C1' N4B d   1      -1.888  -0.091  -1.457  0.00  0.00     0.057 C 
BRANCH   7   8
ATOM      8  C2' N4B d   1      -1.161  -1.182  -0.677  0.00  0.00     0.009 C 
BRANCH   8   9
ATOM      9  C3' N4B d   1       0.270  -1.365  -1.154  0.00  0.00     0.004 C 
ATOM     10  C4' N4B d   1       1.278  -0.815  -0.189  0.00  0.00     0.003 C 
ENDBRANCH   8   9
ENDBRANCH   7   8
ENDBRANCH   1   7
TORSDOF 3
ENDMDL
