MODEL 1
REMARK minimizedAffinity 1.16681576
REMARK minimizedRMSD -1
REMARK  3 active torsions:
REMARK  status: ('A' for Active; 'I' for Inactive)
REMARK    1  A    between atoms: C3'_2  and  C2'_3 
REMARK    2  A    between atoms: C2'_3  and  C1'_4 
REMARK    3  A    between atoms: C1'_4  and  C1_5 
ROOT
ATOM      1  C1  N4B d   1       3.677  -0.822   3.454  0.00  0.00    -0.075 A 
ATOM      2  C2  N4B d   1       5.053  -1.085   3.633  0.00  0.00     0.002 A 
ATOM      3  C3  N4B d   1       5.607  -1.020   4.888  0.00  0.00     0.002 A 
ATOM      4  C4  N4B d   1       4.813  -0.675   5.971  0.00  0.00    -0.004 A 
ATOM      5  C5  N4B d   1       3.479  -0.447   5.794  0.00  0.00     0.002 A 
ATOM      6  C6  N4B d   1       2.908  -0.514   4.539  0.00  0.00     0.002 A 
ENDROOT
BRANCH   1   7
ATOM      7  C1' N4B d   1       3.044  -0.797   2.090  0.00  0.00     0.057 C 
BRANCH   7   8
ATOM      8  C2' N4B d   1       3.319   0.553   1.434  0.00  0.00     0.009 C 
BRANCH   8   9
ATOM      9  C3' N4B d   1       2.793   0.611   0.010  0.00  0.00     0.004 C 
ATOM     10  C4' N4B d   1       3.531   1.600  -0.841  0.00  0.00     0.003 C 
ENDBRANCH   8   9
ENDBRANCH   7   8
ENDBRANCH   1   7
TORSDOF 3
ENDMDL
