MODEL 1
REMARK minimizedAffinity 5.16014004
REMARK minimizedRMSD -1
REMARK  3 active torsions:
REMARK  status: ('A' for Active; 'I' for Inactive)
REMARK    1  A    between atoms: C3'_2  and  C2'_3 
REMARK    2  A    between atoms: C2'_3  and  C1'_4 
REMARK    3  A    between atoms: C1'_4  and  C1_5 
ROOT
ATOM      1  C1  N4B d   1       3.247  -0.195   1.611  0.00  0.00    -0.075 A 
ATOM      2  C2  N4B d   1       3.922   1.045   1.612  0.00  0.00     0.002 A 
ATOM      3  C3  N4B d   1       3.892   1.845   0.496  0.00  0.00     0.002 A 
ATOM      4  C4  N4B d   1       3.211   1.418  -0.635  0.00  0.00    -0.004 A 
ATOM      5  C5  N4B d   1       2.540   0.231  -0.619  0.00  0.00     0.002 A 
ATOM      6  C6  N4B d   1       2.558  -0.581   0.498  0.00  0.00     0.002 A 
ENDROOT
BRANCH   1   7
ATOM      7  C1' N4B d   1       3.323  -1.142   2.778  0.00  0.00     0.057 C 
BRANCH   7   8
ATOM      8  C2' N4B d   1       3.943  -0.419   3.970  0.00  0.00     0.009 C 
BRANCH   8   9
ATOM      9  C3' N4B d   1       5.426  -0.718   4.107  0.00  0.00     0.004 C 
ATOM     10  C4' N4B d   1       5.705  -1.852   5.048  0.00  0.00     0.003 C 
ENDBRANCH   8   9
ENDBRANCH   7   8
ENDBRANCH   1   7
TORSDOF 3
ENDMDL
