MODEL 1
REMARK minimizedAffinity 3.77924871
REMARK minimizedRMSD -1
REMARK  0 active torsions:
REMARK  status: ('A' for Active; 'I' for Inactive)
ROOT
ATOM      1  C   UNL d   1      -5.265  -4.049   0.472  0.00  0.00     0.077 C 
ATOM      2  C1  UNL d   1      -5.501  -4.382   1.915  0.00  0.00    -0.074 A 
ATOM      3  C2  UNL d   1      -5.760  -5.697   2.316  0.00  0.00    -0.005 A 
ATOM      4  C3  UNL d   1      -5.968  -5.994   3.663  0.00  0.00     0.006 A 
ATOM      5  C4  UNL d   1      -5.919  -4.980   4.621  0.00  0.00    -0.005 A 
ATOM      6  C5  UNL d   1      -5.661  -3.660   4.239  0.00  0.00    -0.074 A 
ATOM      7  C6  UNL d   1      -5.596  -2.560   5.257  0.00  0.00     0.077 C 
ATOM      8  C7  UNL d   1      -5.446  -3.371   2.885  0.00  0.00    -0.001 A 
ENDROOT
TORSDOF 0
ENDMDL
