MODEL 1
REMARK minimizedAffinity 3.50066543
REMARK minimizedRMSD -1
REMARK  0 active torsions:
REMARK  status: ('A' for Active; 'I' for Inactive)
ROOT
ATOM      1  C   UNL d   1      -0.056   4.868  -5.260  0.00  0.00     0.077 C 
ATOM      2  C1  UNL d   1       1.016   4.897  -4.212  0.00  0.00    -0.074 A 
ATOM      3  C2  UNL d   1       1.153   5.992  -3.353  0.00  0.00    -0.005 A 
ATOM      4  C3  UNL d   1       2.150   6.000  -2.377  0.00  0.00     0.006 A 
ATOM      5  C4  UNL d   1       3.018   4.915  -2.250  0.00  0.00    -0.005 A 
ATOM      6  C5  UNL d   1       2.895   3.810  -3.099  0.00  0.00    -0.074 A 
ATOM      7  C6  UNL d   1       3.813   2.631  -2.970  0.00  0.00     0.077 C 
ATOM      8  C7  UNL d   1       1.887   3.807  -4.073  0.00  0.00    -0.001 A 
ENDROOT
TORSDOF 0
ENDMDL
