MODEL 1
REMARK minimizedAffinity 9.78025246
REMARK minimizedRMSD -1
REMARK  0 active torsions:
REMARK  status: ('A' for Active; 'I' for Inactive)
ROOT
ATOM      1  C   UNL d   1       0.803  -2.403   2.116  0.00  0.00     0.077 C 
ATOM      2  C1  UNL d   1      -0.288  -1.447   2.495  0.00  0.00    -0.074 A 
ATOM      3  C2  UNL d   1      -0.374  -0.931   3.793  0.00  0.00    -0.005 A 
ATOM      4  C3  UNL d   1      -1.389  -0.036   4.128  0.00  0.00     0.006 A 
ATOM      5  C4  UNL d   1      -2.328   0.353   3.172  0.00  0.00    -0.005 A 
ATOM      6  C5  UNL d   1      -2.258  -0.151   1.869  0.00  0.00    -0.074 A 
ATOM      7  C6  UNL d   1      -3.252   0.264   0.826  0.00  0.00     0.077 C 
ATOM      8  C7  UNL d   1      -1.230  -1.045   1.538  0.00  0.00    -0.001 A 
ENDROOT
TORSDOF 0
ENDMDL
