MODEL 1
REMARK minimizedAffinity 3.61923671
REMARK minimizedRMSD -1
REMARK  0 active torsions:
REMARK  status: ('A' for Active; 'I' for Inactive)
ROOT
ATOM      1  C   UNL d   1       1.431  -2.737   2.966  0.00  0.00     0.077 C 
ATOM      2  C1  UNL d   1       0.252  -1.813   3.043  0.00  0.00    -0.074 A 
ATOM      3  C2  UNL d   1      -0.030  -1.104   4.215  0.00  0.00    -0.005 A 
ATOM      4  C3  UNL d   1      -1.124  -0.241   4.269  0.00  0.00     0.006 A 
ATOM      5  C4  UNL d   1      -1.946  -0.078   3.153  0.00  0.00    -0.005 A 
ATOM      6  C5  UNL d   1      -1.679  -0.778   1.972  0.00  0.00    -0.074 A 
ATOM      7  C6  UNL d   1      -2.547  -0.608   0.760  0.00  0.00     0.077 C 
ATOM      8  C7  UNL d   1      -0.574  -1.638   1.924  0.00  0.00    -0.001 A 
ENDROOT
TORSDOF 0
ENDMDL
