MODEL 1
REMARK minimizedAffinity 6.95555496
REMARK minimizedRMSD -1
REMARK  0 active torsions:
REMARK  status: ('A' for Active; 'I' for Inactive)
ROOT
ATOM      1  C   UNL d   1      -5.687  -0.151   6.000  0.00  0.00     0.077 C 
ATOM      2  C1  UNL d   1      -5.166   1.175   5.533  0.00  0.00    -0.074 A 
ATOM      3  C2  UNL d   1      -4.074   1.252   4.662  0.00  0.00    -0.005 A 
ATOM      4  C3  UNL d   1      -3.606   2.492   4.228  0.00  0.00     0.006 A 
ATOM      5  C4  UNL d   1      -4.224   3.667   4.660  0.00  0.00    -0.005 A 
ATOM      6  C5  UNL d   1      -5.317   3.610   5.530  0.00  0.00    -0.074 A 
ATOM      7  C6  UNL d   1      -5.999   4.862   5.997  0.00  0.00     0.077 C 
ATOM      8  C7  UNL d   1      -5.786   2.359   5.956  0.00  0.00    -0.001 A 
ENDROOT
TORSDOF 0
ENDMDL
