MODEL 1
REMARK minimizedAffinity 11.6655064
REMARK minimizedRMSD -1
REMARK  0 active torsions:
REMARK  status: ('A' for Active; 'I' for Inactive)
ROOT
ATOM      1  C   UNL d   1      -5.288  -2.516   5.485  0.00  0.00     0.077 C 
ATOM      2  C1  UNL d   1      -5.527  -3.648   4.531  0.00  0.00    -0.074 A 
ATOM      3  C2  UNL d   1      -5.682  -4.958   4.995  0.00  0.00    -0.005 A 
ATOM      4  C3  UNL d   1      -5.913  -6.000   4.096  0.00  0.00     0.006 A 
ATOM      5  C4  UNL d   1      -5.991  -5.742   2.727  0.00  0.00    -0.005 A 
ATOM      6  C5  UNL d   1      -5.839  -4.438   2.245  0.00  0.00    -0.074 A 
ATOM      7  C6  UNL d   1      -5.930  -4.141   0.777  0.00  0.00     0.077 C 
ATOM      8  C7  UNL d   1      -5.614  -3.396   3.155  0.00  0.00    -0.001 A 
ENDROOT
TORSDOF 0
ENDMDL
