MODEL 1
REMARK minimizedAffinity 13.8658237
REMARK minimizedRMSD -1
REMARK  0 active torsions:
REMARK  status: ('A' for Active; 'I' for Inactive)
ROOT
ATOM      1  C   UNL d   1      -2.238  -3.364  -0.023  0.00  0.00     0.077 C 
ATOM      2  C1  UNL d   1      -2.349  -1.951   0.465  0.00  0.00    -0.074 A 
ATOM      3  C2  UNL d   1      -1.357  -1.390   1.276  0.00  0.00    -0.005 A 
ATOM      4  C3  UNL d   1      -1.469  -0.071   1.715  0.00  0.00     0.006 A 
ATOM      5  C4  UNL d   1      -2.572   0.700   1.348  0.00  0.00    -0.005 A 
ATOM      6  C5  UNL d   1      -3.574   0.157   0.537  0.00  0.00    -0.074 A 
ATOM      7  C6  UNL d   1      -4.762   0.975   0.125  0.00  0.00     0.077 C 
ATOM      8  C7  UNL d   1      -3.450  -1.167   0.094  0.00  0.00    -0.001 A 
ENDROOT
TORSDOF 0
ENDMDL
