MODEL 1
REMARK minimizedAffinity 9.17961311
REMARK minimizedRMSD -1
REMARK  0 active torsions:
REMARK  status: ('A' for Active; 'I' for Inactive)
ROOT
ATOM      1  C   UNL d   1      -3.008  -3.184   0.641  0.00  0.00     0.077 C 
ATOM      2  C1  UNL d   1      -1.887  -2.288   1.077  0.00  0.00    -0.074 A 
ATOM      3  C2  UNL d   1      -1.796  -0.972   0.611  0.00  0.00    -0.005 A 
ATOM      4  C3  UNL d   1      -0.753  -0.147   1.032  0.00  0.00     0.006 A 
ATOM      5  C4  UNL d   1       0.208  -0.629   1.923  0.00  0.00    -0.005 A 
ATOM      6  C5  UNL d   1       0.132  -1.941   2.400  0.00  0.00    -0.074 A 
ATOM      7  C6  UNL d   1       1.151  -2.472   3.365  0.00  0.00     0.077 C 
ATOM      8  C7  UNL d   1      -0.923  -2.762   1.977  0.00  0.00    -0.001 A 
ENDROOT
TORSDOF 0
ENDMDL
