MODEL 1
REMARK minimizedAffinity 11.7239017
REMARK minimizedRMSD -1
REMARK  0 active torsions:
REMARK  status: ('A' for Active; 'I' for Inactive)
ROOT
ATOM      1  C   UNL d   1       1.124   2.754  -4.364  0.00  0.00     0.077 C 
ATOM      2  C1  UNL d   1       2.243   2.595  -3.378  0.00  0.00    -0.074 A 
ATOM      3  C2  UNL d   1       3.440   3.303  -3.529  0.00  0.00    -0.005 A 
ATOM      4  C3  UNL d   1       4.468   3.153  -2.598  0.00  0.00     0.006 A 
ATOM      5  C4  UNL d   1       4.310   2.295  -1.509  0.00  0.00    -0.005 A 
ATOM      6  C5  UNL d   1       3.120   1.581  -1.341  0.00  0.00    -0.074 A 
ATOM      7  C6  UNL d   1       2.930   0.662  -0.170  0.00  0.00     0.077 C 
ATOM      8  C7  UNL d   1       2.089   1.742  -2.276  0.00  0.00    -0.001 A 
ENDROOT
TORSDOF 0
ENDMDL
