MODEL 1
REMARK minimizedAffinity 14.369813
REMARK minimizedRMSD -1
REMARK  0 active torsions:
REMARK  status: ('A' for Active; 'I' for Inactive)
ROOT
ATOM      1  C   UNL d   1      -1.400   0.159   4.869  0.00  0.00     0.077 C 
ATOM      2  C1  UNL d   1      -0.713  -0.828   3.973  0.00  0.00    -0.074 A 
ATOM      3  C2  UNL d   1       0.492  -1.427   4.355  0.00  0.00    -0.005 A 
ATOM      4  C3  UNL d   1       1.116  -2.350   3.515  0.00  0.00     0.006 A 
ATOM      5  C4  UNL d   1       0.542  -2.683   2.288  0.00  0.00    -0.005 A 
ATOM      6  C5  UNL d   1      -0.663  -2.095   1.890  0.00  0.00    -0.074 A 
ATOM      7  C6  UNL d   1      -1.299  -2.449   0.578  0.00  0.00     0.077 C 
ATOM      8  C7  UNL d   1      -1.287  -1.173   2.742  0.00  0.00    -0.001 A 
ENDROOT
TORSDOF 0
ENDMDL
