MODEL 1
REMARK minimizedAffinity 15.2483349
REMARK minimizedRMSD -1
REMARK  0 active torsions:
REMARK  status: ('A' for Active; 'I' for Inactive)
ROOT
ATOM      1  C   UNL d   1       2.261   0.741   0.907  0.00  0.00     0.077 C 
ATOM      2  C1  UNL d   1       1.191  -0.220   1.332  0.00  0.00    -0.074 A 
ATOM      3  C2  UNL d   1      -0.083  -0.176   0.757  0.00  0.00    -0.005 A 
ATOM      4  C3  UNL d   1      -1.066  -1.083   1.155  0.00  0.00     0.006 A 
ATOM      5  C4  UNL d   1      -0.785  -2.040   2.131  0.00  0.00    -0.005 A 
ATOM      6  C5  UNL d   1       0.484  -2.099   2.717  0.00  0.00    -0.074 A 
ATOM      7  C6  UNL d   1       0.806  -3.127   3.760  0.00  0.00     0.077 C 
ATOM      8  C7  UNL d   1       1.468  -1.189   2.306  0.00  0.00    -0.001 A 
ENDROOT
TORSDOF 0
ENDMDL
