MODEL 1
REMARK minimizedAffinity 5.17501068
REMARK minimizedRMSD -1
REMARK  0 active torsions:
REMARK  status: ('A' for Active; 'I' for Inactive)
ROOT
ATOM      1  C   UNL d   1      -4.616   1.127   0.083  0.00  0.00     0.077 C 
ATOM      2  C1  UNL d   1      -3.473   0.454   0.783  0.00  0.00    -0.074 A 
ATOM      3  C2  UNL d   1      -2.474  -0.203   0.058  0.00  0.00    -0.005 A 
ATOM      4  C3  UNL d   1      -1.411  -0.817   0.721  0.00  0.00     0.006 A 
ATOM      5  C4  UNL d   1      -1.338  -0.780   2.114  0.00  0.00    -0.005 A 
ATOM      6  C5  UNL d   1      -2.327  -0.127   2.856  0.00  0.00    -0.074 A 
ATOM      7  C6  UNL d   1      -2.258  -0.069   4.353  0.00  0.00     0.077 C 
ATOM      8  C7  UNL d   1      -3.388   0.493   2.181  0.00  0.00    -0.001 A 
ENDROOT
TORSDOF 0
ENDMDL
