MODEL 1
REMARK minimizedAffinity 17.08461
REMARK minimizedRMSD -1
REMARK  0 active torsions:
REMARK  status: ('A' for Active; 'I' for Inactive)
ROOT
ATOM      1  C   UNL d   1       1.444  -1.899   2.987  0.00  0.00     0.077 C 
ATOM      2  C1  UNL d   1       0.095  -1.362   2.611  0.00  0.00    -0.074 A 
ATOM      3  C2  UNL d   1      -0.489  -1.683   1.381  0.00  0.00    -0.005 A 
ATOM      4  C3  UNL d   1      -1.748  -1.183   1.048  0.00  0.00     0.006 A 
ATOM      5  C4  UNL d   1      -2.435  -0.360   1.941  0.00  0.00    -0.005 A 
ATOM      6  C5  UNL d   1      -1.868  -0.029   3.176  0.00  0.00    -0.074 A 
ATOM      7  C6  UNL d   1      -2.598   0.846   4.150  0.00  0.00     0.077 C 
ATOM      8  C7  UNL d   1      -0.605  -0.541   3.505  0.00  0.00    -0.001 A 
ENDROOT
TORSDOF 0
ENDMDL
