MODEL 1
REMARK minimizedAffinity 12.1390762
REMARK minimizedRMSD -1
REMARK  0 active torsions:
REMARK  status: ('A' for Active; 'I' for Inactive)
ROOT
ATOM      1  C   UNL d   1      -1.383  -1.089   5.055  0.00  0.00     0.077 C 
ATOM      2  C1  UNL d   1      -0.779  -1.299   3.698  0.00  0.00    -0.074 A 
ATOM      3  C2  UNL d   1      -1.556  -1.759   2.629  0.00  0.00    -0.005 A 
ATOM      4  C3  UNL d   1      -0.983  -1.940   1.370  0.00  0.00     0.006 A 
ATOM      5  C4  UNL d   1       0.370  -1.663   1.168  0.00  0.00    -0.005 A 
ATOM      6  C5  UNL d   1       1.161  -1.202   2.224  0.00  0.00    -0.074 A 
ATOM      7  C6  UNL d   1       2.615  -0.891   2.021  0.00  0.00     0.077 C 
ATOM      8  C7  UNL d   1       0.577  -1.016   3.484  0.00  0.00    -0.001 A 
ENDROOT
TORSDOF 0
ENDMDL
