MODEL 1
REMARK minimizedAffinity 7.88040876
REMARK minimizedRMSD -1
REMARK  0 active torsions:
REMARK  status: ('A' for Active; 'I' for Inactive)
ROOT
ATOM      1  C   UNL d   1       1.456  -4.859   0.851  0.00  0.00     0.077 C 
ATOM      2  C1  UNL d   1       0.690  -3.621   1.209  0.00  0.00    -0.074 A 
ATOM      3  C2  UNL d   1      -0.374  -3.179   0.415  0.00  0.00    -0.005 A 
ATOM      4  C3  UNL d   1      -1.083  -2.030   0.765  0.00  0.00     0.006 A 
ATOM      5  C4  UNL d   1      -0.737  -1.313   1.911  0.00  0.00    -0.005 A 
ATOM      6  C5  UNL d   1       0.323  -1.740   2.717  0.00  0.00    -0.074 A 
ATOM      7  C6  UNL d   1       0.701  -0.986   3.958  0.00  0.00     0.077 C 
ATOM      8  C7  UNL d   1       1.026  -2.899   2.363  0.00  0.00    -0.001 A 
ENDROOT
TORSDOF 0
ENDMDL
