MODEL 1
REMARK minimizedAffinity 17.1282444
REMARK minimizedRMSD -1
REMARK  0 active torsions:
REMARK  status: ('A' for Active; 'I' for Inactive)
ROOT
ATOM      1  C   UNL d   1      -0.667  -4.261   0.710  0.00  0.00     0.077 C 
ATOM      2  C1  UNL d   1      -0.645  -2.948   1.433  0.00  0.00    -0.074 A 
ATOM      3  C2  UNL d   1      -0.736  -1.740   0.733  0.00  0.00    -0.005 A 
ATOM      4  C3  UNL d   1      -0.724  -0.527   1.420  0.00  0.00     0.006 A 
ATOM      5  C4  UNL d   1      -0.621  -0.508   2.812  0.00  0.00    -0.005 A 
ATOM      6  C5  UNL d   1      -0.530  -1.705   3.529  0.00  0.00    -0.074 A 
ATOM      7  C6  UNL d   1      -0.429  -1.703   5.025  0.00  0.00     0.077 C 
ATOM      8  C7  UNL d   1      -0.550  -2.921   2.832  0.00  0.00    -0.001 A 
ENDROOT
TORSDOF 0
ENDMDL
