MODEL 1
REMARK minimizedAffinity 4.99333763
REMARK minimizedRMSD -1
REMARK  0 active torsions:
REMARK  status: ('A' for Active; 'I' for Inactive)
ROOT
ATOM      1  C   UNL d   1      -4.159  -3.380   1.191  0.00  0.00     0.077 C 
ATOM      2  C1  UNL d   1      -4.807  -4.066   2.357  0.00  0.00    -0.074 A 
ATOM      3  C2  UNL d   1      -5.300  -5.370   2.241  0.00  0.00    -0.005 A 
ATOM      4  C3  UNL d   1      -5.892  -5.998   3.337  0.00  0.00     0.006 A 
ATOM      5  C4  UNL d   1      -5.997  -5.329   4.557  0.00  0.00    -0.005 A 
ATOM      6  C5  UNL d   1      -5.509  -4.026   4.692  0.00  0.00    -0.074 A 
ATOM      7  C6  UNL d   1      -5.605  -3.297   6.000  0.00  0.00     0.077 C 
ATOM      8  C7  UNL d   1      -4.910  -3.404   3.588  0.00  0.00    -0.001 A 
ENDROOT
TORSDOF 0
ENDMDL
