MODEL 1
REMARK minimizedAffinity 16.437788
REMARK minimizedRMSD -1
REMARK  0 active torsions:
REMARK  status: ('A' for Active; 'I' for Inactive)
ROOT
ATOM      1  C   UNL d   1      -1.600  -0.759   0.738  0.00  0.00     0.077 C 
ATOM      2  C1  UNL d   1      -0.777  -0.798   1.992  0.00  0.00    -0.074 A 
ATOM      3  C2  UNL d   1       0.543  -1.259   1.972  0.00  0.00    -0.005 A 
ATOM      4  C3  UNL d   1       1.298  -1.280   3.144  0.00  0.00     0.006 A 
ATOM      5  C4  UNL d   1       0.743  -0.841   4.346  0.00  0.00    -0.005 A 
ATOM      6  C5  UNL d   1      -0.575  -0.375   4.386  0.00  0.00    -0.074 A 
ATOM      7  C6  UNL d   1      -1.185   0.110   5.667  0.00  0.00     0.077 C 
ATOM      8  C7  UNL d   1      -1.326  -0.351   3.202  0.00  0.00    -0.001 A 
ENDROOT
TORSDOF 0
ENDMDL
