MODEL 1
REMARK minimizedAffinity 1.69033623
REMARK minimizedRMSD -1
REMARK  0 active torsions:
REMARK  status: ('A' for Active; 'I' for Inactive)
ROOT
ATOM      1  O1  BZF d   1       1.623  -3.323   0.935  0.00  0.00    -0.204 OA
ATOM      2  C2  BZF d   1       1.607  -2.693   2.164  0.00  0.00     0.174 A 
ATOM      3  C3  BZF d   1       0.765  -1.639   2.151  0.00  0.00    -0.012 A 
ATOM      4  C3A BZF d   1       0.151  -1.665   0.859  0.00  0.00    -0.107 A 
ATOM      5  C4  BZF d   1      -0.789  -0.883   0.250  0.00  0.00     0.055 A 
ATOM      6  C5  BZF d   1      -1.118  -1.134  -1.044  0.00  0.00    -0.016 A 
ATOM      7  C6  BZF d   1      -0.525  -2.152  -1.761  0.00  0.00     0.022 A 
ATOM      8  C7  BZF d   1       0.409  -2.958  -1.198  0.00  0.00     0.029 A 
ATOM      9  C7A BZF d   1       0.720  -2.728   0.120  0.00  0.00     0.058 A 
ENDROOT
TORSDOF 0
ENDMDL
