MODEL 1
REMARK minimizedAffinity 9.51636982
REMARK minimizedRMSD -1
REMARK  0 active torsions:
REMARK  status: ('A' for Active; 'I' for Inactive)
ROOT
ATOM      1  O1  BZF d   1       1.946  -0.306   4.328  0.00  0.00    -0.204 OA
ATOM      2  C2  BZF d   1       2.047  -1.632   3.952  0.00  0.00     0.174 A 
ATOM      3  C3  BZF d   1       2.275  -1.738   2.627  0.00  0.00    -0.012 A 
ATOM      4  C3A BZF d   1       2.411  -0.393   2.160  0.00  0.00    -0.107 A 
ATOM      5  C4  BZF d   1       2.663   0.154   0.934  0.00  0.00     0.055 A 
ATOM      6  C5  BZF d   1       2.660   1.507   0.802  0.00  0.00    -0.016 A 
ATOM      7  C6  BZF d   1       2.405   2.341   1.870  0.00  0.00     0.022 A 
ATOM      8  C7  BZF d   1       2.155   1.844   3.106  0.00  0.00     0.029 A 
ATOM      9  C7A BZF d   1       2.189   0.479   3.251  0.00  0.00     0.058 A 
ENDROOT
TORSDOF 0
ENDMDL
