MODEL 1
REMARK minimizedAffinity 4.68874502
REMARK minimizedRMSD -1
REMARK  0 active torsions:
REMARK  status: ('A' for Active; 'I' for Inactive)
ROOT
ATOM      1  O1  BZF d   1      -4.527   2.089  -0.875  0.00  0.00    -0.204 OA
ATOM      2  C2  BZF d   1      -5.336   3.040  -0.284  0.00  0.00     0.174 A 
ATOM      3  C3  BZF d   1      -5.998   3.752  -1.219  0.00  0.00    -0.012 A 
ATOM      4  C3A BZF d   1      -5.647   3.151  -2.469  0.00  0.00    -0.107 A 
ATOM      5  C4  BZF d   1      -6.000   3.403  -3.764  0.00  0.00     0.055 A 
ATOM      6  C5  BZF d   1      -5.423   2.679  -4.758  0.00  0.00    -0.016 A 
ATOM      7  C6  BZF d   1      -4.488   1.700  -4.495  0.00  0.00     0.022 A 
ATOM      8  C7  BZF d   1      -4.110   1.410  -3.226  0.00  0.00     0.029 A 
ATOM      9  C7A BZF d   1      -4.716   2.118  -2.216  0.00  0.00     0.058 A 
ENDROOT
TORSDOF 0
ENDMDL
