MODEL 1
REMARK minimizedAffinity 6.27595377
REMARK minimizedRMSD -1
REMARK  0 active torsions:
REMARK  status: ('A' for Active; 'I' for Inactive)
ROOT
ATOM      1  O1  BZF d   1       1.875  -0.692   4.216  0.00  0.00    -0.204 OA
ATOM      2  C2  BZF d   1       1.629  -0.744   2.858  0.00  0.00     0.174 A 
ATOM      3  C3  BZF d   1       1.905  -1.971   2.369  0.00  0.00    -0.012 A 
ATOM      4  C3A BZF d   1       2.263  -2.758   3.508  0.00  0.00    -0.107 A 
ATOM      5  C4  BZF d   1       2.626  -4.065   3.670  0.00  0.00     0.055 A 
ATOM      6  C5  BZF d   1       2.984  -4.503   4.906  0.00  0.00    -0.016 A 
ATOM      7  C6  BZF d   1       2.994  -3.662   5.999  0.00  0.00     0.022 A 
ATOM      8  C7  BZF d   1       2.636  -2.360   5.889  0.00  0.00     0.029 A 
ATOM      9  C7A BZF d   1       2.243  -1.922   4.648  0.00  0.00     0.058 A 
ENDROOT
TORSDOF 0
ENDMDL
