MODEL 1
REMARK minimizedAffinity 2.44698215
REMARK minimizedRMSD -1
REMARK  0 active torsions:
REMARK  status: ('A' for Active; 'I' for Inactive)
ROOT
ATOM      1  O1  BZF d   1       2.558   3.646  -0.289  0.00  0.00    -0.204 OA
ATOM      2  C2  BZF d   1       1.553   4.544  -0.591  0.00  0.00     0.174 A 
ATOM      3  C3  BZF d   1       0.354   4.072  -0.191  0.00  0.00    -0.012 A 
ATOM      4  C3A BZF d   1       0.639   2.841   0.479  0.00  0.00    -0.107 A 
ATOM      5  C4  BZF d   1      -0.140   1.913   1.110  0.00  0.00     0.055 A 
ATOM      6  C5  BZF d   1       0.440   0.785   1.597  0.00  0.00    -0.016 A 
ATOM      7  C6  BZF d   1       1.793   0.550   1.467  0.00  0.00     0.022 A 
ATOM      8  C7  BZF d   1       2.607   1.443   0.854  0.00  0.00     0.029 A 
ATOM      9  C7A BZF d   1       2.030   2.600   0.390  0.00  0.00     0.058 A 
ENDROOT
TORSDOF 0
ENDMDL
