MODEL 1
REMARK minimizedAffinity 6.07589293
REMARK minimizedRMSD -1
REMARK  0 active torsions:
REMARK  status: ('A' for Active; 'I' for Inactive)
ROOT
ATOM      1  O1  BZF d   1       1.723   0.880   4.908  0.00  0.00    -0.204 OA
ATOM      2  C2  BZF d   1       2.046   2.062   4.271  0.00  0.00     0.174 A 
ATOM      3  C3  BZF d   1       2.447   1.829   3.004  0.00  0.00    -0.012 A 
ATOM      4  C3A BZF d   1       2.282   0.421   2.811  0.00  0.00    -0.107 A 
ATOM      5  C4  BZF d   1       2.497  -0.412   1.750  0.00  0.00     0.055 A 
ATOM      6  C5  BZF d   1       2.306  -1.748   1.911  0.00  0.00    -0.016 A 
ATOM      7  C6  BZF d   1       1.907  -2.285   3.118  0.00  0.00     0.022 A 
ATOM      8  C7  BZF d   1       1.676  -1.497   4.197  0.00  0.00     0.029 A 
ATOM      9  C7A BZF d   1       1.836  -0.144   4.028  0.00  0.00     0.058 A 
ENDROOT
TORSDOF 0
ENDMDL
