MODEL 1
REMARK minimizedAffinity 7.69275331
REMARK minimizedRMSD -1
REMARK  0 active torsions:
REMARK  status: ('A' for Active; 'I' for Inactive)
ROOT
ATOM      1  O1  BZF d   1       0.459  -0.320   2.306  0.00  0.00    -0.204 OA
ATOM      2  C2  BZF d   1       1.465  -1.255   2.452  0.00  0.00     0.174 A 
ATOM      3  C3  BZF d   1       2.616  -0.807   1.912  0.00  0.00    -0.012 A 
ATOM      4  C3A BZF d   1       2.335   0.527   1.478  0.00  0.00    -0.107 A 
ATOM      5  C4  BZF d   1       3.085   1.497   0.877  0.00  0.00     0.055 A 
ATOM      6  C5  BZF d   1       2.490   2.665   0.519  0.00  0.00    -0.016 A 
ATOM      7  C6  BZF d   1       1.148   2.894   0.741  0.00  0.00     0.022 A 
ATOM      8  C7  BZF d   1       0.364   1.964   1.339  0.00  0.00     0.029 A 
ATOM      9  C7A BZF d   1       0.970   0.796   1.732  0.00  0.00     0.058 A 
ENDROOT
TORSDOF 0
ENDMDL
