MODEL 1
REMARK minimizedAffinity 4.55847025
REMARK minimizedRMSD -1
REMARK  0 active torsions:
REMARK  status: ('A' for Active; 'I' for Inactive)
ROOT
ATOM      1  O1  BZF d   1       0.965   1.990   1.074  0.00  0.00    -0.204 OA
ATOM      2  C2  BZF d   1       2.027   2.769   1.489  0.00  0.00     0.174 A 
ATOM      3  C3  BZF d   1       2.846   2.070   2.301  0.00  0.00    -0.012 A 
ATOM      4  C3A BZF d   1       2.309   0.744   2.325  0.00  0.00    -0.107 A 
ATOM      5  C4  BZF d   1       2.691  -0.413   2.943  0.00  0.00     0.055 A 
ATOM      6  C5  BZF d   1       1.907  -1.516   2.820  0.00  0.00    -0.016 A 
ATOM      7  C6  BZF d   1       0.735  -1.498   2.094  0.00  0.00     0.022 A 
ATOM      8  C7  BZF d   1       0.318  -0.376   1.459  0.00  0.00     0.029 A 
ATOM      9  C7A BZF d   1       1.124   0.732   1.553  0.00  0.00     0.058 A 
ENDROOT
TORSDOF 0
ENDMDL
