MODEL 1
REMARK minimizedAffinity 17.0352955
REMARK minimizedRMSD -1
REMARK  0 active torsions:
REMARK  status: ('A' for Active; 'I' for Inactive)
ROOT
ATOM      1  C   UNL d   1       0.353  -3.044  -0.768  0.00  0.00     0.124 A 
ATOM      2  C1  UNL d   1       0.766  -4.248  -1.320  0.00  0.00     0.062 A 
ATOM      3  C2  UNL d   1       2.114  -4.595  -1.312  0.00  0.00     0.162 A 
ATOM      4  C3  UNL d   1       3.059  -3.737  -0.749  0.00  0.00    -0.034 A 
ATOM      5  C4  UNL d   1       2.635  -2.527  -0.197  0.00  0.00     0.162 A 
ATOM      6  C5  UNL d   1       1.287  -2.185  -0.207  0.00  0.00     0.062 A 
ATOM      7  F   UNL d   1       0.889  -1.021   0.327  0.00  0.00    -0.097 F 
ATOM      8  F1  UNL d   1       3.517  -1.679   0.353  0.00  0.00    -0.096 F 
ATOM      9  I   UNL d   1       5.075  -4.253  -0.736  0.00  0.00    -0.060 I 
ATOM     10  F2  UNL d   1       2.485  -5.765  -1.853  0.00  0.00    -0.096 F 
ATOM     11  F3  UNL d   1      -0.135  -5.079  -1.864  0.00  0.00    -0.097 F 
ATOM     12  F4  UNL d   1      -0.945  -2.711  -0.778  0.00  0.00    -0.092 F 
ENDROOT
TORSDOF 0
ENDMDL
