MODEL 1
REMARK minimizedAffinity 5.77877522
REMARK minimizedRMSD -1
REMARK  0 active torsions:
REMARK  status: ('A' for Active; 'I' for Inactive)
ROOT
ATOM      1  C   UNL d   1      -5.992   3.968  -2.547  0.00  0.00     0.124 A 
ATOM      2  C1  UNL d   1      -5.992   3.997  -3.935  0.00  0.00     0.062 A 
ATOM      3  C2  UNL d   1      -5.991   2.809  -4.659  0.00  0.00     0.162 A 
ATOM      4  C3  UNL d   1      -5.991   1.581  -3.997  0.00  0.00    -0.034 A 
ATOM      5  C4  UNL d   1      -5.990   1.560  -2.602  0.00  0.00     0.162 A 
ATOM      6  C5  UNL d   1      -5.991   2.751  -1.882  0.00  0.00     0.062 A 
ATOM      7  F   UNL d   1      -5.991   2.721  -0.541  0.00  0.00    -0.097 F 
ATOM      8  F1  UNL d   1      -5.989   0.397  -1.933  0.00  0.00    -0.096 F 
ATOM      9  I   UNL d   1      -5.989  -0.198  -5.077  0.00  0.00    -0.060 I 
ATOM     10  F2  UNL d   1      -5.991   2.866  -5.999  0.00  0.00    -0.096 F 
ATOM     11  F3  UNL d   1      -5.992   5.173  -4.580  0.00  0.00    -0.097 F 
ATOM     12  F4  UNL d   1      -5.992   5.113  -1.852  0.00  0.00    -0.092 F 
ENDROOT
TORSDOF 0
ENDMDL
