MODEL 1
REMARK minimizedAffinity 12.6969967
REMARK minimizedRMSD -1
REMARK  0 active torsions:
REMARK  status: ('A' for Active; 'I' for Inactive)
ROOT
ATOM      1  C   UNL d   1       0.495  -3.216  -0.674  0.00  0.00     0.124 A 
ATOM      2  C1  UNL d   1       1.373  -2.225  -0.258  0.00  0.00     0.062 A 
ATOM      3  C2  UNL d   1       2.741  -2.478  -0.207  0.00  0.00     0.162 A 
ATOM      4  C3  UNL d   1       3.239  -3.728  -0.575  0.00  0.00    -0.034 A 
ATOM      5  C4  UNL d   1       2.349  -4.720  -0.991  0.00  0.00     0.162 A 
ATOM      6  C5  UNL d   1       0.983  -4.462  -1.040  0.00  0.00     0.062 A 
ATOM      7  F   UNL d   1       0.136  -5.421  -1.442  0.00  0.00    -0.097 F 
ATOM      8  F1  UNL d   1       2.795  -5.933  -1.351  0.00  0.00    -0.096 F 
ATOM      9  I   UNL d   1       5.284  -4.111  -0.500  0.00  0.00    -0.060 I 
ATOM     10  F2  UNL d   1       3.566  -1.502   0.199  0.00  0.00    -0.096 F 
ATOM     11  F3  UNL d   1       0.903  -1.020   0.097  0.00  0.00    -0.097 F 
ATOM     12  F4  UNL d   1      -0.821  -2.970  -0.721  0.00  0.00    -0.092 F 
ENDROOT
TORSDOF 0
ENDMDL
