MODEL 1
REMARK minimizedAffinity 9.10862637
REMARK minimizedRMSD -1
REMARK  0 active torsions:
REMARK  status: ('A' for Active; 'I' for Inactive)
ROOT
ATOM      1  C   UNL d   1      -5.900   1.785  -4.622  0.00  0.00     0.124 A 
ATOM      2  C1  UNL d   1      -5.822   2.991  -3.939  0.00  0.00     0.062 A 
ATOM      3  C2  UNL d   1      -5.767   3.005  -2.548  0.00  0.00     0.162 A 
ATOM      4  C3  UNL d   1      -5.789   1.809  -1.831  0.00  0.00    -0.034 A 
ATOM      5  C4  UNL d   1      -5.869   0.600  -2.525  0.00  0.00     0.162 A 
ATOM      6  C5  UNL d   1      -5.924   0.591  -3.915  0.00  0.00     0.062 A 
ATOM      7  F   UNL d   1      -6.000  -0.574  -4.573  0.00  0.00    -0.097 F 
ATOM      8  F1  UNL d   1      -5.893  -0.568  -1.867  0.00  0.00    -0.096 F 
ATOM      9  I   UNL d   1      -5.707   1.826   0.249  0.00  0.00    -0.060 I 
ATOM     10  F2  UNL d   1      -5.692   4.184  -1.914  0.00  0.00    -0.096 F 
ATOM     11  F3  UNL d   1      -5.800   4.145  -4.620  0.00  0.00    -0.097 F 
ATOM     12  F4  UNL d   1      -5.954   1.774  -5.960  0.00  0.00    -0.092 F 
ENDROOT
TORSDOF 0
ENDMDL
