MODEL 1
REMARK minimizedAffinity 15.2708073
REMARK minimizedRMSD -1
REMARK  0 active torsions:
REMARK  status: ('A' for Active; 'I' for Inactive)
ROOT
ATOM      1  C   UNL d   1      -3.993   0.386   3.005  0.00  0.00     0.124 A 
ATOM      2  C1  UNL d   1      -4.932   0.009   2.054  0.00  0.00     0.062 A 
ATOM      3  C2  UNL d   1      -5.086   0.754   0.888  0.00  0.00     0.162 A 
ATOM      4  C3  UNL d   1      -4.298   1.884   0.666  0.00  0.00    -0.034 A 
ATOM      5  C4  UNL d   1      -3.358   2.257   1.627  0.00  0.00     0.162 A 
ATOM      6  C5  UNL d   1      -3.208   1.510   2.791  0.00  0.00     0.062 A 
ATOM      7  F   UNL d   1      -2.301   1.876   3.708  0.00  0.00    -0.097 F 
ATOM      8  F1  UNL d   1      -2.584   3.338   1.445  0.00  0.00    -0.096 F 
ATOM      9  I   UNL d   1      -4.525   3.000  -1.076  0.00  0.00    -0.060 I 
ATOM     10  F2  UNL d   1      -6.000   0.366  -0.013  0.00  0.00    -0.096 F 
ATOM     11  F3  UNL d   1      -5.693  -1.076   2.259  0.00  0.00    -0.097 F 
ATOM     12  F4  UNL d   1      -3.848  -0.332   4.126  0.00  0.00    -0.092 F 
ENDROOT
TORSDOF 0
ENDMDL
