MODEL 1
REMARK minimizedAffinity 18.6322327
REMARK minimizedRMSD -1
REMARK  0 active torsions:
REMARK  status: ('A' for Active; 'I' for Inactive)
ROOT
ATOM      1  C   UNL d   1       1.423  -2.366   0.449  0.00  0.00     0.124 A 
ATOM      2  C1  UNL d   1       0.305  -1.768  -0.115  0.00  0.00     0.062 A 
ATOM      3  C2  UNL d   1      -0.441  -2.444  -1.076  0.00  0.00     0.162 A 
ATOM      4  C3  UNL d   1      -0.071  -3.728  -1.479  0.00  0.00    -0.034 A 
ATOM      5  C4  UNL d   1       1.055  -4.322  -0.908  0.00  0.00     0.162 A 
ATOM      6  C5  UNL d   1       1.797  -3.642   0.052  0.00  0.00     0.062 A 
ATOM      7  F   UNL d   1       2.878  -4.221   0.595  0.00  0.00    -0.097 F 
ATOM      8  F1  UNL d   1       1.439  -5.555  -1.273  0.00  0.00    -0.096 F 
ATOM      9  I   UNL d   1      -1.184  -4.742  -2.916  0.00  0.00    -0.060 I 
ATOM     10  F2  UNL d   1      -1.517  -1.842  -1.604  0.00  0.00    -0.096 F 
ATOM     11  F3  UNL d   1      -0.058  -0.535   0.266  0.00  0.00    -0.097 F 
ATOM     12  F4  UNL d   1       2.140  -1.713   1.372  0.00  0.00    -0.092 F 
ENDROOT
TORSDOF 0
ENDMDL
