MODEL 1
REMARK minimizedAffinity 1.42841244
REMARK minimizedRMSD -1
REMARK  0 active torsions:
REMARK  status: ('A' for Active; 'I' for Inactive)
ROOT
ATOM      1  C   UNL d   1      -5.900   3.038  -4.632  0.00  0.00     0.124 A 
ATOM      2  C1  UNL d   1      -5.891   4.110  -3.751  0.00  0.00     0.062 A 
ATOM      3  C2  UNL d   1      -5.919   3.888  -2.377  0.00  0.00     0.162 A 
ATOM      4  C3  UNL d   1      -5.955   2.587  -1.876  0.00  0.00    -0.034 A 
ATOM      5  C4  UNL d   1      -5.965   1.513  -2.768  0.00  0.00     0.162 A 
ATOM      6  C5  UNL d   1      -5.937   1.741  -4.140  0.00  0.00     0.062 A 
ATOM      7  F   UNL d   1      -5.946   0.704  -4.990  0.00  0.00    -0.097 F 
ATOM      8  F1  UNL d   1      -6.000   0.250  -2.320  0.00  0.00    -0.096 F 
ATOM      9  I   UNL d   1      -5.997   2.250   0.177  0.00  0.00    -0.060 I 
ATOM     10  F2  UNL d   1      -5.909   4.943  -1.549  0.00  0.00    -0.096 F 
ATOM     11  F3  UNL d   1      -5.856   5.365  -4.224  0.00  0.00    -0.097 F 
ATOM     12  F4  UNL d   1      -5.874   3.255  -5.954  0.00  0.00    -0.092 F 
ENDROOT
TORSDOF 0
ENDMDL
