MODEL 1
REMARK minimizedAffinity 12.4809656
REMARK minimizedRMSD -1
REMARK  0 active torsions:
REMARK  status: ('A' for Active; 'I' for Inactive)
ROOT
ATOM      1  C   UNL d   1      -5.987   2.809  -1.471  0.00  0.00     0.124 A 
ATOM      2  C1  UNL d   1      -5.991   1.421  -1.504  0.00  0.00     0.062 A 
ATOM      3  C2  UNL d   1      -5.993   0.750  -2.723  0.00  0.00     0.162 A 
ATOM      4  C3  UNL d   1      -5.991   1.465  -3.920  0.00  0.00    -0.034 A 
ATOM      5  C4  UNL d   1      -5.988   2.861  -3.879  0.00  0.00     0.162 A 
ATOM      6  C5  UNL d   1      -5.986   3.527  -2.658  0.00  0.00     0.062 A 
ATOM      7  F   UNL d   1      -5.982   4.868  -2.629  0.00  0.00    -0.097 F 
ATOM      8  F1  UNL d   1      -5.986   3.580  -5.012  0.00  0.00    -0.096 F 
ATOM      9  I   UNL d   1      -5.995   0.465  -5.745  0.00  0.00    -0.060 I 
ATOM     10  F2  UNL d   1      -5.997  -0.592  -2.725  0.00  0.00    -0.096 F 
ATOM     11  F3  UNL d   1      -5.992   0.725  -0.358  0.00  0.00    -0.097 F 
ATOM     12  F4  UNL d   1      -5.985   3.452  -0.296  0.00  0.00    -0.092 F 
ENDROOT
TORSDOF 0
ENDMDL
