MODEL 1
REMARK minimizedAffinity 5.44878531
REMARK minimizedRMSD -1
REMARK  0 active torsions:
REMARK  status: ('A' for Active; 'I' for Inactive)
ROOT
ATOM      1  C   UNL d   1       4.750  -2.923  -0.337  0.00  0.00     0.124 A 
ATOM      2  C1  UNL d   1       4.518  -4.256  -0.649  0.00  0.00     0.062 A 
ATOM      3  C2  UNL d   1       3.221  -4.707  -0.870  0.00  0.00     0.162 A 
ATOM      4  C3  UNL d   1       2.144  -3.825  -0.782  0.00  0.00    -0.034 A 
ATOM      5  C4  UNL d   1       2.385  -2.486  -0.467  0.00  0.00     0.162 A 
ATOM      6  C5  UNL d   1       3.684  -2.040  -0.246  0.00  0.00     0.062 A 
ATOM      7  F   UNL d   1       3.906  -0.752   0.055  0.00  0.00    -0.097 F 
ATOM      8  F1  UNL d   1       1.373  -1.611  -0.373  0.00  0.00    -0.096 F 
ATOM      9  I   UNL d   1       0.202  -4.496  -1.112  0.00  0.00    -0.060 I 
ATOM     10  F2  UNL d   1       3.026  -6.000  -1.170  0.00  0.00    -0.096 F 
ATOM     11  F3  UNL d   1       5.547  -5.111  -0.736  0.00  0.00    -0.097 F 
ATOM     12  F4  UNL d   1       6.000  -2.492  -0.123  0.00  0.00    -0.092 F 
ENDROOT
TORSDOF 0
ENDMDL
