MODEL 1
REMARK minimizedAffinity 22.5962181
REMARK minimizedRMSD -1
REMARK  0 active torsions:
REMARK  status: ('A' for Active; 'I' for Inactive)
ROOT
ATOM      1  C   UNL d   1       1.882   3.544   1.316  0.00  0.00     0.124 A 
ATOM      2  C1  UNL d   1       1.956   4.630   0.454  0.00  0.00     0.062 A 
ATOM      3  C2  UNL d   1       0.879   4.944  -0.370  0.00  0.00     0.162 A 
ATOM      4  C3  UNL d   1      -0.282   4.171  -0.336  0.00  0.00    -0.034 A 
ATOM      5  C4  UNL d   1      -0.349   3.081   0.533  0.00  0.00     0.162 A 
ATOM      6  C5  UNL d   1       0.730   2.771   1.355  0.00  0.00     0.062 A 
ATOM      7  F   UNL d   1       0.657   1.722   2.186  0.00  0.00    -0.097 F 
ATOM      8  F1  UNL d   1      -1.450   2.317   0.591  0.00  0.00    -0.096 F 
ATOM      9  I   UNL d   1      -1.894   4.638  -1.567  0.00  0.00    -0.060 I 
ATOM     10  F2  UNL d   1       0.979   5.998  -1.193  0.00  0.00    -0.096 F 
ATOM     11  F3  UNL d   1       3.068   5.378   0.415  0.00  0.00    -0.097 F 
ATOM     12  F4  UNL d   1       2.919   3.243   2.108  0.00  0.00    -0.092 F 
ENDROOT
TORSDOF 0
ENDMDL
