MODEL 1
REMARK minimizedAffinity 9.85168076
REMARK minimizedRMSD -1
REMARK  0 active torsions:
REMARK  status: ('A' for Active; 'I' for Inactive)
ROOT
ATOM      1  N1  IND d   1      -3.365  -3.686  -6.000  0.00  0.00    -0.196 N 
ATOM      2  C2  IND d   1      -3.762  -4.989  -5.876  0.00  0.00     0.054 A 
ATOM      3  C3  IND d   1      -4.772  -5.090  -4.983  0.00  0.00    -0.031 A 
ATOM      4  C4  IND d   1      -5.998  -3.237  -3.683  0.00  0.00     0.051 A 
ATOM      5  C5  IND d   1      -5.968  -1.893  -3.438  0.00  0.00    -0.031 A 
ATOM      6  C6  IND d   1      -5.053  -1.061  -4.049  0.00  0.00     0.015 A 
ATOM      7  C7  IND d   1      -4.136  -1.542  -4.940  0.00  0.00    -0.016 A 
ATOM      8  C8  IND d   1      -4.158  -2.908  -5.186  0.00  0.00    -0.047 A 
ATOM      9  C9  IND d   1      -5.058  -3.764  -4.537  0.00  0.00    -0.096 A 
ATOM     10  HN1 IND d   1      -2.727  -3.402  -6.501  0.00  0.00     0.298 HD
ENDROOT
TORSDOF 0
ENDMDL
