MODEL 1
REMARK minimizedAffinity 20.7047405
REMARK minimizedRMSD -1
REMARK  0 active torsions:
REMARK  status: ('A' for Active; 'I' for Inactive)
ROOT
ATOM      1  N1  IND d   1       0.192   3.105   2.087  0.00  0.00    -0.196 N 
ATOM      2  C2  IND d   1       1.107   2.946   3.091  0.00  0.00     0.054 A 
ATOM      3  C3  IND d   1       1.028   1.699   3.606  0.00  0.00    -0.031 A 
ATOM      4  C4  IND d   1      -0.458  -0.276   2.887  0.00  0.00     0.051 A 
ATOM      5  C5  IND d   1      -1.480  -0.603   2.040  0.00  0.00    -0.031 A 
ATOM      6  C6  IND d   1      -2.005   0.307   1.145  0.00  0.00     0.015 A 
ATOM      7  C7  IND d   1      -1.518   1.580   1.056  0.00  0.00    -0.016 A 
ATOM      8  C8  IND d   1      -0.485   1.918   1.920  0.00  0.00    -0.047 A 
ATOM      9  C9  IND d   1       0.023   1.011   2.859  0.00  0.00    -0.096 A 
ATOM     10  HN1 IND d   1       0.062   3.826   1.636  0.00  0.00     0.298 HD
ENDROOT
TORSDOF 0
ENDMDL
