MODEL 1
REMARK minimizedAffinity 1.08971786
REMARK minimizedRMSD -1
REMARK  0 active torsions:
REMARK  status: ('A' for Active; 'I' for Inactive)
ROOT
ATOM      1  N1  IND d   1      -4.879  -4.698  -6.000  0.00  0.00    -0.196 N 
ATOM      2  C2  IND d   1      -5.268  -5.960  -5.648  0.00  0.00     0.054 A 
ATOM      3  C3  IND d   1      -5.718  -5.975  -4.373  0.00  0.00    -0.031 A 
ATOM      4  C4  IND d   1      -6.000  -4.026  -2.715  0.00  0.00     0.051 A 
ATOM      5  C5  IND d   1      -5.747  -2.691  -2.569  0.00  0.00    -0.031 A 
ATOM      6  C6  IND d   1      -5.182  -1.941  -3.580  0.00  0.00     0.015 A 
ATOM      7  C7  IND d   1      -4.859  -2.498  -4.785  0.00  0.00    -0.016 A 
ATOM      8  C8  IND d   1      -5.108  -3.855  -4.935  0.00  0.00    -0.047 A 
ATOM      9  C9  IND d   1      -5.642  -4.630  -3.897  0.00  0.00    -0.096 A 
ATOM     10  HN1 IND d   1      -4.547  -4.469  -6.759  0.00  0.00     0.298 HD
ENDROOT
TORSDOF 0
ENDMDL
