MODEL 1
REMARK minimizedAffinity 13.3867025
REMARK minimizedRMSD -1
REMARK  0 active torsions:
REMARK  status: ('A' for Active; 'I' for Inactive)
ROOT
ATOM      1  N1  IND d   1      -5.510  -3.026  -2.651  0.00  0.00    -0.196 N 
ATOM      2  C2  IND d   1      -5.905  -1.884  -3.290  0.00  0.00     0.054 A 
ATOM      3  C3  IND d   1      -5.856  -2.054  -4.630  0.00  0.00    -0.031 A 
ATOM      4  C4  IND d   1      -5.255  -4.154  -5.992  0.00  0.00     0.051 A 
ATOM      5  C5  IND d   1      -4.793  -5.433  -5.852  0.00  0.00    -0.031 A 
ATOM      6  C6  IND d   1      -4.545  -5.987  -4.613  0.00  0.00     0.015 A 
ATOM      7  C7  IND d   1      -4.760  -5.283  -3.462  0.00  0.00    -0.016 A 
ATOM      8  C8  IND d   1      -5.222  -3.982  -3.600  0.00  0.00    -0.047 A 
ATOM      9  C9  IND d   1      -5.436  -3.400  -4.857  0.00  0.00    -0.096 A 
ATOM     10  HN1 IND d   1      -5.451  -3.130  -1.800  0.00  0.00     0.298 HD
ENDROOT
TORSDOF 0
ENDMDL
