MODEL 1
REMARK minimizedAffinity 0.40798229
REMARK minimizedRMSD -1
REMARK  0 active torsions:
REMARK  status: ('A' for Active; 'I' for Inactive)
ROOT
ATOM      1  N1  IND d   1      -4.159  -5.201  -0.643  0.00  0.00    -0.196 N 
ATOM      2  C2  IND d   1      -3.682  -5.998   0.361  0.00  0.00     0.054 A 
ATOM      3  C3  IND d   1      -3.970  -5.459   1.567  0.00  0.00    -0.031 A 
ATOM      4  C4  IND d   1      -5.304  -3.330   2.130  0.00  0.00     0.051 A 
ATOM      5  C5  IND d   1      -5.910  -2.253   1.546  0.00  0.00    -0.031 A 
ATOM      6  C6  IND d   1      -5.967  -2.102   0.176  0.00  0.00     0.015 A 
ATOM      7  C7  IND d   1      -5.427  -3.032  -0.666  0.00  0.00    -0.016 A 
ATOM      8  C8  IND d   1      -4.805  -4.124  -0.077  0.00  0.00    -0.047 A 
ATOM      9  C9  IND d   1      -4.707  -4.261   1.313  0.00  0.00    -0.096 A 
ATOM     10  HN1 IND d   1      -4.071  -5.349  -1.485  0.00  0.00     0.298 HD
ENDROOT
TORSDOF 0
ENDMDL
