MODEL 1
REMARK minimizedAffinity 13.5859728
REMARK minimizedRMSD -1
REMARK  0 active torsions:
REMARK  status: ('A' for Active; 'I' for Inactive)
ROOT
ATOM      1  N1  IND d   1       0.995   3.666  -1.914  0.00  0.00    -0.196 N 
ATOM      2  C2  IND d   1       1.283   2.348  -1.692  0.00  0.00     0.054 A 
ATOM      3  C3  IND d   1       2.147   1.891  -2.626  0.00  0.00    -0.031 A 
ATOM      4  C4  IND d   1       3.296   3.158  -4.550  0.00  0.00     0.051 A 
ATOM      5  C5  IND d   1       3.321   4.372  -5.177  0.00  0.00    -0.031 A 
ATOM      6  C6  IND d   1       2.558   5.435  -4.738  0.00  0.00     0.015 A 
ATOM      7  C7  IND d   1       1.748   5.326  -3.644  0.00  0.00    -0.016 A 
ATOM      8  C8  IND d   1       1.715   4.093  -3.009  0.00  0.00    -0.047 A 
ATOM      9  C9  IND d   1       2.454   2.998  -3.476  0.00  0.00    -0.096 A 
ATOM     10  HN1 IND d   1       0.456   4.147  -1.449  0.00  0.00     0.298 HD
ENDROOT
TORSDOF 0
ENDMDL
