MODEL 1
REMARK minimizedAffinity 1.22254407
REMARK minimizedRMSD -1
REMARK  0 active torsions:
REMARK  status: ('A' for Active; 'I' for Inactive)
ROOT
ATOM      1  N1  IND d   1      -4.151  -4.851  -1.134  0.00  0.00    -0.196 N 
ATOM      2  C2  IND d   1      -3.730  -6.000  -0.524  0.00  0.00     0.054 A 
ATOM      3  C3  IND d   1      -4.078  -5.993   0.783  0.00  0.00    -0.031 A 
ATOM      4  C4  IND d   1      -5.430  -4.247   2.106  0.00  0.00     0.051 A 
ATOM      5  C5  IND d   1      -6.000  -3.011   1.988  0.00  0.00    -0.031 A 
ATOM      6  C6  IND d   1      -5.985  -2.312   0.799  0.00  0.00     0.015 A 
ATOM      7  C7  IND d   1      -5.406  -2.830  -0.325  0.00  0.00    -0.016 A 
ATOM      8  C8  IND d   1      -4.820  -4.083  -0.207  0.00  0.00    -0.047 A 
ATOM      9  C9  IND d   1      -4.795  -4.779   1.008  0.00  0.00    -0.096 A 
ATOM     10  HN1 IND d   1      -4.019  -4.644  -1.958  0.00  0.00     0.298 HD
ENDROOT
TORSDOF 0
ENDMDL
