MODEL 1
REMARK minimizedAffinity 15.5975704
REMARK minimizedRMSD -1
REMARK  0 active torsions:
REMARK  status: ('A' for Active; 'I' for Inactive)
ROOT
ATOM      1  N1  IND d   1       2.205   1.617  -4.991  0.00  0.00    -0.196 N 
ATOM      2  C2  IND d   1       3.233   1.426  -4.112  0.00  0.00     0.054 A 
ATOM      3  C3  IND d   1       3.291   0.130  -3.730  0.00  0.00    -0.031 A 
ATOM      4  C4  IND d   1       1.863  -1.867  -4.503  0.00  0.00     0.051 A 
ATOM      5  C5  IND d   1       0.777  -2.182  -5.270  0.00  0.00    -0.031 A 
ATOM      6  C6  IND d   1       0.099  -1.228  -6.000  0.00  0.00     0.015 A 
ATOM      7  C7  IND d   1       0.490   0.081  -5.999  0.00  0.00    -0.016 A 
ATOM      8  C8  IND d   1       1.589   0.406  -5.216  0.00  0.00    -0.047 A 
ATOM      9  C9  IND d   1       2.255  -0.551  -4.439  0.00  0.00    -0.096 A 
ATOM     10  HN1 IND d   1       1.980   2.368  -5.345  0.00  0.00     0.298 HD
ENDROOT
TORSDOF 0
ENDMDL
