MODEL 1
REMARK minimizedAffinity 17.6010418
REMARK minimizedRMSD -1
REMARK  0 active torsions:
REMARK  status: ('A' for Active; 'I' for Inactive)
ROOT
ATOM      1  N1  IND d   1       3.402   3.781  -3.916  0.00  0.00    -0.196 N 
ATOM      2  C2  IND d   1       3.653   4.123  -5.216  0.00  0.00     0.054 A 
ATOM      3  C3  IND d   1       3.657   3.022  -6.000  0.00  0.00    -0.031 A 
ATOM      4  C4  IND d   1       3.175   0.571  -5.379  0.00  0.00     0.051 A 
ATOM      5  C5  IND d   1       2.931  -0.241  -4.307  0.00  0.00    -0.031 A 
ATOM      6  C6  IND d   1       2.826   0.257  -3.024  0.00  0.00     0.015 A 
ATOM      7  C7  IND d   1       2.951   1.593  -2.766  0.00  0.00    -0.016 A 
ATOM      8  C8  IND d   1       3.206   2.419  -3.852  0.00  0.00    -0.047 A 
ATOM      9  C9  IND d   1       3.356   1.914  -5.150  0.00  0.00    -0.096 A 
ATOM     10  HN1 IND d   1       3.371   4.325  -3.251  0.00  0.00     0.298 HD
ENDROOT
TORSDOF 0
ENDMDL
