MODEL 1
REMARK minimizedAffinity 4.6825037
REMARK minimizedRMSD -1
REMARK  0 active torsions:
REMARK  status: ('A' for Active; 'I' for Inactive)
ROOT
ATOM      1  N1  IND d   1      -2.226  -3.588  -5.932  0.00  0.00    -0.196 N 
ATOM      2  C2  IND d   1      -1.458  -4.717  -6.000  0.00  0.00     0.054 A 
ATOM      3  C3  IND d   1      -2.241  -5.819  -6.000  0.00  0.00    -0.031 A 
ATOM      4  C4  IND d   1      -4.809  -6.000  -5.998  0.00  0.00     0.051 A 
ATOM      5  C5  IND d   1      -5.942  -5.242  -5.904  0.00  0.00    -0.031 A 
ATOM      6  C6  IND d   1      -5.894  -3.866  -5.816  0.00  0.00     0.015 A 
ATOM      7  C7  IND d   1      -4.705  -3.193  -5.829  0.00  0.00    -0.016 A 
ATOM      8  C8  IND d   1      -3.552  -3.960  -5.918  0.00  0.00    -0.047 A 
ATOM      9  C9  IND d   1      -3.593  -5.359  -5.965  0.00  0.00    -0.096 A 
ATOM     10  HN1 IND d   1      -1.930  -2.781  -5.903  0.00  0.00     0.298 HD
ENDROOT
TORSDOF 0
ENDMDL
