MODEL 1
REMARK minimizedAffinity 8.00381088
REMARK minimizedRMSD -1
REMARK  0 active torsions:
REMARK  status: ('A' for Active; 'I' for Inactive)
ROOT
ATOM      1  N1  IND d   1       0.042  -4.698   2.690  0.00  0.00    -0.196 N 
ATOM      2  C2  IND d   1       0.126  -4.377   1.364  0.00  0.00     0.054 A 
ATOM      3  C3  IND d   1       1.378  -4.599   0.905  0.00  0.00    -0.031 A 
ATOM      4  C4  IND d   1       3.418  -5.584   2.128  0.00  0.00     0.051 A 
ATOM      5  C5  IND d   1       3.839  -5.995   3.361  0.00  0.00    -0.031 A 
ATOM      6  C6  IND d   1       2.998  -5.998   4.456  0.00  0.00     0.015 A 
ATOM      7  C7  IND d   1       1.696  -5.598   4.354  0.00  0.00    -0.016 A 
ATOM      8  C8  IND d   1       1.267  -5.173   3.105  0.00  0.00    -0.047 A 
ATOM      9  C9  IND d   1       2.127  -5.128   2.000  0.00  0.00    -0.096 A 
ATOM     10  HN1 IND d   1      -0.659  -4.617   3.183  0.00  0.00     0.298 HD
ENDROOT
TORSDOF 0
ENDMDL
