MODEL 1
REMARK minimizedAffinity 6.57210875
REMARK minimizedRMSD -1
REMARK  0 active torsions:
REMARK  status: ('A' for Active; 'I' for Inactive)
ROOT
ATOM      1  N1  IND d   1      -3.016  -2.067   0.479  0.00  0.00    -0.196 N 
ATOM      2  C2  IND d   1      -4.332  -2.250   0.156  0.00  0.00     0.054 A 
ATOM      3  C3  IND d   1      -5.023  -1.101   0.328  0.00  0.00    -0.031 A 
ATOM      4  C4  IND d   1      -4.178   1.226   1.033  0.00  0.00     0.051 A 
ATOM      5  C5  IND d   1      -3.059   1.880   1.467  0.00  0.00    -0.031 A 
ATOM      6  C6  IND d   1      -1.843   1.239   1.594  0.00  0.00     0.015 A 
ATOM      7  C7  IND d   1      -1.698  -0.083   1.280  0.00  0.00    -0.016 A 
ATOM      8  C8  IND d   1      -2.834  -0.751   0.845  0.00  0.00    -0.047 A 
ATOM      9  C9  IND d   1      -4.080  -0.117   0.754  0.00  0.00    -0.096 A 
ATOM     10  HN1 IND d   1      -2.406  -2.671   0.457  0.00  0.00     0.298 HD
ENDROOT
TORSDOF 0
ENDMDL
