MODEL 1
REMARK minimizedAffinity 15.6841812
REMARK minimizedRMSD -1
REMARK  0 active torsions:
REMARK  status: ('A' for Active; 'I' for Inactive)
ROOT
ATOM      1  N1  IND d   1      -1.499  -0.431   1.382  0.00  0.00    -0.196 N 
ATOM      2  C2  IND d   1      -2.769  -0.661   0.932  0.00  0.00     0.054 A 
ATOM      3  C3  IND d   1      -3.545   0.427   1.135  0.00  0.00    -0.031 A 
ATOM      4  C4  IND d   1      -2.911   2.731   2.093  0.00  0.00     0.051 A 
ATOM      5  C5  IND d   1      -1.876   3.409   2.674  0.00  0.00    -0.031 A 
ATOM      6  C6  IND d   1      -0.636   2.830   2.855  0.00  0.00     0.015 A 
ATOM      7  C7  IND d   1      -0.381   1.551   2.449  0.00  0.00    -0.016 A 
ATOM      8  C8  IND d   1      -1.432   0.857   1.866  0.00  0.00    -0.047 A 
ATOM      9  C9  IND d   1      -2.705   1.425   1.718  0.00  0.00    -0.096 A 
ATOM     10  HN1 IND d   1      -0.851  -0.995   1.365  0.00  0.00     0.298 HD
ENDROOT
TORSDOF 0
ENDMDL
