MODEL 1
REMARK minimizedAffinity 14.1721687
REMARK minimizedRMSD -1
REMARK  0 active torsions:
REMARK  status: ('A' for Active; 'I' for Inactive)
ROOT
ATOM      1  N1  IND d   1       1.567   3.776  -1.273  0.00  0.00    -0.196 N 
ATOM      2  C2  IND d   1       1.802   2.439  -1.107  0.00  0.00     0.054 A 
ATOM      3  C3  IND d   1       2.664   1.993  -2.048  0.00  0.00    -0.031 A 
ATOM      4  C4  IND d   1       3.890   3.301  -3.895  0.00  0.00     0.051 A 
ATOM      5  C5  IND d   1       3.970   4.540  -4.465  0.00  0.00    -0.031 A 
ATOM      6  C6  IND d   1       3.241   5.610  -3.990  0.00  0.00     0.015 A 
ATOM      7  C7  IND d   1       2.409   5.483  -2.914  0.00  0.00    -0.016 A 
ATOM      8  C8  IND d   1       2.319   4.224  -2.336  0.00  0.00    -0.047 A 
ATOM      9  C9  IND d   1       3.025   3.125  -2.841  0.00  0.00    -0.096 A 
ATOM     10  HN1 IND d   1       1.038   4.255  -0.794  0.00  0.00     0.298 HD
ENDROOT
TORSDOF 0
ENDMDL
