MODEL 1
REMARK minimizedAffinity 14.7160892
REMARK minimizedRMSD -1
REMARK  0 active torsions:
REMARK  status: ('A' for Active; 'I' for Inactive)
ROOT
ATOM      1  N1  IND d   1      -3.390   0.945   0.805  0.00  0.00    -0.196 N 
ATOM      2  C2  IND d   1      -2.072   0.928   1.165  0.00  0.00     0.054 A 
ATOM      3  C3  IND d   1      -1.951   0.748   2.500  0.00  0.00    -0.031 A 
ATOM      4  C4  IND d   1      -3.780   0.358   4.269  0.00  0.00     0.051 A 
ATOM      5  C5  IND d   1      -5.138   0.326   4.426  0.00  0.00    -0.031 A 
ATOM      6  C6  IND d   1      -5.999   0.499   3.362  0.00  0.00     0.015 A 
ATOM      7  C7  IND d   1      -5.533   0.701   2.094  0.00  0.00    -0.016 A 
ATOM      8  C8  IND d   1      -4.156   0.741   1.932  0.00  0.00    -0.047 A 
ATOM      9  C9  IND d   1      -3.277   0.609   3.015  0.00  0.00    -0.096 A 
ATOM     10  HN1 IND d   1      -3.691   1.064   0.008  0.00  0.00     0.298 HD
ENDROOT
TORSDOF 0
ENDMDL
