MODEL 1
REMARK minimizedAffinity 4.84139013
REMARK minimizedRMSD -1
REMARK  0 active torsions:
REMARK  status: ('A' for Active; 'I' for Inactive)
ROOT
ATOM      1  N1  IND d   1      -0.721   0.149   3.533  0.00  0.00    -0.196 N 
ATOM      2  C2  IND d   1       0.243   0.367   2.588  0.00  0.00     0.054 A 
ATOM      3  C3  IND d   1      -0.322   0.733   1.415  0.00  0.00    -0.031 A 
ATOM      4  C4  IND d   1      -2.801   1.134   0.849  0.00  0.00     0.051 A 
ATOM      5  C5  IND d   1      -4.057   1.028   1.376  0.00  0.00    -0.031 A 
ATOM      6  C6  IND d   1      -4.270   0.618   2.676  0.00  0.00     0.015 A 
ATOM      7  C7  IND d   1      -3.229   0.308   3.505  0.00  0.00    -0.016 A 
ATOM      8  C8  IND d   1      -1.952   0.408   2.971  0.00  0.00    -0.047 A 
ATOM      9  C9  IND d   1      -1.732   0.783   1.639  0.00  0.00    -0.096 A 
ATOM     10  HN1 IND d   1      -0.582  -0.106   4.342  0.00  0.00     0.298 HD
ENDROOT
TORSDOF 0
ENDMDL
