MODEL 1
REMARK minimizedAffinity -3.02892113
REMARK minimizedRMSD -1
REMARK  0 active torsions:
REMARK  status: ('A' for Active; 'I' for Inactive)
ROOT
ATOM      1  C2' OXE d   1      -0.452  -2.281   0.704  0.00  0.00     0.078 C 
ATOM      2  C1' OXE d   1      -1.115   0.439   0.914  0.00  0.00     0.078 C 
ATOM      3  C1  OXE d   1       0.126   0.075   0.138  0.00  0.00    -0.078 A 
ATOM      4  C2  OXE d   1       0.468  -1.254   0.080  0.00  0.00    -0.078 A 
ATOM      5  C3  OXE d   1       1.573  -1.649  -0.669  0.00  0.00     0.003 A 
ATOM      6  C4  OXE d   1       2.425  -0.693  -1.235  0.00  0.00    -0.002 A 
ATOM      7  C5  OXE d   1       2.116   0.669  -1.154  0.00  0.00    -0.002 A 
ATOM      8  C6  OXE d   1       0.950   1.067  -0.509  0.00  0.00     0.003 A 
ENDROOT
TORSDOF 0
ENDMDL
