MODEL 1
REMARK minimizedAffinity -3.61170459
REMARK minimizedRMSD -1
REMARK  0 active torsions:
REMARK  status: ('A' for Active; 'I' for Inactive)
ROOT
ATOM      1  C2' OXE d   1      -0.664  -1.108  -0.333  0.00  0.00     0.078 C 
ATOM      2  C1' OXE d   1      -0.486   1.692  -0.247  0.00  0.00     0.078 C 
ATOM      3  C1  OXE d   1       0.786   0.913  -0.466  0.00  0.00    -0.078 A 
ATOM      4  C2  OXE d   1       0.697  -0.458  -0.460  0.00  0.00    -0.078 A 
ATOM      5  C3  OXE d   1       1.831  -1.224  -0.712  0.00  0.00     0.003 A 
ATOM      6  C4  OXE d   1       3.088  -0.616  -0.819  0.00  0.00    -0.002 A 
ATOM      7  C5  OXE d   1       3.207   0.777  -0.788  0.00  0.00    -0.002 A 
ATOM      8  C6  OXE d   1       2.063   1.556  -0.656  0.00  0.00     0.003 A 
ENDROOT
TORSDOF 0
ENDMDL
