MODEL 1
REMARK minimizedAffinity -2.97989702
REMARK minimizedRMSD -1
REMARK  0 active torsions:
REMARK  status: ('A' for Active; 'I' for Inactive)
ROOT
ATOM      1  C2' OXE d   1       3.125  -0.573  -0.517  0.00  0.00     0.078 C 
ATOM      2  C1' OXE d   1       1.460  -2.798  -0.120  0.00  0.00     0.078 C 
ATOM      3  C1  OXE d   1       0.809  -1.442  -0.225  0.00  0.00    -0.078 A 
ATOM      4  C2  OXE d   1       1.635  -0.353  -0.372  0.00  0.00    -0.078 A 
ATOM      5  C3  OXE d   1       1.083   0.915  -0.529  0.00  0.00     0.003 A 
ATOM      6  C4  OXE d   1      -0.296   1.111  -0.385  0.00  0.00    -0.002 A 
ATOM      7  C5  OXE d   1      -1.152   0.021  -0.194  0.00  0.00    -0.002 A 
ATOM      8  C6  OXE d   1      -0.621  -1.264  -0.155  0.00  0.00     0.003 A 
ENDROOT
TORSDOF 0
ENDMDL
