MODEL 1
REMARK minimizedAffinity -4.97896576
REMARK minimizedRMSD -1
REMARK  0 active torsions:
REMARK  status: ('A' for Active; 'I' for Inactive)
ROOT
ATOM      1  C2' OXE d   1      -1.206   2.530  -0.370  0.00  0.00     0.078 C 
ATOM      2  C1' OXE d   1      -2.143   0.307   1.066  0.00  0.00     0.078 C 
ATOM      3  C1  OXE d   1      -0.770   0.217   0.448  0.00  0.00    -0.078 A 
ATOM      4  C2  OXE d   1      -0.338   1.292  -0.292  0.00  0.00    -0.078 A 
ATOM      5  C3  OXE d   1       0.942   1.284  -0.838  0.00  0.00     0.003 A 
ATOM      6  C4  OXE d   1       1.734   0.131  -0.770  0.00  0.00    -0.002 A 
ATOM      7  C5  OXE d   1       1.297  -0.989  -0.055  0.00  0.00    -0.002 A 
ATOM      8  C6  OXE d   1       0.068  -0.947   0.594  0.00  0.00     0.003 A 
ENDROOT
TORSDOF 0
ENDMDL
