MODEL 1
REMARK minimizedAffinity -0.986678362
REMARK minimizedRMSD -1
REMARK  0 active torsions:
REMARK  status: ('A' for Active; 'I' for Inactive)
ROOT
ATOM      1  C2' OXE d   1       5.187   1.889   3.199  0.00  0.00     0.078 C 
ATOM      2  C1' OXE d   1       5.438   1.926   5.995  0.00  0.00     0.078 C 
ATOM      3  C1  OXE d   1       5.609   0.603   5.291  0.00  0.00    -0.078 A 
ATOM      4  C2  OXE d   1       5.438   0.586   3.927  0.00  0.00    -0.078 A 
ATOM      5  C3  OXE d   1       5.639  -0.597   3.222  0.00  0.00     0.003 A 
ATOM      6  C4  OXE d   1       5.861  -1.800   3.904  0.00  0.00    -0.002 A 
ATOM      7  C5  OXE d   1       5.998  -1.812   5.296  0.00  0.00    -0.002 A 
ATOM      8  C6  OXE d   1       5.917  -0.614   5.999  0.00  0.00     0.003 A 
ENDROOT
TORSDOF 0
ENDMDL
