MODEL 1
REMARK minimizedAffinity -3.45500946
REMARK minimizedRMSD -1
REMARK  0 active torsions:
REMARK  status: ('A' for Active; 'I' for Inactive)
ROOT
ATOM      1  C2' OXE d   1      -1.130   0.870   0.045  0.00  0.00     0.078 C 
ATOM      2  C1' OXE d   1       1.090   2.129  -1.124  0.00  0.00     0.078 C 
ATOM      3  C1  OXE d   1       1.265   0.717  -0.623  0.00  0.00    -0.078 A 
ATOM      4  C2  OXE d   1       0.186   0.125  -0.010  0.00  0.00    -0.078 A 
ATOM      5  C3  OXE d   1       0.276  -1.195   0.420  0.00  0.00     0.003 A 
ATOM      6  C4  OXE d   1       1.500  -1.874   0.374  0.00  0.00    -0.002 A 
ATOM      7  C5  OXE d   1       2.622  -1.276  -0.210  0.00  0.00    -0.002 A 
ATOM      8  C6  OXE d   1       2.510   0.000  -0.750  0.00  0.00     0.003 A 
ENDROOT
TORSDOF 0
ENDMDL
