MODEL 1
REMARK minimizedAffinity -3.31890297
REMARK minimizedRMSD -1
REMARK  0 active torsions:
REMARK  status: ('A' for Active; 'I' for Inactive)
ROOT
ATOM      1  C2' OXE d   1       1.948   1.909  -0.766  0.00  0.00     0.078 C 
ATOM      2  C1' OXE d   1       3.070  -0.650  -1.037  0.00  0.00     0.078 C 
ATOM      3  C1  OXE d   1       1.626  -0.556  -0.609  0.00  0.00    -0.078 A 
ATOM      4  C2  OXE d   1       1.099   0.701  -0.434  0.00  0.00    -0.078 A 
ATOM      5  C3  OXE d   1      -0.243   0.844  -0.093  0.00  0.00     0.003 A 
ATOM      6  C4  OXE d   1      -1.018  -0.278   0.222  0.00  0.00    -0.002 A 
ATOM      7  C5  OXE d   1      -0.489  -1.566   0.088  0.00  0.00    -0.002 A 
ATOM      8  C6  OXE d   1       0.816  -1.723  -0.366  0.00  0.00     0.003 A 
ENDROOT
TORSDOF 0
ENDMDL
