MODEL 1
REMARK minimizedAffinity -6.22863817
REMARK minimizedRMSD -1
REMARK  0 active torsions:
REMARK  status: ('A' for Active; 'I' for Inactive)
ROOT
ATOM      1  C2' OXE d   1      -0.412  -2.386   0.260  0.00  0.00     0.078 C 
ATOM      2  C1' OXE d   1      -1.351   0.243   0.552  0.00  0.00     0.078 C 
ATOM      3  C1  OXE d   1       0.008   0.046  -0.072  0.00  0.00    -0.078 A 
ATOM      4  C2  OXE d   1       0.479  -1.241  -0.169  0.00  0.00    -0.078 A 
ATOM      5  C3  OXE d   1       1.703  -1.482  -0.786  0.00  0.00     0.003 A 
ATOM      6  C4  OXE d   1       2.525  -0.416  -1.170  0.00  0.00    -0.002 A 
ATOM      7  C5  OXE d   1       2.081   0.904  -1.044  0.00  0.00    -0.002 A 
ATOM      8  C6  OXE d   1       0.810   1.150  -0.537  0.00  0.00     0.003 A 
ENDROOT
TORSDOF 0
ENDMDL
