MODEL 1
REMARK minimizedAffinity -4.46886921
REMARK minimizedRMSD -1
REMARK  0 active torsions:
REMARK  status: ('A' for Active; 'I' for Inactive)
ROOT
ATOM      1  C2' OXE d   1      -0.396  -2.528   0.085  0.00  0.00     0.078 C 
ATOM      2  C1' OXE d   1      -1.072   0.196  -0.001  0.00  0.00     0.078 C 
ATOM      3  C1  OXE d   1       0.350  -0.187  -0.330  0.00  0.00    -0.078 A 
ATOM      4  C2  OXE d   1       0.683  -1.517  -0.240  0.00  0.00    -0.078 A 
ATOM      5  C3  OXE d   1       1.966  -1.931  -0.586  0.00  0.00     0.003 A 
ATOM      6  C4  OXE d   1       2.961  -0.989  -0.876  0.00  0.00    -0.002 A 
ATOM      7  C5  OXE d   1       2.652   0.374  -0.935  0.00  0.00    -0.002 A 
ATOM      8  C6  OXE d   1       1.344   0.787  -0.706  0.00  0.00     0.003 A 
ENDROOT
TORSDOF 0
ENDMDL
