MODEL 1
REMARK minimizedAffinity -3.51728106
REMARK minimizedRMSD -1
REMARK  0 active torsions:
REMARK  status: ('A' for Active; 'I' for Inactive)
ROOT
ATOM      1  C2' OXE d   1       3.414  -0.313  -1.873  0.00  0.00     0.078 C 
ATOM      2  C1' OXE d   1       1.510  -2.262  -2.549  0.00  0.00     0.078 C 
ATOM      3  C1  OXE d   1       1.161  -1.288  -1.451  0.00  0.00    -0.078 A 
ATOM      4  C2  OXE d   1       2.117  -0.367  -1.095  0.00  0.00    -0.078 A 
ATOM      5  C3  OXE d   1       1.827   0.589  -0.126  0.00  0.00     0.003 A 
ATOM      6  C4  OXE d   1       0.629   0.525   0.595  0.00  0.00    -0.002 A 
ATOM      7  C5  OXE d   1      -0.343  -0.429   0.276  0.00  0.00    -0.002 A 
ATOM      8  C6  OXE d   1      -0.110  -1.314  -0.771  0.00  0.00     0.003 A 
ENDROOT
TORSDOF 0
ENDMDL
