MODEL 1
REMARK minimizedAffinity -3.55308461
REMARK minimizedRMSD -1
REMARK  0 active torsions:
REMARK  status: ('A' for Active; 'I' for Inactive)
ROOT
ATOM      1  C2' OXE d   1      -0.251  -2.319  -0.287  0.00  0.00     0.078 C 
ATOM      2  C1' OXE d   1      -1.158   0.313   0.072  0.00  0.00     0.078 C 
ATOM      3  C1  OXE d   1       0.291   0.112  -0.293  0.00  0.00    -0.078 A 
ATOM      4  C2  OXE d   1       0.738  -1.181  -0.421  0.00  0.00    -0.078 A 
ATOM      5  C3  OXE d   1       2.052  -1.422  -0.810  0.00  0.00     0.003 A 
ATOM      6  C4  OXE d   1       2.963  -0.364  -0.922  0.00  0.00    -0.002 A 
ATOM      7  C5  OXE d   1       2.539   0.959  -0.757  0.00  0.00    -0.002 A 
ATOM      8  C6  OXE d   1       1.200   1.216  -0.485  0.00  0.00     0.003 A 
ENDROOT
TORSDOF 0
ENDMDL
