MODEL 1
REMARK minimizedAffinity -2.79704618
REMARK minimizedRMSD -1
REMARK  0 active torsions:
REMARK  status: ('A' for Active; 'I' for Inactive)
ROOT
ATOM      1  C2' OXE d   1      -1.505   0.003   0.378  0.00  0.00     0.078 C 
ATOM      2  C1' OXE d   1      -0.347  -2.512   0.841  0.00  0.00     0.078 C 
ATOM      3  C1  OXE d   1       0.469  -1.489   0.091  0.00  0.00    -0.078 A 
ATOM      4  C2  OXE d   1      -0.123  -0.277  -0.171  0.00  0.00    -0.078 A 
ATOM      5  C3  OXE d   1       0.605   0.721  -0.812  0.00  0.00     0.003 A 
ATOM      6  C4  OXE d   1       1.879   0.451  -1.326  0.00  0.00    -0.002 A 
ATOM      7  C5  OXE d   1       2.485  -0.790  -1.104  0.00  0.00    -0.002 A 
ATOM      8  C6  OXE d   1       1.812  -1.755  -0.362  0.00  0.00     0.003 A 
ENDROOT
TORSDOF 0
ENDMDL
