MODEL 1
REMARK minimizedAffinity -4.89252472
REMARK minimizedRMSD -1
REMARK  0 active torsions:
REMARK  status: ('A' for Active; 'I' for Inactive)
ROOT
ATOM      1  C2' OXE d   1      -0.487   2.020  -1.155  0.00  0.00     0.078 C 
ATOM      2  C1' OXE d   1      -1.653  -0.361  -0.231  0.00  0.00     0.078 C 
ATOM      3  C1  OXE d   1      -0.148  -0.263  -0.216  0.00  0.00    -0.078 A 
ATOM      4  C2  OXE d   1       0.416   0.888  -0.713  0.00  0.00    -0.078 A 
ATOM      5  C3  OXE d   1       1.797   1.053  -0.671  0.00  0.00     0.003 A 
ATOM      6  C4  OXE d   1       2.625  -0.002  -0.270  0.00  0.00    -0.002 A 
ATOM      7  C5  OXE d   1       2.073  -1.198   0.203  0.00  0.00    -0.002 A 
ATOM      8  C6  OXE d   1       0.691  -1.328   0.276  0.00  0.00     0.003 A 
ENDROOT
TORSDOF 0
ENDMDL
