MODEL 1
REMARK minimizedAffinity -3.14217472
REMARK minimizedRMSD -1
REMARK  0 active torsions:
REMARK  status: ('A' for Active; 'I' for Inactive)
ROOT
ATOM      1  C2' OXE d   1      -0.232  -2.203   0.025  0.00  0.00     0.078 C 
ATOM      2  C1' OXE d   1      -0.823   0.478   0.611  0.00  0.00     0.078 C 
ATOM      3  C1  OXE d   1       0.445   0.188  -0.152  0.00  0.00    -0.078 A 
ATOM      4  C2  OXE d   1       0.751  -1.130  -0.393  0.00  0.00    -0.078 A 
ATOM      5  C3  OXE d   1       1.881  -1.450  -1.140  0.00  0.00     0.003 A 
ATOM      6  C4  OXE d   1       2.789  -0.453  -1.514  0.00  0.00    -0.002 A 
ATOM      7  C5  OXE d   1       2.517   0.893  -1.244  0.00  0.00    -0.002 A 
ATOM      8  C6  OXE d   1       1.331   1.233  -0.602  0.00  0.00     0.003 A 
ENDROOT
TORSDOF 0
ENDMDL
