MODEL 1
REMARK minimizedAffinity -4.19653368
REMARK minimizedRMSD -1
REMARK  0 active torsions:
REMARK  status: ('A' for Active; 'I' for Inactive)
ROOT
ATOM      1  C2' OXE d   1      -4.111  -0.139   1.863  0.00  0.00     0.078 C 
ATOM      2  C1' OXE d   1      -2.704   1.971   3.066  0.00  0.00     0.078 C 
ATOM      3  C1  OXE d   1      -2.030   1.228   1.940  0.00  0.00    -0.078 A 
ATOM      4  C2  OXE d   1      -2.707   0.167   1.389  0.00  0.00    -0.078 A 
ATOM      5  C3  OXE d   1      -2.153  -0.519   0.311  0.00  0.00     0.003 A 
ATOM      6  C4  OXE d   1      -0.850  -0.236  -0.115  0.00  0.00    -0.002 A 
ATOM      7  C5  OXE d   1      -0.127   0.815   0.460  0.00  0.00    -0.002 A 
ATOM      8  C6  OXE d   1      -0.718   1.583   1.457  0.00  0.00     0.003 A 
ENDROOT
TORSDOF 0
ENDMDL
