MODEL 1
REMARK minimizedAffinity 6.87201357
REMARK minimizedRMSD -1
REMARK  0 active torsions:
REMARK  status: ('A' for Active; 'I' for Inactive)
ROOT
ATOM      1  C   UNL d   1       4.468  -4.883   1.988  0.00  0.00     0.078 C 
ATOM      2  C1  UNL d   1       4.862  -4.515   3.388  0.00  0.00    -0.077 A 
ATOM      3  C2  UNL d   1       4.826  -5.462   4.419  0.00  0.00    -0.001 A 
ATOM      4  C3  UNL d   1       5.187  -5.103   5.719  0.00  0.00     0.003 A 
ATOM      5  C4  UNL d   1       5.585  -3.798   6.000  0.00  0.00    -0.005 A 
ATOM      6  C5  UNL d   1       5.622  -2.849   4.981  0.00  0.00     0.003 A 
ATOM      7  C6  UNL d   1       5.262  -3.205   3.680  0.00  0.00    -0.001 A 
ENDROOT
TORSDOF 0
ENDMDL
