MODEL 1
REMARK minimizedAffinity 1.63491702
REMARK minimizedRMSD -1
REMARK  0 active torsions:
REMARK  status: ('A' for Active; 'I' for Inactive)
ROOT
ATOM      1  C   UNL d   1       5.023   1.018  -5.991  0.00  0.00     0.078 C 
ATOM      2  C1  UNL d   1       4.050   2.158  -5.963  0.00  0.00    -0.077 A 
ATOM      3  C2  UNL d   1       2.669   1.927  -5.917  0.00  0.00    -0.001 A 
ATOM      4  C3  UNL d   1       1.774   2.998  -5.902  0.00  0.00     0.003 A 
ATOM      5  C4  UNL d   1       2.250   4.308  -5.934  0.00  0.00    -0.005 A 
ATOM      6  C5  UNL d   1       3.621   4.548  -5.982  0.00  0.00     0.003 A 
ATOM      7  C6  UNL d   1       4.518   3.478  -5.998  0.00  0.00    -0.001 A 
ENDROOT
TORSDOF 0
ENDMDL
