MODEL 1
REMARK minimizedAffinity 5.5563879
REMARK minimizedRMSD -1
REMARK  0 active torsions:
REMARK  status: ('A' for Active; 'I' for Inactive)
ROOT
ATOM      1  C   UNL d   1       5.984   5.825  -5.884  0.00  0.00     0.078 C 
ATOM      2  C1  UNL d   1       4.638   5.166  -5.922  0.00  0.00    -0.077 A 
ATOM      3  C2  UNL d   1       3.462   5.926  -5.903  0.00  0.00    -0.001 A 
ATOM      4  C3  UNL d   1       2.215   5.299  -5.929  0.00  0.00     0.003 A 
ATOM      5  C4  UNL d   1       2.133   3.908  -5.973  0.00  0.00    -0.005 A 
ATOM      6  C5  UNL d   1       3.297   3.144  -5.990  0.00  0.00     0.003 A 
ATOM      7  C6  UNL d   1       4.545   3.769  -5.964  0.00  0.00    -0.001 A 
ENDROOT
TORSDOF 0
ENDMDL
