MODEL 1
REMARK minimizedAffinity 3.46700263
REMARK minimizedRMSD -1
REMARK  0 active torsions:
REMARK  status: ('A' for Active; 'I' for Inactive)
ROOT
ATOM      1  C   UNL d   1       2.671   1.489  -5.980  0.00  0.00     0.078 C 
ATOM      2  C1  UNL d   1       2.742   2.987  -5.978  0.00  0.00    -0.077 A 
ATOM      3  C2  UNL d   1       1.577   3.764  -5.988  0.00  0.00    -0.001 A 
ATOM      4  C3  UNL d   1       1.658   5.157  -5.996  0.00  0.00     0.003 A 
ATOM      5  C4  UNL d   1       2.902   5.786  -5.996  0.00  0.00    -0.005 A 
ATOM      6  C5  UNL d   1       4.066   5.021  -5.988  0.00  0.00     0.003 A 
ATOM      7  C6  UNL d   1       3.987   3.628  -5.980  0.00  0.00    -0.001 A 
ENDROOT
TORSDOF 0
ENDMDL
