MODEL 1
REMARK minimizedAffinity -2.33194566
REMARK minimizedRMSD -1
REMARK  0 active torsions:
REMARK  status: ('A' for Active; 'I' for Inactive)
ROOT
ATOM      1  C   UNL d   1       4.858  -4.502   1.703  0.00  0.00     0.078 C 
ATOM      2  C1  UNL d   1       4.820  -4.448   3.201  0.00  0.00    -0.077 A 
ATOM      3  C2  UNL d   1       4.398  -5.551   3.952  0.00  0.00    -0.001 A 
ATOM      4  C3  UNL d   1       4.359  -5.483   5.346  0.00  0.00     0.003 A 
ATOM      5  C4  UNL d   1       4.738  -4.313   6.000  0.00  0.00    -0.005 A 
ATOM      6  C5  UNL d   1       5.157  -3.209   5.261  0.00  0.00     0.003 A 
ATOM      7  C6  UNL d   1       5.197  -3.275   3.867  0.00  0.00    -0.001 A 
ENDROOT
TORSDOF 0
ENDMDL
