MODEL 1
REMARK minimizedAffinity -0.286781967
REMARK minimizedRMSD -1
REMARK  0 active torsions:
REMARK  status: ('A' for Active; 'I' for Inactive)
ROOT
ATOM      1  C   UNL d   1       2.043   4.521  -5.985  0.00  0.00     0.078 C 
ATOM      2  C1  UNL d   1       3.271   3.660  -5.994  0.00  0.00    -0.077 A 
ATOM      3  C2  UNL d   1       3.173   2.263  -6.000  0.00  0.00    -0.001 A 
ATOM      4  C3  UNL d   1       4.324   1.474  -5.999  0.00  0.00     0.003 A 
ATOM      5  C4  UNL d   1       5.582   2.073  -5.991  0.00  0.00    -0.005 A 
ATOM      6  C5  UNL d   1       5.690   3.462  -5.984  0.00  0.00     0.003 A 
ATOM      7  C6  UNL d   1       4.540   4.252  -5.985  0.00  0.00    -0.001 A 
ENDROOT
TORSDOF 0
ENDMDL
