MODEL 1
REMARK minimizedAffinity -3.34789681
REMARK minimizedRMSD -1
REMARK  0 active torsions:
REMARK  status: ('A' for Active; 'I' for Inactive)
ROOT
ATOM      1  C   UNL d   1       5.859   3.042  -5.998  0.00  0.00     0.078 C 
ATOM      2  C1  UNL d   1       4.596   3.850  -6.000  0.00  0.00    -0.077 A 
ATOM      3  C2  UNL d   1       4.634   5.250  -6.000  0.00  0.00    -0.001 A 
ATOM      4  C3  UNL d   1       3.450   5.988  -5.991  0.00  0.00     0.003 A 
ATOM      5  C4  UNL d   1       2.219   5.336  -5.982  0.00  0.00    -0.005 A 
ATOM      6  C5  UNL d   1       2.170   3.944  -5.980  0.00  0.00     0.003 A 
ATOM      7  C6  UNL d   1       3.353   3.203  -5.988  0.00  0.00    -0.001 A 
ENDROOT
TORSDOF 0
ENDMDL
