MODEL 1
REMARK minimizedAffinity -3.22302103
REMARK minimizedRMSD -1
REMARK  0 active torsions:
REMARK  status: ('A' for Active; 'I' for Inactive)
ROOT
ATOM      1  C   UNL d   1       1.729   4.755  -6.000  0.00  0.00     0.078 C 
ATOM      2  C1  UNL d   1       3.214   4.547  -6.000  0.00  0.00    -0.077 A 
ATOM      3  C2  UNL d   1       3.762   3.259  -5.999  0.00  0.00    -0.001 A 
ATOM      4  C3  UNL d   1       5.146   3.080  -5.989  0.00  0.00     0.003 A 
ATOM      5  C4  UNL d   1       5.994   4.186  -5.979  0.00  0.00    -0.005 A 
ATOM      6  C5  UNL d   1       5.458   5.472  -5.978  0.00  0.00     0.003 A 
ATOM      7  C6  UNL d   1       4.074   5.652  -5.988  0.00  0.00    -0.001 A 
ENDROOT
TORSDOF 0
ENDMDL
