MODEL 1
REMARK minimizedAffinity -3.68869734
REMARK minimizedRMSD -1
REMARK  0 active torsions:
REMARK  status: ('A' for Active; 'I' for Inactive)
ROOT
ATOM      1  C2' OXE d   1       0.724   3.046   0.327  0.00  0.00     0.078 C 
ATOM      2  C1' OXE d   1       2.673   1.027   0.378  0.00  0.00     0.078 C 
ATOM      3  C1  OXE d   1       1.225   0.609   0.448  0.00  0.00    -0.078 A 
ATOM      4  C2  OXE d   1       0.280   1.606   0.469  0.00  0.00    -0.078 A 
ATOM      5  C3  OXE d   1      -1.072   1.274   0.477  0.00  0.00     0.003 A 
ATOM      6  C4  OXE d   1      -1.473  -0.060   0.620  0.00  0.00    -0.002 A 
ATOM      7  C5  OXE d   1      -0.525  -1.088   0.640  0.00  0.00    -0.002 A 
ATOM      8  C6  OXE d   1       0.823  -0.775   0.513  0.00  0.00     0.003 A 
ENDROOT
TORSDOF 0
ENDMDL
