MODEL 1
REMARK minimizedAffinity -2.32448316
REMARK minimizedRMSD -1
REMARK  0 active torsions:
REMARK  status: ('A' for Active; 'I' for Inactive)
ROOT
ATOM      1  C2' OXE d   1       0.336   3.335  -0.208  0.00  0.00     0.078 C 
ATOM      2  C1' OXE d   1      -1.807   1.981   0.997  0.00  0.00     0.078 C 
ATOM      3  C1  OXE d   1      -0.642   1.159   0.507  0.00  0.00    -0.078 A 
ATOM      4  C2  OXE d   1       0.382   1.825  -0.123  0.00  0.00    -0.078 A 
ATOM      5  C3  OXE d   1       1.506   1.121  -0.545  0.00  0.00     0.003 A 
ATOM      6  C4  OXE d   1       1.536  -0.277  -0.471  0.00  0.00    -0.002 A 
ATOM      7  C5  OXE d   1       0.486  -0.979   0.131  0.00  0.00    -0.002 A 
ATOM      8  C6  OXE d   1      -0.588  -0.274   0.663  0.00  0.00     0.003 A 
ENDROOT
TORSDOF 0
ENDMDL
