MODEL 1
REMARK minimizedAffinity -3.22191644
REMARK minimizedRMSD -1
REMARK  0 active torsions:
REMARK  status: ('A' for Active; 'I' for Inactive)
ROOT
ATOM      1  C2' OXE d   1       0.569  -0.736   0.021  0.00  0.00     0.078 C 
ATOM      2  C1' OXE d   1       2.971   0.654   0.445  0.00  0.00     0.078 C 
ATOM      3  C1  OXE d   1       1.684   1.438   0.507  0.00  0.00    -0.078 A 
ATOM      4  C2  OXE d   1       0.517   0.759   0.252  0.00  0.00    -0.078 A 
ATOM      5  C3  OXE d   1      -0.702   1.423   0.349  0.00  0.00     0.003 A 
ATOM      6  C4  OXE d   1      -0.741   2.807   0.553  0.00  0.00    -0.002 A 
ATOM      7  C5  OXE d   1       0.439   3.525   0.776  0.00  0.00    -0.002 A 
ATOM      8  C6  OXE d   1       1.654   2.850   0.798  0.00  0.00     0.003 A 
ENDROOT
TORSDOF 0
ENDMDL
