MODEL 1
REMARK minimizedAffinity -4.06858826
REMARK minimizedRMSD -1
REMARK  0 active torsions:
REMARK  status: ('A' for Active; 'I' for Inactive)
ROOT
ATOM      1  C2' OXE d   1       0.336  -1.146  -0.198  0.00  0.00     0.078 C 
ATOM      2  C1' OXE d   1      -1.347  -0.130   1.806  0.00  0.00     0.078 C 
ATOM      3  C1  OXE d   1      -0.588   0.859   0.957  0.00  0.00    -0.078 A 
ATOM      4  C2  OXE d   1       0.269   0.352   0.009  0.00  0.00    -0.078 A 
ATOM      5  C3  OXE d   1       0.952   1.220  -0.837  0.00  0.00     0.003 A 
ATOM      6  C4  OXE d   1       0.892   2.604  -0.632  0.00  0.00    -0.002 A 
ATOM      7  C5  OXE d   1       0.056   3.140   0.353  0.00  0.00    -0.002 A 
ATOM      8  C6  OXE d   1      -0.722   2.285   1.126  0.00  0.00     0.003 A 
ENDROOT
TORSDOF 0
ENDMDL
