MODEL 1
REMARK minimizedAffinity -5.71040106
REMARK minimizedRMSD -1
REMARK  0 active torsions:
REMARK  status: ('A' for Active; 'I' for Inactive)
ROOT
ATOM      1  C2' OXE d   1      -1.781   3.374   3.202  0.00  0.00     0.078 C 
ATOM      2  C1' OXE d   1      -2.659   0.748   2.734  0.00  0.00     0.078 C 
ATOM      3  C1  OXE d   1      -1.665   1.341   1.767  0.00  0.00    -0.078 A 
ATOM      4  C2  OXE d   1      -1.276   2.642   1.977  0.00  0.00    -0.078 A 
ATOM      5  C3  OXE d   1      -0.320   3.218   1.147  0.00  0.00     0.003 A 
ATOM      6  C4  OXE d   1       0.135   2.538   0.010  0.00  0.00    -0.002 A 
ATOM      7  C5  OXE d   1      -0.278   1.226  -0.244  0.00  0.00    -0.002 A 
ATOM      8  C6  OXE d   1      -1.143   0.599   0.646  0.00  0.00     0.003 A 
ENDROOT
TORSDOF 0
ENDMDL
