MODEL 1
REMARK minimizedAffinity -3.18967485
REMARK minimizedRMSD -1
REMARK  0 active torsions:
REMARK  status: ('A' for Active; 'I' for Inactive)
ROOT
ATOM      1  C2' OXE d   1      -1.783   0.122   1.683  0.00  0.00     0.078 C 
ATOM      2  C1' OXE d   1       0.009  -1.096  -0.101  0.00  0.00     0.078 C 
ATOM      3  C1  OXE d   1      -0.013   0.411  -0.046  0.00  0.00    -0.078 A 
ATOM      4  C2  OXE d   1      -0.926   0.999   0.796  0.00  0.00    -0.078 A 
ATOM      5  C3  OXE d   1      -0.951   2.385   0.925  0.00  0.00     0.003 A 
ATOM      6  C4  OXE d   1      -0.163   3.189   0.094  0.00  0.00    -0.002 A 
ATOM      7  C5  OXE d   1       0.746   2.611  -0.799  0.00  0.00    -0.002 A 
ATOM      8  C6  OXE d   1       0.863   1.226  -0.851  0.00  0.00     0.003 A 
ENDROOT
TORSDOF 0
ENDMDL
