MODEL 1
REMARK minimizedAffinity -2.36880589
REMARK minimizedRMSD -1
REMARK  0 active torsions:
REMARK  status: ('A' for Active; 'I' for Inactive)
ROOT
ATOM      1  C2' OXE d   1      -2.892  -3.432  -1.211  0.00  0.00     0.078 C 
ATOM      2  C1' OXE d   1      -1.133  -3.223  -3.389  0.00  0.00     0.078 C 
ATOM      3  C1  OXE d   1      -0.739  -2.547  -2.099  0.00  0.00    -0.078 A 
ATOM      4  C2  OXE d   1      -1.627  -2.615  -1.053  0.00  0.00    -0.078 A 
ATOM      5  C3  OXE d   1      -1.289  -2.056   0.176  0.00  0.00     0.003 A 
ATOM      6  C4  OXE d   1      -0.122  -1.294   0.311  0.00  0.00    -0.002 A 
ATOM      7  C5  OXE d   1       0.777  -1.178  -0.754  0.00  0.00    -0.002 A 
ATOM      8  C6  OXE d   1       0.505  -1.833  -1.950  0.00  0.00     0.003 A 
ENDROOT
TORSDOF 0
ENDMDL
