MODEL 1
REMARK minimizedAffinity -3.49704194
REMARK minimizedRMSD -1
REMARK  0 active torsions:
REMARK  status: ('A' for Active; 'I' for Inactive)
ROOT
ATOM      1  C2' OXE d   1      -2.128   1.910   0.602  0.00  0.00     0.078 C 
ATOM      2  C1' OXE d   1       0.179   3.077  -0.492  0.00  0.00     0.078 C 
ATOM      3  C1  OXE d   1       0.193   1.589  -0.245  0.00  0.00    -0.078 A 
ATOM      4  C2  OXE d   1      -0.923   1.034   0.334  0.00  0.00    -0.078 A 
ATOM      5  C3  OXE d   1      -0.984  -0.343   0.533  0.00  0.00     0.003 A 
ATOM      6  C4  OXE d   1       0.139  -1.144   0.291  0.00  0.00    -0.002 A 
ATOM      7  C5  OXE d   1       1.299  -0.592  -0.261  0.00  0.00    -0.002 A 
ATOM      8  C6  OXE d   1       1.328   0.762  -0.574  0.00  0.00     0.003 A 
ENDROOT
TORSDOF 0
ENDMDL
