MODEL 1
REMARK minimizedAffinity 7.06626844
REMARK minimizedRMSD -1
REMARK  0 active torsions:
REMARK  status: ('A' for Active; 'I' for Inactive)
ROOT
ATOM      1  C2' OXE d   1      -2.294   2.820   0.423  0.00  0.00     0.078 C 
ATOM      2  C1' OXE d   1      -1.366   2.266   3.014  0.00  0.00     0.078 C 
ATOM      3  C1  OXE d   1      -0.341   2.424   1.919  0.00  0.00    -0.078 A 
ATOM      4  C2  OXE d   1      -0.806   2.649   0.645  0.00  0.00    -0.078 A 
ATOM      5  C3  OXE d   1       0.098   2.856  -0.392  0.00  0.00     0.003 A 
ATOM      6  C4  OXE d   1       1.472   2.686  -0.180  0.00  0.00    -0.002 A 
ATOM      7  C5  OXE d   1       1.964   2.418   1.102  0.00  0.00    -0.002 A 
ATOM      8  C6  OXE d   1       1.076   2.327   2.168  0.00  0.00     0.003 A 
ENDROOT
TORSDOF 0
ENDMDL
