MODEL 1
REMARK minimizedAffinity 5.55271244
REMARK minimizedRMSD -1
REMARK  0 active torsions:
REMARK  status: ('A' for Active; 'I' for Inactive)
ROOT
ATOM      1  C2' OXE d   1       0.983  -0.047   0.169  0.00  0.00     0.078 C 
ATOM      2  C1' OXE d   1      -0.485   2.322   0.503  0.00  0.00     0.078 C 
ATOM      3  C1  OXE d   1       1.004   2.378   0.738  0.00  0.00    -0.078 A 
ATOM      4  C2  OXE d   1       1.707   1.204   0.618  0.00  0.00    -0.078 A 
ATOM      5  C3  OXE d   1       3.091   1.211   0.771  0.00  0.00     0.003 A 
ATOM      6  C4  OXE d   1       3.751   2.370   1.196  0.00  0.00    -0.002 A 
ATOM      7  C5  OXE d   1       3.048   3.568   1.362  0.00  0.00    -0.002 A 
ATOM      8  C6  OXE d   1       1.683   3.599   1.096  0.00  0.00     0.003 A 
ENDROOT
TORSDOF 0
ENDMDL
