MODEL 1
REMARK minimizedAffinity -2.70832014
REMARK minimizedRMSD -1
REMARK  0 active torsions:
REMARK  status: ('A' for Active; 'I' for Inactive)
ROOT
ATOM      1  C2' OXE d   1       2.505  -0.450   0.826  0.00  0.00     0.078 C 
ATOM      2  C1' OXE d   1       2.585   2.269   1.519  0.00  0.00     0.078 C 
ATOM      3  C1  OXE d   1       1.255   1.685   1.115  0.00  0.00    -0.078 A 
ATOM      4  C2  OXE d   1       1.233   0.365   0.733  0.00  0.00    -0.078 A 
ATOM      5  C3  OXE d   1       0.023  -0.237   0.403  0.00  0.00     0.003 A 
ATOM      6  C4  OXE d   1      -1.147   0.527   0.309  0.00  0.00    -0.002 A 
ATOM      7  C5  OXE d   1      -1.139   1.882   0.656  0.00  0.00    -0.002 A 
ATOM      8  C6  OXE d   1       0.042   2.465   1.101  0.00  0.00     0.003 A 
ENDROOT
TORSDOF 0
ENDMDL
