MODEL 1
REMARK minimizedAffinity -2.57727671
REMARK minimizedRMSD -1
REMARK  0 active torsions:
REMARK  status: ('A' for Active; 'I' for Inactive)
ROOT
ATOM      1  C2' OXE d   1       0.204   3.187   0.019  0.00  0.00     0.078 C 
ATOM      2  C1' OXE d   1       2.427   1.496  -0.266  0.00  0.00     0.078 C 
ATOM      3  C1  OXE d   1       1.079   0.855  -0.044  0.00  0.00    -0.078 A 
ATOM      4  C2  OXE d   1       0.005   1.691   0.141  0.00  0.00    -0.078 A 
ATOM      5  C3  OXE d   1      -1.270   1.152   0.294  0.00  0.00     0.003 A 
ATOM      6  C4  OXE d   1      -1.444  -0.232   0.415  0.00  0.00    -0.002 A 
ATOM      7  C5  OXE d   1      -0.356  -1.100   0.270  0.00  0.00    -0.002 A 
ATOM      8  C6  OXE d   1       0.902  -0.575  -0.002  0.00  0.00     0.003 A 
ENDROOT
TORSDOF 0
ENDMDL
