MODEL 1
REMARK minimizedAffinity 3.24608111
REMARK minimizedRMSD -1
REMARK  0 active torsions:
REMARK  status: ('A' for Active; 'I' for Inactive)
ROOT
ATOM      1  C2' OXE d   1      -1.794   0.886   1.713  0.00  0.00     0.078 C 
ATOM      2  C1' OXE d   1      -3.075   2.429  -0.252  0.00  0.00     0.078 C 
ATOM      3  C1  OXE d   1      -1.569   2.481  -0.187  0.00  0.00    -0.078 A 
ATOM      4  C2  OXE d   1      -0.953   1.760   0.807  0.00  0.00    -0.078 A 
ATOM      5  C3  OXE d   1       0.437   1.730   0.877  0.00  0.00     0.003 A 
ATOM      6  C4  OXE d   1       1.206   2.548   0.042  0.00  0.00    -0.002 A 
ATOM      7  C5  OXE d   1       0.597   3.322  -0.952  0.00  0.00    -0.002 A 
ATOM      8  C6  OXE d   1      -0.784   3.267  -1.107  0.00  0.00     0.003 A 
ENDROOT
TORSDOF 0
ENDMDL
