MODEL 1
REMARK minimizedAffinity -5.42099142
REMARK minimizedRMSD -1
REMARK  0 active torsions:
REMARK  status: ('A' for Active; 'I' for Inactive)
ROOT
ATOM      1  C2' OXE d   1       0.364  -0.876   0.579  0.00  0.00     0.078 C 
ATOM      2  C1' OXE d   1       2.924   0.276   0.609  0.00  0.00     0.078 C 
ATOM      3  C1  OXE d   1       1.740   1.196   0.442  0.00  0.00    -0.078 A 
ATOM      4  C2  OXE d   1       0.495   0.619   0.381  0.00  0.00    -0.078 A 
ATOM      5  C3  OXE d   1      -0.635   1.426   0.283  0.00  0.00     0.003 A 
ATOM      6  C4  OXE d   1      -0.505   2.807   0.090  0.00  0.00    -0.002 A 
ATOM      7  C5  OXE d   1       0.757   3.411   0.109  0.00  0.00    -0.002 A 
ATOM      8  C6  OXE d   1       1.884   2.626   0.326  0.00  0.00     0.003 A 
ENDROOT
TORSDOF 0
ENDMDL
