MODEL 1
REMARK minimizedAffinity 0.644294322
REMARK minimizedRMSD -1
REMARK  0 active torsions:
REMARK  status: ('A' for Active; 'I' for Inactive)
ROOT
ATOM      1  C2' OXE d   1      -1.254   0.698   1.312  0.00  0.00     0.078 C 
ATOM      2  C1' OXE d   1      -2.606   2.583  -0.270  0.00  0.00     0.078 C 
ATOM      3  C1  OXE d   1      -1.098   2.634  -0.248  0.00  0.00    -0.078 A 
ATOM      4  C2  OXE d   1      -0.447   1.738   0.565  0.00  0.00    -0.078 A 
ATOM      5  C3  OXE d   1       0.944   1.706   0.580  0.00  0.00     0.003 A 
ATOM      6  C4  OXE d   1       1.683   2.678  -0.106  0.00  0.00    -0.002 A 
ATOM      7  C5  OXE d   1       1.038   3.624  -0.909  0.00  0.00    -0.002 A 
ATOM      8  C6  OXE d   1      -0.347   3.589  -1.024  0.00  0.00     0.003 A 
ENDROOT
TORSDOF 0
ENDMDL
