MODEL 1
REMARK minimizedAffinity -4.35007858
REMARK minimizedRMSD -1
REMARK  0 active torsions:
REMARK  status: ('A' for Active; 'I' for Inactive)
ROOT
ATOM      1  C2' OXE d   1       0.144   2.996  -0.004  0.00  0.00     0.078 C 
ATOM      2  C1' OXE d   1      -1.894   1.104   0.382  0.00  0.00     0.078 C 
ATOM      3  C1  OXE d   1      -0.481   0.597   0.240  0.00  0.00    -0.078 A 
ATOM      4  C2  OXE d   1       0.504   1.526   0.004  0.00  0.00    -0.078 A 
ATOM      5  C3  OXE d   1       1.832   1.117  -0.080  0.00  0.00     0.003 A 
ATOM      6  C4  OXE d   1       2.155  -0.246  -0.081  0.00  0.00    -0.002 A 
ATOM      7  C5  OXE d   1       1.162  -1.211   0.118  0.00  0.00    -0.002 A 
ATOM      8  C6  OXE d   1      -0.152  -0.805   0.322  0.00  0.00     0.003 A 
ENDROOT
TORSDOF 0
ENDMDL
