MODEL 1
REMARK minimizedAffinity -5.38032627
REMARK minimizedRMSD -1
REMARK  0 active torsions:
REMARK  status: ('A' for Active; 'I' for Inactive)
ROOT
ATOM      1  C2' OXE d   1      -0.995  -3.158   0.654  0.00  0.00     0.078 C 
ATOM      2  C1' OXE d   1      -0.637  -2.796  -2.106  0.00  0.00     0.078 C 
ATOM      3  C1  OXE d   1      -0.640  -1.568  -1.230  0.00  0.00    -0.078 A 
ATOM      4  C2  OXE d   1      -0.862  -1.751   0.114  0.00  0.00    -0.078 A 
ATOM      5  C3  OXE d   1      -0.821  -0.658   0.974  0.00  0.00     0.003 A 
ATOM      6  C4  OXE d   1      -0.708   0.641   0.465  0.00  0.00    -0.002 A 
ATOM      7  C5  OXE d   1      -0.520   0.853  -0.905  0.00  0.00    -0.002 A 
ATOM      8  C6  OXE d   1      -0.441  -0.241  -1.759  0.00  0.00     0.003 A 
ENDROOT
TORSDOF 0
ENDMDL
