MODEL 1
REMARK minimizedAffinity -4.64772224
REMARK minimizedRMSD -1
REMARK  0 active torsions:
REMARK  status: ('A' for Active; 'I' for Inactive)
ROOT
ATOM      1  C2' OXE d   1       0.685   3.827   0.004  0.00  0.00     0.078 C 
ATOM      2  C1' OXE d   1       2.971   2.200  -0.065  0.00  0.00     0.078 C 
ATOM      3  C1  OXE d   1       1.632   1.525   0.098  0.00  0.00    -0.078 A 
ATOM      4  C2  OXE d   1       0.523   2.332   0.177  0.00  0.00    -0.078 A 
ATOM      5  C3  OXE d   1      -0.742   1.758   0.272  0.00  0.00     0.003 A 
ATOM      6  C4  OXE d   1      -0.882   0.376   0.442  0.00  0.00    -0.002 A 
ATOM      7  C5  OXE d   1       0.239  -0.461   0.404  0.00  0.00    -0.002 A 
ATOM      8  C6  OXE d   1       1.496   0.092   0.191  0.00  0.00     0.003 A 
ENDROOT
TORSDOF 0
ENDMDL
