MODEL 1
REMARK minimizedAffinity -2.30281091
REMARK minimizedRMSD -1
REMARK  0 active torsions:
REMARK  status: ('A' for Active; 'I' for Inactive)
ROOT
ATOM      1  C2' OXE d   1       0.582   2.771   0.188  0.00  0.00     0.078 C 
ATOM      2  C1' OXE d   1       2.982   1.326   0.379  0.00  0.00     0.078 C 
ATOM      3  C1  OXE d   1       1.689   0.551   0.416  0.00  0.00    -0.078 A 
ATOM      4  C2  OXE d   1       0.519   1.269   0.369  0.00  0.00    -0.078 A 
ATOM      5  C3  OXE d   1      -0.701   0.600   0.344  0.00  0.00     0.003 A 
ATOM      6  C4  OXE d   1      -0.751  -0.788   0.522  0.00  0.00    -0.002 A 
ATOM      7  C5  OXE d   1       0.428  -1.536   0.612  0.00  0.00    -0.002 A 
ATOM      8  C6  OXE d   1       1.654  -0.887   0.518  0.00  0.00     0.003 A 
ENDROOT
TORSDOF 0
ENDMDL
