MODEL 1
REMARK minimizedAffinity -3.38632202
REMARK minimizedRMSD -1
REMARK  2 active torsions:
REMARK  status: ('A' for Active; 'I' for Inactive)
REMARK    1  A    between atoms: C1_2  and  C2_3 
REMARK    2  A    between atoms: C2_3  and  C3_4 
ROOT
ATOM      1  C3  UNL d   1       0.117  -0.175  -0.757  0.00  0.00    -0.075 A 
ATOM      2  C4  UNL d   1      -0.178   0.903   0.090  0.00  0.00     0.002 A 
ATOM      3  C5  UNL d   1       0.811   1.826   0.432  0.00  0.00     0.002 A 
ATOM      4  C6  UNL d   1       2.107   1.677  -0.059  0.00  0.00    -0.004 A 
ATOM      5  C7  UNL d   1       2.415   0.600  -0.887  0.00  0.00     0.002 A 
ATOM      6  C8  UNL d   1       1.426  -0.322  -1.235  0.00  0.00     0.002 A 
ENDROOT
BRANCH   1   7
ATOM      7  C2  UNL d   1      -0.956  -1.161  -1.155  0.00  0.00     0.056 C 
BRANCH   7   8
ATOM      8  C1  UNL d   1      -1.375  -1.067  -2.626  0.00  0.00     0.007 C 
ATOM      9  C   UNL d   1      -2.882  -1.141  -2.827  0.00  0.00     0.009 C 
ENDBRANCH   7   8
ENDBRANCH   1   7
TORSDOF 2
ENDMDL
