MODEL 1
REMARK minimizedAffinity -4.91548586
REMARK minimizedRMSD -1
REMARK  2 active torsions:
REMARK  status: ('A' for Active; 'I' for Inactive)
REMARK    1  A    between atoms: C1_2  and  C2_3 
REMARK    2  A    between atoms: C2_3  and  C3_4 
ROOT
ATOM      1  C3  UNL d   1      -0.027  -1.068   0.388  0.00  0.00    -0.075 A 
ATOM      2  C4  UNL d   1       1.233  -1.162  -0.222  0.00  0.00     0.002 A 
ATOM      3  C5  UNL d   1       2.079  -0.054  -0.273  0.00  0.00     0.002 A 
ATOM      4  C6  UNL d   1       1.674   1.162   0.274  0.00  0.00    -0.004 A 
ATOM      5  C7  UNL d   1       0.419   1.271   0.867  0.00  0.00     0.002 A 
ATOM      6  C8  UNL d   1      -0.429   0.163   0.924  0.00  0.00     0.002 A 
ENDROOT
BRANCH   1   7
ATOM      7  C2  UNL d   1      -0.936  -2.271   0.473  0.00  0.00     0.056 C 
BRANCH   7   8
ATOM      8  C1  UNL d   1      -0.557  -3.262   1.578  0.00  0.00     0.007 C 
ATOM      9  C   UNL d   1      -1.127  -2.889   2.940  0.00  0.00     0.009 C 
ENDBRANCH   7   8
ENDBRANCH   1   7
TORSDOF 2
ENDMDL
