MODEL 1
REMARK minimizedAffinity -3.61499691
REMARK minimizedRMSD -1
REMARK  2 active torsions:
REMARK  status: ('A' for Active; 'I' for Inactive)
REMARK    1  A    between atoms: C1_2  and  C2_3 
REMARK    2  A    between atoms: C2_3  and  C3_4 
ROOT
ATOM      1  C3  UNL d   1       0.066   0.089  -0.068  0.00  0.00    -0.075 A 
ATOM      2  C4  UNL d   1      -0.369   0.615   1.157  0.00  0.00     0.002 A 
ATOM      3  C5  UNL d   1       0.184   1.794   1.659  0.00  0.00     0.002 A 
ATOM      4  C6  UNL d   1       1.184   2.455   0.948  0.00  0.00    -0.004 A 
ATOM      5  C7  UNL d   1       1.635   1.932  -0.262  0.00  0.00     0.002 A 
ATOM      6  C8  UNL d   1       1.081   0.755  -0.768  0.00  0.00     0.002 A 
ENDROOT
BRANCH   1   7
ATOM      7  C2  UNL d   1      -0.550  -1.170  -0.630  0.00  0.00     0.056 C 
BRANCH   7   8
ATOM      8  C1  UNL d   1      -0.876  -1.091  -2.125  0.00  0.00     0.007 C 
ATOM      9  C   UNL d   1      -2.273  -1.594  -2.462  0.00  0.00     0.009 C 
ENDBRANCH   7   8
ENDBRANCH   1   7
TORSDOF 2
ENDMDL
