MODEL 1
REMARK minimizedAffinity -4.69842005
REMARK minimizedRMSD -1
REMARK  2 active torsions:
REMARK  status: ('A' for Active; 'I' for Inactive)
REMARK    1  A    between atoms: C1_2  and  C2_3 
REMARK    2  A    between atoms: C2_3  and  C3_4 
ROOT
ATOM      1  C3  UNL d   1       0.161   0.005  -0.041  0.00  0.00    -0.075 A 
ATOM      2  C4  UNL d   1      -0.437   0.560   1.100  0.00  0.00     0.002 A 
ATOM      3  C5  UNL d   1       0.065   1.733   1.664  0.00  0.00     0.002 A 
ATOM      4  C6  UNL d   1       1.175   2.360   1.102  0.00  0.00    -0.004 A 
ATOM      5  C7  UNL d   1       1.787   1.809  -0.021  0.00  0.00     0.002 A 
ATOM      6  C8  UNL d   1       1.285   0.638  -0.590  0.00  0.00     0.002 A 
ENDROOT
BRANCH   1   7
ATOM      7  C2  UNL d   1      -0.395  -1.248  -0.674  0.00  0.00     0.056 C 
BRANCH   7   8
ATOM      8  C1  UNL d   1      -0.967  -1.036  -2.079  0.00  0.00     0.007 C 
ATOM      9  C   UNL d   1      -2.261  -1.802  -2.322  0.00  0.00     0.009 C 
ENDBRANCH   7   8
ENDBRANCH   1   7
TORSDOF 2
ENDMDL
