MODEL 1
REMARK minimizedAffinity -4.71288586
REMARK minimizedRMSD -1
REMARK  2 active torsions:
REMARK  status: ('A' for Active; 'I' for Inactive)
REMARK    1  A    between atoms: C1_2  and  C2_3 
REMARK    2  A    between atoms: C2_3  and  C3_4 
ROOT
ATOM      1  C3  UNL d   1       0.219   0.172   0.182  0.00  0.00    -0.075 A 
ATOM      2  C4  UNL d   1      -0.537   0.749   1.213  0.00  0.00     0.002 A 
ATOM      3  C5  UNL d   1      -0.106   1.920   1.836  0.00  0.00     0.002 A 
ATOM      4  C6  UNL d   1       1.088   2.523   1.446  0.00  0.00    -0.004 A 
ATOM      5  C7  UNL d   1       1.855   1.949   0.434  0.00  0.00     0.002 A 
ATOM      6  C8  UNL d   1       1.424   0.779  -0.195  0.00  0.00     0.002 A 
ENDROOT
BRANCH   1   7
ATOM      7  C2  UNL d   1      -0.256  -1.080  -0.517  0.00  0.00     0.056 C 
BRANCH   7   8
ATOM      8  C1  UNL d   1      -0.663  -0.862  -1.978  0.00  0.00     0.007 C 
ATOM      9  C   UNL d   1      -2.031  -1.440  -2.313  0.00  0.00     0.009 C 
ENDBRANCH   7   8
ENDBRANCH   1   7
TORSDOF 2
ENDMDL
