MODEL 1
REMARK minimizedAffinity -2.40634775
REMARK minimizedRMSD -1
REMARK  2 active torsions:
REMARK  status: ('A' for Active; 'I' for Inactive)
REMARK    1  A    between atoms: C1_2  and  C2_3 
REMARK    2  A    between atoms: C2_3  and  C3_4 
ROOT
ATOM      1  C3  UNL d   1      -1.918  -1.678  -1.631  0.00  0.00    -0.075 A 
ATOM      2  C4  UNL d   1      -3.008  -1.422  -2.477  0.00  0.00     0.002 A 
ATOM      3  C5  UNL d   1      -4.192  -2.148  -2.346  0.00  0.00     0.002 A 
ATOM      4  C6  UNL d   1      -4.298  -3.144  -1.378  0.00  0.00    -0.004 A 
ATOM      5  C7  UNL d   1      -3.217  -3.418  -0.544  0.00  0.00     0.002 A 
ATOM      6  C8  UNL d   1      -2.032  -2.690  -0.669  0.00  0.00     0.002 A 
ENDROOT
BRANCH   1   7
ATOM      7  C2  UNL d   1      -0.644  -0.875  -1.748  0.00  0.00     0.056 C 
BRANCH   7   8
ATOM      8  C1  UNL d   1       0.096  -0.684  -0.420  0.00  0.00     0.007 C 
ATOM      9  C   UNL d   1       0.082   0.757   0.073  0.00  0.00     0.009 C 
ENDBRANCH   7   8
ENDBRANCH   1   7
TORSDOF 2
ENDMDL
