MODEL 1
REMARK minimizedAffinity -4.10506535
REMARK minimizedRMSD -1
REMARK  2 active torsions:
REMARK  status: ('A' for Active; 'I' for Inactive)
REMARK    1  A    between atoms: C1_2  and  C2_3 
REMARK    2  A    between atoms: C2_3  and  C3_4 
ROOT
ATOM      1  C3  UNL d   1       0.801   0.872  -0.228  0.00  0.00    -0.075 A 
ATOM      2  C4  UNL d   1       2.084   0.520  -0.672  0.00  0.00     0.002 A 
ATOM      3  C5  UNL d   1       2.356  -0.782  -1.092  0.00  0.00     0.002 A 
ATOM      4  C6  UNL d   1       1.354  -1.750  -1.063  0.00  0.00    -0.004 A 
ATOM      5  C7  UNL d   1       0.080  -1.415  -0.608  0.00  0.00     0.002 A 
ATOM      6  C8  UNL d   1      -0.196  -0.112  -0.192  0.00  0.00     0.002 A 
ENDROOT
BRANCH   1   7
ATOM      7  C2  UNL d   1       0.493   2.287   0.200  0.00  0.00     0.056 C 
BRANCH   7   8
ATOM      8  C1  UNL d   1       1.220   2.726   1.475  0.00  0.00     0.007 C 
ATOM      9  C   UNL d   1       1.015   1.770   2.642  0.00  0.00     0.009 C 
ENDBRANCH   7   8
ENDBRANCH   1   7
TORSDOF 2
ENDMDL
