MODEL 1
REMARK minimizedAffinity -5.56099081
REMARK minimizedRMSD -1
REMARK  2 active torsions:
REMARK  status: ('A' for Active; 'I' for Inactive)
REMARK    1  A    between atoms: C1_2  and  C2_3 
REMARK    2  A    between atoms: C2_3  and  C3_4 
ROOT
ATOM      1  C3  UNL d   1       0.637   0.396   0.107  0.00  0.00    -0.075 A 
ATOM      2  C4  UNL d   1       1.926   0.286  -0.434  0.00  0.00     0.002 A 
ATOM      3  C5  UNL d   1       2.902   1.237  -0.137  0.00  0.00     0.002 A 
ATOM      4  C6  UNL d   1       2.601   2.313   0.695  0.00  0.00    -0.004 A 
ATOM      5  C7  UNL d   1       1.319   2.441   1.225  0.00  0.00     0.002 A 
ATOM      6  C8  UNL d   1       0.341   1.489   0.933  0.00  0.00     0.002 A 
ENDROOT
BRANCH   1   7
ATOM      7  C2  UNL d   1      -0.416  -0.646  -0.187  0.00  0.00     0.056 C 
BRANCH   7   8
ATOM      8  C1  UNL d   1      -0.444  -1.110  -1.647  0.00  0.00     0.007 C 
ATOM      9  C   UNL d   1      -1.854  -1.292  -2.192  0.00  0.00     0.009 C 
ENDBRANCH   7   8
ENDBRANCH   1   7
TORSDOF 2
ENDMDL
