MODEL 1
REMARK minimizedAffinity -3.95690536
REMARK minimizedRMSD -1
REMARK  2 active torsions:
REMARK  status: ('A' for Active; 'I' for Inactive)
REMARK    1  A    between atoms: C1_2  and  C2_3 
REMARK    2  A    between atoms: C2_3  and  C3_4 
ROOT
ATOM      1  C3  UNL d   1       0.197   0.095   0.173  0.00  0.00    -0.075 A 
ATOM      2  C4  UNL d   1       0.743   1.236  -0.433  0.00  0.00     0.002 A 
ATOM      3  C5  UNL d   1       0.674   2.477   0.200  0.00  0.00     0.002 A 
ATOM      4  C6  UNL d   1       0.050   2.596   1.440  0.00  0.00    -0.004 A 
ATOM      5  C7  UNL d   1      -0.511   1.472   2.044  0.00  0.00     0.002 A 
ATOM      6  C8  UNL d   1      -0.439   0.228   1.415  0.00  0.00     0.002 A 
ENDROOT
BRANCH   1   7
ATOM      7  C2  UNL d   1       0.295  -1.256  -0.493  0.00  0.00     0.056 C 
BRANCH   7   8
ATOM      8  C1  UNL d   1      -1.037  -1.780  -1.039  0.00  0.00     0.007 C 
ATOM      9  C   UNL d   1      -1.431  -1.151  -2.368  0.00  0.00     0.009 C 
ENDBRANCH   7   8
ENDBRANCH   1   7
TORSDOF 2
ENDMDL
