MODEL 1
REMARK minimizedAffinity -3.41697097
REMARK minimizedRMSD -1
REMARK  2 active torsions:
REMARK  status: ('A' for Active; 'I' for Inactive)
REMARK    1  A    between atoms: C1_2  and  C2_3 
REMARK    2  A    between atoms: C2_3  and  C3_4 
ROOT
ATOM      1  C3  UNL d   1      -1.218  -2.094  -0.970  0.00  0.00    -0.075 A 
ATOM      2  C4  UNL d   1      -0.621  -1.276  -1.941  0.00  0.00     0.002 A 
ATOM      3  C5  UNL d   1      -1.193  -1.148  -3.207  0.00  0.00     0.002 A 
ATOM      4  C6  UNL d   1      -2.359  -1.841  -3.522  0.00  0.00    -0.004 A 
ATOM      5  C7  UNL d   1      -2.951  -2.669  -2.571  0.00  0.00     0.002 A 
ATOM      6  C8  UNL d   1      -2.384  -2.796  -1.301  0.00  0.00     0.002 A 
ENDROOT
BRANCH   1   7
ATOM      7  C2  UNL d   1      -0.621  -2.214   0.412  0.00  0.00     0.056 C 
BRANCH   7   8
ATOM      8  C1  UNL d   1      -1.124  -3.425   1.205  0.00  0.00     0.007 C 
ATOM      9  C   UNL d   1      -1.477  -3.092   2.649  0.00  0.00     0.009 C 
ENDBRANCH   7   8
ENDBRANCH   1   7
TORSDOF 2
ENDMDL
