MODEL 1
REMARK minimizedAffinity -4.32164097
REMARK minimizedRMSD -1
REMARK  2 active torsions:
REMARK  status: ('A' for Active; 'I' for Inactive)
REMARK    1  A    between atoms: C1_2  and  C2_3 
REMARK    2  A    between atoms: C2_3  and  C3_4 
ROOT
ATOM      1  C3  UNL d   1       0.654   0.116  -0.235  0.00  0.00    -0.075 A 
ATOM      2  C4  UNL d   1      -0.121   0.358   0.909  0.00  0.00     0.002 A 
ATOM      3  C5  UNL d   1      -0.074   1.598   1.547  0.00  0.00     0.002 A 
ATOM      4  C6  UNL d   1       0.754   2.606   1.057  0.00  0.00    -0.004 A 
ATOM      5  C7  UNL d   1       1.540   2.371  -0.069  0.00  0.00     0.002 A 
ATOM      6  C8  UNL d   1       1.492   1.133  -0.712  0.00  0.00     0.002 A 
ENDROOT
BRANCH   1   7
ATOM      7  C2  UNL d   1       0.585  -1.214  -0.947  0.00  0.00     0.056 C 
BRANCH   7   8
ATOM      8  C1  UNL d   1      -0.763  -1.493  -1.619  0.00  0.00     0.007 C 
ATOM      9  C   UNL d   1      -0.744  -1.259  -3.124  0.00  0.00     0.009 C 
ENDBRANCH   7   8
ENDBRANCH   1   7
TORSDOF 2
ENDMDL
