MODEL 1
REMARK minimizedAffinity 1.51162648
REMARK minimizedRMSD -1
REMARK  1 active torsions:
REMARK  status: ('A' for Active; 'I' for Inactive)
REMARK    1  A    between atoms: C1_2  and  C2_3 
ROOT
ATOM      1  C2  UNL d   1       2.094   2.024  -0.910  0.00  0.00    -0.077 A 
ATOM      2  C3  UNL d   1       2.622   1.686   0.344  0.00  0.00     0.002 A 
ATOM      3  C4  UNL d   1       2.897   2.679   1.286  0.00  0.00     0.002 A 
ATOM      4  C5  UNL d   1       2.644   4.016   0.985  0.00  0.00    -0.004 A 
ATOM      5  C6  UNL d   1       2.121   4.362  -0.260  0.00  0.00     0.002 A 
ATOM      6  C7  UNL d   1       1.847   3.371  -1.203  0.00  0.00     0.002 A 
ENDROOT
BRANCH   1   7
ATOM      7  C1  UNL d   1       1.750   0.949  -1.908  0.00  0.00     0.055 C 
ATOM      8  C   UNL d   1       0.458   1.270  -2.644  0.00  0.00     0.019 C 
ENDBRANCH   1   7
TORSDOF 1
ENDMDL
