MODEL 1
REMARK minimizedAffinity -0.32985124
REMARK minimizedRMSD -1
REMARK  1 active torsions:
REMARK  status: ('A' for Active; 'I' for Inactive)
REMARK    1  A    between atoms: C1_2  and  C2_3 
ROOT
ATOM      1  C2  UNL d   1      -4.788   2.016   5.209  0.00  0.00    -0.077 A 
ATOM      2  C3  UNL d   1      -4.483   1.872   3.848  0.00  0.00     0.002 A 
ATOM      3  C4  UNL d   1      -4.863   0.720   3.157  0.00  0.00     0.002 A 
ATOM      4  C5  UNL d   1      -5.554  -0.295   3.817  0.00  0.00    -0.004 A 
ATOM      5  C6  UNL d   1      -5.860  -0.162   5.171  0.00  0.00     0.002 A 
ATOM      6  C7  UNL d   1      -5.479   0.989   5.864  0.00  0.00     0.002 A 
ENDROOT
BRANCH   1   7
ATOM      7  C1  UNL d   1      -4.422   3.279   5.944  0.00  0.00     0.055 C 
ATOM      8  C   UNL d   1      -4.070   4.400   4.977  0.00  0.00     0.019 C 
ENDBRANCH   1   7
TORSDOF 1
ENDMDL
