MODEL 1
REMARK minimizedAffinity -1.97802615
REMARK minimizedRMSD -1
REMARK  1 active torsions:
REMARK  status: ('A' for Active; 'I' for Inactive)
REMARK    1  A    between atoms: C1_2  and  C2_3 
ROOT
ATOM      1  C2  UNL d   1      -4.086   5.816   3.960  0.00  0.00    -0.077 A 
ATOM      2  C3  UNL d   1      -2.904   5.999   3.227  0.00  0.00     0.002 A 
ATOM      3  C4  UNL d   1      -2.930   5.992   1.831  0.00  0.00     0.002 A 
ATOM      4  C5  UNL d   1      -4.135   5.807   1.156  0.00  0.00    -0.004 A 
ATOM      5  C6  UNL d   1      -5.315   5.622   1.875  0.00  0.00     0.002 A 
ATOM      6  C7  UNL d   1      -5.291   5.627   3.271  0.00  0.00     0.002 A 
ENDROOT
BRANCH   1   7
ATOM      7  C1  UNL d   1      -4.068   5.872   5.465  0.00  0.00     0.055 C 
ATOM      8  C   UNL d   1      -2.644   5.917   6.000  0.00  0.00     0.019 C 
ENDBRANCH   1   7
TORSDOF 1
ENDMDL
