MODEL 1
REMARK minimizedAffinity 0.438491195
REMARK minimizedRMSD -1
REMARK  1 active torsions:
REMARK  status: ('A' for Active; 'I' for Inactive)
REMARK    1  A    between atoms: C1_2  and  C2_3 
ROOT
ATOM      1  C2  UNL d   1      -3.688   5.972   3.555  0.00  0.00    -0.077 A 
ATOM      2  C3  UNL d   1      -2.286   5.991   3.583  0.00  0.00     0.002 A 
ATOM      3  C4  UNL d   1      -1.605   5.999   4.802  0.00  0.00     0.002 A 
ATOM      4  C5  UNL d   1      -2.316   5.984   6.000  0.00  0.00    -0.004 A 
ATOM      5  C6  UNL d   1      -3.710   5.967   5.982  0.00  0.00     0.002 A 
ATOM      6  C7  UNL d   1      -4.393   5.960   4.765  0.00  0.00     0.002 A 
ENDROOT
BRANCH   1   7
ATOM      7  C1  UNL d   1      -4.424   5.914   2.241  0.00  0.00     0.055 C 
ATOM      8  C   UNL d   1      -5.930   5.995   2.447  0.00  0.00     0.019 C 
ENDBRANCH   1   7
TORSDOF 1
ENDMDL
