MODEL 1
REMARK minimizedAffinity 4.72848797
REMARK minimizedRMSD -1
REMARK  1 active torsions:
REMARK  status: ('A' for Active; 'I' for Inactive)
REMARK    1  A    between atoms: C1_2  and  C2_3 
ROOT
ATOM      1  C2  UNL d   1      -4.251   5.738   3.584  0.00  0.00    -0.077 A 
ATOM      2  C3  UNL d   1      -4.939   5.872   4.798  0.00  0.00     0.002 A 
ATOM      3  C4  UNL d   1      -4.237   5.999   5.998  0.00  0.00     0.002 A 
ATOM      4  C5  UNL d   1      -2.844   6.000   5.995  0.00  0.00    -0.004 A 
ATOM      5  C6  UNL d   1      -2.150   5.866   4.793  0.00  0.00     0.002 A 
ATOM      6  C7  UNL d   1      -2.850   5.737   3.593  0.00  0.00     0.002 A 
ENDROOT
BRANCH   1   7
ATOM      7  C1  UNL d   1      -5.006   5.650   2.283  0.00  0.00     0.055 C 
ATOM      8  C   UNL d   1      -5.619   4.270   2.092  0.00  0.00     0.019 C 
ENDBRANCH   1   7
TORSDOF 1
ENDMDL
