MODEL 1
REMARK minimizedAffinity 5.49814081
REMARK minimizedRMSD -1
REMARK  1 active torsions:
REMARK  status: ('A' for Active; 'I' for Inactive)
REMARK    1  A    between atoms: C1_2  and  C2_3 
ROOT
ATOM      1  C2  UNL d   1      -3.915   4.819   4.168  0.00  0.00    -0.077 A 
ATOM      2  C3  UNL d   1      -3.777   5.989   3.408  0.00  0.00     0.002 A 
ATOM      3  C4  UNL d   1      -4.134   5.999   2.058  0.00  0.00     0.002 A 
ATOM      4  C5  UNL d   1      -4.635   4.845   1.459  0.00  0.00    -0.004 A 
ATOM      5  C6  UNL d   1      -4.774   3.677   2.206  0.00  0.00     0.002 A 
ATOM      6  C7  UNL d   1      -4.416   3.664   3.555  0.00  0.00     0.002 A 
ENDROOT
BRANCH   1   7
ATOM      7  C1  UNL d   1      -3.577   4.819   5.636  0.00  0.00     0.055 C 
ATOM      8  C   UNL d   1      -2.688   5.999   6.000  0.00  0.00     0.019 C 
ENDBRANCH   1   7
TORSDOF 1
ENDMDL
