MODEL 1
REMARK minimizedAffinity 5.4990325
REMARK minimizedRMSD -1
REMARK  1 active torsions:
REMARK  status: ('A' for Active; 'I' for Inactive)
REMARK    1  A    between atoms: C1_2  and  C2_3 
ROOT
ATOM      1  C2  UNL d   1       0.823   2.056  -3.465  0.00  0.00    -0.077 A 
ATOM      2  C3  UNL d   1       0.020   0.951  -3.153  0.00  0.00     0.002 A 
ATOM      3  C4  UNL d   1       0.512  -0.075  -2.343  0.00  0.00     0.002 A 
ATOM      4  C5  UNL d   1       1.808  -0.002  -1.836  0.00  0.00    -0.004 A 
ATOM      5  C6  UNL d   1       2.616   1.092  -2.143  0.00  0.00     0.002 A 
ATOM      6  C7  UNL d   1       2.125   2.117  -2.953  0.00  0.00     0.002 A 
ENDROOT
BRANCH   1   7
ATOM      7  C1  UNL d   1       0.276   3.186  -4.298  0.00  0.00     0.055 C 
ATOM      8  C   UNL d   1       1.282   3.638  -5.346  0.00  0.00     0.019 C 
ENDBRANCH   1   7
TORSDOF 1
ENDMDL
