MODEL 1
REMARK minimizedAffinity 11.644989
REMARK minimizedRMSD -1
REMARK  1 active torsions:
REMARK  status: ('A' for Active; 'I' for Inactive)
REMARK    1  A    between atoms: C1_2  and  C2_3 
ROOT
ATOM      1  C2  UNL d   1      -3.578   0.055   3.691  0.00  0.00    -0.077 A 
ATOM      2  C3  UNL d   1      -3.502   0.096   5.090  0.00  0.00     0.002 A 
ATOM      3  C4  UNL d   1      -4.665   0.171   5.859  0.00  0.00     0.002 A 
ATOM      4  C5  UNL d   1      -5.912   0.202   5.238  0.00  0.00    -0.004 A 
ATOM      5  C6  UNL d   1      -5.998   0.165   3.847  0.00  0.00     0.002 A 
ATOM      6  C7  UNL d   1      -4.837   0.091   3.077  0.00  0.00     0.002 A 
ENDROOT
BRANCH   1   7
ATOM      7  C1  UNL d   1      -2.327  -0.076   2.862  0.00  0.00     0.055 C 
ATOM      8  C   UNL d   1      -2.590  -0.859   1.584  0.00  0.00     0.019 C 
ENDBRANCH   1   7
TORSDOF 1
ENDMDL
