MODEL 1
REMARK minimizedAffinity -1.27003276
REMARK minimizedRMSD -1
REMARK  1 active torsions:
REMARK  status: ('A' for Active; 'I' for Inactive)
REMARK    1  A    between atoms: C1_2  and  C2_3 
ROOT
ATOM      1  C2  UNL d   1      -4.306   5.988   3.847  0.00  0.00    -0.077 A 
ATOM      2  C3  UNL d   1      -3.149   5.992   3.055  0.00  0.00     0.002 A 
ATOM      3  C4  UNL d   1      -1.886   6.000   3.649  0.00  0.00     0.002 A 
ATOM      4  C5  UNL d   1      -1.767   5.998   5.037  0.00  0.00    -0.004 A 
ATOM      5  C6  UNL d   1      -2.911   5.997   5.834  0.00  0.00     0.002 A 
ATOM      6  C7  UNL d   1      -4.175   5.991   5.242  0.00  0.00     0.002 A 
ENDROOT
BRANCH   1   7
ATOM      7  C1  UNL d   1      -5.669   5.931   3.209  0.00  0.00     0.055 C 
ATOM      8  C   UNL d   1      -5.846   4.657   2.395  0.00  0.00     0.019 C 
ENDBRANCH   1   7
TORSDOF 1
ENDMDL
