MODEL 1
REMARK minimizedAffinity 0.267525345
REMARK minimizedRMSD -1
REMARK  1 active torsions:
REMARK  status: ('A' for Active; 'I' for Inactive)
REMARK    1  A    between atoms: C1_2  and  C2_3 
ROOT
ATOM      1  C2  UNL d   1      -3.900   5.961   3.974  0.00  0.00    -0.077 A 
ATOM      2  C3  UNL d   1      -2.711   5.989   3.232  0.00  0.00     0.002 A 
ATOM      3  C4  UNL d   1      -2.748   6.000   1.837  0.00  0.00     0.002 A 
ATOM      4  C5  UNL d   1      -3.972   5.986   1.171  0.00  0.00    -0.004 A 
ATOM      5  C6  UNL d   1      -5.161   5.956   1.899  0.00  0.00     0.002 A 
ATOM      6  C7  UNL d   1      -5.125   5.944   3.294  0.00  0.00     0.002 A 
ENDROOT
BRANCH   1   7
ATOM      7  C1  UNL d   1      -3.863   5.999   5.479  0.00  0.00     0.055 C 
ATOM      8  C   UNL d   1      -2.435   5.917   6.000  0.00  0.00     0.019 C 
ENDBRANCH   1   7
TORSDOF 1
ENDMDL
