MODEL 1
REMARK minimizedAffinity 3.34492445
REMARK minimizedRMSD -1
REMARK  1 active torsions:
REMARK  status: ('A' for Active; 'I' for Inactive)
REMARK    1  A    between atoms: C1_2  and  C2_3 
ROOT
ATOM      1  C2  UNL d   1      -4.241   5.893   3.113  0.00  0.00    -0.077 A 
ATOM      2  C3  UNL d   1      -2.843   5.899   3.007  0.00  0.00     0.002 A 
ATOM      3  C4  UNL d   1      -2.048   5.954   4.154  0.00  0.00     0.002 A 
ATOM      4  C5  UNL d   1      -2.642   5.998   5.413  0.00  0.00    -0.004 A 
ATOM      5  C6  UNL d   1      -4.031   5.994   5.529  0.00  0.00     0.002 A 
ATOM      6  C7  UNL d   1      -4.827   5.941   4.384  0.00  0.00     0.002 A 
ENDROOT
BRANCH   1   7
ATOM      7  C1  UNL d   1      -5.100   5.785   1.880  0.00  0.00     0.055 C 
ATOM      8  C   UNL d   1      -5.991   4.552   1.933  0.00  0.00     0.019 C 
ENDBRANCH   1   7
TORSDOF 1
ENDMDL
