MODEL 1
REMARK minimizedAffinity 5.62234163
REMARK minimizedRMSD -1
REMARK  1 active torsions:
REMARK  status: ('A' for Active; 'I' for Inactive)
REMARK    1  A    between atoms: C1_2  and  C2_3 
ROOT
ATOM      1  C2  UNL d   1      -3.697   5.966   3.121  0.00  0.00    -0.077 A 
ATOM      2  C3  UNL d   1      -4.199   5.968   4.429  0.00  0.00     0.002 A 
ATOM      3  C4  UNL d   1      -3.328   5.983   5.521  0.00  0.00     0.002 A 
ATOM      4  C5  UNL d   1      -1.950   6.000   5.314  0.00  0.00    -0.004 A 
ATOM      5  C6  UNL d   1      -1.441   5.995   4.016  0.00  0.00     0.002 A 
ATOM      6  C7  UNL d   1      -2.310   5.979   2.925  0.00  0.00     0.002 A 
ENDROOT
BRANCH   1   7
ATOM      7  C1  UNL d   1      -4.635   6.000   1.943  0.00  0.00     0.055 C 
ATOM      8  C   UNL d   1      -5.871   5.149   2.195  0.00  0.00     0.019 C 
ENDBRANCH   1   7
TORSDOF 1
ENDMDL
