MODEL 1
REMARK minimizedAffinity 8.26785564
REMARK minimizedRMSD -1
REMARK  1 active torsions:
REMARK  status: ('A' for Active; 'I' for Inactive)
REMARK    1  A    between atoms: C1_2  and  C2_3 
ROOT
ATOM      1  C2  UNL d   1      -4.499   5.258   2.609  0.00  0.00    -0.077 A 
ATOM      2  C3  UNL d   1      -3.127   5.008   2.464  0.00  0.00     0.002 A 
ATOM      3  C4  UNL d   1      -2.249   5.252   3.521  0.00  0.00     0.002 A 
ATOM      4  C5  UNL d   1      -2.733   5.743   4.732  0.00  0.00    -0.004 A 
ATOM      5  C6  UNL d   1      -4.095   5.997   4.886  0.00  0.00     0.002 A 
ATOM      6  C7  UNL d   1      -4.974   5.755   3.829  0.00  0.00     0.002 A 
ENDROOT
BRANCH   1   7
ATOM      7  C1  UNL d   1      -5.454   4.949   1.486  0.00  0.00     0.055 C 
ATOM      8  C   UNL d   1      -5.867   3.484   1.499  0.00  0.00     0.019 C 
ENDBRANCH   1   7
TORSDOF 1
ENDMDL
