MODEL 1
REMARK minimizedAffinity 4.1128912
REMARK minimizedRMSD -1
REMARK  0 active torsions:
REMARK  status: ('A' for Active; 'I' for Inactive)
ROOT
ATOM      1  C   UNL d   1       0.276   0.579  -1.742  0.00  0.00     0.172 C 
ATOM      2  N   UNL d   1       0.085   1.670  -0.816  0.00  0.00    -0.070 N 
ATOM      3  C1  UNL d   1      -0.270   1.546   0.501  0.00  0.00    -0.004 A 
ATOM      4  C2  UNL d   1      -0.349   2.813   1.038  0.00  0.00    -0.047 A 
ATOM      5  C3  UNL d   1      -0.032   3.730   0.007  0.00  0.00    -0.047 A 
ATOM      6  C4  UNL d   1       0.233   2.995  -1.129  0.00  0.00    -0.004 A 
ENDROOT
TORSDOF 0
ENDMDL
