MODEL 1
REMARK minimizedAffinity 0.979535818
REMARK minimizedRMSD -1
REMARK  0 active torsions:
REMARK  status: ('A' for Active; 'I' for Inactive)
ROOT
ATOM      1  C   UNL d   1      -1.490   1.761   1.383  0.00  0.00     0.172 C 
ATOM      2  N   UNL d   1      -0.856   2.669   0.456  0.00  0.00    -0.070 N 
ATOM      3  C1  UNL d   1      -0.016   2.310  -0.564  0.00  0.00    -0.004 A 
ATOM      4  C2  UNL d   1       0.374   3.461  -1.214  0.00  0.00    -0.047 A 
ATOM      5  C3  UNL d   1      -0.253   4.549  -0.561  0.00  0.00    -0.047 A 
ATOM      6  C4  UNL d   1      -1.008   4.030   0.469  0.00  0.00    -0.004 A 
ENDROOT
TORSDOF 0
ENDMDL
