MODEL 1
REMARK minimizedAffinity 3.99036551
REMARK minimizedRMSD -1
REMARK  0 active torsions:
REMARK  status: ('A' for Active; 'I' for Inactive)
ROOT
ATOM      1  C   UNL d   1       0.989   1.218  -1.258  0.00  0.00     0.172 C 
ATOM      2  N   UNL d   1       0.099   2.128  -0.576  0.00  0.00    -0.070 N 
ATOM      3  C1  UNL d   1      -0.013   3.470  -0.823  0.00  0.00    -0.004 A 
ATOM      4  C2  UNL d   1      -0.966   3.979   0.032  0.00  0.00    -0.047 A 
ATOM      5  C3  UNL d   1      -1.443   2.906   0.821  0.00  0.00    -0.047 A 
ATOM      6  C4  UNL d   1      -0.767   1.772   0.424  0.00  0.00    -0.004 A 
ENDROOT
TORSDOF 0
ENDMDL
