MODEL 1
REMARK minimizedAffinity -0.0526014827
REMARK minimizedRMSD -1
REMARK  0 active torsions:
REMARK  status: ('A' for Active; 'I' for Inactive)
ROOT
ATOM      1  C   UNL d   1      -2.225   1.243   2.844  0.00  0.00     0.172 C 
ATOM      2  N   UNL d   1      -1.674   1.981   1.731  0.00  0.00    -0.070 N 
ATOM      3  C1  UNL d   1      -2.261   3.053   1.115  0.00  0.00    -0.004 A 
ATOM      4  C2  UNL d   1      -1.422   3.471   0.105  0.00  0.00    -0.047 A 
ATOM      5  C3  UNL d   1      -0.291   2.621   0.114  0.00  0.00    -0.047 A 
ATOM      6  C4  UNL d   1      -0.473   1.707   1.131  0.00  0.00    -0.004 A 
ENDROOT
TORSDOF 0
ENDMDL
