MODEL 1
REMARK minimizedAffinity 2.86892796
REMARK minimizedRMSD -1
REMARK  0 active torsions:
REMARK  status: ('A' for Active; 'I' for Inactive)
ROOT
ATOM      1  C   UNL d   1      -1.524  -1.252   3.039  0.00  0.00     0.172 C 
ATOM      2  N   UNL d   1      -1.357   0.025   2.386  0.00  0.00    -0.070 N 
ATOM      3  C1  UNL d   1      -0.163   0.579   2.010  0.00  0.00    -0.004 A 
ATOM      4  C2  UNL d   1      -0.429   1.797   1.422  0.00  0.00    -0.047 A 
ATOM      5  C3  UNL d   1      -1.832   1.981   1.446  0.00  0.00    -0.047 A 
ATOM      6  C4  UNL d   1      -2.382   0.869   2.049  0.00  0.00    -0.004 A 
ENDROOT
TORSDOF 0
ENDMDL
