MODEL 1
REMARK minimizedAffinity -0.484039962
REMARK minimizedRMSD -1
REMARK  0 active torsions:
REMARK  status: ('A' for Active; 'I' for Inactive)
ROOT
ATOM      1  C   UNL d   1      -2.615  -3.000   4.125  0.00  0.00     0.172 C 
ATOM      2  N   UNL d   1      -3.962  -3.365   4.498  0.00  0.00    -0.070 N 
ATOM      3  C1  UNL d   1      -4.820  -4.124   3.748  0.00  0.00    -0.004 A 
ATOM      4  C2  UNL d   1      -6.000  -4.244   4.449  0.00  0.00    -0.047 A 
ATOM      5  C3  UNL d   1      -5.846  -3.533   5.663  0.00  0.00    -0.047 A 
ATOM      6  C4  UNL d   1      -4.575  -2.998   5.667  0.00  0.00    -0.004 A 
ENDROOT
TORSDOF 0
ENDMDL
