MODEL 1
REMARK minimizedAffinity 0.868324339
REMARK minimizedRMSD -1
REMARK  0 active torsions:
REMARK  status: ('A' for Active; 'I' for Inactive)
ROOT
ATOM      1  C   UNL d   1      -1.960   1.306   1.981  0.00  0.00     0.172 C 
ATOM      2  N   UNL d   1      -1.347   2.072   0.921  0.00  0.00    -0.070 N 
ATOM      3  C1  UNL d   1      -1.529   3.410   0.695  0.00  0.00    -0.004 A 
ATOM      4  C2  UNL d   1      -0.774   3.758  -0.404  0.00  0.00    -0.047 A 
ATOM      5  C3  UNL d   1      -0.116   2.589  -0.854  0.00  0.00    -0.047 A 
ATOM      6  C4  UNL d   1      -0.489   1.560  -0.016  0.00  0.00    -0.004 A 
ENDROOT
TORSDOF 0
ENDMDL
