MODEL 1
REMARK minimizedAffinity 0.48725307
REMARK minimizedRMSD -1
REMARK  0 active torsions:
REMARK  status: ('A' for Active; 'I' for Inactive)
ROOT
ATOM      1  C   UNL d   1      -0.606  -1.952   2.933  0.00  0.00     0.172 C 
ATOM      2  N   UNL d   1      -0.782  -0.618   2.410  0.00  0.00    -0.070 N 
ATOM      3  C1  UNL d   1      -1.944   0.105   2.439  0.00  0.00    -0.004 A 
ATOM      4  C2  UNL d   1      -1.699   1.323   1.843  0.00  0.00    -0.047 A 
ATOM      5  C3  UNL d   1      -0.343   1.332   1.441  0.00  0.00    -0.047 A 
ATOM      6  C4  UNL d   1       0.202   0.119   1.804  0.00  0.00    -0.004 A 
ENDROOT
TORSDOF 0
ENDMDL
