MODEL 1
REMARK minimizedAffinity 5.42138195
REMARK minimizedRMSD -1
REMARK  0 active torsions:
REMARK  status: ('A' for Active; 'I' for Inactive)
ROOT
ATOM      1  C   UNL d   1       0.157   2.062  -1.813  0.00  0.00     0.172 C 
ATOM      2  N   UNL d   1      -0.575   0.902  -2.265  0.00  0.00    -0.070 N 
ATOM      3  C1  UNL d   1      -0.145  -0.396  -2.180  0.00  0.00    -0.004 A 
ATOM      4  C2  UNL d   1      -1.127  -1.201  -2.717  0.00  0.00    -0.047 A 
ATOM      5  C3  UNL d   1      -2.182  -0.358  -3.139  0.00  0.00    -0.047 A 
ATOM      6  C4  UNL d   1      -1.814   0.938  -2.847  0.00  0.00    -0.004 A 
ENDROOT
TORSDOF 0
ENDMDL
