MODEL 1
REMARK minimizedAffinity -0.239731044
REMARK minimizedRMSD -1
REMARK  0 active torsions:
REMARK  status: ('A' for Active; 'I' for Inactive)
ROOT
ATOM      1  C   UNL d   1      -2.485   2.671  -3.682  0.00  0.00     0.172 C 
ATOM      2  N   UNL d   1      -1.548   1.770  -3.054  0.00  0.00    -0.070 N 
ATOM      3  C1  UNL d   1      -0.458   2.141  -2.314  0.00  0.00    -0.004 A 
ATOM      4  C2  UNL d   1       0.177   0.993  -1.892  0.00  0.00    -0.047 A 
ATOM      5  C3  UNL d   1      -0.557  -0.106  -2.396  0.00  0.00    -0.047 A 
ATOM      6  C4  UNL d   1      -1.620   0.403  -3.112  0.00  0.00    -0.004 A 
ENDROOT
TORSDOF 0
ENDMDL
