MODEL 1
REMARK minimizedAffinity 0.954756439
REMARK minimizedRMSD -1
REMARK  0 active torsions:
REMARK  status: ('A' for Active; 'I' for Inactive)
ROOT
ATOM      1  C   UNL d   1       0.170   2.288  -1.747  0.00  0.00     0.172 C 
ATOM      2  N   UNL d   1      -0.354   1.131  -2.432  0.00  0.00    -0.070 N 
ATOM      3  C1  UNL d   1       0.316   0.382  -3.362  0.00  0.00    -0.004 A 
ATOM      4  C2  UNL d   1      -0.525  -0.629  -3.776  0.00  0.00    -0.047 A 
ATOM      5  C3  UNL d   1      -1.743  -0.481  -3.071  0.00  0.00    -0.047 A 
ATOM      6  C4  UNL d   1      -1.610   0.616  -2.246  0.00  0.00    -0.004 A 
ENDROOT
TORSDOF 0
ENDMDL
