MODEL 1
REMARK minimizedAffinity 4.00156116
REMARK minimizedRMSD -1
REMARK  0 active torsions:
REMARK  status: ('A' for Active; 'I' for Inactive)
ROOT
ATOM      1  C   UNL d   1      -1.080   2.272   0.453  0.00  0.00     0.172 C 
ATOM      2  N   UNL d   1      -0.870   1.522  -0.762  0.00  0.00    -0.070 N 
ATOM      3  C1  UNL d   1       0.266   1.542  -1.527  0.00  0.00    -0.004 A 
ATOM      4  C2  UNL d   1       0.070   0.695  -2.596  0.00  0.00    -0.047 A 
ATOM      5  C3  UNL d   1      -1.229   0.148  -2.471  0.00  0.00    -0.047 A 
ATOM      6  C4  UNL d   1      -1.789   0.677  -1.327  0.00  0.00    -0.004 A 
ENDROOT
TORSDOF 0
ENDMDL
