MODEL 1
REMARK minimizedAffinity 3.40834141
REMARK minimizedRMSD -1
REMARK  0 active torsions:
REMARK  status: ('A' for Active; 'I' for Inactive)
ROOT
ATOM      1  C   UNL d   1      -1.587   1.624   1.997  0.00  0.00     0.172 C 
ATOM      2  N   UNL d   1      -1.039   2.409   0.916  0.00  0.00    -0.070 N 
ATOM      3  C1  UNL d   1      -0.957   3.776   0.883  0.00  0.00    -0.004 A 
ATOM      4  C2  UNL d   1      -0.374   4.135  -0.313  0.00  0.00    -0.047 A 
ATOM      5  C3  UNL d   1      -0.097   2.943  -1.024  0.00  0.00    -0.047 A 
ATOM      6  C4  UNL d   1      -0.518   1.890  -0.240  0.00  0.00    -0.004 A 
ENDROOT
TORSDOF 0
ENDMDL
