MODEL 1
REMARK minimizedAffinity 1.63362372
REMARK minimizedRMSD -1
REMARK  0 active torsions:
REMARK  status: ('A' for Active; 'I' for Inactive)
ROOT
ATOM      1  C   UNL d   1       0.254   0.768  -1.837  0.00  0.00     0.172 C 
ATOM      2  N   UNL d   1       0.109   2.168  -1.513  0.00  0.00    -0.070 N 
ATOM      3  C1  UNL d   1      -0.179   2.675  -0.274  0.00  0.00    -0.004 A 
ATOM      4  C2  UNL d   1      -0.232   4.048  -0.382  0.00  0.00    -0.047 A 
ATOM      5  C3  UNL d   1       0.033   4.378  -1.732  0.00  0.00    -0.047 A 
ATOM      6  C4  UNL d   1       0.241   3.195  -2.410  0.00  0.00    -0.004 A 
ENDROOT
TORSDOF 0
ENDMDL
