MODEL 1
REMARK minimizedAffinity 3.70826101
REMARK minimizedRMSD -1
REMARK  0 active torsions:
REMARK  status: ('A' for Active; 'I' for Inactive)
ROOT
ATOM      1  C   UNL d   1       1.701   0.082   2.219  0.00  0.00     0.172 C 
ATOM      2  N   UNL d   1       0.617   0.931   2.656  0.00  0.00    -0.070 N 
ATOM      3  C1  UNL d   1       0.635   1.746   3.756  0.00  0.00    -0.004 A 
ATOM      4  C2  UNL d   1      -0.584   2.386   3.826  0.00  0.00    -0.047 A 
ATOM      5  C3  UNL d   1      -1.361   1.939   2.732  0.00  0.00    -0.047 A 
ATOM      6  C4  UNL d   1      -0.594   1.039   2.023  0.00  0.00    -0.004 A 
ENDROOT
TORSDOF 0
ENDMDL
