MODEL 1
REMARK minimizedAffinity 2.83844924
REMARK minimizedRMSD -1
REMARK  0 active torsions:
REMARK  status: ('A' for Active; 'I' for Inactive)
ROOT
ATOM      1  C   UNL d   1       1.435   1.088  -3.873  0.00  0.00     0.172 C 
ATOM      2  N   UNL d   1       0.921   1.264  -2.535  0.00  0.00    -0.070 N 
ATOM      3  C1  UNL d   1       1.023   0.356  -1.515  0.00  0.00    -0.004 A 
ATOM      4  C2  UNL d   1       0.411   0.897  -0.405  0.00  0.00    -0.047 A 
ATOM      5  C3  UNL d   1      -0.077   2.174  -0.772  0.00  0.00    -0.047 A 
ATOM      6  C4  UNL d   1       0.253   2.376  -2.095  0.00  0.00    -0.004 A 
ENDROOT
TORSDOF 0
ENDMDL
