MODEL 1
REMARK minimizedAffinity 1.37175488
REMARK minimizedRMSD -1
REMARK  0 active torsions:
REMARK  status: ('A' for Active; 'I' for Inactive)
ROOT
ATOM      1  C   UNL d   1      -3.740   5.927   6.000  0.00  0.00     0.077 C 
ATOM      2  C1  UNL d   1      -2.453   5.546   5.331  0.00  0.00    -0.074 A 
ATOM      3  C2  UNL d   1      -2.451   4.831   4.130  0.00  0.00    -0.005 A 
ATOM      4  C3  UNL d   1      -1.245   4.492   3.515  0.00  0.00     0.006 A 
ATOM      5  C4  UNL d   1      -0.032   4.865   4.094  0.00  0.00    -0.005 A 
ATOM      6  C5  UNL d   1      -0.014   5.582   5.294  0.00  0.00    -0.074 A 
ATOM      7  C6  UNL d   1       1.281   5.999   5.925  0.00  0.00     0.077 C 
ATOM      8  C7  UNL d   1      -1.230   5.924   5.903  0.00  0.00    -0.001 A 
ENDROOT
TORSDOF 0
ENDMDL
