MODEL 1
REMARK minimizedAffinity 1.10997009
REMARK minimizedRMSD -1
REMARK  0 active torsions:
REMARK  status: ('A' for Active; 'I' for Inactive)
ROOT
ATOM      1  C   UNL d   1       1.577  -1.738   0.577  0.00  0.00     0.077 C 
ATOM      2  C1  UNL d   1       2.145  -2.881   1.365  0.00  0.00    -0.074 A 
ATOM      3  C2  UNL d   1       3.520  -2.980   1.598  0.00  0.00    -0.005 A 
ATOM      4  C3  UNL d   1       4.033  -4.044   2.340  0.00  0.00     0.006 A 
ATOM      5  C4  UNL d   1       3.176  -5.017   2.857  0.00  0.00    -0.005 A 
ATOM      6  C5  UNL d   1       1.798  -4.934   2.635  0.00  0.00    -0.074 A 
ATOM      7  C6  UNL d   1       0.863  -5.965   3.192  0.00  0.00     0.077 C 
ATOM      8  C7  UNL d   1       1.290  -3.858   1.894  0.00  0.00    -0.001 A 
ENDROOT
TORSDOF 0
ENDMDL
