MODEL 1
REMARK minimizedAffinity 1.49368274
REMARK minimizedRMSD -1
REMARK  0 active torsions:
REMARK  status: ('A' for Active; 'I' for Inactive)
ROOT
ATOM      1  C   UNL d   1      -3.143   2.543   6.000  0.00  0.00     0.077 C 
ATOM      2  C1  UNL d   1      -2.332   3.749   5.631  0.00  0.00    -0.074 A 
ATOM      3  C2  UNL d   1      -2.917   4.835   4.972  0.00  0.00    -0.005 A 
ATOM      4  C3  UNL d   1      -2.152   5.954   4.644  0.00  0.00     0.006 A 
ATOM      5  C4  UNL d   1      -0.796   5.999   4.971  0.00  0.00    -0.005 A 
ATOM      6  C5  UNL d   1      -0.194   4.923   5.631  0.00  0.00    -0.074 A 
ATOM      7  C6  UNL d   1       1.260   4.960   5.999  0.00  0.00     0.077 C 
ATOM      8  C7  UNL d   1      -0.971   3.805   5.963  0.00  0.00    -0.001 A 
ENDROOT
TORSDOF 0
ENDMDL
