MODEL 1
REMARK minimizedAffinity -0.374798894
REMARK minimizedRMSD -1
REMARK  0 active torsions:
REMARK  status: ('A' for Active; 'I' for Inactive)
ROOT
ATOM      1  C   UNL d   1      -2.985   4.340   5.997  0.00  0.00     0.077 C 
ATOM      2  C1  UNL d   1      -1.731   4.668   5.242  0.00  0.00    -0.074 A 
ATOM      3  C2  UNL d   1      -1.664   4.507   3.855  0.00  0.00    -0.005 A 
ATOM      4  C3  UNL d   1      -0.493   4.824   3.166  0.00  0.00     0.006 A 
ATOM      5  C4  UNL d   1       0.620   5.306   3.856  0.00  0.00    -0.005 A 
ATOM      6  C5  UNL d   1       0.571   5.474   5.243  0.00  0.00    -0.074 A 
ATOM      7  C6  UNL d   1       1.755   5.999   5.999  0.00  0.00     0.077 C 
ATOM      8  C7  UNL d   1      -0.611   5.159   5.928  0.00  0.00    -0.001 A 
ENDROOT
TORSDOF 0
ENDMDL
