MODEL 1
REMARK minimizedAffinity 5.83214664
REMARK minimizedRMSD -1
REMARK  0 active torsions:
REMARK  status: ('A' for Active; 'I' for Inactive)
ROOT
ATOM      1  C   UNL d   1       0.511   4.760   3.125  0.00  0.00     0.077 C 
ATOM      2  C1  UNL d   1      -0.599   4.780   4.133  0.00  0.00    -0.074 A 
ATOM      3  C2  UNL d   1      -1.051   5.985   4.681  0.00  0.00    -0.005 A 
ATOM      4  C3  UNL d   1      -2.092   5.988   5.610  0.00  0.00     0.006 A 
ATOM      5  C4  UNL d   1      -2.690   4.789   5.999  0.00  0.00    -0.005 A 
ATOM      6  C5  UNL d   1      -2.252   3.575   5.461  0.00  0.00    -0.074 A 
ATOM      7  C6  UNL d   1      -2.890   2.278   5.862  0.00  0.00     0.077 C 
ATOM      8  C7  UNL d   1      -1.210   3.580   4.523  0.00  0.00    -0.001 A 
ENDROOT
TORSDOF 0
ENDMDL
