MODEL 1
REMARK minimizedAffinity -3.41436553
REMARK minimizedRMSD -1
REMARK  0 active torsions:
REMARK  status: ('A' for Active; 'I' for Inactive)
ROOT
ATOM      1  C   UNL d   1       5.267  -6.000   0.439  0.00  0.00     0.077 C 
ATOM      2  C1  UNL d   1       4.717  -4.689   0.918  0.00  0.00    -0.074 A 
ATOM      3  C2  UNL d   1       5.569  -3.661   1.332  0.00  0.00    -0.005 A 
ATOM      4  C3  UNL d   1       5.044  -2.443   1.765  0.00  0.00     0.006 A 
ATOM      5  C4  UNL d   1       3.663  -2.243   1.789  0.00  0.00    -0.005 A 
ATOM      6  C5  UNL d   1       2.795  -3.259   1.377  0.00  0.00    -0.074 A 
ATOM      7  C6  UNL d   1       1.309  -3.056   1.386  0.00  0.00     0.077 C 
ATOM      8  C7  UNL d   1       3.331  -4.477   0.936  0.00  0.00    -0.001 A 
ENDROOT
TORSDOF 0
ENDMDL
