MODEL 1
REMARK minimizedAffinity -1.48204756
REMARK minimizedRMSD -1
REMARK  0 active torsions:
REMARK  status: ('A' for Active; 'I' for Inactive)
ROOT
ATOM      1  C   UNL d   1      -1.597   6.000   5.977  0.00  0.00     0.077 C 
ATOM      2  C1  UNL d   1      -0.328   5.675   5.247  0.00  0.00    -0.074 A 
ATOM      3  C2  UNL d   1      -0.359   5.097   3.974  0.00  0.00    -0.005 A 
ATOM      4  C3  UNL d   1       0.830   4.809   3.303  0.00  0.00     0.006 A 
ATOM      5  C4  UNL d   1       2.059   5.096   3.897  0.00  0.00    -0.005 A 
ATOM      6  C5  UNL d   1       2.110   5.676   5.169  0.00  0.00    -0.074 A 
ATOM      7  C6  UNL d   1       3.423   6.000   5.817  0.00  0.00     0.077 C 
ATOM      8  C7  UNL d   1       0.911   5.968   5.834  0.00  0.00    -0.001 A 
ENDROOT
TORSDOF 0
ENDMDL
