MODEL 1
REMARK minimizedAffinity 4.92104101
REMARK minimizedRMSD -1
REMARK  0 active torsions:
REMARK  status: ('A' for Active; 'I' for Inactive)
ROOT
ATOM      1  C   UNL d   1       2.879   5.979   5.123  0.00  0.00     0.077 C 
ATOM      2  C1  UNL d   1       1.485   5.679   4.658  0.00  0.00    -0.074 A 
ATOM      3  C2  UNL d   1       1.253   5.104   3.404  0.00  0.00    -0.005 A 
ATOM      4  C3  UNL d   1      -0.049   4.822   2.990  0.00  0.00     0.006 A 
ATOM      5  C4  UNL d   1      -1.130   5.111   3.823  0.00  0.00    -0.005 A 
ATOM      6  C5  UNL d   1      -0.917   5.684   5.081  0.00  0.00    -0.074 A 
ATOM      7  C6  UNL d   1      -2.067   5.992   5.993  0.00  0.00     0.077 C 
ATOM      8  C7  UNL d   1       0.394   5.959   5.493  0.00  0.00    -0.001 A 
ENDROOT
TORSDOF 0
ENDMDL
