MODEL 1
REMARK minimizedAffinity -4.61306381
REMARK minimizedRMSD -1
REMARK  0 active torsions:
REMARK  status: ('A' for Active; 'I' for Inactive)
ROOT
ATOM      1  C   UNL d   1      -3.433   2.318   5.998  0.00  0.00     0.077 C 
ATOM      2  C1  UNL d   1      -2.879   3.603   5.459  0.00  0.00    -0.074 A 
ATOM      3  C2  UNL d   1      -3.708   4.710   5.246  0.00  0.00    -0.005 A 
ATOM      4  C3  UNL d   1      -3.176   5.901   4.754  0.00  0.00     0.006 A 
ATOM      5  C4  UNL d   1      -1.814   5.999   4.469  0.00  0.00    -0.005 A 
ATOM      6  C5  UNL d   1      -0.970   4.903   4.676  0.00  0.00    -0.074 A 
ATOM      7  C6  UNL d   1       0.499   4.994   4.385  0.00  0.00     0.077 C 
ATOM      8  C7  UNL d   1      -1.510   3.711   5.178  0.00  0.00    -0.001 A 
ENDROOT
TORSDOF 0
ENDMDL
