MODEL 1
REMARK minimizedAffinity 2.02703238
REMARK minimizedRMSD -1
REMARK  0 active torsions:
REMARK  status: ('A' for Active; 'I' for Inactive)
ROOT
ATOM      1  C   UNL d   1      -0.244  -3.731   1.853  0.00  0.00     0.077 C 
ATOM      2  C1  UNL d   1       0.958  -2.955   1.404  0.00  0.00    -0.074 A 
ATOM      3  C2  UNL d   1       0.862  -1.592   1.102  0.00  0.00    -0.005 A 
ATOM      4  C3  UNL d   1       1.991  -0.881   0.694  0.00  0.00     0.006 A 
ATOM      5  C4  UNL d   1       3.224  -1.524   0.584  0.00  0.00    -0.005 A 
ATOM      6  C5  UNL d   1       3.340  -2.885   0.883  0.00  0.00    -0.074 A 
ATOM      7  C6  UNL d   1       4.660  -3.589   0.779  0.00  0.00     0.077 C 
ATOM      8  C7  UNL d   1       2.203  -3.591   1.298  0.00  0.00    -0.001 A 
ENDROOT
TORSDOF 0
ENDMDL
