MODEL 1
REMARK minimizedAffinity 4.10616922
REMARK minimizedRMSD -1
REMARK  0 active torsions:
REMARK  status: ('A' for Active; 'I' for Inactive)
ROOT
ATOM      1  C   UNL d   1      -0.038   5.183   5.999  0.00  0.00     0.077 C 
ATOM      2  C1  UNL d   1      -1.517   4.936   5.983  0.00  0.00    -0.074 A 
ATOM      3  C2  UNL d   1      -2.424   6.000   5.945  0.00  0.00    -0.005 A 
ATOM      4  C3  UNL d   1      -3.797   5.754   5.921  0.00  0.00     0.006 A 
ATOM      5  C4  UNL d   1      -4.276   4.443   5.935  0.00  0.00    -0.005 A 
ATOM      6  C5  UNL d   1      -3.384   3.366   5.972  0.00  0.00    -0.074 A 
ATOM      7  C6  UNL d   1      -3.883   1.951   5.978  0.00  0.00     0.077 C 
ATOM      8  C7  UNL d   1      -2.006   3.622   5.989  0.00  0.00    -0.001 A 
ENDROOT
TORSDOF 0
ENDMDL
