MODEL 1
REMARK minimizedAffinity 8.57087612
REMARK minimizedRMSD -1
REMARK  0 active torsions:
REMARK  status: ('A' for Active; 'I' for Inactive)
ROOT
ATOM      1  C   UNL d   1       1.134   0.420   3.018  0.00  0.00     0.077 C 
ATOM      2  C1  UNL d   1       1.400  -0.820   2.218  0.00  0.00    -0.074 A 
ATOM      3  C2  UNL d   1       2.053  -0.753   0.983  0.00  0.00    -0.005 A 
ATOM      4  C3  UNL d   1       2.302  -1.916   0.255  0.00  0.00     0.006 A 
ATOM      5  C4  UNL d   1       1.902  -3.156   0.754  0.00  0.00    -0.005 A 
ATOM      6  C5  UNL d   1       1.249  -3.244   1.987  0.00  0.00    -0.074 A 
ATOM      7  C6  UNL d   1       0.822  -4.570   2.542  0.00  0.00     0.077 C 
ATOM      8  C7  UNL d   1       1.009  -2.071   2.716  0.00  0.00    -0.001 A 
ENDROOT
TORSDOF 0
ENDMDL
