MODEL 1
REMARK minimizedAffinity 6.11144066
REMARK minimizedRMSD -1
REMARK  1 active torsions:
REMARK  status: ('A' for Active; 'I' for Inactive)
REMARK    1  A    between atoms: C1_2  and  C2_3 
ROOT
ATOM      1  C2  UNL d   1      -0.852   1.588  -0.306  0.00  0.00    -0.073 A 
ATOM      2  C3  UNL d   1       0.005   2.608  -0.735  0.00  0.00    -0.002 A 
ATOM      3  C4  UNL d   1       1.307   2.690  -0.240  0.00  0.00     0.004 A 
ATOM      4  C5  UNL d   1       1.768   1.750   0.683  0.00  0.00    -0.004 A 
ATOM      5  C6  UNL d   1       0.931   0.717   1.114  0.00  0.00    -0.075 A 
ATOM      6  C7  UNL d   1       1.410  -0.301   2.108  0.00  0.00     0.076 C 
ATOM      7  C8  UNL d   1      -0.376   0.643   0.615  0.00  0.00     0.001 A 
ENDROOT
BRANCH   1   8
ATOM      8  C1  UNL d   1      -2.256   1.492  -0.842  0.00  0.00     0.053 C 
ATOM      9  C   UNL d   1      -2.299   0.834  -2.213  0.00  0.00     0.018 C 
ENDBRANCH   1   8
TORSDOF 1
ENDMDL
