MODEL 1
REMARK minimizedAffinity -5.04569817
REMARK minimizedRMSD -1
REMARK  1 active torsions:
REMARK  status: ('A' for Active; 'I' for Inactive)
REMARK    1  A    between atoms: C1_2  and  C2_3 
ROOT
ATOM      1  C2  UNL d   1       1.966  -0.762   1.650  0.00  0.00    -0.073 A 
ATOM      2  C3  UNL d   1       1.196  -0.348   0.558  0.00  0.00    -0.002 A 
ATOM      3  C4  UNL d   1       0.946   1.008   0.344  0.00  0.00     0.004 A 
ATOM      4  C5  UNL d   1       1.469   1.964   1.215  0.00  0.00    -0.004 A 
ATOM      5  C6  UNL d   1       2.252   1.571   2.306  0.00  0.00    -0.075 A 
ATOM      6  C7  UNL d   1       2.820   2.587   3.253  0.00  0.00     0.076 C 
ATOM      7  C8  UNL d   1       2.495   0.207   2.515  0.00  0.00     0.001 A 
ENDROOT
BRANCH   1   8
ATOM      8  C1  UNL d   1       2.244  -2.225   1.882  0.00  0.00     0.053 C 
ATOM      9  C   UNL d   1       0.965  -3.023   2.077  0.00  0.00     0.018 C 
ENDBRANCH   1   8
TORSDOF 1
ENDMDL
