MODEL 1
REMARK minimizedAffinity 3.06154966
REMARK minimizedRMSD -1
REMARK  1 active torsions:
REMARK  status: ('A' for Active; 'I' for Inactive)
REMARK    1  A    between atoms: C1_2  and  C2_3 
ROOT
ATOM      1  C2  UNL d   1      -4.872   3.529  -2.349  0.00  0.00    -0.073 A 
ATOM      2  C3  UNL d   1      -5.021   3.040  -3.652  0.00  0.00    -0.002 A 
ATOM      3  C4  UNL d   1      -4.288   1.931  -4.076  0.00  0.00     0.004 A 
ATOM      4  C5  UNL d   1      -3.406   1.296  -3.201  0.00  0.00    -0.004 A 
ATOM      5  C6  UNL d   1      -3.253   1.763  -1.892  0.00  0.00    -0.075 A 
ATOM      6  C7  UNL d   1      -2.307   1.092  -0.939  0.00  0.00     0.076 C 
ATOM      7  C8  UNL d   1      -3.991   2.879  -1.475  0.00  0.00     0.001 A 
ENDROOT
BRANCH   1   8
ATOM      8  C1  UNL d   1      -5.666   4.723  -1.885  0.00  0.00     0.053 C 
ATOM      9  C   UNL d   1      -4.840   5.999  -1.904  0.00  0.00     0.018 C 
ENDBRANCH   1   8
TORSDOF 1
ENDMDL
