MODEL 1
REMARK minimizedAffinity -6.30299711
REMARK minimizedRMSD -1
REMARK  1 active torsions:
REMARK  status: ('A' for Active; 'I' for Inactive)
REMARK    1  A    between atoms: C1_2  and  C2_3 
ROOT
ATOM      1  C2  UNL d   1       1.307  -0.030   0.810  0.00  0.00    -0.073 A 
ATOM      2  C3  UNL d   1       2.642   0.350   0.984  0.00  0.00    -0.002 A 
ATOM      3  C4  UNL d   1       3.495  -0.414   1.782  0.00  0.00     0.004 A 
ATOM      4  C5  UNL d   1       3.024  -1.568   2.407  0.00  0.00    -0.004 A 
ATOM      5  C6  UNL d   1       1.696  -1.972   2.236  0.00  0.00    -0.075 A 
ATOM      6  C7  UNL d   1       1.174  -3.210   2.904  0.00  0.00     0.076 C 
ATOM      7  C8  UNL d   1       0.845  -1.197   1.436  0.00  0.00     0.001 A 
ENDROOT
BRANCH   1   8
ATOM      8  C1  UNL d   1       0.384   0.788  -0.055  0.00  0.00     0.053 C 
ATOM      9  C   UNL d   1      -0.992   0.153  -0.181  0.00  0.00     0.018 C 
ENDBRANCH   1   8
TORSDOF 1
ENDMDL
