MODEL 1
REMARK minimizedAffinity 6.2163806
REMARK minimizedRMSD -1
REMARK  0 active torsions:
REMARK  status: ('A' for Active; 'I' for Inactive)
ROOT
ATOM      1  C   UNL d   1      -0.368  -6.000   2.611  0.00  0.00     0.172 C 
ATOM      2  N   UNL d   1      -0.792  -5.017   1.642  0.00  0.00    -0.070 N 
ATOM      3  C1  UNL d   1      -1.069  -5.264   0.324  0.00  0.00    -0.004 A 
ATOM      4  C2  UNL d   1      -1.438  -4.072  -0.260  0.00  0.00    -0.047 A 
ATOM      5  C3  UNL d   1      -1.380  -3.074   0.741  0.00  0.00    -0.047 A 
ATOM      6  C4  UNL d   1      -0.977  -3.686   1.909  0.00  0.00    -0.004 A 
ENDROOT
TORSDOF 0
ENDMDL
