MODEL 1
REMARK minimizedAffinity 1.09128201
REMARK minimizedRMSD -1
REMARK  0 active torsions:
REMARK  status: ('A' for Active; 'I' for Inactive)
ROOT
ATOM      1  C   UNL d   1      -1.888  -2.929   3.520  0.00  0.00     0.172 C 
ATOM      2  N   UNL d   1      -1.331  -3.458   2.297  0.00  0.00    -0.070 N 
ATOM      3  C1  UNL d   1      -1.304  -2.814   1.089  0.00  0.00    -0.004 A 
ATOM      4  C2  UNL d   1      -0.691  -3.650   0.180  0.00  0.00    -0.047 A 
ATOM      5  C3  UNL d   1      -0.340  -4.837   0.865  0.00  0.00    -0.047 A 
ATOM      6  C4  UNL d   1      -0.748  -4.691   2.174  0.00  0.00    -0.004 A 
ENDROOT
TORSDOF 0
ENDMDL
