MODEL 1
REMARK minimizedAffinity 10.4188032
REMARK minimizedRMSD -1
REMARK  0 active torsions:
REMARK  status: ('A' for Active; 'I' for Inactive)
ROOT
ATOM      1  C   UNL d   1      -0.770  -5.996   3.268  0.00  0.00     0.172 C 
ATOM      2  N   UNL d   1      -0.759  -5.346   1.979  0.00  0.00    -0.070 N 
ATOM      3  C1  UNL d   1      -0.799  -3.994   1.766  0.00  0.00    -0.004 A 
ATOM      4  C2  UNL d   1      -0.771  -3.780   0.405  0.00  0.00    -0.047 A 
ATOM      5  C3  UNL d   1      -0.714  -5.048  -0.222  0.00  0.00    -0.047 A 
ATOM      6  C4  UNL d   1      -0.708  -5.999   0.776  0.00  0.00    -0.004 A 
ENDROOT
TORSDOF 0
ENDMDL
