MODEL 1
REMARK minimizedAffinity -0.219633833
REMARK minimizedRMSD -1
REMARK  0 active torsions:
REMARK  status: ('A' for Active; 'I' for Inactive)
ROOT
ATOM      1  C   UNL d   1      -3.985   5.978  -3.128  0.00  0.00     0.172 C 
ATOM      2  N   UNL d   1      -4.604   5.396  -4.296  0.00  0.00    -0.070 N 
ATOM      3  C1  UNL d   1      -4.188   4.261  -4.939  0.00  0.00    -0.004 A 
ATOM      4  C2  UNL d   1      -5.039   4.041  -6.000  0.00  0.00    -0.047 A 
ATOM      5  C3  UNL d   1      -6.000   5.080  -5.995  0.00  0.00    -0.047 A 
ATOM      6  C4  UNL d   1      -5.707   5.905  -4.930  0.00  0.00    -0.004 A 
ENDROOT
TORSDOF 0
ENDMDL
