MODEL 1
REMARK minimizedAffinity 8.32506847
REMARK minimizedRMSD -1
REMARK  0 active torsions:
REMARK  status: ('A' for Active; 'I' for Inactive)
ROOT
ATOM      1  C   UNL d   1      -0.604  -4.504   0.945  0.00  0.00     0.172 C 
ATOM      2  N   UNL d   1      -1.229  -3.247   0.607  0.00  0.00    -0.070 N 
ATOM      3  C1  UNL d   1      -0.858  -2.422  -0.421  0.00  0.00    -0.004 A 
ATOM      4  C2  UNL d   1      -1.698  -1.329  -0.409  0.00  0.00    -0.047 A 
ATOM      5  C3  UNL d   1      -2.604  -1.503   0.664  0.00  0.00    -0.047 A 
ATOM      6  C4  UNL d   1      -2.291  -2.699   1.276  0.00  0.00    -0.004 A 
ENDROOT
TORSDOF 0
ENDMDL
