MODEL 1
REMARK minimizedAffinity 2.10191369
REMARK minimizedRMSD -1
REMARK  0 active torsions:
REMARK  status: ('A' for Active; 'I' for Inactive)
ROOT
ATOM      1  C   UNL d   1      -4.482   2.566  -0.400  0.00  0.00     0.172 C 
ATOM      2  N   UNL d   1      -4.771   3.925  -0.006  0.00  0.00    -0.070 N 
ATOM      3  C1  UNL d   1      -6.000   4.527  -0.056  0.00  0.00    -0.004 A 
ATOM      4  C2  UNL d   1      -5.857   5.818   0.403  0.00  0.00    -0.047 A 
ATOM      5  C3  UNL d   1      -4.495   6.000   0.739  0.00  0.00    -0.047 A 
ATOM      6  C4  UNL d   1      -3.845   4.813   0.476  0.00  0.00    -0.004 A 
ENDROOT
TORSDOF 0
ENDMDL
