MODEL 1
REMARK minimizedAffinity 6.26520681
REMARK minimizedRMSD -1
REMARK  0 active torsions:
REMARK  status: ('A' for Active; 'I' for Inactive)
ROOT
ATOM      1  C   UNL d   1      -0.419  -5.534   1.066  0.00  0.00     0.172 C 
ATOM      2  N   UNL d   1      -0.790  -4.185   0.708  0.00  0.00    -0.070 N 
ATOM      3  C1  UNL d   1      -1.807  -3.460   1.270  0.00  0.00    -0.004 A 
ATOM      4  C2  UNL d   1      -1.835  -2.227   0.656  0.00  0.00    -0.047 A 
ATOM      5  C3  UNL d   1      -0.799  -2.209  -0.308  0.00  0.00    -0.047 A 
ATOM      6  C4  UNL d   1      -0.168  -3.434  -0.255  0.00  0.00    -0.004 A 
ENDROOT
TORSDOF 0
ENDMDL
