MODEL 1
REMARK minimizedAffinity 4.62753582
REMARK minimizedRMSD -1
REMARK  0 active torsions:
REMARK  status: ('A' for Active; 'I' for Inactive)
ROOT
ATOM      1  C   UNL d   1      -2.638  -0.205   5.322  0.00  0.00     0.172 C 
ATOM      2  N   UNL d   1      -3.860   0.513   5.597  0.00  0.00    -0.070 N 
ATOM      3  C1  UNL d   1      -5.100  -0.049   5.749  0.00  0.00    -0.004 A 
ATOM      4  C2  UNL d   1      -5.996   0.967   6.000  0.00  0.00    -0.047 A 
ATOM      5  C3  UNL d   1      -5.270   2.182   5.998  0.00  0.00    -0.047 A 
ATOM      6  C4  UNL d   1      -3.951   1.872   5.746  0.00  0.00    -0.004 A 
ENDROOT
TORSDOF 0
ENDMDL
