MODEL 1
REMARK minimizedAffinity 9.96821308
REMARK minimizedRMSD -1
REMARK  0 active torsions:
REMARK  status: ('A' for Active; 'I' for Inactive)
ROOT
ATOM      1  C   UNL d   1       3.193   2.651  -0.000  0.00  0.00     0.172 C 
ATOM      2  N   UNL d   1       2.751   1.571  -0.851  0.00  0.00    -0.070 N 
ATOM      3  C1  UNL d   1       3.491   0.981  -1.841  0.00  0.00    -0.004 A 
ATOM      4  C2  UNL d   1       2.717  -0.003  -2.417  0.00  0.00    -0.047 A 
ATOM      5  C3  UNL d   1       1.468  -0.003  -1.751  0.00  0.00    -0.047 A 
ATOM      6  C4  UNL d   1       1.517   0.981  -0.786  0.00  0.00    -0.004 A 
ENDROOT
TORSDOF 0
ENDMDL
