MODEL 1
REMARK minimizedAffinity 6.93426275
REMARK minimizedRMSD -1
REMARK  0 active torsions:
REMARK  status: ('A' for Active; 'I' for Inactive)
ROOT
ATOM      1  C   UNL d   1      -0.610  -5.570  -1.530  0.00  0.00     0.172 C 
ATOM      2  N   UNL d   1      -0.644  -4.171  -1.883  0.00  0.00    -0.070 N 
ATOM      3  C1  UNL d   1      -0.682  -3.669  -3.157  0.00  0.00    -0.004 A 
ATOM      4  C2  UNL d   1      -0.705  -2.294  -3.069  0.00  0.00    -0.047 A 
ATOM      5  C3  UNL d   1      -0.679  -1.957  -1.694  0.00  0.00    -0.047 A 
ATOM      6  C4  UNL d   1      -0.641  -3.138  -0.983  0.00  0.00    -0.004 A 
ENDROOT
TORSDOF 0
ENDMDL
