MODEL 1
REMARK minimizedAffinity 11.9977293
REMARK minimizedRMSD -1
REMARK  0 active torsions:
REMARK  status: ('A' for Active; 'I' for Inactive)
ROOT
ATOM      1  C   UNL d   1      -1.817   4.233  -4.511  0.00  0.00     0.172 C 
ATOM      2  N   UNL d   1      -3.056   4.665  -5.114  0.00  0.00    -0.070 N 
ATOM      3  C1  UNL d   1      -3.375   5.954  -5.448  0.00  0.00    -0.004 A 
ATOM      4  C2  UNL d   1      -4.639   5.948  -5.997  0.00  0.00    -0.047 A 
ATOM      5  C3  UNL d   1      -5.096   4.609  -5.992  0.00  0.00    -0.047 A 
ATOM      6  C4  UNL d   1      -4.097   3.836  -5.440  0.00  0.00    -0.004 A 
ENDROOT
TORSDOF 0
ENDMDL
