MODEL 1
REMARK minimizedAffinity 10.3550615
REMARK minimizedRMSD -1
REMARK  0 active torsions:
REMARK  status: ('A' for Active; 'I' for Inactive)
ROOT
ATOM      1  C   UNL d   1       5.242   5.999   1.095  0.00  0.00     0.172 C 
ATOM      2  N   UNL d   1       5.255   4.835   0.241  0.00  0.00    -0.070 N 
ATOM      3  C1  UNL d   1       6.000   4.688  -0.899  0.00  0.00    -0.004 A 
ATOM      4  C2  UNL d   1       5.732   3.442  -1.421  0.00  0.00    -0.047 A 
ATOM      5  C3  UNL d   1       4.793   2.817  -0.566  0.00  0.00    -0.047 A 
ATOM      6  C4  UNL d   1       4.514   3.702   0.454  0.00  0.00    -0.004 A 
ENDROOT
TORSDOF 0
ENDMDL
