MODEL 1
REMARK minimizedAffinity 0.19994086
REMARK minimizedRMSD -1
REMARK  0 active torsions:
REMARK  status: ('A' for Active; 'I' for Inactive)
ROOT
ATOM      1  C   UNL d   1      -3.368   0.742   5.999  0.00  0.00     0.172 C 
ATOM      2  N   UNL d   1      -2.998  -0.654   5.992  0.00  0.00    -0.070 N 
ATOM      3  C1  UNL d   1      -3.868  -1.711   6.000  0.00  0.00    -0.004 A 
ATOM      4  C2  UNL d   1      -3.124  -2.870   5.989  0.00  0.00    -0.047 A 
ATOM      5  C3  UNL d   1      -1.759  -2.498   5.974  0.00  0.00    -0.047 A 
ATOM      6  C4  UNL d   1      -1.710  -1.120   5.976  0.00  0.00    -0.004 A 
ENDROOT
TORSDOF 0
ENDMDL
