MODEL 1
REMARK minimizedAffinity 1.32161975
REMARK minimizedRMSD -1
REMARK  0 active torsions:
REMARK  status: ('A' for Active; 'I' for Inactive)
ROOT
ATOM      1  C   UNL d   1      -3.766   6.000  -1.130  0.00  0.00     0.172 C 
ATOM      2  N   UNL d   1      -4.483   5.478   0.010  0.00  0.00    -0.070 N 
ATOM      3  C1  UNL d   1      -5.635   6.000   0.535  0.00  0.00    -0.004 A 
ATOM      4  C2  UNL d   1      -6.000   5.219   1.610  0.00  0.00    -0.047 A 
ATOM      5  C3  UNL d   1      -5.033   4.193   1.737  0.00  0.00    -0.047 A 
ATOM      6  C4  UNL d   1      -4.105   4.378   0.733  0.00  0.00    -0.004 A 
ENDROOT
TORSDOF 0
ENDMDL
