MODEL 1
REMARK minimizedAffinity 3.43005991
REMARK minimizedRMSD -1
REMARK  0 active torsions:
REMARK  status: ('A' for Active; 'I' for Inactive)
ROOT
ATOM      1  C   UNL d   1      -5.993   5.983   4.646  0.00  0.00     0.172 C 
ATOM      2  N   UNL d   1      -5.968   5.335   3.356  0.00  0.00    -0.070 N 
ATOM      3  C1  UNL d   1      -6.000   5.970   2.143  0.00  0.00    -0.004 A 
ATOM      4  C2  UNL d   1      -5.959   5.004   1.160  0.00  0.00    -0.047 A 
ATOM      5  C3  UNL d   1      -5.901   3.746   1.805  0.00  0.00    -0.047 A 
ATOM      6  C4  UNL d   1      -5.908   3.980   3.164  0.00  0.00    -0.004 A 
ENDROOT
TORSDOF 0
ENDMDL
