MODEL 1
REMARK minimizedAffinity 4.69840145
REMARK minimizedRMSD -1
REMARK  0 active torsions:
REMARK  status: ('A' for Active; 'I' for Inactive)
ROOT
ATOM      1  C   UNL d   1      -3.843   2.030   5.994  0.00  0.00     0.172 C 
ATOM      2  N   UNL d   1      -3.663   0.597   5.992  0.00  0.00    -0.070 N 
ATOM      3  C1  UNL d   1      -2.460  -0.057   5.981  0.00  0.00    -0.004 A 
ATOM      4  C2  UNL d   1      -2.715  -1.411   5.983  0.00  0.00    -0.047 A 
ATOM      5  C3  UNL d   1      -4.121  -1.577   5.995  0.00  0.00    -0.047 A 
ATOM      6  C4  UNL d   1      -4.683  -0.318   6.000  0.00  0.00    -0.004 A 
ENDROOT
TORSDOF 0
ENDMDL
