MODEL 1
REMARK minimizedAffinity 2.33873272
REMARK minimizedRMSD -1
REMARK  0 active torsions:
REMARK  status: ('A' for Active; 'I' for Inactive)
ROOT
ATOM      1  C   UNL d   1      -4.896   5.998  -1.791  0.00  0.00     0.172 C 
ATOM      2  N   UNL d   1      -5.145   5.333  -0.534  0.00  0.00    -0.070 N 
ATOM      3  C1  UNL d   1      -4.574   4.157  -0.126  0.00  0.00    -0.004 A 
ATOM      4  C2  UNL d   1      -5.069   3.859   1.125  0.00  0.00    -0.047 A 
ATOM      5  C3  UNL d   1      -5.971   4.891   1.481  0.00  0.00    -0.047 A 
ATOM      6  C4  UNL d   1      -5.999   5.790   0.435  0.00  0.00    -0.004 A 
ENDROOT
TORSDOF 0
ENDMDL
