MODEL 1
REMARK minimizedAffinity 6.03233814
REMARK minimizedRMSD -1
REMARK  0 active torsions:
REMARK  status: ('A' for Active; 'I' for Inactive)
ROOT
ATOM      1  C   UNL d   1       6.000   0.785   2.725  0.00  0.00     0.172 C 
ATOM      2  N   UNL d   1       5.148   1.633   1.925  0.00  0.00    -0.070 N 
ATOM      3  C1  UNL d   1       3.903   2.077   2.280  0.00  0.00    -0.004 A 
ATOM      4  C2  UNL d   1       3.423   2.857   1.250  0.00  0.00    -0.047 A 
ATOM      5  C3  UNL d   1       4.414   2.881   0.241  0.00  0.00    -0.047 A 
ATOM      6  C4  UNL d   1       5.471   2.115   0.684  0.00  0.00    -0.004 A 
ENDROOT
TORSDOF 0
ENDMDL
