MODEL 1
REMARK minimizedAffinity 19.4013863
REMARK minimizedRMSD -1
REMARK  0 active torsions:
REMARK  status: ('A' for Active; 'I' for Inactive)
ROOT
ATOM      1  C   UNL d   1       0.405   2.154   6.000  0.00  0.00     0.020 A 
ATOM      2  C1  UNL d   1       1.745   1.852   5.764  0.00  0.00     0.020 A 
ATOM      3  C2  UNL d   1       2.221   1.767   4.454  0.00  0.00     0.034 A 
ATOM      4  C3  UNL d   1       1.356   1.983   3.375  0.00  0.00     0.017 A 
ATOM      5  C4  UNL d   1       0.011   2.285   3.613  0.00  0.00     0.017 A 
ATOM      6  C5  UNL d   1      -0.461   2.370   4.927  0.00  0.00     0.034 A 
ATOM      7 Cl   UNL d   1      -1.117   2.565   2.333  0.00  0.00    -0.070 Cl
ATOM      8 Cl1  UNL d   1       2.013   1.861   1.781  0.00  0.00    -0.070 Cl
ENDROOT
TORSDOF 0
ENDMDL
