MODEL 1
REMARK minimizedAffinity 12.6262455
REMARK minimizedRMSD -1
REMARK  0 active torsions:
REMARK  status: ('A' for Active; 'I' for Inactive)
ROOT
ATOM      1  C   UNL d   1       1.073  -1.367  -0.405  0.00  0.00     0.020 A 
ATOM      2  C1  UNL d   1       1.871  -0.410  -1.031  0.00  0.00     0.020 A 
ATOM      3  C2  UNL d   1       2.470  -0.696  -2.260  0.00  0.00     0.034 A 
ATOM      4  C3  UNL d   1       2.273  -1.942  -2.866  0.00  0.00     0.017 A 
ATOM      5  C4  UNL d   1       1.471  -2.902  -2.237  0.00  0.00     0.017 A 
ATOM      6  C5  UNL d   1       0.873  -2.610  -1.007  0.00  0.00     0.034 A 
ATOM      7 Cl   UNL d   1       1.180  -4.461  -2.924  0.00  0.00    -0.070 Cl
ATOM      8 Cl1  UNL d   1       3.044  -2.228  -4.385  0.00  0.00    -0.070 Cl
ENDROOT
TORSDOF 0
ENDMDL
