MODEL 1
REMARK minimizedAffinity 12.7409382
REMARK minimizedRMSD -1
REMARK  0 active torsions:
REMARK  status: ('A' for Active; 'I' for Inactive)
ROOT
ATOM      1  C   UNL d   1       5.701  -0.158  -6.000  0.00  0.00     0.020 A 
ATOM      2  C1  UNL d   1       4.387   0.310  -6.000  0.00  0.00     0.020 A 
ATOM      3  C2  UNL d   1       3.324  -0.595  -5.996  0.00  0.00     0.034 A 
ATOM      4  C3  UNL d   1       3.572  -1.973  -5.993  0.00  0.00     0.017 A 
ATOM      5  C4  UNL d   1       4.891  -2.441  -5.993  0.00  0.00     0.017 A 
ATOM      6  C5  UNL d   1       5.952  -1.530  -5.996  0.00  0.00     0.034 A 
ATOM      7 Cl   UNL d   1       5.276  -4.126  -5.989  0.00  0.00    -0.070 Cl
ATOM      8 Cl1  UNL d   1       2.209  -3.035  -5.988  0.00  0.00    -0.070 Cl
ENDROOT
TORSDOF 0
ENDMDL
