MODEL 1
REMARK minimizedAffinity 10.8768682
REMARK minimizedRMSD -1
REMARK  0 active torsions:
REMARK  status: ('A' for Active; 'I' for Inactive)
ROOT
ATOM      1  C   UNL d   1      -3.320   2.366   5.420  0.00  0.00     0.020 A 
ATOM      2  C1  UNL d   1      -3.479   2.531   4.044  0.00  0.00     0.020 A 
ATOM      3  C2  UNL d   1      -3.845   1.443   3.248  0.00  0.00     0.034 A 
ATOM      4  C3  UNL d   1      -4.052   0.186   3.827  0.00  0.00     0.017 A 
ATOM      5  C4  UNL d   1      -3.893   0.021   5.208  0.00  0.00     0.017 A 
ATOM      6  C5  UNL d   1      -3.527   1.114   6.000  0.00  0.00     0.034 A 
ATOM      7 Cl   UNL d   1      -4.132  -1.499   5.993  0.00  0.00    -0.070 Cl
ATOM      8 Cl1  UNL d   1      -4.503  -1.115   2.782  0.00  0.00    -0.070 Cl
ENDROOT
TORSDOF 0
ENDMDL
