MODEL 1
REMARK minimizedAffinity 12.6773224
REMARK minimizedRMSD -1
REMARK  0 active torsions:
REMARK  status: ('A' for Active; 'I' for Inactive)
ROOT
ATOM      1  C   UNL d   1       1.502   0.793  -1.397  0.00  0.00     0.020 A 
ATOM      2  C1  UNL d   1       0.767  -0.341  -1.737  0.00  0.00     0.020 A 
ATOM      3  C2  UNL d   1       1.256  -1.611  -1.422  0.00  0.00     0.034 A 
ATOM      4  C3  UNL d   1       2.484  -1.749  -0.764  0.00  0.00     0.017 A 
ATOM      5  C4  UNL d   1       3.221  -0.609  -0.423  0.00  0.00     0.017 A 
ATOM      6  C5  UNL d   1       2.727   0.660  -0.741  0.00  0.00     0.034 A 
ATOM      7 Cl   UNL d   1       4.745  -0.699   0.389  0.00  0.00    -0.070 Cl
ATOM      8 Cl1  UNL d   1       3.028  -3.349  -0.405  0.00  0.00    -0.070 Cl
ENDROOT
TORSDOF 0
ENDMDL
