MODEL 1
REMARK minimizedAffinity 10.7703228
REMARK minimizedRMSD -1
REMARK  0 active torsions:
REMARK  status: ('A' for Active; 'I' for Inactive)
ROOT
ATOM      1  C   UNL d   1       3.396  -1.778  -0.321  0.00  0.00     0.020 A 
ATOM      2  C1  UNL d   1       2.207  -1.336  -0.900  0.00  0.00     0.020 A 
ATOM      3  C2  UNL d   1       2.093  -0.016  -1.339  0.00  0.00     0.034 A 
ATOM      4  C3  UNL d   1       3.169   0.868  -1.201  0.00  0.00     0.017 A 
ATOM      5  C4  UNL d   1       4.363   0.423  -0.620  0.00  0.00     0.017 A 
ATOM      6  C5  UNL d   1       4.472  -0.900  -0.182  0.00  0.00     0.034 A 
ATOM      7 Cl   UNL d   1       5.734   1.455  -0.415  0.00  0.00    -0.070 Cl
ATOM      8 Cl1  UNL d   1       2.958   2.487  -1.766  0.00  0.00    -0.070 Cl
ENDROOT
TORSDOF 0
ENDMDL
