MODEL 1
REMARK minimizedAffinity 8.05779266
REMARK minimizedRMSD -1
REMARK  0 active torsions:
REMARK  status: ('A' for Active; 'I' for Inactive)
ROOT
ATOM      1  C   UNL d   1      -0.743  -4.084  -2.976  0.00  0.00     0.020 A 
ATOM      2  C1  UNL d   1      -0.624  -5.433  -3.310  0.00  0.00     0.020 A 
ATOM      3  C2  UNL d   1      -1.492  -5.999  -4.246  0.00  0.00     0.034 A 
ATOM      4  C3  UNL d   1      -2.483  -5.218  -4.850  0.00  0.00     0.017 A 
ATOM      5  C4  UNL d   1      -2.602  -3.864  -4.514  0.00  0.00     0.017 A 
ATOM      6  C5  UNL d   1      -1.730  -3.302  -3.577  0.00  0.00     0.034 A 
ATOM      7 Cl   UNL d   1      -3.800  -2.836  -5.218  0.00  0.00    -0.070 Cl
ATOM      8 Cl1  UNL d   1      -3.522  -5.984  -5.999  0.00  0.00    -0.070 Cl
ENDROOT
TORSDOF 0
ENDMDL
