MODEL 1
REMARK minimizedAffinity 4.83135319
REMARK minimizedRMSD -1
REMARK  0 active torsions:
REMARK  status: ('A' for Active; 'I' for Inactive)
ROOT
ATOM      1  C   UNL d   1      -3.646  -5.999  -5.732  0.00  0.00     0.020 A 
ATOM      2  C1  UNL d   1      -4.344  -4.820  -5.989  0.00  0.00     0.020 A 
ATOM      3  C2  UNL d   1      -3.987  -3.640  -5.333  0.00  0.00     0.034 A 
ATOM      4  C3  UNL d   1      -2.929  -3.637  -4.417  0.00  0.00     0.017 A 
ATOM      5  C4  UNL d   1      -2.229  -4.821  -4.159  0.00  0.00     0.017 A 
ATOM      6  C5  UNL d   1      -2.591  -5.999  -4.820  0.00  0.00     0.034 A 
ATOM      7 Cl   UNL d   1      -0.913  -4.896  -3.042  0.00  0.00    -0.070 Cl
ATOM      8 Cl1  UNL d   1      -2.542  -2.142  -3.642  0.00  0.00    -0.070 Cl
ENDROOT
TORSDOF 0
ENDMDL
