MODEL 1
REMARK minimizedAffinity -1.31552005
REMARK minimizedRMSD -1
REMARK  0 active torsions:
REMARK  status: ('A' for Active; 'I' for Inactive)
ROOT
ATOM      1  C   UNL d   1      -0.468  -5.413  -3.373  0.00  0.00     0.020 A 
ATOM      2  C1  UNL d   1      -0.539  -4.047  -3.103  0.00  0.00     0.020 A 
ATOM      3  C2  UNL d   1      -1.508  -3.261  -3.730  0.00  0.00     0.034 A 
ATOM      4  C3  UNL d   1      -2.410  -3.841  -4.631  0.00  0.00     0.017 A 
ATOM      5  C4  UNL d   1      -2.337  -5.212  -4.901  0.00  0.00     0.017 A 
ATOM      6  C5  UNL d   1      -1.365  -5.994  -4.270  0.00  0.00     0.034 A 
ATOM      7 Cl   UNL d   1      -3.415  -5.999  -5.999  0.00  0.00    -0.070 Cl
ATOM      8 Cl1  UNL d   1      -3.583  -2.809  -5.369  0.00  0.00    -0.070 Cl
ENDROOT
TORSDOF 0
ENDMDL
