MODEL 1
REMARK minimizedAffinity 5.73738289
REMARK minimizedRMSD -1
REMARK  0 active torsions:
REMARK  status: ('A' for Active; 'I' for Inactive)
ROOT
ATOM      1  C   UNL d   1      -1.294  -4.053  -3.394  0.00  0.00     0.020 A 
ATOM      2  C1  UNL d   1      -1.491  -5.433  -3.393  0.00  0.00     0.020 A 
ATOM      3  C2  UNL d   1      -2.476  -5.998  -4.205  0.00  0.00     0.034 A 
ATOM      4  C3  UNL d   1      -3.269  -5.183  -5.021  0.00  0.00     0.017 A 
ATOM      5  C4  UNL d   1      -3.071  -3.798  -5.020  0.00  0.00     0.017 A 
ATOM      6  C5  UNL d   1      -2.083  -3.237  -4.205  0.00  0.00     0.034 A 
ATOM      7 Cl   UNL d   1      -4.011  -2.727  -6.000  0.00  0.00    -0.070 Cl
ATOM      8 Cl1  UNL d   1      -4.469  -5.950  -6.000  0.00  0.00    -0.070 Cl
ENDROOT
TORSDOF 0
ENDMDL
