MODEL 1
REMARK minimizedAffinity 2.81648374
REMARK minimizedRMSD -1
REMARK  0 active torsions:
REMARK  status: ('A' for Active; 'I' for Inactive)
ROOT
ATOM      1  C   UNL d   1      -4.066  -4.303  -6.000  0.00  0.00     0.020 A 
ATOM      2  C1  UNL d   1      -3.408  -5.532  -5.999  0.00  0.00     0.020 A 
ATOM      3  C2  UNL d   1      -2.364  -5.765  -5.101  0.00  0.00     0.034 A 
ATOM      4  C3  UNL d   1      -1.975  -4.767  -4.201  0.00  0.00     0.017 A 
ATOM      5  C4  UNL d   1      -2.635  -3.533  -4.202  0.00  0.00     0.017 A 
ATOM      6  C5  UNL d   1      -3.680  -3.305  -5.103  0.00  0.00     0.034 A 
ATOM      7 Cl   UNL d   1      -2.211  -2.253  -3.121  0.00  0.00    -0.070 Cl
ATOM      8 Cl1  UNL d   1      -0.676  -5.124  -3.118  0.00  0.00    -0.070 Cl
ENDROOT
TORSDOF 0
ENDMDL
