MODEL 1
REMARK minimizedAffinity 7.23248911
REMARK minimizedRMSD -1
REMARK  0 active torsions:
REMARK  status: ('A' for Active; 'I' for Inactive)
ROOT
ATOM      1  C   UNL d   1      -3.172  -5.690  -6.000  0.00  0.00     0.020 A 
ATOM      2  C1  UNL d   1      -3.784  -4.437  -6.000  0.00  0.00     0.020 A 
ATOM      3  C2  UNL d   1      -3.412  -3.478  -5.054  0.00  0.00     0.034 A 
ATOM      4  C3  UNL d   1      -2.427  -3.772  -4.105  0.00  0.00     0.017 A 
ATOM      5  C4  UNL d   1      -1.813  -5.030  -4.105  0.00  0.00     0.017 A 
ATOM      6  C5  UNL d   1      -2.189  -5.985  -5.055  0.00  0.00     0.034 A 
ATOM      7 Cl   UNL d   1      -0.589  -5.465  -2.965  0.00  0.00    -0.070 Cl
ATOM      8 Cl1  UNL d   1      -2.017  -2.539  -2.965  0.00  0.00    -0.070 Cl
ENDROOT
TORSDOF 0
ENDMDL
