MODEL 1
REMARK minimizedAffinity 6.52328062
REMARK minimizedRMSD -1
REMARK  0 active torsions:
REMARK  status: ('A' for Active; 'I' for Inactive)
ROOT
ATOM      1  C   UNL d   1      -1.885  -5.264  -4.883  0.00  0.00     0.020 A 
ATOM      2  C1  UNL d   1      -2.892  -5.811  -5.678  0.00  0.00     0.020 A 
ATOM      3  C2  UNL d   1      -4.018  -5.050  -6.000  0.00  0.00     0.034 A 
ATOM      4  C3  UNL d   1      -4.140  -3.739  -5.527  0.00  0.00     0.017 A 
ATOM      5  C4  UNL d   1      -3.128  -3.190  -4.730  0.00  0.00     0.017 A 
ATOM      6  C5  UNL d   1      -2.003  -3.957  -4.411  0.00  0.00     0.034 A 
ATOM      7 Cl   UNL d   1      -3.208  -1.579  -4.111  0.00  0.00    -0.070 Cl
ATOM      8 Cl1  UNL d   1      -5.559  -2.855  -5.965  0.00  0.00    -0.070 Cl
ENDROOT
TORSDOF 0
ENDMDL
