MODEL 1
REMARK minimizedAffinity 2.45123768
REMARK minimizedRMSD -1
REMARK  0 active torsions:
REMARK  status: ('A' for Active; 'I' for Inactive)
ROOT
ATOM      1  C   UNL d   1      -2.100  -5.150  -5.924  0.00  0.00     0.020 A 
ATOM      2  C1  UNL d   1      -2.071  -3.756  -5.924  0.00  0.00     0.020 A 
ATOM      3  C2  UNL d   1      -3.265  -3.033  -5.948  0.00  0.00     0.034 A 
ATOM      4  C3  UNL d   1      -4.494  -3.703  -5.972  0.00  0.00     0.017 A 
ATOM      5  C4  UNL d   1      -4.522  -5.102  -5.971  0.00  0.00     0.017 A 
ATOM      6  C5  UNL d   1      -3.323  -5.822  -5.947  0.00  0.00     0.034 A 
ATOM      7 Cl   UNL d   1      -5.999  -6.000  -6.000  0.00  0.00    -0.070 Cl
ATOM      8 Cl1  UNL d   1      -5.932  -2.745  -6.000  0.00  0.00    -0.070 Cl
ENDROOT
TORSDOF 0
ENDMDL
