MODEL 1
REMARK minimizedAffinity 9.1853199
REMARK minimizedRMSD -1
REMARK  0 active torsions:
REMARK  status: ('A' for Active; 'I' for Inactive)
ROOT
ATOM      1  C   UNL d   1      -4.259  -3.454  -5.999  0.00  0.00     0.020 A 
ATOM      2  C1  UNL d   1      -4.135  -2.456  -5.034  0.00  0.00     0.020 A 
ATOM      3  C2  UNL d   1      -3.130  -2.541  -4.067  0.00  0.00     0.034 A 
ATOM      4  C3  UNL d   1      -2.247  -3.626  -4.064  0.00  0.00     0.017 A 
ATOM      5  C4  UNL d   1      -2.373  -4.628  -5.034  0.00  0.00     0.017 A 
ATOM      6  C5  UNL d   1      -3.380  -4.537  -5.999  0.00  0.00     0.034 A 
ATOM      7 Cl   UNL d   1      -1.320  -5.997  -5.094  0.00  0.00    -0.070 Cl
ATOM      8 Cl1  UNL d   1      -1.028  -3.667  -2.839  0.00  0.00    -0.070 Cl
ENDROOT
TORSDOF 0
ENDMDL
