MODEL 1
REMARK minimizedAffinity 11.1685896
REMARK minimizedRMSD -1
REMARK  0 active torsions:
REMARK  status: ('A' for Active; 'I' for Inactive)
ROOT
ATOM      1  C   UNL d   1       2.833  -1.146  -1.350  0.00  0.00     0.020 A 
ATOM      2  C1  UNL d   1       1.734  -0.996  -2.194  0.00  0.00     0.020 A 
ATOM      3  C2  UNL d   1       1.056  -2.123  -2.665  0.00  0.00     0.034 A 
ATOM      4  C3  UNL d   1       1.477  -3.404  -2.292  0.00  0.00     0.017 A 
ATOM      5  C4  UNL d   1       2.581  -3.554  -1.444  0.00  0.00     0.017 A 
ATOM      6  C5  UNL d   1       3.256  -2.422  -0.976  0.00  0.00     0.034 A 
ATOM      7 Cl   UNL d   1       3.159  -5.103  -0.940  0.00  0.00    -0.070 Cl
ATOM      8 Cl1  UNL d   1       0.592  -4.753  -2.911  0.00  0.00    -0.070 Cl
ENDROOT
TORSDOF 0
ENDMDL
