MODEL 1
REMARK minimizedAffinity -2.57086897
REMARK minimizedRMSD -1
REMARK  0 active torsions:
REMARK  status: ('A' for Active; 'I' for Inactive)
ROOT
ATOM      1  C   UNL d   1      -4.281  -4.468  -6.000  0.00  0.00     0.020 A 
ATOM      2  C1  UNL d   1      -3.655  -5.714  -5.997  0.00  0.00     0.020 A 
ATOM      3  C2  UNL d   1      -2.462  -5.894  -5.295  0.00  0.00     0.034 A 
ATOM      4  C3  UNL d   1      -1.890  -4.826  -4.593  0.00  0.00     0.017 A 
ATOM      5  C4  UNL d   1      -2.519  -3.576  -4.597  0.00  0.00     0.017 A 
ATOM      6  C5  UNL d   1      -3.715  -3.402  -5.301  0.00  0.00     0.034 A 
ATOM      7 Cl   UNL d   1      -1.875  -2.211  -3.755  0.00  0.00    -0.070 Cl
ATOM      8 Cl1  UNL d   1      -0.413  -5.120  -3.746  0.00  0.00    -0.070 Cl
ENDROOT
TORSDOF 0
ENDMDL
