MODEL 1
REMARK minimizedAffinity 0.830719531
REMARK minimizedRMSD -1
REMARK  0 active torsions:
REMARK  status: ('A' for Active; 'I' for Inactive)
ROOT
ATOM      1  C   UNL d   1      -0.744  -4.819  -4.666  0.00  0.00     0.020 A 
ATOM      2  C1  UNL d   1      -0.843  -3.428  -4.657  0.00  0.00     0.020 A 
ATOM      3  C2  UNL d   1      -2.027  -2.810  -5.065  0.00  0.00     0.034 A 
ATOM      4  C3  UNL d   1      -3.116  -3.583  -5.485  0.00  0.00     0.017 A 
ATOM      5  C4  UNL d   1      -3.015  -4.979  -5.495  0.00  0.00     0.017 A 
ATOM      6  C5  UNL d   1      -1.827  -5.592  -5.084  0.00  0.00     0.034 A 
ATOM      7 Cl   UNL d   1      -4.316  -5.999  -6.000  0.00  0.00    -0.070 Cl
ATOM      8 Cl1  UNL d   1      -4.549  -2.752  -5.977  0.00  0.00    -0.070 Cl
ENDROOT
TORSDOF 0
ENDMDL
