MODEL 1
REMARK minimizedAffinity 11.0406647
REMARK minimizedRMSD -1
REMARK  0 active torsions:
REMARK  status: ('A' for Active; 'I' for Inactive)
ROOT
ATOM      1  C   UNL d   1      -0.589   1.536  -5.441  0.00  0.00     0.020 A 
ATOM      2  C1  UNL d   1      -0.799   1.129  -4.124  0.00  0.00     0.020 A 
ATOM      3  C2  UNL d   1      -1.809   1.721  -3.363  0.00  0.00     0.034 A 
ATOM      4  C3  UNL d   1      -2.613   2.723  -3.918  0.00  0.00     0.017 A 
ATOM      5  C4  UNL d   1      -2.402   3.131  -5.240  0.00  0.00     0.017 A 
ATOM      6  C5  UNL d   1      -1.389   2.535  -5.998  0.00  0.00     0.034 A 
ATOM      7 Cl   UNL d   1      -3.354   4.361  -5.994  0.00  0.00    -0.070 Cl
ATOM      8 Cl1  UNL d   1      -3.843   3.411  -2.919  0.00  0.00    -0.070 Cl
ENDROOT
TORSDOF 0
ENDMDL
