MODEL 1
REMARK minimizedAffinity 4.32942295
REMARK minimizedRMSD -1
REMARK  0 active torsions:
REMARK  status: ('A' for Active; 'I' for Inactive)
ROOT
ATOM      1  C   UNL d   1      -3.453  -5.910  -5.999  0.00  0.00     0.020 A 
ATOM      2  C1  UNL d   1      -4.310  -4.810  -6.000  0.00  0.00     0.020 A 
ATOM      3  C2  UNL d   1      -4.027  -3.705  -5.194  0.00  0.00     0.034 A 
ATOM      4  C3  UNL d   1      -2.886  -3.697  -4.385  0.00  0.00     0.017 A 
ATOM      5  C4  UNL d   1      -2.026  -4.802  -4.385  0.00  0.00     0.017 A 
ATOM      6  C5  UNL d   1      -2.313  -5.906  -5.193  0.00  0.00     0.034 A 
ATOM      7 Cl   UNL d   1      -0.598  -4.865  -3.413  0.00  0.00    -0.070 Cl
ATOM      8 Cl1  UNL d   1      -2.599  -2.297  -3.414  0.00  0.00    -0.070 Cl
ENDROOT
TORSDOF 0
ENDMDL
