MODEL 1
REMARK minimizedAffinity 3.23636937
REMARK minimizedRMSD -1
REMARK  0 active torsions:
REMARK  status: ('A' for Active; 'I' for Inactive)
ROOT
ATOM      1  C   UNL d   1      -5.227  -4.794  -2.996  0.00  0.00     0.124 A 
ATOM      2  C1  UNL d   1      -4.555  -4.113  -4.001  0.00  0.00     0.062 A 
ATOM      3  C2  UNL d   1      -4.005  -2.859  -3.749  0.00  0.00     0.162 A 
ATOM      4  C3  UNL d   1      -4.124  -2.279  -2.486  0.00  0.00    -0.034 A 
ATOM      5  C4  UNL d   1      -4.802  -2.970  -1.481  0.00  0.00     0.162 A 
ATOM      6  C5  UNL d   1      -5.350  -4.223  -1.737  0.00  0.00     0.062 A 
ATOM      7  F   UNL d   1      -5.999  -4.880  -0.765  0.00  0.00    -0.097 F 
ATOM      8  F1  UNL d   1      -4.935  -2.442  -0.255  0.00  0.00    -0.096 F 
ATOM      9  I   UNL d   1      -3.303  -0.405  -2.106  0.00  0.00    -0.060 I 
ATOM     10  F2  UNL d   1      -3.361  -2.223  -4.739  0.00  0.00    -0.096 F 
ATOM     11  F3  UNL d   1      -4.435  -4.662  -5.218  0.00  0.00    -0.097 F 
ATOM     12  F4  UNL d   1      -5.756  -6.000  -3.241  0.00  0.00    -0.092 F 
ENDROOT
TORSDOF 0
ENDMDL
