MODEL 1
REMARK minimizedAffinity 15.9096966
REMARK minimizedRMSD -1
REMARK  0 active torsions:
REMARK  status: ('A' for Active; 'I' for Inactive)
ROOT
ATOM      1  C   UNL d   1      -5.307  -2.168  -2.501  0.00  0.00     0.124 A 
ATOM      2  C1  UNL d   1      -5.449  -3.457  -2.008  0.00  0.00     0.062 A 
ATOM      3  C2  UNL d   1      -5.217  -4.553  -2.834  0.00  0.00     0.162 A 
ATOM      4  C3  UNL d   1      -4.838  -4.364  -4.164  0.00  0.00    -0.034 A 
ATOM      5  C4  UNL d   1      -4.698  -3.064  -4.653  0.00  0.00     0.162 A 
ATOM      6  C5  UNL d   1      -4.931  -1.972  -3.823  0.00  0.00     0.062 A 
ATOM      7  F   UNL d   1      -4.793  -0.727  -4.302  0.00  0.00    -0.097 F 
ATOM      8  F1  UNL d   1      -4.336  -2.846  -5.926  0.00  0.00    -0.096 F 
ATOM      9  I   UNL d   1      -4.490  -5.999  -5.403  0.00  0.00    -0.060 I 
ATOM     10  F2  UNL d   1      -5.362  -5.787  -2.331  0.00  0.00    -0.096 F 
ATOM     11  F3  UNL d   1      -5.813  -3.649  -0.732  0.00  0.00    -0.097 F 
ATOM     12  F4  UNL d   1      -5.532  -1.115  -1.704  0.00  0.00    -0.092 F 
ENDROOT
TORSDOF 0
ENDMDL
