MODEL 1
REMARK minimizedAffinity 6.12802505
REMARK minimizedRMSD -1
REMARK  0 active torsions:
REMARK  status: ('A' for Active; 'I' for Inactive)
ROOT
ATOM      1  C   UNL d   1       1.691  -4.631   3.980  0.00  0.00     0.124 A 
ATOM      2  C1  UNL d   1       1.509  -3.434   4.659  0.00  0.00     0.062 A 
ATOM      3  C2  UNL d   1       1.423  -2.237   3.955  0.00  0.00     0.162 A 
ATOM      4  C3  UNL d   1       1.517  -2.229   2.564  0.00  0.00    -0.034 A 
ATOM      5  C4  UNL d   1       1.701  -3.437   1.888  0.00  0.00     0.162 A 
ATOM      6  C5  UNL d   1       1.787  -4.631   2.595  0.00  0.00     0.062 A 
ATOM      7  F   UNL d   1       1.963  -5.786   1.937  0.00  0.00    -0.097 F 
ATOM      8  F1  UNL d   1       1.796  -3.466   0.550  0.00  0.00    -0.096 F 
ATOM      9  I   UNL d   1       1.388  -0.440   1.508  0.00  0.00    -0.060 I 
ATOM     10  F2  UNL d   1       1.247  -1.095   4.638  0.00  0.00    -0.096 F 
ATOM     11  F3  UNL d   1       1.417  -3.432   5.996  0.00  0.00    -0.097 F 
ATOM     12  F4  UNL d   1       1.775  -5.782   4.659  0.00  0.00    -0.092 F 
ENDROOT
TORSDOF 0
ENDMDL
