MODEL 1
REMARK minimizedAffinity 20.1988163
REMARK minimizedRMSD -1
REMARK  0 active torsions:
REMARK  status: ('A' for Active; 'I' for Inactive)
ROOT
ATOM      1  C   UNL d   1       0.486  -3.969   1.896  0.00  0.00     0.124 A 
ATOM      2  C1  UNL d   1       0.771  -3.438   0.645  0.00  0.00     0.062 A 
ATOM      3  C2  UNL d   1       1.009  -2.075   0.501  0.00  0.00     0.162 A 
ATOM      4  C3  UNL d   1       0.964  -1.231   1.611  0.00  0.00    -0.034 A 
ATOM      5  C4  UNL d   1       0.676  -1.772   2.866  0.00  0.00     0.162 A 
ATOM      6  C5  UNL d   1       0.439  -3.135   3.004  0.00  0.00     0.062 A 
ATOM      7  F   UNL d   1       0.163  -3.646   4.213  0.00  0.00    -0.097 F 
ATOM      8  F1  UNL d   1       0.625  -0.990   3.954  0.00  0.00    -0.096 F 
ATOM      9  I   UNL d   1       1.320   0.808   1.400  0.00  0.00    -0.060 I 
ATOM     10  F2  UNL d   1       1.282  -1.590  -0.719  0.00  0.00    -0.096 F 
ATOM     11  F3  UNL d   1       0.816  -4.241  -0.428  0.00  0.00    -0.097 F 
ATOM     12  F4  UNL d   1       0.256  -5.281   2.031  0.00  0.00    -0.092 F 
ENDROOT
TORSDOF 0
ENDMDL
