MODEL 1
REMARK minimizedAffinity 15.6847687
REMARK minimizedRMSD -1
REMARK  0 active torsions:
REMARK  status: ('A' for Active; 'I' for Inactive)
ROOT
ATOM      1  C   UNL d   1       2.400  -2.447   3.567  0.00  0.00     0.124 A 
ATOM      2  C1  UNL d   1       1.086  -2.498   3.124  0.00  0.00     0.062 A 
ATOM      3  C2  UNL d   1       0.213  -3.458   3.630  0.00  0.00     0.162 A 
ATOM      4  C3  UNL d   1       0.652  -4.373   4.587  0.00  0.00    -0.034 A 
ATOM      5  C4  UNL d   1       1.976  -4.316   5.027  0.00  0.00     0.162 A 
ATOM      6  C5  UNL d   1       2.844  -3.355   4.518  0.00  0.00     0.062 A 
ATOM      7  F   UNL d   1       4.114  -3.307   4.947  0.00  0.00    -0.097 F 
ATOM      8  F1  UNL d   1       2.431  -5.181   5.946  0.00  0.00    -0.096 F 
ATOM      9  I   UNL d   1      -0.649  -5.809   5.347  0.00  0.00    -0.060 I 
ATOM     10  F2  UNL d   1      -1.051  -3.484   3.184  0.00  0.00    -0.096 F 
ATOM     11  F3  UNL d   1       0.655  -1.623   2.205  0.00  0.00    -0.097 F 
ATOM     12  F4  UNL d   1       3.238  -1.524   3.077  0.00  0.00    -0.092 F 
ENDROOT
TORSDOF 0
ENDMDL
