MODEL 1
REMARK minimizedAffinity 26.6038151
REMARK minimizedRMSD -1
REMARK  0 active torsions:
REMARK  status: ('A' for Active; 'I' for Inactive)
ROOT
ATOM      1  C   UNL d   1       3.802   3.309  -4.841  0.00  0.00     0.124 A 
ATOM      2  C1  UNL d   1       3.194   2.929  -3.653  0.00  0.00     0.062 A 
ATOM      3  C2  UNL d   1       3.524   3.569  -2.462  0.00  0.00     0.162 A 
ATOM      4  C3  UNL d   1       4.466   4.597  -2.453  0.00  0.00    -0.034 A 
ATOM      5  C4  UNL d   1       5.074   4.974  -3.652  0.00  0.00     0.162 A 
ATOM      6  C5  UNL d   1       4.741   4.331  -4.840  0.00  0.00     0.062 A 
ATOM      7  F   UNL d   1       5.330   4.700  -5.987  0.00  0.00    -0.097 F 
ATOM      8  F1  UNL d   1       5.985   5.958  -3.679  0.00  0.00    -0.096 F 
ATOM      9  I   UNL d   1       4.962   5.557  -0.674  0.00  0.00    -0.060 I 
ATOM     10  F2  UNL d   1       2.920   3.181  -1.328  0.00  0.00    -0.096 F 
ATOM     11  F3  UNL d   1       2.287   1.942  -3.651  0.00  0.00    -0.097 F 
ATOM     12  F4  UNL d   1       3.483   2.691  -5.986  0.00  0.00    -0.092 F 
ENDROOT
TORSDOF 0
ENDMDL
