MODEL 1
REMARK minimizedAffinity 24.8805561
REMARK minimizedRMSD -1
REMARK  0 active torsions:
REMARK  status: ('A' for Active; 'I' for Inactive)
ROOT
ATOM      1  C   UNL d   1       1.229  -4.292   0.305  0.00  0.00     0.124 A 
ATOM      2  C1  UNL d   1       1.070  -3.859   1.614  0.00  0.00     0.062 A 
ATOM      3  C2  UNL d   1       1.063  -2.499   1.906  0.00  0.00     0.162 A 
ATOM      4  C3  UNL d   1       1.215  -1.559   0.886  0.00  0.00    -0.034 A 
ATOM      5  C4  UNL d   1       1.375  -2.002  -0.429  0.00  0.00     0.162 A 
ATOM      6  C5  UNL d   1       1.381  -3.363  -0.715  0.00  0.00     0.062 A 
ATOM      7  F   UNL d   1       1.535  -3.779  -1.981  0.00  0.00    -0.097 F 
ATOM      8  F1  UNL d   1       1.523  -1.126  -1.434  0.00  0.00    -0.096 F 
ATOM      9  I   UNL d   1       1.205   0.477   1.318  0.00  0.00    -0.060 I 
ATOM     10  F2  UNL d   1       0.908  -2.109   3.180  0.00  0.00    -0.096 F 
ATOM     11  F3  UNL d   1       0.924  -4.755   2.601  0.00  0.00    -0.097 F 
ATOM     12  F4  UNL d   1       1.237  -5.602   0.027  0.00  0.00    -0.092 F 
ENDROOT
TORSDOF 0
ENDMDL
