MODEL 1
REMARK minimizedAffinity 17.1301994
REMARK minimizedRMSD -1
REMARK  0 active torsions:
REMARK  status: ('A' for Active; 'I' for Inactive)
ROOT
ATOM      1  C   UNL d   1      -4.875  -4.880  -4.128  0.00  0.00     0.124 A 
ATOM      2  C1  UNL d   1      -5.380  -3.725  -4.711  0.00  0.00     0.062 A 
ATOM      3  C2  UNL d   1      -5.507  -2.560  -3.960  0.00  0.00     0.162 A 
ATOM      4  C3  UNL d   1      -5.128  -2.543  -2.617  0.00  0.00    -0.034 A 
ATOM      5  C4  UNL d   1      -4.621  -3.708  -2.038  0.00  0.00     0.162 A 
ATOM      6  C5  UNL d   1      -4.497  -4.870  -2.793  0.00  0.00     0.062 A 
ATOM      7  F   UNL d   1      -4.009  -5.985  -2.229  0.00  0.00    -0.097 F 
ATOM      8  F1  UNL d   1      -4.247  -3.727  -0.751  0.00  0.00    -0.096 F 
ATOM      9  I   UNL d   1      -5.316  -0.803  -1.491  0.00  0.00    -0.060 I 
ATOM     10  F2  UNL d   1      -5.998  -1.460  -4.548  0.00  0.00    -0.096 F 
ATOM     11  F3  UNL d   1      -5.748  -3.732  -6.000  0.00  0.00    -0.097 F 
ATOM     12  F4  UNL d   1      -4.755  -6.000  -4.853  0.00  0.00    -0.092 F 
ENDROOT
TORSDOF 0
ENDMDL
