MODEL 1
REMARK minimizedAffinity 24.3635082
REMARK minimizedRMSD -1
REMARK  0 active torsions:
REMARK  status: ('A' for Active; 'I' for Inactive)
ROOT
ATOM      1  C   UNL d   1      -3.700   2.400   1.056  0.00  0.00     0.124 A 
ATOM      2  C1  UNL d   1      -2.724   1.693   0.368  0.00  0.00     0.062 A 
ATOM      3  C2  UNL d   1      -2.846   1.485  -1.003  0.00  0.00     0.162 A 
ATOM      4  C3  UNL d   1      -3.948   1.986  -1.696  0.00  0.00    -0.034 A 
ATOM      5  C4  UNL d   1      -4.926   2.695  -0.996  0.00  0.00     0.162 A 
ATOM      6  C5  UNL d   1      -4.800   2.900   0.374  0.00  0.00     0.062 A 
ATOM      7  F   UNL d   1      -5.744   3.583   1.037  0.00  0.00    -0.097 F 
ATOM      8  F1  UNL d   1      -5.999   3.190  -1.631  0.00  0.00    -0.096 F 
ATOM      9  I   UNL d   1      -4.134   1.677  -3.746  0.00  0.00    -0.060 I 
ATOM     10  F2  UNL d   1      -1.887   0.798  -1.643  0.00  0.00    -0.096 F 
ATOM     11  F3  UNL d   1      -1.661   1.208   1.025  0.00  0.00    -0.097 F 
ATOM     12  F4  UNL d   1      -3.581   2.597   2.375  0.00  0.00    -0.092 F 
ENDROOT
TORSDOF 0
ENDMDL
