MODEL 1
REMARK minimizedAffinity 10.747304
REMARK minimizedRMSD -1
REMARK  0 active torsions:
REMARK  status: ('A' for Active; 'I' for Inactive)
ROOT
ATOM      1  C   UNL d   1       0.345  -4.277  -3.628  0.00  0.00     0.020 A 
ATOM      2  C1  UNL d   1      -0.323  -3.550  -2.645  0.00  0.00     0.020 A 
ATOM      3  C2  UNL d   1       0.157  -3.543  -1.333  0.00  0.00     0.034 A 
ATOM      4  C3  UNL d   1       1.310  -4.265  -1.003  0.00  0.00     0.017 A 
ATOM      5  C4  UNL d   1       1.980  -4.995  -1.991  0.00  0.00     0.017 A 
ATOM      6  C5  UNL d   1       1.495  -4.998  -3.302  0.00  0.00     0.034 A 
ATOM      7 Cl   UNL d   1       3.409  -5.910  -1.659  0.00  0.00    -0.070 Cl
ATOM      8 Cl1  UNL d   1       1.848  -4.212   0.638  0.00  0.00    -0.070 Cl
ENDROOT
TORSDOF 0
ENDMDL
