MODEL 1
REMARK minimizedAffinity 13.5675354
REMARK minimizedRMSD -1
REMARK  0 active torsions:
REMARK  status: ('A' for Active; 'I' for Inactive)
ROOT
ATOM      1  C   UNL d   1       0.215   1.257   3.223  0.00  0.00     0.020 A 
ATOM      2  C1  UNL d   1      -0.341   0.434   4.201  0.00  0.00     0.020 A 
ATOM      3  C2  UNL d   1       0.301  -0.751   4.564  0.00  0.00     0.034 A 
ATOM      4  C3  UNL d   1       1.504  -1.118   3.949  0.00  0.00     0.017 A 
ATOM      5  C4  UNL d   1       2.061  -0.291   2.967  0.00  0.00     0.017 A 
ATOM      6  C5  UNL d   1       1.414   0.895   2.607  0.00  0.00     0.034 A 
ATOM      7 Cl   UNL d   1       3.542  -0.676   2.163  0.00  0.00    -0.070 Cl
ATOM      8 Cl1  UNL d   1       2.243  -2.597   4.447  0.00  0.00    -0.070 Cl
ENDROOT
TORSDOF 0
ENDMDL
