MODEL 1
REMARK minimizedAffinity 12.6226254
REMARK minimizedRMSD -1
REMARK  0 active torsions:
REMARK  status: ('A' for Active; 'I' for Inactive)
ROOT
ATOM      1  C   UNL d   1       0.802   3.658  -1.786  0.00  0.00     0.020 A 
ATOM      2  C1  UNL d   1      -0.571   3.901  -1.752  0.00  0.00     0.020 A 
ATOM      3  C2  UNL d   1      -1.336   3.433  -0.682  0.00  0.00     0.034 A 
ATOM      4  C3  UNL d   1      -0.730   2.719   0.358  0.00  0.00     0.017 A 
ATOM      5  C4  UNL d   1       0.648   2.476   0.323  0.00  0.00     0.017 A 
ATOM      6  C5  UNL d   1       1.410   2.947  -0.751  0.00  0.00     0.034 A 
ATOM      7 Cl   UNL d   1       1.467   1.603   1.570  0.00  0.00    -0.070 Cl
ATOM      8 Cl1  UNL d   1      -1.738   2.170   1.650  0.00  0.00    -0.070 Cl
ENDROOT
TORSDOF 0
ENDMDL
