MODEL 1
REMARK minimizedAffinity 14.3311634
REMARK minimizedRMSD -1
REMARK  0 active torsions:
REMARK  status: ('A' for Active; 'I' for Inactive)
ROOT
ATOM      1  C   UNL d   1      -1.092   3.088  -0.956  0.00  0.00     0.020 A 
ATOM      2  C1  UNL d   1      -1.065   2.276   0.177  0.00  0.00     0.020 A 
ATOM      3  C2  UNL d   1       0.115   2.143   0.913  0.00  0.00     0.034 A 
ATOM      4  C3  UNL d   1       1.272   2.822   0.516  0.00  0.00     0.017 A 
ATOM      5  C4  UNL d   1       1.244   3.637  -0.622  0.00  0.00     0.017 A 
ATOM      6  C5  UNL d   1       0.061   3.767  -1.354  0.00  0.00     0.034 A 
ATOM      7 Cl   UNL d   1       2.633   4.506  -1.173  0.00  0.00    -0.070 Cl
ATOM      8 Cl1  UNL d   1       2.695   2.611   1.473  0.00  0.00    -0.070 Cl
ENDROOT
TORSDOF 0
ENDMDL
