MODEL 1
REMARK minimizedAffinity 21.2163963
REMARK minimizedRMSD -1
REMARK  0 active torsions:
REMARK  status: ('A' for Active; 'I' for Inactive)
ROOT
ATOM      1  C   UNL d   1      -0.429  -1.781   5.997  0.00  0.00     0.020 A 
ATOM      2  C1  UNL d   1      -1.523  -2.596   5.711  0.00  0.00     0.020 A 
ATOM      3  C2  UNL d   1      -2.302  -2.348   4.579  0.00  0.00     0.034 A 
ATOM      4  C3  UNL d   1      -1.989  -1.280   3.730  0.00  0.00     0.017 A 
ATOM      5  C4  UNL d   1      -0.891  -0.462   4.018  0.00  0.00     0.017 A 
ATOM      6  C5  UNL d   1      -0.114  -0.716   5.152  0.00  0.00     0.034 A 
ATOM      7 Cl   UNL d   1      -0.442   0.873   3.017  0.00  0.00    -0.070 Cl
ATOM      8 Cl1  UNL d   1      -2.996  -1.031   2.348  0.00  0.00    -0.070 Cl
ENDROOT
TORSDOF 0
ENDMDL
