MODEL 1
REMARK minimizedAffinity 5.03942776
REMARK minimizedRMSD -1
REMARK  1 active torsions:
REMARK  status: ('A' for Active; 'I' for Inactive)
REMARK    1  A    between atoms: C1_2  and  C2_3 
ROOT
ATOM      1  C2  UNL d   1       3.127   4.639   5.896  0.00  0.00    -0.081 A 
ATOM      2  C3  UNL d   1       2.339   3.484   5.819  0.00  0.00     0.006 A 
ATOM      3  C4  UNL d   1       2.934   2.221   5.793  0.00  0.00     0.002 A 
ATOM      4  C5  UNL d   1       4.326   2.090   5.851  0.00  0.00    -0.080 A 
ATOM      5  C6  UNL d   1       4.976   0.739   5.854  0.00  0.00     0.076 C 
ATOM      6  C7  UNL d   1       5.114   3.245   5.909  0.00  0.00     0.002 A 
ATOM      7  C8  UNL d   1       4.520   4.508   5.935  0.00  0.00     0.006 A 
ENDROOT
BRANCH   1   8
ATOM      8  C1  UNL d   1       2.486   6.000   5.989  0.00  0.00     0.054 C 
ATOM      9  C   UNL d   1       0.970   5.905   5.895  0.00  0.00     0.018 C 
ENDBRANCH   1   8
TORSDOF 1
ENDMDL
