MODEL 1
REMARK minimizedAffinity 6.19966125
REMARK minimizedRMSD -1
REMARK  1 active torsions:
REMARK  status: ('A' for Active; 'I' for Inactive)
REMARK    1  A    between atoms: C1_2  and  C2_3 
ROOT
ATOM      1  C2  UNL d   1       4.976   3.625   5.691  0.00  0.00    -0.081 A 
ATOM      2  C3  UNL d   1       5.347   2.307   5.402  0.00  0.00     0.006 A 
ATOM      3  C4  UNL d   1       4.394   1.286   5.407  0.00  0.00     0.002 A 
ATOM      4  C5  UNL d   1       3.053   1.567   5.693  0.00  0.00    -0.080 A 
ATOM      5  C6  UNL d   1       2.015   0.485   5.672  0.00  0.00     0.076 C 
ATOM      6  C7  UNL d   1       2.686   2.881   6.000  0.00  0.00     0.002 A 
ATOM      7  C8  UNL d   1       3.638   3.903   5.996  0.00  0.00     0.006 A 
ENDROOT
BRANCH   1   8
ATOM      8  C1  UNL d   1       5.989   4.739   5.624  0.00  0.00     0.054 C 
ATOM      9  C   UNL d   1       5.445   5.937   4.858  0.00  0.00     0.018 C 
ENDBRANCH   1   8
TORSDOF 1
ENDMDL
