MODEL 1
REMARK minimizedAffinity 8.4842701
REMARK minimizedRMSD -1
REMARK  1 active torsions:
REMARK  status: ('A' for Active; 'I' for Inactive)
REMARK    1  A    between atoms: C1_2  and  C2_3 
ROOT
ATOM      1  C2  UNL d   1       4.113   1.757   5.771  0.00  0.00    -0.081 A 
ATOM      2  C3  UNL d   1       5.460   1.990   5.470  0.00  0.00     0.006 A 
ATOM      3  C4  UNL d   1       5.957   3.294   5.407  0.00  0.00     0.002 A 
ATOM      4  C5  UNL d   1       5.116   4.386   5.651  0.00  0.00    -0.080 A 
ATOM      5  C6  UNL d   1       5.643   5.789   5.616  0.00  0.00     0.076 C 
ATOM      6  C7  UNL d   1       3.766   4.154   5.934  0.00  0.00     0.002 A 
ATOM      7  C8  UNL d   1       3.269   2.850   5.997  0.00  0.00     0.006 A 
ENDROOT
BRANCH   1   8
ATOM      8  C1  UNL d   1       3.589   0.349   5.903  0.00  0.00     0.054 C 
ATOM      9  C   UNL d   1       2.561   0.038   4.825  0.00  0.00     0.018 C 
ENDBRANCH   1   8
TORSDOF 1
ENDMDL
