MODEL 1
REMARK minimizedAffinity 5.72930479
REMARK minimizedRMSD -1
REMARK  1 active torsions:
REMARK  status: ('A' for Active; 'I' for Inactive)
REMARK    1  A    between atoms: C1_2  and  C2_3 
ROOT
ATOM      1  C2  UNL d   1      -3.739   4.414   0.808  0.00  0.00    -0.081 A 
ATOM      2  C3  UNL d   1      -4.817   4.209  -0.062  0.00  0.00     0.006 A 
ATOM      3  C4  UNL d   1      -5.542   3.015  -0.022  0.00  0.00     0.002 A 
ATOM      4  C5  UNL d   1      -5.206   2.012   0.893  0.00  0.00    -0.080 A 
ATOM      5  C6  UNL d   1      -5.995   0.738   0.967  0.00  0.00     0.076 C 
ATOM      6  C7  UNL d   1      -4.119   2.210   1.750  0.00  0.00     0.002 A 
ATOM      7  C8  UNL d   1      -3.393   3.402   1.710  0.00  0.00     0.006 A 
ENDROOT
BRANCH   1   8
ATOM      8  C1  UNL d   1      -2.996   5.726   0.811  0.00  0.00     0.054 C 
ATOM      9  C   UNL d   1      -2.004   5.797   1.963  0.00  0.00     0.018 C 
ENDBRANCH   1   8
TORSDOF 1
ENDMDL
