MODEL 1
REMARK minimizedAffinity 16.0663948
REMARK minimizedRMSD -1
REMARK  1 active torsions:
REMARK  status: ('A' for Active; 'I' for Inactive)
REMARK    1  A    between atoms: C1_2  and  C2_3 
ROOT
ATOM      1  C2  UNL d   1      -3.728   1.116  -4.141  0.00  0.00    -0.081 A 
ATOM      2  C3  UNL d   1      -3.603  -0.057  -3.387  0.00  0.00     0.006 A 
ATOM      3  C4  UNL d   1      -2.731  -0.109  -2.297  0.00  0.00     0.002 A 
ATOM      4  C5  UNL d   1      -1.977   1.013  -1.938  0.00  0.00    -0.080 A 
ATOM      5  C6  UNL d   1      -1.060   0.980  -0.751  0.00  0.00     0.076 C 
ATOM      6  C7  UNL d   1      -2.089   2.180  -2.702  0.00  0.00     0.002 A 
ATOM      7  C8  UNL d   1      -2.959   2.232  -3.792  0.00  0.00     0.006 A 
ENDROOT
BRANCH   1   8
ATOM      8  C1  UNL d   1      -4.715   1.195  -5.278  0.00  0.00     0.054 C 
ATOM      9  C   UNL d   1      -6.000   0.449  -4.948  0.00  0.00     0.018 C 
ENDBRANCH   1   8
TORSDOF 1
ENDMDL
