MODEL 1
REMARK minimizedAffinity 7.48149538
REMARK minimizedRMSD -1
REMARK  1 active torsions:
REMARK  status: ('A' for Active; 'I' for Inactive)
REMARK    1  A    between atoms: C1_2  and  C2_3 
ROOT
ATOM      1  C2  UNL d   1       5.296   2.898   2.254  0.00  0.00    -0.081 A 
ATOM      2  C3  UNL d   1       4.143   2.135   2.477  0.00  0.00     0.006 A 
ATOM      3  C4  UNL d   1       3.459   2.225   3.691  0.00  0.00     0.002 A 
ATOM      4  C5  UNL d   1       3.911   3.083   4.699  0.00  0.00    -0.080 A 
ATOM      5  C6  UNL d   1       3.168   3.211   5.996  0.00  0.00     0.076 C 
ATOM      6  C7  UNL d   1       5.073   3.832   4.484  0.00  0.00     0.002 A 
ATOM      7  C8  UNL d   1       5.758   3.742   3.270  0.00  0.00     0.006 A 
ENDROOT
BRANCH   1   8
ATOM      8  C1  UNL d   1       6.000   2.852   0.922  0.00  0.00     0.054 C 
ATOM      9  C   UNL d   1       5.989   4.215   0.243  0.00  0.00     0.018 C 
ENDBRANCH   1   8
TORSDOF 1
ENDMDL
