MODEL 1
REMARK minimizedAffinity 5.87930346
REMARK minimizedRMSD -1
REMARK  0 active torsions:
REMARK  status: ('A' for Active; 'I' for Inactive)
ROOT
ATOM      1  C   UNL d   1       5.004   1.506  -1.830  0.00  0.00     0.020 A 
ATOM      2  C1  UNL d   1       5.526   1.624  -0.543  0.00  0.00     0.020 A 
ATOM      3  C2  UNL d   1       4.878   1.013   0.532  0.00  0.00     0.034 A 
ATOM      4  C3  UNL d   1       3.704   0.280   0.322  0.00  0.00     0.017 A 
ATOM      5  C4  UNL d   1       3.180   0.162  -0.971  0.00  0.00     0.017 A 
ATOM      6  C5  UNL d   1       3.834   0.776  -2.044  0.00  0.00     0.034 A 
ATOM      7 Cl   UNL d   1       1.736  -0.726  -1.308  0.00  0.00    -0.070 Cl
ATOM      8 Cl1  UNL d   1       2.955  -0.450   1.698  0.00  0.00    -0.070 Cl
ENDROOT
TORSDOF 0
ENDMDL
