MODEL 1
REMARK minimizedAffinity 4.06677771
REMARK minimizedRMSD -1
REMARK  0 active torsions:
REMARK  status: ('A' for Active; 'I' for Inactive)
ROOT
ATOM      1  C   UNL d   1       2.518  -0.156  -0.272  0.00  0.00     0.020 A 
ATOM      2  C1  UNL d   1       2.601  -0.111  -1.664  0.00  0.00     0.020 A 
ATOM      3  C2  UNL d   1       3.549   0.708  -2.281  0.00  0.00     0.034 A 
ATOM      4  C3  UNL d   1       4.418   1.485  -1.506  0.00  0.00     0.017 A 
ATOM      5  C4  UNL d   1       4.335   1.439  -0.110  0.00  0.00     0.017 A 
ATOM      6  C5  UNL d   1       3.384   0.617   0.502  0.00  0.00     0.034 A 
ATOM      7 Cl   UNL d   1       5.373   2.369   0.912  0.00  0.00    -0.070 Cl
ATOM      8 Cl1  UNL d   1       5.567   2.474  -2.336  0.00  0.00    -0.070 Cl
ENDROOT
TORSDOF 0
ENDMDL
