MODEL 1
REMARK minimizedAffinity 3.67777324
REMARK minimizedRMSD -1
REMARK  0 active torsions:
REMARK  status: ('A' for Active; 'I' for Inactive)
ROOT
ATOM      1  C   UNL d   1       4.081   1.501   0.909  0.00  0.00     0.020 A 
ATOM      2  C1  UNL d   1       2.845   1.405   1.548  0.00  0.00     0.020 A 
ATOM      3  C2  UNL d   1       1.711   1.033   0.824  0.00  0.00     0.034 A 
ATOM      4  C3  UNL d   1       1.809   0.755  -0.544  0.00  0.00     0.017 A 
ATOM      5  C4  UNL d   1       3.050   0.851  -1.185  0.00  0.00     0.017 A 
ATOM      6  C5  UNL d   1       4.182   1.225  -0.455  0.00  0.00     0.034 A 
ATOM      7 Cl   UNL d   1       3.250   0.524  -2.871  0.00  0.00    -0.070 Cl
ATOM      8 Cl1  UNL d   1       0.366   0.300  -1.378  0.00  0.00    -0.070 Cl
ENDROOT
TORSDOF 0
ENDMDL
