MODEL 1
REMARK minimizedAffinity 1.9032867
REMARK minimizedRMSD -1
REMARK  0 active torsions:
REMARK  status: ('A' for Active; 'I' for Inactive)
ROOT
ATOM      1  C   UNL d   1       2.470   0.114  -0.583  0.00  0.00     0.020 A 
ATOM      2  C1  UNL d   1       2.618   0.229  -1.964  0.00  0.00     0.020 A 
ATOM      3  C2  UNL d   1       3.676   0.971  -2.494  0.00  0.00     0.034 A 
ATOM      4  C3  UNL d   1       4.590   1.600  -1.642  0.00  0.00     0.017 A 
ATOM      5  C4  UNL d   1       4.442   1.484  -0.255  0.00  0.00     0.017 A 
ATOM      6  C5  UNL d   1       3.381   0.740   0.270  0.00  0.00     0.034 A 
ATOM      7 Cl   UNL d   1       5.530   2.232   0.859  0.00  0.00    -0.070 Cl
ATOM      8 Cl1  UNL d   1       5.875   2.501  -2.366  0.00  0.00    -0.070 Cl
ENDROOT
TORSDOF 0
ENDMDL
