MODEL 1
REMARK minimizedAffinity 6.25440693
REMARK minimizedRMSD -1
REMARK  0 active torsions:
REMARK  status: ('A' for Active; 'I' for Inactive)
ROOT
ATOM      1  C   UNL d   1      -0.825   3.899   0.763  0.00  0.00     0.020 A 
ATOM      2  C1  UNL d   1      -2.144   3.502   0.548  0.00  0.00     0.020 A 
ATOM      3  C2  UNL d   1      -2.414   2.315  -0.135  0.00  0.00     0.034 A 
ATOM      4  C3  UNL d   1      -1.363   1.520  -0.607  0.00  0.00     0.017 A 
ATOM      5  C4  UNL d   1      -0.039   1.919  -0.391  0.00  0.00     0.017 A 
ATOM      6  C5  UNL d   1       0.225   3.109   0.295  0.00  0.00     0.034 A 
ATOM      7 Cl   UNL d   1       1.311   0.990  -0.942  0.00  0.00    -0.070 Cl
ATOM      8 Cl1  UNL d   1      -1.770   0.064  -1.443  0.00  0.00    -0.070 Cl
ENDROOT
TORSDOF 0
ENDMDL
