MODEL 1
REMARK minimizedAffinity 6.36986828
REMARK minimizedRMSD -1
REMARK  0 active torsions:
REMARK  status: ('A' for Active; 'I' for Inactive)
ROOT
ATOM      1  C   UNL d   1       0.504   3.754   0.805  0.00  0.00     0.020 A 
ATOM      2  C1  UNL d   1      -0.827   3.835   0.397  0.00  0.00     0.020 A 
ATOM      3  C2  UNL d   1      -1.375   2.829  -0.402  0.00  0.00     0.034 A 
ATOM      4  C3  UNL d   1      -0.591   1.738  -0.795  0.00  0.00     0.017 A 
ATOM      5  C4  UNL d   1       0.744   1.658  -0.385  0.00  0.00     0.017 A 
ATOM      6  C5  UNL d   1       1.288   2.668   0.415  0.00  0.00     0.034 A 
ATOM      7 Cl   UNL d   1       1.773   0.342  -0.830  0.00  0.00    -0.070 Cl
ATOM      8 Cl1  UNL d   1      -1.334   0.530  -1.783  0.00  0.00    -0.070 Cl
ENDROOT
TORSDOF 0
ENDMDL
