MODEL 1
REMARK minimizedAffinity 7.58391762
REMARK minimizedRMSD -1
REMARK  0 active torsions:
REMARK  status: ('A' for Active; 'I' for Inactive)
ROOT
ATOM      1  C   UNL d   1       0.744   0.473  -1.335  0.00  0.00     0.020 A 
ATOM      2  C1  UNL d   1       1.956   0.105  -0.752  0.00  0.00     0.020 A 
ATOM      3  C2  UNL d   1       2.525   0.907   0.240  0.00  0.00     0.034 A 
ATOM      4  C3  UNL d   1       1.883   2.080   0.651  0.00  0.00     0.017 A 
ATOM      5  C4  UNL d   1       0.666   2.448   0.065  0.00  0.00     0.017 A 
ATOM      6  C5  UNL d   1       0.101   1.642  -0.927  0.00  0.00     0.034 A 
ATOM      7 Cl   UNL d   1      -0.186   3.881   0.521  0.00  0.00    -0.070 Cl
ATOM      8 Cl1  UNL d   1       2.644   3.024   1.883  0.00  0.00    -0.070 Cl
ENDROOT
TORSDOF 0
ENDMDL
