MODEL 1
REMARK minimizedAffinity 8.21660137
REMARK minimizedRMSD -1
REMARK  0 active torsions:
REMARK  status: ('A' for Active; 'I' for Inactive)
ROOT
ATOM      1  C   UNL d   1       2.729   0.059  -0.488  0.00  0.00     0.020 A 
ATOM      2  C1  UNL d   1       2.609   0.061  -1.878  0.00  0.00     0.020 A 
ATOM      3  C2  UNL d   1       3.543   0.745  -2.658  0.00  0.00     0.034 A 
ATOM      4  C3  UNL d   1       4.602   1.430  -2.050  0.00  0.00     0.017 A 
ATOM      5  C4  UNL d   1       4.721   1.427  -0.655  0.00  0.00     0.017 A 
ATOM      6  C5  UNL d   1       3.783   0.741   0.121  0.00  0.00     0.034 A 
ATOM      7 Cl   UNL d   1       6.000   2.250   0.167  0.00  0.00    -0.070 Cl
ATOM      8 Cl1  UNL d   1       5.721   2.254  -3.077  0.00  0.00    -0.070 Cl
ENDROOT
TORSDOF 0
ENDMDL
