MODEL 1
REMARK minimizedAffinity 4.36853838
REMARK minimizedRMSD -1
REMARK  0 active torsions:
REMARK  status: ('A' for Active; 'I' for Inactive)
ROOT
ATOM      1  C   UNL d   1       2.467  -1.496  -4.030  0.00  0.00     0.020 A 
ATOM      2  C1  UNL d   1       1.775  -1.866  -2.878  0.00  0.00     0.020 A 
ATOM      3  C2  UNL d   1       1.884  -1.093  -1.720  0.00  0.00     0.034 A 
ATOM      4  C3  UNL d   1       2.688   0.053  -1.711  0.00  0.00     0.017 A 
ATOM      5  C4  UNL d   1       3.383   0.422  -2.868  0.00  0.00     0.017 A 
ATOM      6  C5  UNL d   1       3.270  -0.355  -4.025  0.00  0.00     0.034 A 
ATOM      7 Cl   UNL d   1       4.394   1.822  -2.935  0.00  0.00    -0.070 Cl
ATOM      8 Cl1  UNL d   1       2.777   0.961  -0.244  0.00  0.00    -0.070 Cl
ENDROOT
TORSDOF 0
ENDMDL
