MODEL 1
REMARK minimizedAffinity 11.911622
REMARK minimizedRMSD -1
REMARK  0 active torsions:
REMARK  status: ('A' for Active; 'I' for Inactive)
ROOT
ATOM      1  C   UNL d   1      -0.013   5.187   1.930  0.00  0.00     0.020 A 
ATOM      2  C1  UNL d   1       0.682   3.983   1.828  0.00  0.00     0.020 A 
ATOM      3  C2  UNL d   1       0.229   2.987   0.959  0.00  0.00     0.034 A 
ATOM      4  C3  UNL d   1      -0.921   3.195   0.189  0.00  0.00     0.017 A 
ATOM      5  C4  UNL d   1      -1.617   4.405   0.292  0.00  0.00     0.017 A 
ATOM      6  C5  UNL d   1      -1.160   5.398   1.164  0.00  0.00     0.034 A 
ATOM      7 Cl   UNL d   1      -3.044   4.734  -0.626  0.00  0.00    -0.070 Cl
ATOM      8 Cl1  UNL d   1      -1.423   1.921  -0.865  0.00  0.00    -0.070 Cl
ENDROOT
TORSDOF 0
ENDMDL
