MODEL 1
REMARK minimizedAffinity 7.88769436
REMARK minimizedRMSD -1
REMARK  0 active torsions:
REMARK  status: ('A' for Active; 'I' for Inactive)
ROOT
ATOM      1  C   UNL d   1       6.000  -3.202  -4.024  0.00  0.00     0.020 A 
ATOM      2  C1  UNL d   1       5.821  -3.193  -5.407  0.00  0.00     0.020 A 
ATOM      3  C2  UNL d   1       4.887  -4.047  -5.996  0.00  0.00     0.034 A 
ATOM      4  C3  UNL d   1       4.127  -4.914  -5.202  0.00  0.00     0.017 A 
ATOM      5  C4  UNL d   1       4.307  -4.922  -3.814  0.00  0.00     0.017 A 
ATOM      6  C5  UNL d   1       5.244  -4.065  -3.230  0.00  0.00     0.034 A 
ATOM      7 Cl   UNL d   1       3.407  -5.964  -2.769  0.00  0.00    -0.070 Cl
ATOM      8 Cl1  UNL d   1       2.989  -5.943  -5.997  0.00  0.00    -0.070 Cl
ENDROOT
TORSDOF 0
ENDMDL
