MODEL 1
REMARK minimizedAffinity 2.8432188
REMARK minimizedRMSD -1
REMARK  0 active torsions:
REMARK  status: ('A' for Active; 'I' for Inactive)
ROOT
ATOM      1  C   UNL d   1      -1.382  -3.499  -1.314  0.00  0.00     0.020 A 
ATOM      2  C1  UNL d   1      -0.470  -2.686  -1.986  0.00  0.00     0.020 A 
ATOM      3  C2  UNL d   1       0.103  -1.593  -1.333  0.00  0.00     0.034 A 
ATOM      4  C3  UNL d   1      -0.236  -1.308  -0.006  0.00  0.00     0.017 A 
ATOM      5  C4  UNL d   1      -1.151  -2.125   0.668  0.00  0.00     0.017 A 
ATOM      6  C5  UNL d   1      -1.722  -3.219   0.010  0.00  0.00     0.034 A 
ATOM      7 Cl   UNL d   1      -1.619  -1.837   2.307  0.00  0.00    -0.070 Cl
ATOM      8 Cl1  UNL d   1       0.511   0.060   0.739  0.00  0.00    -0.070 Cl
ENDROOT
TORSDOF 0
ENDMDL
