MODEL 1
REMARK minimizedAffinity 12.9259825
REMARK minimizedRMSD -1
REMARK  0 active torsions:
REMARK  status: ('A' for Active; 'I' for Inactive)
ROOT
ATOM      1  C   UNL d   1      -0.391  -2.227   0.498  0.00  0.00     0.020 A 
ATOM      2  C1  UNL d   1      -1.502  -2.927   0.969  0.00  0.00     0.020 A 
ATOM      3  C2  UNL d   1      -2.276  -3.682   0.086  0.00  0.00     0.034 A 
ATOM      4  C3  UNL d   1      -1.942  -3.740  -1.272  0.00  0.00     0.017 A 
ATOM      5  C4  UNL d   1      -0.827  -3.038  -1.743  0.00  0.00     0.017 A 
ATOM      6  C5  UNL d   1      -0.055  -2.283  -0.855  0.00  0.00     0.034 A 
ATOM      7 Cl   UNL d   1      -0.351  -3.061  -3.404  0.00  0.00    -0.070 Cl
ATOM      8 Cl1  UNL d   1      -2.944  -4.695  -2.306  0.00  0.00    -0.070 Cl
ENDROOT
TORSDOF 0
ENDMDL
