MODEL 1
REMARK minimizedAffinity 7.99884081
REMARK minimizedRMSD -1
REMARK  0 active torsions:
REMARK  status: ('A' for Active; 'I' for Inactive)
ROOT
ATOM      1  C   UNL d   1       4.081   0.560  -5.980  0.00  0.00     0.020 A 
ATOM      2  C1  UNL d   1       5.463   0.743  -5.962  0.00  0.00     0.020 A 
ATOM      3  C2  UNL d   1       5.996   2.034  -5.955  0.00  0.00     0.034 A 
ATOM      4  C3  UNL d   1       5.147   3.146  -5.966  0.00  0.00     0.017 A 
ATOM      5  C4  UNL d   1       3.760   2.962  -5.984  0.00  0.00     0.017 A 
ATOM      6  C5  UNL d   1       3.231   1.667  -5.992  0.00  0.00     0.034 A 
ATOM      7 Cl   UNL d   1       2.649   4.285  -5.999  0.00  0.00    -0.070 Cl
ATOM      8 Cl1  UNL d   1       5.876   4.713  -5.956  0.00  0.00    -0.070 Cl
ENDROOT
TORSDOF 0
ENDMDL
