MODEL 1
REMARK minimizedAffinity 12.5568504
REMARK minimizedRMSD -1
REMARK  0 active torsions:
REMARK  status: ('A' for Active; 'I' for Inactive)
ROOT
ATOM      1  C   UNL d   1      -1.127  -2.834  -1.714  0.00  0.00     0.020 A 
ATOM      2  C1  UNL d   1      -2.249  -3.436  -1.146  0.00  0.00     0.020 A 
ATOM      3  C2  UNL d   1      -2.549  -3.224   0.201  0.00  0.00     0.034 A 
ATOM      4  C3  UNL d   1      -1.726  -2.407   0.985  0.00  0.00     0.017 A 
ATOM      5  C4  UNL d   1      -0.600  -1.803   0.414  0.00  0.00     0.017 A 
ATOM      6  C5  UNL d   1      -0.305  -2.019  -0.936  0.00  0.00     0.034 A 
ATOM      7 Cl   UNL d   1       0.462  -0.783   1.318  0.00  0.00    -0.070 Cl
ATOM      8 Cl1  UNL d   1      -2.157  -2.188   2.644  0.00  0.00    -0.070 Cl
ENDROOT
TORSDOF 0
ENDMDL
