MODEL 1
REMARK minimizedAffinity 15.1085033
REMARK minimizedRMSD -1
REMARK  0 active torsions:
REMARK  status: ('A' for Active; 'I' for Inactive)
ROOT
ATOM      1  C   UNL d   1      -1.086  -3.083  -2.249  0.00  0.00     0.020 A 
ATOM      2  C1  UNL d   1      -0.412  -3.083  -1.029  0.00  0.00     0.020 A 
ATOM      3  C2  UNL d   1      -0.774  -3.992  -0.032  0.00  0.00     0.034 A 
ATOM      4  C3  UNL d   1      -1.812  -4.904  -0.254  0.00  0.00     0.017 A 
ATOM      5  C4  UNL d   1      -2.487  -4.904  -1.480  0.00  0.00     0.017 A 
ATOM      6  C5  UNL d   1      -2.121  -3.991  -2.475  0.00  0.00     0.034 A 
ATOM      7 Cl   UNL d   1      -3.778  -5.999  -1.828  0.00  0.00    -0.070 Cl
ATOM      8 Cl1  UNL d   1      -2.205  -6.000   1.023  0.00  0.00    -0.070 Cl
ENDROOT
TORSDOF 0
ENDMDL
