MODEL 1
REMARK minimizedAffinity 7.7089057
REMARK minimizedRMSD -1
REMARK  0 active torsions:
REMARK  status: ('A' for Active; 'I' for Inactive)
ROOT
ATOM      1  C   UNL d   1      -0.462  -2.807  -1.436  0.00  0.00     0.020 A 
ATOM      2  C1  UNL d   1      -0.220  -3.009  -0.078  0.00  0.00     0.020 A 
ATOM      3  C2  UNL d   1       0.290  -1.969   0.703  0.00  0.00     0.034 A 
ATOM      4  C3  UNL d   1       0.560  -0.723   0.126  0.00  0.00     0.017 A 
ATOM      5  C4  UNL d   1       0.316  -0.521  -1.238  0.00  0.00     0.017 A 
ATOM      6  C5  UNL d   1      -0.195  -1.566  -2.014  0.00  0.00     0.034 A 
ATOM      7 Cl   UNL d   1       0.624   0.989  -2.021  0.00  0.00    -0.070 Cl
ATOM      8 Cl1  UNL d   1       1.189   0.518   1.150  0.00  0.00    -0.070 Cl
ENDROOT
TORSDOF 0
ENDMDL
