MODEL 1
REMARK minimizedAffinity 9.34033108
REMARK minimizedRMSD -1
REMARK  0 active torsions:
REMARK  status: ('A' for Active; 'I' for Inactive)
ROOT
ATOM      1  C   UNL d   1      -1.404   3.037   1.068  0.00  0.00     0.020 A 
ATOM      2  C1  UNL d   1      -1.160   3.760  -0.099  0.00  0.00     0.020 A 
ATOM      3  C2  UNL d   1       0.110   3.743  -0.679  0.00  0.00     0.034 A 
ATOM      4  C3  UNL d   1       1.142   3.001  -0.091  0.00  0.00     0.017 A 
ATOM      5  C4  UNL d   1       0.896   2.276   1.080  0.00  0.00     0.017 A 
ATOM      6  C5  UNL d   1      -0.378   2.296   1.656  0.00  0.00     0.034 A 
ATOM      7 Cl   UNL d   1       2.118   1.338   1.863  0.00  0.00    -0.070 Cl
ATOM      8 Cl1  UNL d   1       2.688   3.025  -0.862  0.00  0.00    -0.070 Cl
ENDROOT
TORSDOF 0
ENDMDL
