MODEL 1
REMARK minimizedAffinity 8.34676743
REMARK minimizedRMSD -1
REMARK  0 active torsions:
REMARK  status: ('A' for Active; 'I' for Inactive)
ROOT
ATOM      1  C   UNL d   1       0.149   2.631   1.257  0.00  0.00     0.020 A 
ATOM      2  C1  UNL d   1       0.815   1.667   0.501  0.00  0.00     0.020 A 
ATOM      3  C2  UNL d   1       0.459   0.322   0.615  0.00  0.00     0.034 A 
ATOM      4  C3  UNL d   1      -0.565  -0.064   1.488  0.00  0.00     0.017 A 
ATOM      5  C4  UNL d   1      -1.233   0.904   2.246  0.00  0.00     0.017 A 
ATOM      6  C5  UNL d   1      -0.873   2.250   2.127  0.00  0.00     0.034 A 
ATOM      7 Cl   UNL d   1      -2.507   0.505   3.343  0.00  0.00    -0.070 Cl
ATOM      8 Cl1  UNL d   1      -0.952  -1.746   1.579  0.00  0.00    -0.070 Cl
ENDROOT
TORSDOF 0
ENDMDL
