MODEL 1
REMARK minimizedAffinity 6.95229673
REMARK minimizedRMSD -1
REMARK  0 active torsions:
REMARK  status: ('A' for Active; 'I' for Inactive)
ROOT
ATOM      1  C   UNL d   1      -1.023  -4.809   3.514  0.00  0.00     0.020 A 
ATOM      2  C1  UNL d   1      -1.249  -5.652   2.426  0.00  0.00     0.020 A 
ATOM      3  C2  UNL d   1      -1.339  -5.121   1.138  0.00  0.00     0.034 A 
ATOM      4  C3  UNL d   1      -1.202  -3.744   0.933  0.00  0.00     0.017 A 
ATOM      5  C4  UNL d   1      -0.975  -2.898   2.025  0.00  0.00     0.017 A 
ATOM      6  C5  UNL d   1      -0.886  -3.435   3.313  0.00  0.00     0.034 A 
ATOM      7 Cl   UNL d   1      -0.796  -1.188   1.852  0.00  0.00    -0.070 Cl
ATOM      8 Cl1  UNL d   1      -1.324  -3.156  -0.687  0.00  0.00    -0.070 Cl
ENDROOT
TORSDOF 0
ENDMDL
