MODEL 1
REMARK minimizedAffinity 12.2719307
REMARK minimizedRMSD -1
REMARK  0 active torsions:
REMARK  status: ('A' for Active; 'I' for Inactive)
ROOT
ATOM      1  C   UNL d   1       2.427   3.505   1.581  0.00  0.00     0.020 A 
ATOM      2  C1  UNL d   1       2.361   2.665   2.692  0.00  0.00     0.020 A 
ATOM      3  C2  UNL d   1       1.829   1.380   2.564  0.00  0.00     0.034 A 
ATOM      4  C3  UNL d   1       1.362   0.931   1.324  0.00  0.00     0.017 A 
ATOM      5  C4  UNL d   1       1.429   1.775   0.209  0.00  0.00     0.017 A 
ATOM      6  C5  UNL d   1       1.962   3.061   0.343  0.00  0.00     0.034 A 
ATOM      7 Cl   UNL d   1       0.872   1.293  -1.354  0.00  0.00    -0.070 Cl
ATOM      8 Cl1  UNL d   1       0.717  -0.670   1.239  0.00  0.00    -0.070 Cl
ENDROOT
TORSDOF 0
ENDMDL
