MODEL 1
REMARK minimizedAffinity 12.7258377
REMARK minimizedRMSD -1
REMARK  0 active torsions:
REMARK  status: ('A' for Active; 'I' for Inactive)
ROOT
ATOM      1  C   UNL d   1       0.631  -2.723  -1.274  0.00  0.00     0.020 A 
ATOM      2  C1  UNL d   1      -0.647  -2.691  -0.717  0.00  0.00     0.020 A 
ATOM      3  C2  UNL d   1      -1.571  -3.689  -1.035  0.00  0.00     0.034 A 
ATOM      4  C3  UNL d   1      -1.219  -4.722  -1.911  0.00  0.00     0.017 A 
ATOM      5  C4  UNL d   1       0.064  -4.752  -2.469  0.00  0.00     0.017 A 
ATOM      6  C5  UNL d   1       0.986  -3.751  -2.148  0.00  0.00     0.034 A 
ATOM      7 Cl   UNL d   1       0.572  -5.994  -3.558  0.00  0.00    -0.070 Cl
ATOM      8 Cl1  UNL d   1      -2.412  -5.922  -2.259  0.00  0.00    -0.070 Cl
ENDROOT
TORSDOF 0
ENDMDL
