MODEL 1
REMARK minimizedAffinity 10.0368156
REMARK minimizedRMSD -1
REMARK  0 active torsions:
REMARK  status: ('A' for Active; 'I' for Inactive)
ROOT
ATOM      1  C   UNL d   1      -1.977  -1.990   0.990  0.00  0.00     0.020 A 
ATOM      2  C1  UNL d   1      -0.985  -1.694   0.057  0.00  0.00     0.020 A 
ATOM      3  C2  UNL d   1      -0.289  -0.486   0.139  0.00  0.00     0.034 A 
ATOM      4  C3  UNL d   1      -0.585   0.430   1.155  0.00  0.00     0.017 A 
ATOM      5  C4  UNL d   1      -1.582   0.132   2.091  0.00  0.00     0.017 A 
ATOM      6  C5  UNL d   1      -2.275  -1.080   2.005  0.00  0.00     0.034 A 
ATOM      7 Cl   UNL d   1      -2.003   1.211   3.373  0.00  0.00    -0.070 Cl
ATOM      8 Cl1  UNL d   1       0.316   1.904   1.195  0.00  0.00    -0.070 Cl
ENDROOT
TORSDOF 0
ENDMDL
