MODEL 1
REMARK minimizedAffinity 10.4953623
REMARK minimizedRMSD -1
REMARK  0 active torsions:
REMARK  status: ('A' for Active; 'I' for Inactive)
ROOT
ATOM      1  C   UNL d   1       2.816   1.686   0.595  0.00  0.00     0.020 A 
ATOM      2  C1  UNL d   1       2.289   1.137   1.763  0.00  0.00     0.020 A 
ATOM      3  C2  UNL d   1       1.052   1.572   2.243  0.00  0.00     0.034 A 
ATOM      4  C3  UNL d   1       0.337   2.558   1.554  0.00  0.00     0.017 A 
ATOM      5  C4  UNL d   1       0.866   3.108   0.381  0.00  0.00     0.017 A 
ATOM      6  C5  UNL d   1       2.105   2.669  -0.095  0.00  0.00     0.034 A 
ATOM      7 Cl   UNL d   1       0.043   4.329  -0.525  0.00  0.00    -0.070 Cl
ATOM      8 Cl1  UNL d   1      -1.187   3.048   2.204  0.00  0.00    -0.070 Cl
ENDROOT
TORSDOF 0
ENDMDL
