MODEL 1
REMARK minimizedAffinity 7.46615648
REMARK minimizedRMSD -1
REMARK  0 active torsions:
REMARK  status: ('A' for Active; 'I' for Inactive)
ROOT
ATOM      1  C   UNL d   1       3.930   3.968   0.283  0.00  0.00     0.020 A 
ATOM      2  C1  UNL d   1       4.730   4.448   1.319  0.00  0.00     0.020 A 
ATOM      3  C2  UNL d   1       4.760   3.780   2.544  0.00  0.00     0.034 A 
ATOM      4  C3  UNL d   1       3.988   2.628   2.737  0.00  0.00     0.017 A 
ATOM      5  C4  UNL d   1       3.185   2.147   1.697  0.00  0.00     0.017 A 
ATOM      6  C5  UNL d   1       3.159   2.820   0.471  0.00  0.00     0.034 A 
ATOM      7 Cl   UNL d   1       2.205   0.733   1.860  0.00  0.00    -0.070 Cl
ATOM      8 Cl1  UNL d   1       4.074   1.852   4.279  0.00  0.00    -0.070 Cl
ENDROOT
TORSDOF 0
ENDMDL
