MODEL 1
REMARK minimizedAffinity 2.44224524
REMARK minimizedRMSD -1
REMARK  0 active torsions:
REMARK  status: ('A' for Active; 'I' for Inactive)
ROOT
ATOM      1  C   UNL d   1       4.501   2.579   3.866  0.00  0.00     0.020 A 
ATOM      2  C1  UNL d   1       5.098   3.416   2.925  0.00  0.00     0.020 A 
ATOM      3  C2  UNL d   1       4.570   3.505   1.635  0.00  0.00     0.034 A 
ATOM      4  C3  UNL d   1       3.442   2.755   1.283  0.00  0.00     0.017 A 
ATOM      5  C4  UNL d   1       2.843   1.915   2.229  0.00  0.00     0.017 A 
ATOM      6  C5  UNL d   1       3.376   1.830   3.519  0.00  0.00     0.034 A 
ATOM      7 Cl   UNL d   1       1.449   0.959   1.870  0.00  0.00    -0.070 Cl
ATOM      8 Cl1  UNL d   1       2.842   2.913  -0.330  0.00  0.00    -0.070 Cl
ENDROOT
TORSDOF 0
ENDMDL
