MODEL 1
REMARK minimizedAffinity -3.43822432
REMARK minimizedRMSD -1
REMARK  0 active torsions:
REMARK  status: ('A' for Active; 'I' for Inactive)
ROOT
ATOM      1  C   UNL d   1       4.856   3.830   3.019  0.00  0.00     0.020 A 
ATOM      2  C1  UNL d   1       4.700   2.715   3.842  0.00  0.00     0.020 A 
ATOM      3  C2  UNL d   1       3.917   1.639   3.418  0.00  0.00     0.034 A 
ATOM      4  C3  UNL d   1       3.286   1.676   2.169  0.00  0.00     0.017 A 
ATOM      5  C4  UNL d   1       3.443   2.796   1.345  0.00  0.00     0.017 A 
ATOM      6  C5  UNL d   1       4.228   3.871   1.774  0.00  0.00     0.034 A 
ATOM      7 Cl   UNL d   1       2.696   2.914  -0.209  0.00  0.00    -0.070 Cl
ATOM      8 Cl1  UNL d   1       2.333   0.310   1.710  0.00  0.00    -0.070 Cl
ENDROOT
TORSDOF 0
ENDMDL
