MODEL 1
REMARK minimizedAffinity 4.73469305
REMARK minimizedRMSD -1
REMARK  0 active torsions:
REMARK  status: ('A' for Active; 'I' for Inactive)
ROOT
ATOM      1  C   UNL d   1       3.903   0.970  -5.978  0.00  0.00     0.020 A 
ATOM      2  C1  UNL d   1       5.293   1.050  -5.892  0.00  0.00     0.020 A 
ATOM      3  C2  UNL d   1       5.917   2.297  -5.819  0.00  0.00     0.034 A 
ATOM      4  C3  UNL d   1       5.152   3.469  -5.833  0.00  0.00     0.017 A 
ATOM      5  C4  UNL d   1       3.758   3.388  -5.919  0.00  0.00     0.017 A 
ATOM      6  C5  UNL d   1       3.138   2.137  -5.992  0.00  0.00     0.034 A 
ATOM      7 Cl   UNL d   1       2.748   4.790  -5.941  0.00  0.00    -0.070 Cl
ATOM      8 Cl1  UNL d   1       5.991   4.977  -5.739  0.00  0.00    -0.070 Cl
ENDROOT
TORSDOF 0
ENDMDL
