MODEL 1
REMARK minimizedAffinity 6.23624611
REMARK minimizedRMSD -1
REMARK  0 active torsions:
REMARK  status: ('A' for Active; 'I' for Inactive)
ROOT
ATOM      1  C   UNL d   1       1.498   3.241  -2.569  0.00  0.00     0.078 C 
ATOM      2  C1  UNL d   1       1.060   4.039  -3.761  0.00  0.00    -0.077 A 
ATOM      3  C2  UNL d   1      -0.152   3.764  -4.407  0.00  0.00    -0.001 A 
ATOM      4  C3  UNL d   1      -0.542   4.508  -5.521  0.00  0.00     0.003 A 
ATOM      5  C4  UNL d   1       0.273   5.531  -6.000  0.00  0.00    -0.005 A 
ATOM      6  C5  UNL d   1       1.482   5.811  -5.365  0.00  0.00     0.003 A 
ATOM      7  C6  UNL d   1       1.874   5.067  -4.251  0.00  0.00    -0.001 A 
ENDROOT
TORSDOF 0
ENDMDL
