MODEL 1
REMARK minimizedAffinity -1.05996549
REMARK minimizedRMSD -1
REMARK  0 active torsions:
REMARK  status: ('A' for Active; 'I' for Inactive)
ROOT
ATOM      1  C   UNL d   1      -5.790  -5.998   2.310  0.00  0.00     0.078 C 
ATOM      2  C1  UNL d   1      -4.743  -5.303   1.493  0.00  0.00    -0.077 A 
ATOM      3  C2  UNL d   1      -4.893  -3.961   1.120  0.00  0.00    -0.001 A 
ATOM      4  C3  UNL d   1      -3.914  -3.329   0.351  0.00  0.00     0.003 A 
ATOM      5  C4  UNL d   1      -2.780  -4.030  -0.052  0.00  0.00    -0.005 A 
ATOM      6  C5  UNL d   1      -2.623  -5.366   0.313  0.00  0.00     0.003 A 
ATOM      7  C6  UNL d   1      -3.600  -6.000   1.081  0.00  0.00    -0.001 A 
ENDROOT
TORSDOF 0
ENDMDL
