MODEL 1
REMARK minimizedAffinity 2.70175815
REMARK minimizedRMSD -1
REMARK  0 active torsions:
REMARK  status: ('A' for Active; 'I' for Inactive)
ROOT
ATOM      1  C   UNL d   1       1.663   3.305  -2.712  0.00  0.00     0.078 C 
ATOM      2  C1  UNL d   1       1.999   2.395  -1.569  0.00  0.00    -0.077 A 
ATOM      3  C2  UNL d   1       2.301   1.045  -1.786  0.00  0.00    -0.001 A 
ATOM      4  C3  UNL d   1       2.602   0.207  -0.711  0.00  0.00     0.003 A 
ATOM      5  C4  UNL d   1       2.603   0.709   0.589  0.00  0.00    -0.005 A 
ATOM      6  C5  UNL d   1       2.302   2.051   0.815  0.00  0.00     0.003 A 
ATOM      7  C6  UNL d   1       2.000   2.890  -0.258  0.00  0.00    -0.001 A 
ENDROOT
TORSDOF 0
ENDMDL
