MODEL 1
REMARK minimizedAffinity -0.875154912
REMARK minimizedRMSD -1
REMARK  0 active torsions:
REMARK  status: ('A' for Active; 'I' for Inactive)
ROOT
ATOM      1  C   UNL d   1      -1.953   5.661  -4.884  0.00  0.00     0.078 C 
ATOM      2  C1  UNL d   1      -0.512   5.248  -4.827  0.00  0.00    -0.077 A 
ATOM      3  C2  UNL d   1       0.180   4.884  -5.989  0.00  0.00    -0.001 A 
ATOM      4  C3  UNL d   1       1.518   4.492  -5.919  0.00  0.00     0.003 A 
ATOM      5  C4  UNL d   1       2.175   4.460  -4.691  0.00  0.00    -0.005 A 
ATOM      6  C5  UNL d   1       1.494   4.819  -3.530  0.00  0.00     0.003 A 
ATOM      7  C6  UNL d   1       0.156   5.211  -3.597  0.00  0.00    -0.001 A 
ENDROOT
TORSDOF 0
ENDMDL
