MODEL 1
REMARK minimizedAffinity 1.52599204
REMARK minimizedRMSD -1
REMARK  0 active torsions:
REMARK  status: ('A' for Active; 'I' for Inactive)
ROOT
ATOM      1  C   UNL d   1      -1.113  -5.802  -4.177  0.00  0.00     0.078 C 
ATOM      2  C1  UNL d   1      -2.586  -5.860  -4.451  0.00  0.00    -0.077 A 
ATOM      3  C2  UNL d   1      -3.074  -5.957  -5.760  0.00  0.00    -0.001 A 
ATOM      4  C3  UNL d   1      -4.448  -6.000  -6.000  0.00  0.00     0.003 A 
ATOM      5  C4  UNL d   1      -5.346  -5.946  -4.936  0.00  0.00    -0.005 A 
ATOM      6  C5  UNL d   1      -4.871  -5.847  -3.630  0.00  0.00     0.003 A 
ATOM      7  C6  UNL d   1      -3.497  -5.804  -3.388  0.00  0.00    -0.001 A 
ENDROOT
TORSDOF 0
ENDMDL
