MODEL 1
REMARK minimizedAffinity 0.544259369
REMARK minimizedRMSD -1
REMARK  0 active torsions:
REMARK  status: ('A' for Active; 'I' for Inactive)
ROOT
ATOM      1  C   UNL d   1      -5.977   2.399  -2.268  0.00  0.00     0.078 C 
ATOM      2  C1  UNL d   1      -5.983   1.384  -3.372  0.00  0.00    -0.077 A 
ATOM      3  C2  UNL d   1      -5.959   0.013  -3.092  0.00  0.00    -0.001 A 
ATOM      4  C3  UNL d   1      -5.955  -0.920  -4.130  0.00  0.00     0.003 A 
ATOM      5  C4  UNL d   1      -5.974  -0.492  -5.455  0.00  0.00    -0.005 A 
ATOM      6  C5  UNL d   1      -5.995   0.871  -5.745  0.00  0.00     0.003 A 
ATOM      7  C6  UNL d   1      -5.999   1.805  -4.708  0.00  0.00    -0.001 A 
ENDROOT
TORSDOF 0
ENDMDL
