MODEL 1
REMARK minimizedAffinity -0.214182392
REMARK minimizedRMSD -1
REMARK  0 active torsions:
REMARK  status: ('A' for Active; 'I' for Inactive)
ROOT
ATOM      1  C   UNL d   1      -1.965  -0.603   2.137  0.00  0.00     0.078 C 
ATOM      2  C1  UNL d   1      -2.714  -0.439   3.426  0.00  0.00    -0.077 A 
ATOM      3  C2  UNL d   1      -4.051  -0.840   3.540  0.00  0.00    -0.001 A 
ATOM      4  C3  UNL d   1      -4.738  -0.673   4.743  0.00  0.00     0.003 A 
ATOM      5  C4  UNL d   1      -4.097  -0.103   5.841  0.00  0.00    -0.005 A 
ATOM      6  C5  UNL d   1      -2.767   0.301   5.737  0.00  0.00     0.003 A 
ATOM      7  C6  UNL d   1      -2.079   0.134   4.534  0.00  0.00    -0.001 A 
ENDROOT
TORSDOF 0
ENDMDL
