MODEL 1
REMARK minimizedAffinity -2.73718476
REMARK minimizedRMSD -1
REMARK  0 active torsions:
REMARK  status: ('A' for Active; 'I' for Inactive)
ROOT
ATOM      1  C   UNL d   1      -2.625   0.004   6.000  0.00  0.00     0.078 C 
ATOM      2  C1  UNL d   1      -2.806  -0.494   4.597  0.00  0.00    -0.077 A 
ATOM      3  C2  UNL d   1      -3.999  -1.111   4.199  0.00  0.00    -0.001 A 
ATOM      4  C3  UNL d   1      -4.150  -1.579   2.893  0.00  0.00     0.003 A 
ATOM      5  C4  UNL d   1      -3.112  -1.436   1.974  0.00  0.00    -0.005 A 
ATOM      6  C5  UNL d   1      -1.921  -0.825   2.361  0.00  0.00     0.003 A 
ATOM      7  C6  UNL d   1      -1.768  -0.356   3.667  0.00  0.00    -0.001 A 
ENDROOT
TORSDOF 0
ENDMDL
