MODEL 1
REMARK minimizedAffinity 3.69355822
REMARK minimizedRMSD -1
REMARK  0 active torsions:
REMARK  status: ('A' for Active; 'I' for Inactive)
ROOT
ATOM      1  C   UNL d   1      -5.988   1.483  -2.504  0.00  0.00     0.078 C 
ATOM      2  C1  UNL d   1      -5.978   0.488  -3.626  0.00  0.00    -0.077 A 
ATOM      3  C2  UNL d   1      -5.963   0.907  -4.962  0.00  0.00    -0.001 A 
ATOM      4  C3  UNL d   1      -5.964  -0.030  -5.996  0.00  0.00     0.003 A 
ATOM      5  C4  UNL d   1      -5.982  -1.393  -5.705  0.00  0.00    -0.005 A 
ATOM      6  C5  UNL d   1      -6.000  -1.820  -4.379  0.00  0.00     0.003 A 
ATOM      7  C6  UNL d   1      -5.999  -0.884  -3.343  0.00  0.00    -0.001 A 
ENDROOT
TORSDOF 0
ENDMDL
