MODEL 1
REMARK minimizedAffinity 0.855390847
REMARK minimizedRMSD -1
REMARK  0 active torsions:
REMARK  status: ('A' for Active; 'I' for Inactive)
ROOT
ATOM      1  C   UNL d   1      -2.034  -0.208   3.186  0.00  0.00     0.078 C 
ATOM      2  C1  UNL d   1      -3.121  -1.144   2.751  0.00  0.00    -0.077 A 
ATOM      3  C2  UNL d   1      -4.220  -1.408   3.578  0.00  0.00    -0.001 A 
ATOM      4  C3  UNL d   1      -5.220  -2.289   3.163  0.00  0.00     0.003 A 
ATOM      5  C4  UNL d   1      -5.130  -2.915   1.922  0.00  0.00    -0.005 A 
ATOM      6  C5  UNL d   1      -4.039  -2.661   1.093  0.00  0.00     0.003 A 
ATOM      7  C6  UNL d   1      -3.039  -1.780   1.506  0.00  0.00    -0.001 A 
ENDROOT
TORSDOF 0
ENDMDL
