MODEL 1
REMARK minimizedAffinity -0.730179191
REMARK minimizedRMSD -1
REMARK  0 active torsions:
REMARK  status: ('A' for Active; 'I' for Inactive)
ROOT
ATOM      1  C   UNL d   1      -5.992   2.033  -2.429  0.00  0.00     0.078 C 
ATOM      2  C1  UNL d   1      -6.000   0.967  -3.483  0.00  0.00    -0.077 A 
ATOM      3  C2  UNL d   1      -5.997  -0.390  -3.137  0.00  0.00    -0.001 A 
ATOM      4  C3  UNL d   1      -5.994  -1.371  -4.129  0.00  0.00     0.003 A 
ATOM      5  C4  UNL d   1      -5.994  -1.007  -5.474  0.00  0.00    -0.005 A 
ATOM      6  C5  UNL d   1      -5.995   0.341  -5.828  0.00  0.00     0.003 A 
ATOM      7  C6  UNL d   1      -5.997   1.324  -4.838  0.00  0.00    -0.001 A 
ENDROOT
TORSDOF 0
ENDMDL
