MODEL 1
REMARK minimizedAffinity 3.54237938
REMARK minimizedRMSD -1
REMARK  0 active torsions:
REMARK  status: ('A' for Active; 'I' for Inactive)
ROOT
ATOM      1  C   UNL d   1      -6.000   1.417  -2.290  0.00  0.00     0.078 C 
ATOM      2  C1  UNL d   1      -5.845   0.648  -3.569  0.00  0.00    -0.077 A 
ATOM      3  C2  UNL d   1      -6.000   1.276  -4.811  0.00  0.00    -0.001 A 
ATOM      4  C3  UNL d   1      -5.862   0.547  -5.993  0.00  0.00     0.003 A 
ATOM      5  C4  UNL d   1      -5.571  -0.815  -5.944  0.00  0.00    -0.005 A 
ATOM      6  C5  UNL d   1      -5.418  -1.449  -4.713  0.00  0.00     0.003 A 
ATOM      7  C6  UNL d   1      -5.555  -0.721  -3.530  0.00  0.00    -0.001 A 
ENDROOT
TORSDOF 0
ENDMDL
