MODEL 1
REMARK minimizedAffinity 4.07242346
REMARK minimizedRMSD -1
REMARK  0 active torsions:
REMARK  status: ('A' for Active; 'I' for Inactive)
ROOT
ATOM      1  C   UNL d   1      -5.990   1.119   1.294  0.00  0.00     0.078 C 
ATOM      2  C1  UNL d   1      -5.999   1.850  -0.015  0.00  0.00    -0.077 A 
ATOM      3  C2  UNL d   1      -6.000   1.154  -1.230  0.00  0.00    -0.001 A 
ATOM      4  C3  UNL d   1      -5.999   1.847  -2.441  0.00  0.00     0.003 A 
ATOM      5  C4  UNL d   1      -5.996   3.240  -2.450  0.00  0.00    -0.005 A 
ATOM      6  C5  UNL d   1      -5.994   3.942  -1.246  0.00  0.00     0.003 A 
ATOM      7  C6  UNL d   1      -5.995   3.250  -0.034  0.00  0.00    -0.001 A 
ENDROOT
TORSDOF 0
ENDMDL
