MODEL 1
REMARK minimizedAffinity -1.16106963
REMARK minimizedRMSD -1
REMARK  0 active torsions:
REMARK  status: ('A' for Active; 'I' for Inactive)
ROOT
ATOM      1  C   UNL d   1      -5.571  -2.243   2.817  0.00  0.00     0.078 C 
ATOM      2  C1  UNL d   1      -4.189  -1.684   2.976  0.00  0.00    -0.077 A 
ATOM      3  C2  UNL d   1      -3.185  -1.968   2.042  0.00  0.00    -0.001 A 
ATOM      4  C3  UNL d   1      -1.900  -1.449   2.208  0.00  0.00     0.003 A 
ATOM      5  C4  UNL d   1      -1.607  -0.644   3.307  0.00  0.00    -0.005 A 
ATOM      6  C5  UNL d   1      -2.599  -0.359   4.243  0.00  0.00     0.003 A 
ATOM      7  C6  UNL d   1      -3.884  -0.877   4.079  0.00  0.00    -0.001 A 
ENDROOT
TORSDOF 0
ENDMDL
