MODEL 1
REMARK minimizedAffinity 1.64545476
REMARK minimizedRMSD -1
REMARK  0 active torsions:
REMARK  status: ('A' for Active; 'I' for Inactive)
ROOT
ATOM      1  C   UNL d   1       2.064   4.046  -3.410  0.00  0.00     0.078 C 
ATOM      2  C1  UNL d   1       0.919   4.390  -4.314  0.00  0.00    -0.077 A 
ATOM      3  C2  UNL d   1       0.413   5.695  -4.372  0.00  0.00    -0.001 A 
ATOM      4  C3  UNL d   1      -0.660   5.999  -5.212  0.00  0.00     0.003 A 
ATOM      5  C4  UNL d   1      -1.236   5.004  -5.999  0.00  0.00    -0.005 A 
ATOM      6  C5  UNL d   1      -0.741   3.703  -5.947  0.00  0.00     0.003 A 
ATOM      7  C6  UNL d   1       0.332   3.397  -5.108  0.00  0.00    -0.001 A 
ENDROOT
TORSDOF 0
ENDMDL
