MODEL 1
REMARK minimizedAffinity 0.000962124323
REMARK minimizedRMSD -1
REMARK  0 active torsions:
REMARK  status: ('A' for Active; 'I' for Inactive)
ROOT
ATOM      1  O1  BZF d   1      -1.125   0.298  -0.006  0.00  0.00    -0.204 OA
ATOM      2  C2  BZF d   1       0.040   1.038  -0.063  0.00  0.00     0.174 A 
ATOM      3  C3  BZF d   1       1.121   0.236   0.015  0.00  0.00    -0.012 A 
ATOM      4  C3A BZF d   1       0.601  -1.097   0.034  0.00  0.00    -0.107 A 
ATOM      5  C4  BZF d   1       1.182  -2.331   0.087  0.00  0.00     0.055 A 
ATOM      6  C5  BZF d   1       0.389  -3.432   0.165  0.00  0.00    -0.016 A 
ATOM      7  C6  BZF d   1      -0.987  -3.335   0.197  0.00  0.00     0.022 A 
ATOM      8  C7  BZF d   1      -1.609  -2.132   0.142  0.00  0.00     0.029 A 
ATOM      9  C7A BZF d   1      -0.811  -1.020   0.029  0.00  0.00     0.058 A 
ENDROOT
TORSDOF 0
ENDMDL
