MODEL 1
REMARK minimizedAffinity 0.810132086
REMARK minimizedRMSD -1
REMARK  0 active torsions:
REMARK  status: ('A' for Active; 'I' for Inactive)
ROOT
ATOM      1  O1  BZF d   1       1.215   0.434  -0.233  0.00  0.00    -0.204 OA
ATOM      2  C2  BZF d   1      -0.027   0.376  -0.834  0.00  0.00     0.174 A 
ATOM      3  C3  BZF d   1      -0.680   1.548  -0.698  0.00  0.00    -0.012 A 
ATOM      4  C3A BZF d   1       0.247   2.422  -0.047  0.00  0.00    -0.107 A 
ATOM      5  C4  BZF d   1       0.189   3.728   0.348  0.00  0.00     0.055 A 
ATOM      6  C5  BZF d   1       1.240   4.262   1.023  0.00  0.00    -0.016 A 
ATOM      7  C6  BZF d   1       2.362   3.518   1.325  0.00  0.00     0.022 A 
ATOM      8  C7  BZF d   1       2.468   2.220   0.950  0.00  0.00     0.029 A 
ATOM      9  C7A BZF d   1       1.422   1.687   0.239  0.00  0.00     0.058 A 
ENDROOT
TORSDOF 0
ENDMDL
