MODEL 1
REMARK minimizedAffinity -3.15905738
REMARK minimizedRMSD -1
REMARK  0 active torsions:
REMARK  status: ('A' for Active; 'I' for Inactive)
ROOT
ATOM      1  O1  BZF d   1       1.306  -0.444   1.800  0.00  0.00    -0.204 OA
ATOM      2  C2  BZF d   1       0.269  -1.178   1.258  0.00  0.00     0.174 A 
ATOM      3  C3  BZF d   1      -0.431  -0.438   0.375  0.00  0.00    -0.012 A 
ATOM      4  C3A BZF d   1       0.264   0.809   0.294  0.00  0.00    -0.107 A 
ATOM      5  C4  BZF d   1       0.064   1.951  -0.428  0.00  0.00     0.055 A 
ATOM      6  C5  BZF d   1       0.882   3.016  -0.221  0.00  0.00    -0.016 A 
ATOM      7  C6  BZF d   1       1.906   2.976   0.703  0.00  0.00     0.022 A 
ATOM      8  C7  BZF d   1       2.147   1.864   1.439  0.00  0.00     0.029 A 
ATOM      9  C7A BZF d   1       1.342   0.775   1.209  0.00  0.00     0.058 A 
ENDROOT
TORSDOF 0
ENDMDL
