MODEL 1
REMARK minimizedAffinity -3.11961985
REMARK minimizedRMSD -1
REMARK  0 active torsions:
REMARK  status: ('A' for Active; 'I' for Inactive)
ROOT
ATOM      1  O1  BZF d   1      -0.191  -3.050  -0.889  0.00  0.00    -0.204 OA
ATOM      2  C2  BZF d   1      -0.588  -3.573   0.327  0.00  0.00     0.174 A 
ATOM      3  C3  BZF d   1      -0.753  -2.592   1.239  0.00  0.00    -0.012 A 
ATOM      4  C3A BZF d   1      -0.528  -1.373   0.525  0.00  0.00    -0.107 A 
ATOM      5  C4  BZF d   1      -0.562  -0.056   0.883  0.00  0.00     0.055 A 
ATOM      6  C5  BZF d   1      -0.222   0.887  -0.035  0.00  0.00    -0.016 A 
ATOM      7  C6  BZF d   1       0.163   0.549  -1.316  0.00  0.00     0.022 A 
ATOM      8  C7  BZF d   1       0.207  -0.745  -1.719  0.00  0.00     0.029 A 
ATOM      9  C7A BZF d   1      -0.168  -1.698  -0.804  0.00  0.00     0.058 A 
ENDROOT
TORSDOF 0
ENDMDL
