MODEL 1
REMARK minimizedAffinity -2.49381375
REMARK minimizedRMSD -1
REMARK  0 active torsions:
REMARK  status: ('A' for Active; 'I' for Inactive)
ROOT
ATOM      1  O1  BZF d   1       0.739   0.315  -0.291  0.00  0.00    -0.204 OA
ATOM      2  C2  BZF d   1       0.764   0.641   1.051  0.00  0.00     0.174 A 
ATOM      3  C3  BZF d   1       0.356  -0.401   1.804  0.00  0.00    -0.012 A 
ATOM      4  C3A BZF d   1       0.146  -1.473   0.880  0.00  0.00    -0.107 A 
ATOM      5  C4  BZF d   1      -0.250  -2.773   1.024  0.00  0.00     0.055 A 
ATOM      6  C5  BZF d   1      -0.427  -3.536  -0.086  0.00  0.00    -0.016 A 
ATOM      7  C6  BZF d   1      -0.225  -3.031  -1.354  0.00  0.00     0.022 A 
ATOM      8  C7  BZF d   1       0.172  -1.750  -1.547  0.00  0.00     0.029 A 
ATOM      9  C7A BZF d   1       0.385  -0.986  -0.425  0.00  0.00     0.058 A 
ENDROOT
TORSDOF 0
ENDMDL
