MODEL 1
REMARK minimizedAffinity -4.25527859
REMARK minimizedRMSD -1
REMARK  0 active torsions:
REMARK  status: ('A' for Active; 'I' for Inactive)
ROOT
ATOM      1  O1  BZF d   1      -0.916  -2.064   1.403  0.00  0.00    -0.204 OA
ATOM      2  C2  BZF d   1      -0.484  -0.787   1.703  0.00  0.00     0.174 A 
ATOM      3  C3  BZF d   1      -0.033  -0.162   0.597  0.00  0.00    -0.012 A 
ATOM      4  C3A BZF d   1      -0.278  -1.075  -0.478  0.00  0.00    -0.107 A 
ATOM      5  C4  BZF d   1      -0.062  -1.019  -1.825  0.00  0.00     0.055 A 
ATOM      6  C5  BZF d   1      -0.347  -2.109  -2.585  0.00  0.00    -0.016 A 
ATOM      7  C6  BZF d   1      -0.844  -3.270  -2.032  0.00  0.00     0.022 A 
ATOM      8  C7  BZF d   1      -1.080  -3.372  -0.701  0.00  0.00     0.029 A 
ATOM      9  C7A BZF d   1      -0.823  -2.261   0.066  0.00  0.00     0.058 A 
ENDROOT
TORSDOF 0
ENDMDL
