MODEL 1
REMARK minimizedAffinity -1.34381366
REMARK minimizedRMSD -1
REMARK  0 active torsions:
REMARK  status: ('A' for Active; 'I' for Inactive)
ROOT
ATOM      1  O1  BZF d   1       0.271  -0.957  -2.427  0.00  0.00    -0.204 OA
ATOM      2  C2  BZF d   1      -0.198  -2.175  -2.879  0.00  0.00     0.174 A 
ATOM      3  C3  BZF d   1      -0.825  -2.843  -1.889  0.00  0.00    -0.012 A 
ATOM      4  C3A BZF d   1      -0.823  -1.949  -0.771  0.00  0.00    -0.107 A 
ATOM      5  C4  BZF d   1      -1.313  -2.035   0.500  0.00  0.00     0.055 A 
ATOM      6  C5  BZF d   1      -1.080  -1.015   1.368  0.00  0.00    -0.016 A 
ATOM      7  C6  BZF d   1      -0.358   0.101   1.000  0.00  0.00     0.022 A 
ATOM      8  C7  BZF d   1       0.143   0.234  -0.253  0.00  0.00     0.029 A 
ATOM      9  C7A BZF d   1      -0.119  -0.780  -1.141  0.00  0.00     0.058 A 
ENDROOT
TORSDOF 0
ENDMDL
