MODEL 1
REMARK minimizedAffinity -6.16504717
REMARK minimizedRMSD -1
REMARK  0 active torsions:
REMARK  status: ('A' for Active; 'I' for Inactive)
ROOT
ATOM      1  O1  BZF d   1      -0.175   0.453  -0.983  0.00  0.00    -0.204 OA
ATOM      2  C2  BZF d   1      -0.967   0.963   0.028  0.00  0.00     0.174 A 
ATOM      3  C3  BZF d   1      -1.404  -0.024   0.837  0.00  0.00    -0.012 A 
ATOM      4  C3A BZF d   1      -0.776  -1.214   0.352  0.00  0.00    -0.107 A 
ATOM      5  C4  BZF d   1      -0.804  -2.520   0.752  0.00  0.00     0.055 A 
ATOM      6  C5  BZF d   1      -0.136  -3.449   0.019  0.00  0.00    -0.016 A 
ATOM      7  C6  BZF d   1       0.565  -3.109  -1.120  0.00  0.00     0.022 A 
ATOM      8  C7  BZF d   1       0.626  -1.826  -1.552  0.00  0.00     0.029 A 
ATOM      9  C7A BZF d   1      -0.021  -0.880  -0.795  0.00  0.00     0.058 A 
ENDROOT
TORSDOF 0
ENDMDL
