MODEL 1
REMARK minimizedAffinity -5.98469257
REMARK minimizedRMSD -1
REMARK  0 active torsions:
REMARK  status: ('A' for Active; 'I' for Inactive)
ROOT
ATOM      1  O1  BZF d   1      -0.256   0.454  -0.975  0.00  0.00    -0.204 OA
ATOM      2  C2  BZF d   1      -0.584   0.623   0.356  0.00  0.00     0.174 A 
ATOM      3  C3  BZF d   1      -0.823  -0.567   0.945  0.00  0.00    -0.012 A 
ATOM      4  C3A BZF d   1      -0.541  -1.547  -0.059  0.00  0.00    -0.107 A 
ATOM      5  C4  BZF d   1      -0.576  -2.912  -0.075  0.00  0.00     0.055 A 
ATOM      6  C5  BZF d   1      -0.314  -3.566  -1.237  0.00  0.00    -0.016 A 
ATOM      7  C6  BZF d   1      -0.017  -2.887  -2.401  0.00  0.00     0.022 A 
ATOM      8  C7  BZF d   1       0.035  -1.533  -2.433  0.00  0.00     0.029 A 
ATOM      9  C7A BZF d   1      -0.198  -0.871  -1.253  0.00  0.00     0.058 A 
ENDROOT
TORSDOF 0
ENDMDL
