MODEL 1
REMARK minimizedAffinity -4.30772686
REMARK minimizedRMSD -1
REMARK  0 active torsions:
REMARK  status: ('A' for Active; 'I' for Inactive)
ROOT
ATOM      1  O1  BZF d   1      -0.683   0.146  -0.690  0.00  0.00    -0.204 OA
ATOM      2  C2  BZF d   1      -0.874   0.594   0.603  0.00  0.00     0.174 A 
ATOM      3  C3  BZF d   1      -0.724  -0.415   1.485  0.00  0.00    -0.012 A 
ATOM      4  C3A BZF d   1      -0.329  -1.545   0.701  0.00  0.00    -0.107 A 
ATOM      5  C4  BZF d   1      -0.016  -2.838   1.009  0.00  0.00     0.055 A 
ATOM      6  C5  BZF d   1       0.257  -3.709   0.003  0.00  0.00    -0.016 A 
ATOM      7  C6  BZF d   1       0.221  -3.323  -1.321  0.00  0.00     0.022 A 
ATOM      8  C7  BZF d   1      -0.079  -2.050  -1.676  0.00  0.00     0.029 A 
ATOM      9  C7A BZF d   1      -0.323  -1.160  -0.659  0.00  0.00     0.058 A 
ENDROOT
TORSDOF 0
ENDMDL
