MODEL 1
REMARK minimizedAffinity -5.81017923
REMARK minimizedRMSD -1
REMARK  0 active torsions:
REMARK  status: ('A' for Active; 'I' for Inactive)
ROOT
ATOM      1  O1  BZF d   1      -0.479  -1.022  -2.865  0.00  0.00    -0.204 OA
ATOM      2  C2  BZF d   1      -0.369  -2.201  -3.576  0.00  0.00     0.174 A 
ATOM      3  C3  BZF d   1      -0.250  -3.254  -2.742  0.00  0.00    -0.012 A 
ATOM      4  C3A BZF d   1      -0.381  -2.708  -1.426  0.00  0.00    -0.107 A 
ATOM      5  C4  BZF d   1      -0.366  -3.257  -0.175  0.00  0.00     0.055 A 
ATOM      6  C5  BZF d   1      -0.447  -2.439   0.907  0.00  0.00    -0.016 A 
ATOM      7  C6  BZF d   1      -0.538  -1.069   0.775  0.00  0.00     0.022 A 
ATOM      8  C7  BZF d   1      -0.561  -0.478  -0.444  0.00  0.00     0.029 A 
ATOM      9  C7A BZF d   1      -0.513  -1.305  -1.540  0.00  0.00     0.058 A 
ENDROOT
TORSDOF 0
ENDMDL
