MODEL 1
REMARK minimizedAffinity -2.88605595
REMARK minimizedRMSD -1
REMARK  0 active torsions:
REMARK  status: ('A' for Active; 'I' for Inactive)
ROOT
ATOM      1  O1  BZF d   1      -0.148   0.806  -0.975  0.00  0.00    -0.204 OA
ATOM      2  C2  BZF d   1      -0.553   0.890   0.344  0.00  0.00     0.174 A 
ATOM      3  C3  BZF d   1      -1.096  -0.275   0.753  0.00  0.00    -0.012 A 
ATOM      4  C3A BZF d   1      -0.942  -1.170  -0.353  0.00  0.00    -0.107 A 
ATOM      5  C4  BZF d   1      -1.271  -2.481  -0.553  0.00  0.00     0.055 A 
ATOM      6  C5  BZF d   1      -1.052  -3.038  -1.772  0.00  0.00    -0.016 A 
ATOM      7  C6  BZF d   1      -0.511  -2.315  -2.815  0.00  0.00     0.022 A 
ATOM      8  C7  BZF d   1      -0.163  -1.013  -2.663  0.00  0.00     0.029 A 
ATOM      9  C7A BZF d   1      -0.354  -0.456  -1.422  0.00  0.00     0.058 A 
ENDROOT
TORSDOF 0
ENDMDL
