MODEL 1
REMARK minimizedAffinity -2.25730848
REMARK minimizedRMSD -1
REMARK  0 active torsions:
REMARK  status: ('A' for Active; 'I' for Inactive)
ROOT
ATOM      1  O1  BZF d   1      -0.184  -1.169  -2.345  0.00  0.00    -0.204 OA
ATOM      2  C2  BZF d   1      -0.555  -2.461  -2.666  0.00  0.00     0.174 A 
ATOM      3  C3  BZF d   1      -0.928  -3.140  -1.562  0.00  0.00    -0.012 A 
ATOM      4  C3A BZF d   1      -0.871  -2.186  -0.497  0.00  0.00    -0.107 A 
ATOM      5  C4  BZF d   1      -1.142  -2.254   0.840  0.00  0.00     0.055 A 
ATOM      6  C5  BZF d   1      -0.914  -1.163   1.617  0.00  0.00    -0.016 A 
ATOM      7  C6  BZF d   1      -0.410   0.009   1.092  0.00  0.00     0.022 A 
ATOM      8  C7  BZF d   1      -0.130   0.126  -0.229  0.00  0.00     0.029 A 
ATOM      9  C7A BZF d   1      -0.391  -0.964  -1.022  0.00  0.00     0.058 A 
ENDROOT
TORSDOF 0
ENDMDL
