MODEL 1
REMARK minimizedAffinity -5.06897068
REMARK minimizedRMSD -1
REMARK  0 active torsions:
REMARK  status: ('A' for Active; 'I' for Inactive)
ROOT
ATOM      1  O1  BZF d   1      -0.749  -2.980   1.166  0.00  0.00    -0.204 OA
ATOM      2  C2  BZF d   1      -0.066  -3.642   0.164  0.00  0.00     0.174 A 
ATOM      3  C3  BZF d   1       0.445  -2.766  -0.725  0.00  0.00    -0.012 A 
ATOM      4  C3A BZF d   1       0.135  -1.472  -0.200  0.00  0.00    -0.107 A 
ATOM      5  C4  BZF d   1       0.392  -0.200  -0.624  0.00  0.00     0.055 A 
ATOM      6  C5  BZF d   1      -0.112   0.847   0.081  0.00  0.00    -0.016 A 
ATOM      7  C6  BZF d   1      -0.881   0.658   1.210  0.00  0.00     0.022 A 
ATOM      8  C7  BZF d   1      -1.159  -0.586   1.673  0.00  0.00     0.029 A 
ATOM      9  C7A BZF d   1      -0.623  -1.644   0.982  0.00  0.00     0.058 A 
ENDROOT
TORSDOF 0
ENDMDL
