MODEL 1
REMARK minimizedAffinity -4.32973814
REMARK minimizedRMSD -1
REMARK  0 active torsions:
REMARK  status: ('A' for Active; 'I' for Inactive)
ROOT
ATOM      1  O1  BZF d   1       0.821   2.315  -0.490  0.00  0.00    -0.204 OA
ATOM      2  C2  BZF d   1       1.771   2.883   0.337  0.00  0.00     0.174 A 
ATOM      3  C3  BZF d   1       1.761   2.296   1.551  0.00  0.00    -0.012 A 
ATOM      4  C3A BZF d   1       0.805   1.237   1.449  0.00  0.00    -0.107 A 
ATOM      5  C4  BZF d   1       0.361   0.285   2.323  0.00  0.00     0.055 A 
ATOM      6  C5  BZF d   1      -0.634  -0.555   1.935  0.00  0.00    -0.016 A 
ATOM      7  C6  BZF d   1      -1.211  -0.469   0.685  0.00  0.00     0.022 A 
ATOM      8  C7  BZF d   1      -0.801   0.455  -0.218  0.00  0.00     0.029 A 
ATOM      9  C7A BZF d   1       0.227   1.285   0.160  0.00  0.00     0.058 A 
ENDROOT
TORSDOF 0
ENDMDL
