MODEL 1
REMARK minimizedAffinity -6.52920103
REMARK minimizedRMSD -1
REMARK  1 active torsions:
REMARK  status: ('A' for Active; 'I' for Inactive)
REMARK    1  A    between atoms: C1_2  and  C2_3 
ROOT
ATOM      1  C2  UNL d   1       0.664   0.204  -1.117  0.00  0.00    -0.081 A 
ATOM      2  C3  UNL d   1       0.949  -1.034  -1.707  0.00  0.00     0.006 A 
ATOM      3  C4  UNL d   1       0.669  -2.222  -1.029  0.00  0.00     0.002 A 
ATOM      4  C5  UNL d   1       0.093  -2.194   0.246  0.00  0.00    -0.080 A 
ATOM      5  C6  UNL d   1      -0.240  -3.463   0.972  0.00  0.00     0.076 C 
ATOM      6  C7  UNL d   1      -0.175  -0.957   0.843  0.00  0.00     0.002 A 
ATOM      7  C8  UNL d   1       0.105   0.232   0.165  0.00  0.00     0.006 A 
ENDROOT
BRANCH   1   8
ATOM      8  C1  UNL d   1       0.905   1.486  -1.872  0.00  0.00     0.054 C 
ATOM      9  C   UNL d   1       2.081   2.258  -1.291  0.00  0.00     0.018 C 
ENDBRANCH   1   8
TORSDOF 1
ENDMDL
