MODEL 1
REMARK minimizedAffinity -4.34898138
REMARK minimizedRMSD -1
REMARK  1 active torsions:
REMARK  status: ('A' for Active; 'I' for Inactive)
REMARK    1  A    between atoms: C1_2  and  C2_3 
ROOT
ATOM      1  C2  UNL d   1      -0.177  -2.487  -0.311  0.00  0.00    -0.081 A 
ATOM      2  C3  UNL d   1       0.824  -1.939  -1.123  0.00  0.00     0.006 A 
ATOM      3  C4  UNL d   1       1.109  -0.573  -1.070  0.00  0.00     0.002 A 
ATOM      4  C5  UNL d   1       0.405   0.266  -0.200  0.00  0.00    -0.080 A 
ATOM      5  C6  UNL d   1       0.722   1.730  -0.112  0.00  0.00     0.076 C 
ATOM      6  C7  UNL d   1      -0.607  -0.278   0.598  0.00  0.00     0.002 A 
ATOM      7  C8  UNL d   1      -0.893  -1.644   0.545  0.00  0.00     0.006 A 
ENDROOT
BRANCH   1   8
ATOM      8  C1  UNL d   1      -0.443  -3.971  -0.319  0.00  0.00     0.054 C 
ATOM      9  C   UNL d   1      -1.909  -4.272  -0.042  0.00  0.00     0.018 C 
ENDBRANCH   1   8
TORSDOF 1
ENDMDL
