MODEL 1
REMARK minimizedAffinity 4.71308422
REMARK minimizedRMSD -1
REMARK  1 active torsions:
REMARK  status: ('A' for Active; 'I' for Inactive)
REMARK    1  A    between atoms: C1_2  and  C2_3 
ROOT
ATOM      1  C2  UNL d   1      -1.147  -3.191  -2.988  0.00  0.00    -0.081 A 
ATOM      2  C3  UNL d   1      -2.369  -3.088  -2.311  0.00  0.00     0.006 A 
ATOM      3  C4  UNL d   1      -2.517  -2.192  -1.250  0.00  0.00     0.002 A 
ATOM      4  C5  UNL d   1      -1.450  -1.378  -0.853  0.00  0.00    -0.080 A 
ATOM      5  C6  UNL d   1      -1.605  -0.390   0.264  0.00  0.00     0.076 C 
ATOM      6  C7  UNL d   1      -0.225  -1.493  -1.518  0.00  0.00     0.002 A 
ATOM      7  C8  UNL d   1      -0.076  -2.390  -2.579  0.00  0.00     0.006 A 
ENDROOT
BRANCH   1   8
ATOM      8  C1  UNL d   1      -1.003  -4.110  -4.173  0.00  0.00     0.054 C 
ATOM      9  C   UNL d   1      -1.051  -3.336  -5.483  0.00  0.00     0.018 C 
ENDBRANCH   1   8
TORSDOF 1
ENDMDL
