MODEL 1
REMARK minimizedAffinity -0.525917113
REMARK minimizedRMSD -1
REMARK  1 active torsions:
REMARK  status: ('A' for Active; 'I' for Inactive)
REMARK    1  A    between atoms: C1_2  and  C2_3 
ROOT
ATOM      1  C2  UNL d   1       1.083   2.337   0.300  0.00  0.00    -0.081 A 
ATOM      2  C3  UNL d   1       2.117   1.742  -0.432  0.00  0.00     0.006 A 
ATOM      3  C4  UNL d   1       1.847   0.697  -1.320  0.00  0.00     0.002 A 
ATOM      4  C5  UNL d   1       0.538   0.236  -1.496  0.00  0.00    -0.080 A 
ATOM      5  C6  UNL d   1       0.230  -0.864  -2.468  0.00  0.00     0.076 C 
ATOM      6  C7  UNL d   1      -0.493   0.819  -0.751  0.00  0.00     0.002 A 
ATOM      7  C8  UNL d   1      -0.224   1.863   0.136  0.00  0.00     0.006 A 
ENDROOT
BRANCH   1   8
ATOM      8  C1  UNL d   1       1.361   3.506   1.209  0.00  0.00     0.054 C 
ATOM      9  C   UNL d   1       2.854   3.787   1.308  0.00  0.00     0.018 C 
ENDBRANCH   1   8
TORSDOF 1
ENDMDL
