MODEL 1
REMARK minimizedAffinity -5.54607058
REMARK minimizedRMSD -1
REMARK  1 active torsions:
REMARK  status: ('A' for Active; 'I' for Inactive)
REMARK    1  A    between atoms: C1_2  and  C2_3 
ROOT
ATOM      1  C2  UNL d   1      -0.033   0.272  -0.417  0.00  0.00    -0.081 A 
ATOM      2  C3  UNL d   1      -0.480  -0.615   0.570  0.00  0.00     0.006 A 
ATOM      3  C4  UNL d   1      -0.438  -1.994   0.353  0.00  0.00     0.002 A 
ATOM      4  C5  UNL d   1       0.060  -2.509  -0.848  0.00  0.00    -0.080 A 
ATOM      5  C6  UNL d   1       0.140  -3.989  -1.081  0.00  0.00     0.076 C 
ATOM      6  C7  UNL d   1       0.491  -1.622  -1.841  0.00  0.00     0.002 A 
ATOM      7  C8  UNL d   1       0.448  -0.243  -1.625  0.00  0.00     0.006 A 
ENDROOT
BRANCH   1   8
ATOM      8  C1  UNL d   1      -0.018   1.758  -0.161  0.00  0.00     0.054 C 
ATOM      9  C   UNL d   1       1.369   2.235   0.246  0.00  0.00     0.018 C 
ENDBRANCH   1   8
TORSDOF 1
ENDMDL
