MODEL 1
REMARK minimizedAffinity -6.37942362
REMARK minimizedRMSD -1
REMARK  1 active torsions:
REMARK  status: ('A' for Active; 'I' for Inactive)
REMARK    1  A    between atoms: C1_2  and  C2_3 
ROOT
ATOM      1  C2  UNL d   1      -0.129  -0.707   0.245  0.00  0.00    -0.081 A 
ATOM      2  C3  UNL d   1       0.705  -1.121  -0.801  0.00  0.00     0.006 A 
ATOM      3  C4  UNL d   1       0.789  -2.471  -1.149  0.00  0.00     0.002 A 
ATOM      4  C5  UNL d   1       0.035  -3.429  -0.463  0.00  0.00    -0.080 A 
ATOM      5  C6  UNL d   1       0.092  -4.878  -0.847  0.00  0.00     0.076 C 
ATOM      6  C7  UNL d   1      -0.786  -3.018   0.593  0.00  0.00     0.002 A 
ATOM      7  C8  UNL d   1      -0.869  -1.669   0.942  0.00  0.00     0.006 A 
ENDROOT
BRANCH   1   8
ATOM      8  C1  UNL d   1      -0.271   0.755   0.580  0.00  0.00     0.054 C 
ATOM      9  C   UNL d   1       0.776   1.592  -0.140  0.00  0.00     0.018 C 
ENDBRANCH   1   8
TORSDOF 1
ENDMDL
