MODEL 1
REMARK minimizedAffinity -5.34119081
REMARK minimizedRMSD -1
REMARK  1 active torsions:
REMARK  status: ('A' for Active; 'I' for Inactive)
REMARK    1  A    between atoms: C1_2  and  C2_3 
ROOT
ATOM      1  C2  UNL d   1      -0.038  -0.977  -0.110  0.00  0.00    -0.081 A 
ATOM      2  C3  UNL d   1       0.739  -1.351  -1.213  0.00  0.00     0.006 A 
ATOM      3  C4  UNL d   1       0.744  -2.674  -1.660  0.00  0.00     0.002 A 
ATOM      4  C5  UNL d   1      -0.034  -3.643  -1.017  0.00  0.00    -0.080 A 
ATOM      5  C6  UNL d   1      -0.061  -5.061  -1.505  0.00  0.00     0.076 C 
ATOM      6  C7  UNL d   1      -0.797  -3.274   0.096  0.00  0.00     0.002 A 
ATOM      7  C8  UNL d   1      -0.801  -1.951   0.543  0.00  0.00     0.006 A 
ENDROOT
BRANCH   1   8
ATOM      8  C1  UNL d   1      -0.096   0.462   0.334  0.00  0.00     0.054 C 
ATOM      9  C   UNL d   1       0.151   1.411  -0.830  0.00  0.00     0.018 C 
ENDBRANCH   1   8
TORSDOF 1
ENDMDL
