MODEL 1
REMARK minimizedAffinity -0.105357118
REMARK minimizedRMSD -1
REMARK  1 active torsions:
REMARK  status: ('A' for Active; 'I' for Inactive)
REMARK    1  A    between atoms: C1_2  and  C2_3 
ROOT
ATOM      1  C2  UNL d   1       0.299   1.690   0.187  0.00  0.00    -0.081 A 
ATOM      2  C3  UNL d   1      -0.279   1.270   1.391  0.00  0.00     0.006 A 
ATOM      3  C4  UNL d   1      -0.823  -0.011   1.506  0.00  0.00     0.002 A 
ATOM      4  C5  UNL d   1      -0.792  -0.896   0.423  0.00  0.00    -0.080 A 
ATOM      5  C6  UNL d   1      -1.346  -2.284   0.543  0.00  0.00     0.076 C 
ATOM      6  C7  UNL d   1      -0.230  -0.471  -0.785  0.00  0.00     0.002 A 
ATOM      7  C8  UNL d   1       0.314   0.810  -0.902  0.00  0.00     0.006 A 
ENDROOT
BRANCH   1   8
ATOM      8  C1  UNL d   1       0.945   3.048   0.079  0.00  0.00     0.054 C 
ATOM      9  C   UNL d   1       2.101   3.190   1.058  0.00  0.00     0.018 C 
ENDBRANCH   1   8
TORSDOF 1
ENDMDL
