MODEL 1
REMARK minimizedAffinity -0.219308063
REMARK minimizedRMSD -1
REMARK  1 active torsions:
REMARK  status: ('A' for Active; 'I' for Inactive)
REMARK    1  A    between atoms: C1_2  and  C2_3 
ROOT
ATOM      1  C2  UNL d   1       0.354  -0.397  -1.751  0.00  0.00    -0.081 A 
ATOM      2  C3  UNL d   1      -0.198  -1.542  -1.165  0.00  0.00     0.006 A 
ATOM      3  C4  UNL d   1      -0.798  -1.473   0.095  0.00  0.00     0.002 A 
ATOM      4  C5  UNL d   1      -0.863  -0.258   0.785  0.00  0.00    -0.080 A 
ATOM      5  C6  UNL d   1      -1.531  -0.164   2.124  0.00  0.00     0.076 C 
ATOM      6  C7  UNL d   1      -0.296   0.883   0.206  0.00  0.00     0.002 A 
ATOM      7  C8  UNL d   1       0.305   0.814  -1.053  0.00  0.00     0.006 A 
ENDROOT
BRANCH   1   8
ATOM      8  C1  UNL d   1       0.945  -0.455  -3.137  0.00  0.00     0.054 C 
ATOM      9  C   UNL d   1       1.004  -1.885  -3.654  0.00  0.00     0.018 C 
ENDBRANCH   1   8
TORSDOF 1
ENDMDL
