MODEL 1
REMARK minimizedAffinity -6.14774895
REMARK minimizedRMSD -1
REMARK  1 active torsions:
REMARK  status: ('A' for Active; 'I' for Inactive)
REMARK    1  A    between atoms: C1_2  and  C2_3 
ROOT
ATOM      1  C2  UNL d   1       0.228  -0.384  -0.650  0.00  0.00    -0.081 A 
ATOM      2  C3  UNL d   1       0.451  -1.112  -1.826  0.00  0.00     0.006 A 
ATOM      3  C4  UNL d   1       0.518  -2.507  -1.793  0.00  0.00     0.002 A 
ATOM      4  C5  UNL d   1       0.356  -3.197  -0.587  0.00  0.00    -0.080 A 
ATOM      5  C6  UNL d   1       0.396  -4.696  -0.543  0.00  0.00     0.076 C 
ATOM      6  C7  UNL d   1       0.151  -2.469   0.590  0.00  0.00     0.002 A 
ATOM      7  C8  UNL d   1       0.084  -1.075   0.558  0.00  0.00     0.006 A 
ENDROOT
BRANCH   1   8
ATOM      8  C1  UNL d   1       0.090   1.116  -0.692  0.00  0.00     0.054 C 
ATOM      9  C   UNL d   1       1.245   1.798   0.028  0.00  0.00     0.018 C 
ENDBRANCH   1   8
TORSDOF 1
ENDMDL
