MODEL 1
REMARK minimizedAffinity -5.20302773
REMARK minimizedRMSD -1
REMARK  1 active torsions:
REMARK  status: ('A' for Active; 'I' for Inactive)
REMARK    1  A    between atoms: C1_2  and  C2_3 
ROOT
ATOM      1  C2  UNL d   1       0.040  -0.505  -0.771  0.00  0.00    -0.081 A 
ATOM      2  C3  UNL d   1       0.361  -1.159   0.424  0.00  0.00     0.006 A 
ATOM      3  C4  UNL d   1       0.569  -2.540   0.442  0.00  0.00     0.002 A 
ATOM      4  C5  UNL d   1       0.467  -3.288  -0.735  0.00  0.00    -0.080 A 
ATOM      5  C6  UNL d   1       0.717  -4.767  -0.736  0.00  0.00     0.076 C 
ATOM      6  C7  UNL d   1       0.128  -2.638  -1.927  0.00  0.00     0.002 A 
ATOM      7  C8  UNL d   1      -0.080  -1.257  -1.945  0.00  0.00     0.006 A 
ENDROOT
BRANCH   1   8
ATOM      8  C1  UNL d   1      -0.122   0.994  -0.806  0.00  0.00     0.054 C 
ATOM      9  C   UNL d   1       1.033   1.691  -0.101  0.00  0.00     0.018 C 
ENDBRANCH   1   8
TORSDOF 1
ENDMDL
