MODEL 1
REMARK minimizedAffinity -3.43438673
REMARK minimizedRMSD -1
REMARK  1 active torsions:
REMARK  status: ('A' for Active; 'I' for Inactive)
REMARK    1  A    between atoms: C1_2  and  C2_3 
ROOT
ATOM      1  C2  UNL d   1       1.738   2.513  -0.177  0.00  0.00    -0.081 A 
ATOM      2  C3  UNL d   1       0.376   2.193  -0.111  0.00  0.00     0.006 A 
ATOM      3  C4  UNL d   1      -0.144   1.148  -0.879  0.00  0.00     0.002 A 
ATOM      4  C5  UNL d   1       0.689   0.401  -1.719  0.00  0.00    -0.080 A 
ATOM      5  C6  UNL d   1       0.149  -0.742  -2.525  0.00  0.00     0.076 C 
ATOM      6  C7  UNL d   1       2.046   0.732  -1.798  0.00  0.00     0.002 A 
ATOM      7  C8  UNL d   1       2.567   1.777  -1.031  0.00  0.00     0.006 A 
ENDROOT
BRANCH   1   8
ATOM      8  C1  UNL d   1       2.314   3.596   0.698  0.00  0.00     0.054 C 
ATOM      9  C   UNL d   1       1.492   3.779   1.966  0.00  0.00     0.018 C 
ENDBRANCH   1   8
TORSDOF 1
ENDMDL
