MODEL 1
REMARK minimizedAffinity -5.05194235
REMARK minimizedRMSD -1
REMARK  1 active torsions:
REMARK  status: ('A' for Active; 'I' for Inactive)
REMARK    1  A    between atoms: C1_2  and  C2_3 
ROOT
ATOM      1  C2  UNL d   1       0.438   1.289  -0.085  0.00  0.00    -0.081 A 
ATOM      2  C3  UNL d   1       0.665   0.544   1.079  0.00  0.00     0.006 A 
ATOM      3  C4  UNL d   1       0.575  -0.850   1.056  0.00  0.00     0.002 A 
ATOM      4  C5  UNL d   1       0.264  -1.522  -0.131  0.00  0.00    -0.080 A 
ATOM      5  C6  UNL d   1       0.194  -3.019  -0.177  0.00  0.00     0.076 C 
ATOM      6  C7  UNL d   1       0.020  -0.776  -1.290  0.00  0.00     0.002 A 
ATOM      7  C8  UNL d   1       0.109   0.617  -1.267  0.00  0.00     0.006 A 
ENDROOT
BRANCH   1   8
ATOM      8  C1  UNL d   1       0.597   2.788  -0.078  0.00  0.00     0.054 C 
ATOM      9  C   UNL d   1       1.394   3.254   1.132  0.00  0.00     0.018 C 
ENDBRANCH   1   8
TORSDOF 1
ENDMDL
