MODEL 1
REMARK minimizedAffinity -5.17025042
REMARK minimizedRMSD -1
REMARK  1 active torsions:
REMARK  status: ('A' for Active; 'I' for Inactive)
REMARK    1  A    between atoms: C1_2  and  C2_3 
ROOT
ATOM      1  C2  UNL d   1      -0.323  -1.527  -0.092  0.00  0.00    -0.081 A 
ATOM      2  C3  UNL d   1       0.464  -0.858  -1.037  0.00  0.00     0.006 A 
ATOM      3  C4  UNL d   1       0.715   0.510  -0.907  0.00  0.00     0.002 A 
ATOM      4  C5  UNL d   1       0.191   1.229   0.173  0.00  0.00    -0.080 A 
ATOM      5  C6  UNL d   1       0.478   2.692   0.340  0.00  0.00     0.076 C 
ATOM      6  C7  UNL d   1      -0.609   0.564   1.107  0.00  0.00     0.002 A 
ATOM      7  C8  UNL d   1      -0.861  -0.804   0.978  0.00  0.00     0.006 A 
ENDROOT
BRANCH   1   8
ATOM      8  C1  UNL d   1      -0.542  -3.015  -0.193  0.00  0.00     0.054 C 
ATOM      9  C   UNL d   1      -0.250  -3.523  -1.598  0.00  0.00     0.018 C 
ENDBRANCH   1   8
TORSDOF 1
ENDMDL
