MODEL 1
REMARK minimizedAffinity 14.9100847
REMARK minimizedRMSD -1
REMARK  0 active torsions:
REMARK  status: ('A' for Active; 'I' for Inactive)
ROOT
ATOM      1  C1  DEN d   1       1.936   2.759   3.498  0.00  0.00     0.130 A 
ATOM      2  C2  DEN d   1       1.215   4.026   3.578  0.00  0.00    -0.031 A 
ATOM      3  C3  DEN d   1       0.004   3.916   2.739  0.00  0.00     0.027 A 
ATOM      4  C4  DEN d   1      -0.822   1.915   1.338  0.00  0.00     0.027 A 
ATOM      5  C5  DEN d   1      -0.539   0.624   0.948  0.00  0.00    -0.003 A 
ATOM      6  C6  DEN d   1       0.596  -0.028   1.351  0.00  0.00     0.001 A 
ATOM      7  C7  DEN d   1       1.469   0.593   2.205  0.00  0.00     0.017 A 
ATOM      8  C8  DEN d   1       1.194   1.897   2.596  0.00  0.00    -0.094 A 
ATOM      9  C9  DEN d   1       0.035   2.535   2.187  0.00  0.00    -0.072 A 
ENDROOT
TORSDOF 0
ENDMDL
