MODEL 1
REMARK minimizedAffinity 11.0225458
REMARK minimizedRMSD -1
REMARK  0 active torsions:
REMARK  status: ('A' for Active; 'I' for Inactive)
ROOT
ATOM      1  C1  DEN d   1      -2.082  -0.598  -1.430  0.00  0.00     0.130 A 
ATOM      2  C2  DEN d   1      -3.145  -0.596  -2.432  0.00  0.00    -0.031 A 
ATOM      3  C3  DEN d   1      -3.317  -1.980  -2.918  0.00  0.00     0.027 A 
ATOM      4  C4  DEN d   1      -2.051  -4.115  -2.218  0.00  0.00     0.027 A 
ATOM      5  C5  DEN d   1      -1.053  -4.614  -1.410  0.00  0.00    -0.003 A 
ATOM      6  C6  DEN d   1      -0.312  -3.812  -0.584  0.00  0.00     0.001 A 
ATOM      7  C7  DEN d   1      -0.587  -2.471  -0.514  0.00  0.00     0.017 A 
ATOM      8  C8  DEN d   1      -1.586  -1.959  -1.331  0.00  0.00    -0.094 A 
ATOM      9  C9  DEN d   1      -2.333  -2.789  -2.150  0.00  0.00    -0.072 A 
ENDROOT
TORSDOF 0
ENDMDL
