MODEL 1
REMARK minimizedAffinity 6.31791353
REMARK minimizedRMSD -1
REMARK  0 active torsions:
REMARK  status: ('A' for Active; 'I' for Inactive)
ROOT
ATOM      1  C1  DEN d   1      -2.356   0.904  -1.094  0.00  0.00     0.130 A 
ATOM      2  C2  DEN d   1      -3.186   1.287   0.045  0.00  0.00    -0.031 A 
ATOM      3  C3  DEN d   1      -2.368   1.164   1.268  0.00  0.00     0.027 A 
ATOM      4  C4  DEN d   1       0.092   0.426   1.508  0.00  0.00     0.027 A 
ATOM      5  C5  DEN d   1       1.206  -0.008   0.823  0.00  0.00    -0.003 A 
ATOM      6  C6  DEN d   1       1.200  -0.200  -0.533  0.00  0.00     0.001 A 
ATOM      7  C7  DEN d   1       0.071   0.087  -1.255  0.00  0.00     0.017 A 
ATOM      8  C8  DEN d   1      -1.057   0.518  -0.570  0.00  0.00    -0.094 A 
ATOM      9  C9  DEN d   1      -1.028   0.717   0.800  0.00  0.00    -0.072 A 
ENDROOT
TORSDOF 0
ENDMDL
