MODEL 1
REMARK minimizedAffinity -1.17767465
REMARK minimizedRMSD -1
REMARK  0 active torsions:
REMARK  status: ('A' for Active; 'I' for Inactive)
ROOT
ATOM      1  C1  DEN d   1      -4.539   6.000  -3.726  0.00  0.00     0.130 A 
ATOM      2  C2  DEN d   1      -5.295   5.994  -4.976  0.00  0.00    -0.031 A 
ATOM      3  C3  DEN d   1      -6.000   4.701  -5.077  0.00  0.00     0.027 A 
ATOM      4  C4  DEN d   1      -5.999   2.719  -3.427  0.00  0.00     0.027 A 
ATOM      5  C5  DEN d   1      -5.497   2.254  -2.231  0.00  0.00    -0.003 A 
ATOM      6  C6  DEN d   1      -4.621   2.984  -1.474  0.00  0.00     0.001 A 
ATOM      7  C7  DEN d   1      -4.255   4.240  -1.881  0.00  0.00     0.017 A 
ATOM      8  C8  DEN d   1      -4.751   4.713  -3.088  0.00  0.00    -0.094 A 
ATOM      9  C9  DEN d   1      -5.646   3.964  -3.834  0.00  0.00    -0.072 A 
ENDROOT
TORSDOF 0
ENDMDL
