MODEL 1
REMARK minimizedAffinity 9.14243507
REMARK minimizedRMSD -1
REMARK  0 active torsions:
REMARK  status: ('A' for Active; 'I' for Inactive)
ROOT
ATOM      1  C1  DEN d   1      -1.162   1.216  -0.529  0.00  0.00     0.130 A 
ATOM      2  C2  DEN d   1      -1.951   1.766   0.570  0.00  0.00    -0.031 A 
ATOM      3  C3  DEN d   1      -1.330   1.335   1.838  0.00  0.00     0.027 A 
ATOM      4  C4  DEN d   1       0.768  -0.121   2.205  0.00  0.00     0.027 A 
ATOM      5  C5  DEN d   1       1.766  -0.830   1.574  0.00  0.00    -0.003 A 
ATOM      6  C6  DEN d   1       1.838  -0.935   0.211  0.00  0.00     0.001 A 
ATOM      7  C7  DEN d   1       0.920  -0.282  -0.570  0.00  0.00     0.017 A 
ATOM      8  C8  DEN d   1      -0.093   0.429   0.059  0.00  0.00    -0.094 A 
ATOM      9  C9  DEN d   1      -0.142   0.533   1.439  0.00  0.00    -0.072 A 
ENDROOT
TORSDOF 0
ENDMDL
