MODEL 1
REMARK minimizedAffinity 6.23651123
REMARK minimizedRMSD -1
REMARK  0 active torsions:
REMARK  status: ('A' for Active; 'I' for Inactive)
ROOT
ATOM      1  C1  DEN d   1      -0.461   1.302  -0.505  0.00  0.00     0.130 A 
ATOM      2  C2  DEN d   1       0.705   0.430  -0.393  0.00  0.00    -0.031 A 
ATOM      3  C3  DEN d   1       0.239  -0.901   0.045  0.00  0.00     0.027 A 
ATOM      4  C4  DEN d   1      -2.162  -1.694   0.553  0.00  0.00     0.027 A 
ATOM      5  C5  DEN d   1      -3.483  -1.307   0.611  0.00  0.00    -0.003 A 
ATOM      6  C6  DEN d   1      -3.882  -0.026   0.336  0.00  0.00     0.001 A 
ATOM      7  C7  DEN d   1      -2.955   0.904  -0.053  0.00  0.00     0.017 A 
ATOM      8  C8  DEN d   1      -1.621   0.525  -0.107  0.00  0.00    -0.094 A 
ATOM      9  C9  DEN d   1      -1.239  -0.779   0.163  0.00  0.00    -0.072 A 
ENDROOT
TORSDOF 0
ENDMDL
