MODEL 1
REMARK minimizedAffinity 4.70414495
REMARK minimizedRMSD -1
REMARK  0 active torsions:
REMARK  status: ('A' for Active; 'I' for Inactive)
ROOT
ATOM      1  C1  DEN d   1      -0.982   0.320  -1.464  0.00  0.00     0.130 A 
ATOM      2  C2  DEN d   1      -0.203   0.594  -0.260  0.00  0.00    -0.031 A 
ATOM      3  C3  DEN d   1       0.206  -0.699   0.324  0.00  0.00     0.027 A 
ATOM      4  C4  DEN d   1      -0.285  -3.087  -0.518  0.00  0.00     0.027 A 
ATOM      5  C5  DEN d   1      -0.917  -3.826  -1.493  0.00  0.00    -0.003 A 
ATOM      6  C6  DEN d   1      -1.638  -3.240  -2.500  0.00  0.00     0.001 A 
ATOM      7  C7  DEN d   1      -1.707  -1.874  -2.580  0.00  0.00     0.017 A 
ATOM      8  C8  DEN d   1      -1.078  -1.123  -1.596  0.00  0.00    -0.094 A 
ATOM      9  C9  DEN d   1      -0.343  -1.733  -0.593  0.00  0.00    -0.072 A 
ENDROOT
TORSDOF 0
ENDMDL
