MODEL 1
REMARK minimizedAffinity 2.20964074
REMARK minimizedRMSD -1
REMARK  1 active torsions:
REMARK  status: ('A' for Active; 'I' for Inactive)
REMARK    1  A    between atoms: C3_4  and  O_7 
ROOT
ATOM      1  C   UNL d   1      -2.251  -2.234  -0.561  0.00  0.00    -0.033 A 
ATOM      2  C1  UNL d   1      -2.278  -2.627  -1.901  0.00  0.00     0.039 A 
ATOM      3  C2  UNL d   1      -1.139  -2.485  -2.695  0.00  0.00    -0.080 A 
ATOM      4  C3  UNL d   1       0.020  -1.951  -2.138  0.00  0.00     0.150 A 
ATOM      5  C4  UNL d   1       0.056  -1.561  -0.804  0.00  0.00    -0.007 A 
ATOM      6  C5  UNL d   1      -1.084  -1.702  -0.012  0.00  0.00     0.039 A 
ENDROOT
BRANCH   4   7
ATOM      7  O   UNL d   1       1.156  -1.789  -2.875  0.00  0.00    -0.526 OA
ATOM      8  H5  UNL d   1       0.974  -2.075  -3.786  0.00  0.00     0.418 HD
ENDBRANCH   4   7
TORSDOF 1
ENDMDL
