MODEL 1
REMARK minimizedAffinity -1.67904019
REMARK minimizedRMSD -1
REMARK  1 active torsions:
REMARK  status: ('A' for Active; 'I' for Inactive)
REMARK    1  A    between atoms: C3_4  and  O_7 
ROOT
ATOM      1  C   UNL d   1       2.031  -2.049  -2.620  0.00  0.00    -0.033 A 
ATOM      2  C1  UNL d   1       1.211  -2.569  -3.624  0.00  0.00     0.039 A 
ATOM      3  C2  UNL d   1      -0.171  -2.630  -3.436  0.00  0.00    -0.080 A 
ATOM      4  C3  UNL d   1      -0.720  -2.168  -2.243  0.00  0.00     0.150 A 
ATOM      5  C4  UNL d   1       0.090  -1.645  -1.241  0.00  0.00    -0.007 A 
ATOM      6  C5  UNL d   1       1.470  -1.585  -1.430  0.00  0.00     0.039 A 
ENDROOT
BRANCH   4   7
ATOM      7  O   UNL d   1      -2.063  -2.212  -2.013  0.00  0.00    -0.526 OA
ATOM      8  H5  UNL d   1      -2.494  -2.624  -2.780  0.00  0.00     0.418 HD
ENDBRANCH   4   7
TORSDOF 1
ENDMDL
