MODEL 1
REMARK minimizedAffinity -1.80039191
REMARK minimizedRMSD -1
REMARK  1 active torsions:
REMARK  status: ('A' for Active; 'I' for Inactive)
REMARK    1  A    between atoms: C3_4  and  O_7 
ROOT
ATOM      1  C   UNL d   1       4.489   4.992  -6.000  0.00  0.00    -0.033 A 
ATOM      2  C1  UNL d   1       5.474   4.084  -5.605  0.00  0.00     0.039 A 
ATOM      3  C2  UNL d   1       5.994   4.134  -4.310  0.00  0.00    -0.080 A 
ATOM      4  C3  UNL d   1       5.520   5.094  -3.420  0.00  0.00     0.150 A 
ATOM      5  C4  UNL d   1       4.535   5.998  -3.805  0.00  0.00    -0.007 A 
ATOM      6  C5  UNL d   1       4.018   5.948  -5.099  0.00  0.00     0.039 A 
ENDROOT
BRANCH   4   7
ATOM      7  O   UNL d   1       6.000   5.185  -2.148  0.00  0.00    -0.526 OA
ATOM      8  H5  UNL d   1       6.695   4.515  -2.033  0.00  0.00     0.418 HD
ENDBRANCH   4   7
TORSDOF 1
ENDMDL
