MODEL 1
REMARK minimizedAffinity -3.35299778
REMARK minimizedRMSD -1
REMARK  1 active torsions:
REMARK  status: ('A' for Active; 'I' for Inactive)
REMARK    1  A    between atoms: C3_4  and  O_7 
ROOT
ATOM      1  C   UNL d   1       5.957   4.160  -1.893  0.00  0.00    -0.033 A 
ATOM      2  C1  UNL d   1       5.298   3.274  -2.749  0.00  0.00     0.039 A 
ATOM      3  C2  UNL d   1       4.677   3.750  -3.905  0.00  0.00    -0.080 A 
ATOM      4  C3  UNL d   1       4.724   5.111  -4.196  0.00  0.00     0.150 A 
ATOM      5  C4  UNL d   1       5.382   5.998  -3.350  0.00  0.00    -0.007 A 
ATOM      6  C5  UNL d   1       6.000   5.521  -2.195  0.00  0.00     0.039 A 
ENDROOT
BRANCH   4   7
ATOM      7  O   UNL d   1       4.129   5.622  -5.310  0.00  0.00    -0.526 OA
ATOM      8  H5  UNL d   1       3.688   4.897  -5.784  0.00  0.00     0.418 HD
ENDBRANCH   4   7
TORSDOF 1
ENDMDL
