MODEL 1
REMARK minimizedAffinity -3.90298867
REMARK minimizedRMSD -1
REMARK  1 active torsions:
REMARK  status: ('A' for Active; 'I' for Inactive)
REMARK    1  A    between atoms: C3_4  and  O_7 
ROOT
ATOM      1  C   UNL d   1      -0.077  -2.712  -3.402  0.00  0.00    -0.033 A 
ATOM      2  C1  UNL d   1       0.475  -1.797  -2.503  0.00  0.00     0.039 A 
ATOM      3  C2  UNL d   1      -0.043  -1.684  -1.212  0.00  0.00    -0.080 A 
ATOM      4  C3  UNL d   1      -1.112  -2.492  -0.832  0.00  0.00     0.150 A 
ATOM      5  C4  UNL d   1      -1.664  -3.408  -1.720  0.00  0.00    -0.007 A 
ATOM      6  C5  UNL d   1      -1.145  -3.519  -3.010  0.00  0.00     0.039 A 
ENDROOT
BRANCH   4   7
ATOM      7  O   UNL d   1      -1.655  -2.414   0.416  0.00  0.00    -0.526 OA
ATOM      8  H5  UNL d   1      -1.191  -1.718   0.911  0.00  0.00     0.418 HD
ENDBRANCH   4   7
TORSDOF 1
ENDMDL
