MODEL 1
REMARK minimizedAffinity -2.95710373
REMARK minimizedRMSD -1
REMARK  1 active torsions:
REMARK  status: ('A' for Active; 'I' for Inactive)
REMARK    1  A    between atoms: C3_4  and  O_7 
ROOT
ATOM      1  C   UNL d   1       5.618   4.815  -2.012  0.00  0.00    -0.033 A 
ATOM      2  C1  UNL d   1       6.000   3.751  -2.831  0.00  0.00     0.039 A 
ATOM      3  C2  UNL d   1       5.630   3.735  -4.177  0.00  0.00    -0.080 A 
ATOM      4  C3  UNL d   1       4.879   4.789  -4.692  0.00  0.00     0.150 A 
ATOM      5  C4  UNL d   1       4.499   5.854  -3.883  0.00  0.00    -0.007 A 
ATOM      6  C5  UNL d   1       4.869   5.868  -2.538  0.00  0.00     0.039 A 
ENDROOT
BRANCH   4   7
ATOM      7  O   UNL d   1       4.490   4.815  -5.998  0.00  0.00    -0.526 OA
ATOM      8  H5  UNL d   1       4.800   4.001  -6.428  0.00  0.00     0.418 HD
ENDBRANCH   4   7
TORSDOF 1
ENDMDL
