MODEL 1
REMARK minimizedAffinity -3.43997693
REMARK minimizedRMSD -1
REMARK  1 active torsions:
REMARK  status: ('A' for Active; 'I' for Inactive)
REMARK    1  A    between atoms: C3_4  and  O_7 
ROOT
ATOM      1  C   UNL d   1       4.483   4.172  -4.527  0.00  0.00    -0.033 A 
ATOM      2  C1  UNL d   1       5.482   3.525  -3.797  0.00  0.00     0.039 A 
ATOM      3  C2  UNL d   1       5.999   4.116  -2.642  0.00  0.00    -0.080 A 
ATOM      4  C3  UNL d   1       5.507   5.350  -2.227  0.00  0.00     0.150 A 
ATOM      5  C4  UNL d   1       4.508   5.998  -2.947  0.00  0.00    -0.007 A 
ATOM      6  C5  UNL d   1       3.995   5.407  -4.101  0.00  0.00     0.039 A 
ENDROOT
BRANCH   4   7
ATOM      7  O   UNL d   1       5.983   5.968  -1.109  0.00  0.00    -0.526 OA
ATOM      8  H5  UNL d   1       6.689   5.417  -0.730  0.00  0.00     0.418 HD
ENDBRANCH   4   7
TORSDOF 1
ENDMDL
