MODEL 1
REMARK minimizedAffinity -2.68131518
REMARK minimizedRMSD -1
REMARK  1 active torsions:
REMARK  status: ('A' for Active; 'I' for Inactive)
REMARK    1  A    between atoms: C3_4  and  O_7 
ROOT
ATOM      1  C   UNL d   1      -0.509  -1.909  -0.886  0.00  0.00    -0.033 A 
ATOM      2  C1  UNL d   1      -0.425  -2.003  -2.276  0.00  0.00     0.039 A 
ATOM      3  C2  UNL d   1      -1.474  -2.568  -3.004  0.00  0.00    -0.080 A 
ATOM      4  C3  UNL d   1      -2.600  -3.033  -2.331  0.00  0.00     0.150 A 
ATOM      5  C4  UNL d   1      -2.692  -2.939  -0.946  0.00  0.00    -0.007 A 
ATOM      6  C5  UNL d   1      -1.643  -2.376  -0.221  0.00  0.00     0.039 A 
ENDROOT
BRANCH   4   7
ATOM      7  O   UNL d   1      -3.648  -3.595  -2.998  0.00  0.00    -0.526 OA
ATOM      8  H5  UNL d   1      -3.432  -3.620  -3.945  0.00  0.00     0.418 HD
ENDBRANCH   4   7
TORSDOF 1
ENDMDL
