MODEL 1
REMARK minimizedAffinity -2.79389691
REMARK minimizedRMSD -1
REMARK  1 active torsions:
REMARK  status: ('A' for Active; 'I' for Inactive)
REMARK    1  A    between atoms: C3_4  and  O_7 
ROOT
ATOM      1  C   UNL d   1       4.852   4.869  -5.233  0.00  0.00    -0.033 A 
ATOM      2  C1  UNL d   1       5.601   3.812  -4.712  0.00  0.00     0.039 A 
ATOM      3  C2  UNL d   1       5.995   3.828  -3.372  0.00  0.00    -0.080 A 
ATOM      4  C3  UNL d   1       5.634   4.904  -2.566  0.00  0.00     0.150 A 
ATOM      5  C4  UNL d   1       4.884   5.958  -3.078  0.00  0.00    -0.007 A 
ATOM      6  C5  UNL d   1       4.492   5.941  -4.416  0.00  0.00     0.039 A 
ENDROOT
BRANCH   4   7
ATOM      7  O   UNL d   1       6.000   4.966  -1.255  0.00  0.00    -0.526 OA
ATOM      8  H5  UNL d   1       6.538   4.184  -1.048  0.00  0.00     0.418 HD
ENDBRANCH   4   7
TORSDOF 1
ENDMDL
