MODEL 1
REMARK minimizedAffinity -3.46898055
REMARK minimizedRMSD -1
REMARK  1 active torsions:
REMARK  status: ('A' for Active; 'I' for Inactive)
REMARK    1  A    between atoms: C3_4  and  O_7 
ROOT
ATOM      1  C   UNL d   1       5.268   5.001  -1.896  0.00  0.00    -0.033 A 
ATOM      2  C1  UNL d   1       6.000   4.158  -2.735  0.00  0.00     0.039 A 
ATOM      3  C2  UNL d   1       5.834   4.233  -4.119  0.00  0.00    -0.080 A 
ATOM      4  C3  UNL d   1       4.937   5.154  -4.651  0.00  0.00     0.150 A 
ATOM      5  C4  UNL d   1       4.208   6.000  -3.822  0.00  0.00    -0.007 A 
ATOM      6  C5  UNL d   1       4.374   5.923  -2.440  0.00  0.00     0.039 A 
ENDROOT
BRANCH   4   7
ATOM      7  O   UNL d   1       4.738   5.261  -5.996  0.00  0.00    -0.526 OA
ATOM      8  H5  UNL d   1       5.287   4.595  -6.442  0.00  0.00     0.418 HD
ENDBRANCH   4   7
TORSDOF 1
ENDMDL
