MODEL 1
REMARK minimizedAffinity -0.80458504
REMARK minimizedRMSD -1
REMARK  1 active torsions:
REMARK  status: ('A' for Active; 'I' for Inactive)
REMARK    1  A    between atoms: C3_4  and  O_7 
ROOT
ATOM      1  C   UNL d   1       5.998   4.370  -4.386  0.00  0.00    -0.033 A 
ATOM      2  C1  UNL d   1       5.828   5.531  -3.629  0.00  0.00     0.039 A 
ATOM      3  C2  UNL d   1       4.543   5.993  -3.337  0.00  0.00    -0.080 A 
ATOM      4  C3  UNL d   1       3.439   5.286  -3.806  0.00  0.00     0.150 A 
ATOM      5  C4  UNL d   1       3.602   4.126  -4.557  0.00  0.00    -0.007 A 
ATOM      6  C5  UNL d   1       4.886   3.667  -4.848  0.00  0.00     0.039 A 
ENDROOT
BRANCH   4   7
ATOM      7  O   UNL d   1       2.166   5.701  -3.551  0.00  0.00    -0.526 OA
ATOM      8  H5  UNL d   1       2.208   6.531  -3.047  0.00  0.00     0.418 HD
ENDBRANCH   4   7
TORSDOF 1
ENDMDL
