MODEL 1
REMARK minimizedAffinity -2.71388102
REMARK minimizedRMSD -1
REMARK  1 active torsions:
REMARK  status: ('A' for Active; 'I' for Inactive)
REMARK    1  A    between atoms: C3_4  and  O_7 
ROOT
ATOM      1  C   UNL d   1      -1.541   0.800   4.035  0.00  0.00    -0.033 A 
ATOM      2  C1  UNL d   1      -1.918   0.873   5.378  0.00  0.00     0.039 A 
ATOM      3  C2  UNL d   1      -2.515  -0.226   5.998  0.00  0.00    -0.080 A 
ATOM      4  C3  UNL d   1      -2.729  -1.391   5.266  0.00  0.00     0.150 A 
ATOM      5  C4  UNL d   1      -2.353  -1.472   3.929  0.00  0.00    -0.007 A 
ATOM      6  C5  UNL d   1      -1.757  -0.373   3.311  0.00  0.00     0.039 A 
ENDROOT
BRANCH   4   7
ATOM      7  O   UNL d   1      -3.313  -2.488   5.826  0.00  0.00    -0.526 OA
ATOM      8  H5  UNL d   1      -3.545  -2.276   6.746  0.00  0.00     0.418 HD
ENDBRANCH   4   7
TORSDOF 1
ENDMDL
