MODEL 1
REMARK minimizedAffinity 0.796183765
REMARK minimizedRMSD -1
REMARK  1 active torsions:
REMARK  status: ('A' for Active; 'I' for Inactive)
REMARK    1  A    between atoms: C3_4  and  O_7 
ROOT
ATOM      1  C   UNL d   1       5.055  -2.122   5.809  0.00  0.00    -0.033 A 
ATOM      2  C1  UNL d   1       5.997  -3.134   5.998  0.00  0.00     0.039 A 
ATOM      3  C2  UNL d   1       5.737  -4.428   5.541  0.00  0.00    -0.080 A 
ATOM      4  C3  UNL d   1       4.533  -4.694   4.895  0.00  0.00     0.150 A 
ATOM      5  C4  UNL d   1       3.591  -3.690   4.700  0.00  0.00    -0.007 A 
ATOM      6  C5  UNL d   1       3.852  -2.399   5.158  0.00  0.00     0.039 A 
ENDROOT
BRANCH   4   7
ATOM      7  O   UNL d   1       4.232  -5.942   4.436  0.00  0.00    -0.526 OA
ATOM      8  H5  UNL d   1       4.962  -6.540   4.667  0.00  0.00     0.418 HD
ENDBRANCH   4   7
TORSDOF 1
ENDMDL
