MODEL 1
REMARK minimizedAffinity 0.635988235
REMARK minimizedRMSD -1
REMARK  1 active torsions:
REMARK  status: ('A' for Active; 'I' for Inactive)
REMARK    1  A    between atoms: C3_4  and  O_7 
ROOT
ATOM      1  C   UNL d   1      -2.185  -2.847   1.233  0.00  0.00    -0.033 A 
ATOM      2  C1  UNL d   1      -0.862  -3.059   0.839  0.00  0.00     0.039 A 
ATOM      3  C2  UNL d   1      -0.547  -3.185  -0.516  0.00  0.00    -0.080 A 
ATOM      4  C3  UNL d   1      -1.562  -3.097  -1.464  0.00  0.00     0.150 A 
ATOM      5  C4  UNL d   1      -2.881  -2.883  -1.079  0.00  0.00    -0.007 A 
ATOM      6  C5  UNL d   1      -3.194  -2.758   0.274  0.00  0.00     0.039 A 
ENDROOT
BRANCH   4   7
ATOM      7  O   UNL d   1      -1.304  -3.219  -2.797  0.00  0.00    -0.526 OA
ATOM      8  H5  UNL d   1      -0.355  -3.393  -2.913  0.00  0.00     0.418 HD
ENDBRANCH   4   7
TORSDOF 1
ENDMDL
