MODEL 1
REMARK minimizedAffinity -2.66703391
REMARK minimizedRMSD -1
REMARK  1 active torsions:
REMARK  status: ('A' for Active; 'I' for Inactive)
REMARK    1  A    between atoms: C3_4  and  O_7 
ROOT
ATOM      1  C   UNL d   1       5.264   4.683  -6.000  0.00  0.00    -0.033 A 
ATOM      2  C1  UNL d   1       4.538   3.851  -5.146  0.00  0.00     0.039 A 
ATOM      3  C2  UNL d   1       4.544   4.085  -3.769  0.00  0.00    -0.080 A 
ATOM      4  C3  UNL d   1       5.278   5.153  -3.261  0.00  0.00     0.150 A 
ATOM      5  C4  UNL d   1       6.000   5.989  -4.106  0.00  0.00    -0.007 A 
ATOM      6  C5  UNL d   1       5.993   5.753  -5.481  0.00  0.00     0.039 A 
ENDROOT
BRANCH   4   7
ATOM      7  O   UNL d   1       5.318   5.418  -1.924  0.00  0.00    -0.526 OA
ATOM      8  H5  UNL d   1       4.796   4.742  -1.460  0.00  0.00     0.418 HD
ENDBRANCH   4   7
TORSDOF 1
ENDMDL
