MODEL 1
REMARK minimizedAffinity -3.21756935
REMARK minimizedRMSD -1
REMARK  1 active torsions:
REMARK  status: ('A' for Active; 'I' for Inactive)
REMARK    1  A    between atoms: C3_4  and  O_7 
ROOT
ATOM      1  C   UNL d   1       5.302   4.855  -1.283  0.00  0.00    -0.033 A 
ATOM      2  C1  UNL d   1       4.337   4.065  -1.911  0.00  0.00     0.039 A 
ATOM      3  C2  UNL d   1       4.065   4.240  -3.269  0.00  0.00    -0.080 A 
ATOM      4  C3  UNL d   1       4.764   5.206  -3.987  0.00  0.00     0.150 A 
ATOM      5  C4  UNL d   1       5.729   5.994  -3.369  0.00  0.00    -0.007 A 
ATOM      6  C5  UNL d   1       5.999   5.818  -2.013  0.00  0.00     0.039 A 
ENDROOT
BRANCH   4   7
ATOM      7  O   UNL d   1       4.529   5.417  -5.313  0.00  0.00    -0.526 OA
ATOM      8  H5  UNL d   1       3.817   4.820  -5.598  0.00  0.00     0.418 HD
ENDBRANCH   4   7
TORSDOF 1
ENDMDL
