MODEL 1
REMARK minimizedAffinity -4.04909325
REMARK minimizedRMSD -1
REMARK  1 active torsions:
REMARK  status: ('A' for Active; 'I' for Inactive)
REMARK    1  A    between atoms: C3_4  and  O_7 
ROOT
ATOM      1  C   UNL d   1       4.481   5.210  -5.679  0.00  0.00    -0.033 A 
ATOM      2  C1  UNL d   1       3.768   5.970  -4.749  0.00  0.00     0.039 A 
ATOM      3  C2  UNL d   1       4.169   5.996  -3.412  0.00  0.00    -0.080 A 
ATOM      4  C3  UNL d   1       5.283   5.260  -3.018  0.00  0.00     0.150 A 
ATOM      5  C4  UNL d   1       6.000   4.504  -3.939  0.00  0.00    -0.007 A 
ATOM      6  C5  UNL d   1       5.598   4.478  -5.274  0.00  0.00     0.039 A 
ENDROOT
BRANCH   4   7
ATOM      7  O   UNL d   1       5.709   5.252  -1.723  0.00  0.00    -0.526 OA
ATOM      8  H5  UNL d   1       5.101   5.795  -1.195  0.00  0.00     0.418 HD
ENDBRANCH   4   7
TORSDOF 1
ENDMDL
