MODEL 1
REMARK minimizedAffinity 1.86907542
REMARK minimizedRMSD -1
REMARK  0 active torsions:
REMARK  status: ('A' for Active; 'I' for Inactive)
ROOT
ATOM      1  C   UNL d   1       1.429  -2.649   5.806  0.00  0.00     0.078 C 
ATOM      2  C1  UNL d   1       1.448  -2.240   4.363  0.00  0.00    -0.077 A 
ATOM      3  C2  UNL d   1       0.927  -1.006   3.956  0.00  0.00    -0.001 A 
ATOM      4  C3  UNL d   1       0.943  -0.643   2.609  0.00  0.00     0.003 A 
ATOM      5  C4  UNL d   1       1.478  -1.509   1.657  0.00  0.00    -0.005 A 
ATOM      6  C5  UNL d   1       1.997  -2.740   2.052  0.00  0.00     0.003 A 
ATOM      7  C6  UNL d   1       1.982  -3.105   3.399  0.00  0.00    -0.001 A 
ENDROOT
TORSDOF 0
ENDMDL
