MODEL 1
REMARK minimizedAffinity 2.33162904
REMARK minimizedRMSD -1
REMARK  0 active torsions:
REMARK  status: ('A' for Active; 'I' for Inactive)
ROOT
ATOM      1  C   UNL d   1      -1.846   0.363   0.443  0.00  0.00     0.078 C 
ATOM      2  C1  UNL d   1      -2.196  -1.046   0.068  0.00  0.00    -0.077 A 
ATOM      3  C2  UNL d   1      -1.241  -2.068   0.131  0.00  0.00    -0.001 A 
ATOM      4  C3  UNL d   1      -1.579  -3.373  -0.230  0.00  0.00     0.003 A 
ATOM      5  C4  UNL d   1      -2.872  -3.668  -0.658  0.00  0.00    -0.005 A 
ATOM      6  C5  UNL d   1      -3.828  -2.658  -0.725  0.00  0.00     0.003 A 
ATOM      7  C6  UNL d   1      -3.492  -1.352  -0.365  0.00  0.00    -0.001 A 
ENDROOT
TORSDOF 0
ENDMDL
