MODEL 1
REMARK minimizedAffinity 0.826187134
REMARK minimizedRMSD -1
REMARK  0 active torsions:
REMARK  status: ('A' for Active; 'I' for Inactive)
ROOT
ATOM      1  C   UNL d   1      -6.000   3.371  -1.916  0.00  0.00     0.078 C 
ATOM      2  C1  UNL d   1      -5.602   2.924  -3.291  0.00  0.00    -0.077 A 
ATOM      3  C2  UNL d   1      -5.149   1.619  -3.522  0.00  0.00    -0.001 A 
ATOM      4  C3  UNL d   1      -4.773   1.219  -4.805  0.00  0.00     0.003 A 
ATOM      5  C4  UNL d   1      -4.845   2.118  -5.868  0.00  0.00    -0.005 A 
ATOM      6  C5  UNL d   1      -5.293   3.419  -5.647  0.00  0.00     0.003 A 
ATOM      7  C6  UNL d   1      -5.669   3.821  -4.365  0.00  0.00    -0.001 A 
ENDROOT
TORSDOF 0
ENDMDL
