MODEL 1
REMARK minimizedAffinity 5.4224968
REMARK minimizedRMSD -1
REMARK  0 active torsions:
REMARK  status: ('A' for Active; 'I' for Inactive)
ROOT
ATOM      1  C   UNL d   1       3.064  -4.080   3.585  0.00  0.00     0.078 C 
ATOM      2  C1  UNL d   1       2.495  -2.703   3.756  0.00  0.00    -0.077 A 
ATOM      3  C2  UNL d   1       2.126  -2.227   5.020  0.00  0.00    -0.001 A 
ATOM      4  C3  UNL d   1       1.589  -0.947   5.163  0.00  0.00     0.003 A 
ATOM      5  C4  UNL d   1       1.414  -0.133   4.046  0.00  0.00    -0.005 A 
ATOM      6  C5  UNL d   1       1.777  -0.599   2.783  0.00  0.00     0.003 A 
ATOM      7  C6  UNL d   1       2.315  -1.879   2.639  0.00  0.00    -0.001 A 
ENDROOT
TORSDOF 0
ENDMDL
