MODEL 1
REMARK minimizedAffinity 4.65258026
REMARK minimizedRMSD -1
REMARK  0 active torsions:
REMARK  status: ('A' for Active; 'I' for Inactive)
ROOT
ATOM      1  C   UNL d   1      -2.668  -1.085  -0.006  0.00  0.00     0.078 C 
ATOM      2  C1  UNL d   1      -2.299  -2.495  -0.358  0.00  0.00    -0.077 A 
ATOM      3  C2  UNL d   1      -3.050  -3.577   0.119  0.00  0.00    -0.001 A 
ATOM      4  C3  UNL d   1      -2.690  -4.885  -0.209  0.00  0.00     0.003 A 
ATOM      5  C4  UNL d   1      -1.578  -5.124  -1.014  0.00  0.00    -0.005 A 
ATOM      6  C5  UNL d   1      -0.823  -4.054  -1.491  0.00  0.00     0.003 A 
ATOM      7  C6  UNL d   1      -1.182  -2.745  -1.164  0.00  0.00    -0.001 A 
ENDROOT
TORSDOF 0
ENDMDL
