MODEL 1
REMARK minimizedAffinity 1.4623735
REMARK minimizedRMSD -1
REMARK  0 active torsions:
REMARK  status: ('A' for Active; 'I' for Inactive)
ROOT
ATOM      1  C   UNL d   1       2.508  -4.632   3.090  0.00  0.00     0.078 C 
ATOM      2  C1  UNL d   1       1.960  -3.239   2.995  0.00  0.00    -0.077 A 
ATOM      3  C2  UNL d   1       1.995  -2.532   1.787  0.00  0.00    -0.001 A 
ATOM      4  C3  UNL d   1       1.490  -1.232   1.715  0.00  0.00     0.003 A 
ATOM      5  C4  UNL d   1       0.948  -0.629   2.848  0.00  0.00    -0.005 A 
ATOM      6  C5  UNL d   1       0.911  -1.324   4.055  0.00  0.00     0.003 A 
ATOM      7  C6  UNL d   1       1.416  -2.624   4.129  0.00  0.00    -0.001 A 
ENDROOT
TORSDOF 0
ENDMDL
