MODEL 1
REMARK minimizedAffinity 8.54516983
REMARK minimizedRMSD -1
REMARK  0 active torsions:
REMARK  status: ('A' for Active; 'I' for Inactive)
ROOT
ATOM      1  C   UNL d   1       0.646  -0.448   2.165  0.00  0.00     0.078 C 
ATOM      2  C1  UNL d   1      -0.375  -1.234   1.398  0.00  0.00    -0.077 A 
ATOM      3  C2  UNL d   1      -0.107  -2.540   0.969  0.00  0.00    -0.001 A 
ATOM      4  C3  UNL d   1      -1.063  -3.256   0.247  0.00  0.00     0.003 A 
ATOM      5  C4  UNL d   1      -2.293  -2.674  -0.053  0.00  0.00    -0.005 A 
ATOM      6  C5  UNL d   1      -2.568  -1.375   0.368  0.00  0.00     0.003 A 
ATOM      7  C6  UNL d   1      -1.613  -0.657   1.090  0.00  0.00    -0.001 A 
ENDROOT
TORSDOF 0
ENDMDL
