MODEL 1
REMARK minimizedAffinity 8.07810593
REMARK minimizedRMSD -1
REMARK  0 active torsions:
REMARK  status: ('A' for Active; 'I' for Inactive)
ROOT
ATOM      1  C   UNL d   1       1.027  -0.321   2.343  0.00  0.00     0.078 C 
ATOM      2  C1  UNL d   1      -0.178  -0.090   1.481  0.00  0.00    -0.077 A 
ATOM      3  C2  UNL d   1      -1.182  -1.060   1.371  0.00  0.00    -0.001 A 
ATOM      4  C3  UNL d   1      -2.294  -0.835   0.557  0.00  0.00     0.003 A 
ATOM      5  C4  UNL d   1      -2.411   0.357  -0.154  0.00  0.00    -0.005 A 
ATOM      6  C5  UNL d   1      -1.416   1.327  -0.052  0.00  0.00     0.003 A 
ATOM      7  C6  UNL d   1      -0.304   1.105   0.761  0.00  0.00    -0.001 A 
ENDROOT
TORSDOF 0
ENDMDL
