MODEL 1
REMARK minimizedAffinity 3.05610967
REMARK minimizedRMSD -1
REMARK  0 active torsions:
REMARK  status: ('A' for Active; 'I' for Inactive)
ROOT
ATOM      1  C1  DEN d   1       1.334   0.365   2.126  0.00  0.00     0.130 A 
ATOM      2  C2  DEN d   1       2.349  -0.138   1.204  0.00  0.00    -0.031 A 
ATOM      3  C3  DEN d   1       1.673  -0.522  -0.052  0.00  0.00     0.027 A 
ATOM      4  C4  DEN d   1      -0.830  -0.383  -0.656  0.00  0.00     0.027 A 
ATOM      5  C5  DEN d   1      -2.079  -0.033  -0.193  0.00  0.00    -0.003 A 
ATOM      6  C6  DEN d   1      -2.281   0.437   1.078  0.00  0.00     0.001 A 
ATOM      7  C7  DEN d   1      -1.210   0.615   1.914  0.00  0.00     0.017 A 
ATOM      8  C8  DEN d   1       0.051   0.258   1.456  0.00  0.00    -0.094 A 
ATOM      9  C9  DEN d   1       0.236  -0.205   0.164  0.00  0.00    -0.072 A 
ENDROOT
TORSDOF 0
ENDMDL
