MODEL 1
REMARK minimizedAffinity -2.06385684
REMARK minimizedRMSD -1
REMARK  0 active torsions:
REMARK  status: ('A' for Active; 'I' for Inactive)
ROOT
ATOM      1  C1  DEN d   1       0.811   1.080   2.078  0.00  0.00     0.130 A 
ATOM      2  C2  DEN d   1      -0.364   1.395   2.887  0.00  0.00    -0.031 A 
ATOM      3  C3  DEN d   1      -1.560   0.936   2.152  0.00  0.00     0.027 A 
ATOM      4  C4  DEN d   1      -1.707  -0.229  -0.144  0.00  0.00     0.027 A 
ATOM      5  C5  DEN d   1      -0.976  -0.696  -1.214  0.00  0.00    -0.003 A 
ATOM      6  C6  DEN d   1       0.386  -0.575  -1.277  0.00  0.00     0.001 A 
ATOM      7  C7  DEN d   1       1.067  -0.011  -0.230  0.00  0.00     0.017 A 
ATOM      8  C8  DEN d   1       0.337   0.469   0.849  0.00  0.00    -0.094 A 
ATOM      9  C9  DEN d   1      -1.039   0.325   0.900  0.00  0.00    -0.072 A 
ENDROOT
TORSDOF 0
ENDMDL
