MODEL 1
REMARK minimizedAffinity -4.76546669
REMARK minimizedRMSD -1
REMARK  0 active torsions:
REMARK  status: ('A' for Active; 'I' for Inactive)
ROOT
ATOM      1  C1  DEN d   1       1.946  -0.321   2.227  0.00  0.00     0.130 A 
ATOM      2  C2  DEN d   1       1.791   0.046   3.632  0.00  0.00    -0.031 A 
ATOM      3  C3  DEN d   1       0.412   0.538   3.826  0.00  0.00     0.027 A 
ATOM      4  C4  DEN d   1      -1.488   0.762   2.096  0.00  0.00     0.027 A 
ATOM      5  C5  DEN d   1      -1.828   0.587   0.773  0.00  0.00    -0.003 A 
ATOM      6  C6  DEN d   1      -0.932   0.133  -0.157  0.00  0.00     0.001 A 
ATOM      7  C7  DEN d   1       0.338  -0.205   0.232  0.00  0.00     0.017 A 
ATOM      8  C8  DEN d   1       0.690  -0.024   1.563  0.00  0.00    -0.094 A 
ATOM      9  C9  DEN d   1      -0.235   0.425   2.490  0.00  0.00    -0.072 A 
ENDROOT
TORSDOF 0
ENDMDL
