MODEL 1
REMARK minimizedAffinity -6.32640553
REMARK minimizedRMSD -1
REMARK  0 active torsions:
REMARK  status: ('A' for Active; 'I' for Inactive)
ROOT
ATOM      1  C1  DEN d   1       1.161  -0.578   0.115  0.00  0.00     0.130 A 
ATOM      2  C2  DEN d   1      -0.064  -0.523  -0.678  0.00  0.00    -0.031 A 
ATOM      3  C3  DEN d   1      -1.127   0.063   0.164  0.00  0.00     0.027 A 
ATOM      4  C4  DEN d   1      -0.994   0.889   2.603  0.00  0.00     0.027 A 
ATOM      5  C5  DEN d   1      -0.168   1.036   3.695  0.00  0.00    -0.003 A 
ATOM      6  C6  DEN d   1       1.139   0.627   3.682  0.00  0.00     0.001 A 
ATOM      7  C7  DEN d   1       1.672   0.093   2.539  0.00  0.00     0.017 A 
ATOM      8  C8  DEN d   1       0.843  -0.065   1.436  0.00  0.00    -0.094 A 
ATOM      9  C9  DEN d   1      -0.473   0.365   1.465  0.00  0.00    -0.072 A 
ENDROOT
TORSDOF 0
ENDMDL
