MODEL 1
REMARK minimizedAffinity -6.35035086
REMARK minimizedRMSD -1
REMARK  0 active torsions:
REMARK  status: ('A' for Active; 'I' for Inactive)
ROOT
ATOM      1  C1  DEN d   1      -0.228   0.946   3.602  0.00  0.00     0.130 A 
ATOM      2  C2  DEN d   1       1.053   0.285   3.836  0.00  0.00    -0.031 A 
ATOM      3  C3  DEN d   1       1.510  -0.291   2.555  0.00  0.00     0.027 A 
ATOM      4  C4  DEN d   1       0.368  -0.219   0.244  0.00  0.00     0.027 A 
ATOM      5  C5  DEN d   1      -0.740   0.218  -0.447  0.00  0.00    -0.003 A 
ATOM      6  C6  DEN d   1      -1.763   0.893   0.164  0.00  0.00     0.001 A 
ATOM      7  C7  DEN d   1      -1.677   1.191   1.499  0.00  0.00     0.017 A 
ATOM      8  C8  DEN d   1      -0.567   0.747   2.204  0.00  0.00    -0.094 A 
ATOM      9  C9  DEN d   1       0.463   0.076   1.565  0.00  0.00    -0.072 A 
ENDROOT
TORSDOF 0
ENDMDL
