MODEL 1
REMARK minimizedAffinity -5.87245464
REMARK minimizedRMSD -1
REMARK  0 active torsions:
REMARK  status: ('A' for Active; 'I' for Inactive)
ROOT
ATOM      1  C1  DEN d   1       0.594   0.490   3.473  0.00  0.00     0.130 A 
ATOM      2  C2  DEN d   1       1.923  -0.105   3.354  0.00  0.00    -0.031 A 
ATOM      3  C3  DEN d   1       2.070  -0.621   1.978  0.00  0.00     0.027 A 
ATOM      4  C4  DEN d   1       0.382  -0.550   0.029  0.00  0.00     0.027 A 
ATOM      5  C5  DEN d   1      -0.884  -0.157  -0.346  0.00  0.00    -0.003 A 
ATOM      6  C6  DEN d   1      -1.750   0.444   0.528  0.00  0.00     0.001 A 
ATOM      7  C7  DEN d   1      -1.346   0.710   1.810  0.00  0.00     0.017 A 
ATOM      8  C8  DEN d   1      -0.075   0.310   2.197  0.00  0.00    -0.094 A 
ATOM      9  C9  DEN d   1       0.791  -0.286   1.296  0.00  0.00    -0.072 A 
ENDROOT
TORSDOF 0
ENDMDL
