MODEL 1
REMARK minimizedAffinity -2.04477143
REMARK minimizedRMSD -1
REMARK  1 active torsions:
REMARK  status: ('A' for Active; 'I' for Inactive)
REMARK    1  A    between atoms: C3_4  and  O_7 
ROOT
ATOM      1  C   UNL d   1      -0.200   2.155   3.044  0.00  0.00    -0.033 A 
ATOM      2  C1  UNL d   1       1.167   2.414   3.162  0.00  0.00     0.039 A 
ATOM      3  C2  UNL d   1       2.098   1.448   2.777  0.00  0.00    -0.080 A 
ATOM      4  C3  UNL d   1       1.650   0.229   2.275  0.00  0.00     0.150 A 
ATOM      5  C4  UNL d   1       0.290  -0.034   2.150  0.00  0.00    -0.007 A 
ATOM      6  C5  UNL d   1      -0.638   0.931   2.536  0.00  0.00     0.039 A 
ENDROOT
BRANCH   4   7
ATOM      7  O   UNL d   1       2.522  -0.747   1.890  0.00  0.00    -0.526 OA
ATOM      8  H5  UNL d   1       3.426  -0.435   2.060  0.00  0.00     0.418 HD
ENDBRANCH   4   7
TORSDOF 1
ENDMDL
