MODEL 1
REMARK minimizedAffinity 4.7418437
REMARK minimizedRMSD -1
REMARK  1 active torsions:
REMARK  status: ('A' for Active; 'I' for Inactive)
REMARK    1  A    between atoms: C3_4  and  O_7 
ROOT
ATOM      1  C   UNL d   1      -1.030   0.019   2.748  0.00  0.00    -0.033 A 
ATOM      2  C1  UNL d   1      -0.870  -0.760   1.601  0.00  0.00     0.039 A 
ATOM      3  C2  UNL d   1      -1.569  -0.441   0.435  0.00  0.00    -0.080 A 
ATOM      4  C3  UNL d   1      -2.423   0.658   0.430  0.00  0.00     0.150 A 
ATOM      5  C4  UNL d   1      -2.584   1.441   1.569  0.00  0.00    -0.007 A 
ATOM      6  C5  UNL d   1      -1.886   1.120   2.732  0.00  0.00     0.039 A 
ENDROOT
BRANCH   4   7
ATOM      7  O   UNL d   1      -3.131   1.006  -0.682  0.00  0.00    -0.526 OA
ATOM      8  H5  UNL d   1      -2.941   0.359  -1.382  0.00  0.00     0.418 HD
ENDBRANCH   4   7
TORSDOF 1
ENDMDL
