MODEL 1
REMARK minimizedAffinity 1.6104058
REMARK minimizedRMSD -1
REMARK  1 active torsions:
REMARK  status: ('A' for Active; 'I' for Inactive)
REMARK    1  A    between atoms: C3_4  and  O_7 
ROOT
ATOM      1  C   UNL d   1      -0.269  -0.264  -5.324  0.00  0.00    -0.033 A 
ATOM      2  C1  UNL d   1      -1.333  -0.609  -4.488  0.00  0.00     0.039 A 
ATOM      3  C2  UNL d   1      -1.694  -1.949  -4.331  0.00  0.00    -0.080 A 
ATOM      4  C3  UNL d   1      -0.982  -2.932  -5.012  0.00  0.00     0.150 A 
ATOM      5  C4  UNL d   1       0.082  -2.596  -5.843  0.00  0.00    -0.007 A 
ATOM      6  C5  UNL d   1       0.439  -1.257  -6.000  0.00  0.00     0.039 A 
ENDROOT
BRANCH   4   7
ATOM      7  O   UNL d   1      -1.300  -4.253  -4.894  0.00  0.00    -0.526 OA
ATOM      8  H5  UNL d   1      -2.073  -4.332  -4.311  0.00  0.00     0.418 HD
ENDBRANCH   4   7
TORSDOF 1
ENDMDL
