MODEL 1
REMARK minimizedAffinity 4.5456605
REMARK minimizedRMSD -1
REMARK  1 active torsions:
REMARK  status: ('A' for Active; 'I' for Inactive)
REMARK    1  A    between atoms: C3_4  and  O_7 
ROOT
ATOM      1  C   UNL d   1      -1.670   1.473   2.884  0.00  0.00    -0.033 A 
ATOM      2  C1  UNL d   1      -1.629   0.105   3.161  0.00  0.00     0.039 A 
ATOM      3  C2  UNL d   1      -0.442  -0.609   2.988  0.00  0.00    -0.080 A 
ATOM      4  C3  UNL d   1       0.696   0.056   2.539  0.00  0.00     0.150 A 
ATOM      5  C4  UNL d   1       0.664   1.419   2.264  0.00  0.00    -0.007 A 
ATOM      6  C5  UNL d   1      -0.523   2.130   2.437  0.00  0.00     0.039 A 
ENDROOT
BRANCH   4   7
ATOM      7  O   UNL d   1       1.876  -0.600   2.350  0.00  0.00    -0.526 OA
ATOM      8  H5  UNL d   1       1.741  -1.541   2.552  0.00  0.00     0.418 HD
ENDBRANCH   4   7
TORSDOF 1
ENDMDL
