MODEL 1
REMARK minimizedAffinity 0.111314364
REMARK minimizedRMSD -1
REMARK  1 active torsions:
REMARK  status: ('A' for Active; 'I' for Inactive)
REMARK    1  A    between atoms: C3_4  and  O_7 
ROOT
ATOM      1  C   UNL d   1      -5.635   3.671  -1.684  0.00  0.00    -0.033 A 
ATOM      2  C1  UNL d   1      -5.470   5.054  -1.782  0.00  0.00     0.039 A 
ATOM      3  C2  UNL d   1      -5.571   5.853  -0.641  0.00  0.00    -0.080 A 
ATOM      4  C3  UNL d   1      -5.836   5.258   0.589  0.00  0.00     0.150 A 
ATOM      5  C4  UNL d   1      -5.998   3.880   0.694  0.00  0.00    -0.007 A 
ATOM      6  C5  UNL d   1      -5.898   3.084  -0.446  0.00  0.00     0.039 A 
ENDROOT
BRANCH   4   7
ATOM      7  O   UNL d   1      -5.949   5.997   1.729  0.00  0.00    -0.526 OA
ATOM      8  H5  UNL d   1      -5.842   6.935   1.499  0.00  0.00     0.418 HD
ENDBRANCH   4   7
TORSDOF 1
ENDMDL
