MODEL 1
REMARK minimizedAffinity 3.68982363
REMARK minimizedRMSD -1
REMARK  1 active torsions:
REMARK  status: ('A' for Active; 'I' for Inactive)
REMARK    1  A    between atoms: C3_4  and  O_7 
ROOT
ATOM      1  C   UNL d   1      -1.846  -1.609  -2.946  0.00  0.00    -0.033 A 
ATOM      2  C1  UNL d   1      -0.950  -2.479  -2.322  0.00  0.00     0.039 A 
ATOM      3  C2  UNL d   1      -1.013  -2.678  -0.942  0.00  0.00    -0.080 A 
ATOM      4  C3  UNL d   1      -1.977  -2.003  -0.198  0.00  0.00     0.150 A 
ATOM      5  C4  UNL d   1      -2.876  -1.138  -0.813  0.00  0.00    -0.007 A 
ATOM      6  C5  UNL d   1      -2.810  -0.939  -2.192  0.00  0.00     0.039 A 
ENDROOT
BRANCH   4   7
ATOM      7  O   UNL d   1      -2.075  -2.161   1.153  0.00  0.00    -0.526 OA
ATOM      8  H5  UNL d   1      -1.371  -2.765   1.443  0.00  0.00     0.418 HD
ENDBRANCH   4   7
TORSDOF 1
ENDMDL
