MODEL 1
REMARK minimizedAffinity -0.498634964
REMARK minimizedRMSD -1
REMARK  1 active torsions:
REMARK  status: ('A' for Active; 'I' for Inactive)
REMARK    1  A    between atoms: C3_4  and  O_7 
ROOT
ATOM      1  C   UNL d   1      -1.366   0.891   2.080  0.00  0.00    -0.033 A 
ATOM      2  C1  UNL d   1      -1.755  -0.339   1.545  0.00  0.00     0.039 A 
ATOM      3  C2  UNL d   1      -2.753  -0.393   0.570  0.00  0.00    -0.080 A 
ATOM      4  C3  UNL d   1      -3.352   0.788   0.139  0.00  0.00     0.150 A 
ATOM      5  C4  UNL d   1      -2.966   2.016   0.665  0.00  0.00    -0.007 A 
ATOM      6  C5  UNL d   1      -1.970   2.068   1.639  0.00  0.00     0.039 A 
ENDROOT
BRANCH   4   7
ATOM      7  O   UNL d   1      -4.334   0.784  -0.807  0.00  0.00    -0.526 OA
ATOM      8  H5  UNL d   1      -4.516  -0.136  -1.058  0.00  0.00     0.418 HD
ENDBRANCH   4   7
TORSDOF 1
ENDMDL
