MODEL 1
REMARK minimizedAffinity 2.49199533
REMARK minimizedRMSD -1
REMARK  1 active torsions:
REMARK  status: ('A' for Active; 'I' for Inactive)
REMARK    1  A    between atoms: C3_4  and  O_7 
ROOT
ATOM      1  C   UNL d   1      -2.225   0.234   2.303  0.00  0.00    -0.033 A 
ATOM      2  C1  UNL d   1      -1.590  -0.179   3.476  0.00  0.00     0.039 A 
ATOM      3  C2  UNL d   1      -0.201  -0.317   3.508  0.00  0.00    -0.080 A 
ATOM      4  C3  UNL d   1       0.540  -0.039   2.362  0.00  0.00     0.150 A 
ATOM      5  C4  UNL d   1      -0.086   0.376   1.192  0.00  0.00    -0.007 A 
ATOM      6  C5  UNL d   1      -1.473   0.513   1.161  0.00  0.00     0.039 A 
ENDROOT
BRANCH   4   7
ATOM      7  O   UNL d   1       1.898  -0.165   2.344  0.00  0.00    -0.526 OA
ATOM      8  H5  UNL d   1       2.189  -0.487   3.213  0.00  0.00     0.418 HD
ENDBRANCH   4   7
TORSDOF 1
ENDMDL
