MODEL 1
REMARK minimizedAffinity 2.45875669
REMARK minimizedRMSD -1
REMARK  1 active torsions:
REMARK  status: ('A' for Active; 'I' for Inactive)
REMARK    1  A    between atoms: C3_4  and  O_7 
ROOT
ATOM      1  C   UNL d   1      -0.228   1.996   2.982  0.00  0.00    -0.033 A 
ATOM      2  C1  UNL d   1       0.499   0.838   2.699  0.00  0.00     0.039 A 
ATOM      3  C2  UNL d   1      -0.168  -0.349   2.387  0.00  0.00    -0.080 A 
ATOM      4  C3  UNL d   1      -1.560  -0.363   2.360  0.00  0.00     0.150 A 
ATOM      5  C4  UNL d   1      -2.290   0.788   2.637  0.00  0.00    -0.007 A 
ATOM      6  C5  UNL d   1      -1.622   1.971   2.950  0.00  0.00     0.039 A 
ENDROOT
BRANCH   4   7
ATOM      7  O   UNL d   1      -2.255  -1.498   2.065  0.00  0.00    -0.526 OA
ATOM      8  H5  UNL d   1      -1.620  -2.220   1.924  0.00  0.00     0.418 HD
ENDBRANCH   4   7
TORSDOF 1
ENDMDL
