MODEL 1
REMARK minimizedAffinity 10.1024599
REMARK minimizedRMSD -1
REMARK  1 active torsions:
REMARK  status: ('A' for Active; 'I' for Inactive)
REMARK    1  A    between atoms: C3_4  and  O_7 
ROOT
ATOM      1  C   UNL d   1      -0.895  -0.673   2.172  0.00  0.00    -0.033 A 
ATOM      2  C1  UNL d   1      -0.830   0.704   2.394  0.00  0.00     0.039 A 
ATOM      3  C2  UNL d   1      -1.816   1.544   1.872  0.00  0.00    -0.080 A 
ATOM      4  C3  UNL d   1      -2.860   0.996   1.133  0.00  0.00     0.150 A 
ATOM      5  C4  UNL d   1      -2.934  -0.375   0.912  0.00  0.00    -0.007 A 
ATOM      6  C5  UNL d   1      -1.948  -1.213   1.433  0.00  0.00     0.039 A 
ENDROOT
BRANCH   4   7
ATOM      7  O   UNL d   1      -3.843   1.777   0.600  0.00  0.00    -0.526 OA
ATOM      8  H5  UNL d   1      -3.646   2.705   0.810  0.00  0.00     0.418 HD
ENDBRANCH   4   7
TORSDOF 1
ENDMDL
