MODEL 1
REMARK minimizedAffinity 1.46607018
REMARK minimizedRMSD -1
REMARK  1 active torsions:
REMARK  status: ('A' for Active; 'I' for Inactive)
REMARK    1  A    between atoms: C3_4  and  O_7 
ROOT
ATOM      1  C   UNL d   1      -1.184  -0.190   1.567  0.00  0.00    -0.033 A 
ATOM      2  C1  UNL d   1      -1.125  -0.993   0.426  0.00  0.00     0.039 A 
ATOM      3  C2  UNL d   1       0.098  -1.518   0.002  0.00  0.00    -0.080 A 
ATOM      4  C3  UNL d   1       1.251  -1.235   0.729  0.00  0.00     0.150 A 
ATOM      5  C4  UNL d   1       1.199  -0.440   1.869  0.00  0.00    -0.007 A 
ATOM      6  C5  UNL d   1      -0.023   0.085   2.289  0.00  0.00     0.039 A 
ENDROOT
BRANCH   4   7
ATOM      7  O   UNL d   1       2.468  -1.721   0.352  0.00  0.00    -0.526 OA
ATOM      8  H5  UNL d   1       2.356  -2.229  -0.469  0.00  0.00     0.418 HD
ENDBRANCH   4   7
TORSDOF 1
ENDMDL
