MODEL 1
REMARK minimizedAffinity -3.5989337
REMARK minimizedRMSD -1
REMARK  0 active torsions:
REMARK  status: ('A' for Active; 'I' for Inactive)
ROOT
ATOM      1  C   UNL d   1      -5.212   0.445  -1.139  0.00  0.00     0.023 A 
ATOM      2  C1  UNL d   1      -5.253   1.783  -1.531  0.00  0.00     0.003 A 
ATOM      3  C2  UNL d   1      -4.232   2.311  -2.324  0.00  0.00     0.048 A 
ATOM      4  C3  UNL d   1      -3.173   1.495  -2.722  0.00  0.00     0.023 A 
ATOM      5  C4  UNL d   1      -3.129   0.155  -2.333  0.00  0.00     0.048 A 
ATOM      6  C5  UNL d   1      -4.152  -0.368  -1.539  0.00  0.00     0.003 A 
ATOM      7  I   UNL d   1      -1.652   2.278  -3.902  0.00  0.00    -0.146 I 
ENDROOT
TORSDOF 0
ENDMDL
