MODEL 1
REMARK minimizedAffinity -2.50631642
REMARK minimizedRMSD -1
REMARK  0 active torsions:
REMARK  status: ('A' for Active; 'I' for Inactive)
ROOT
ATOM      1  C   UNL d   1       3.791  -1.360   4.118  0.00  0.00     0.023 A 
ATOM      2  C1  UNL d   1       2.493  -1.829   4.323  0.00  0.00     0.003 A 
ATOM      3  C2  UNL d   1       1.513  -1.624   3.349  0.00  0.00     0.048 A 
ATOM      4  C3  UNL d   1       1.838  -0.951   2.172  0.00  0.00     0.023 A 
ATOM      5  C4  UNL d   1       3.136  -0.482   1.962  0.00  0.00     0.048 A 
ATOM      6  C5  UNL d   1       4.112  -0.688   2.939  0.00  0.00     0.003 A 
ATOM      7  I   UNL d   1       0.382  -0.646   0.721  0.00  0.00    -0.146 I 
ENDROOT
TORSDOF 0
ENDMDL
