MODEL 1
REMARK minimizedAffinity 0.113498427
REMARK minimizedRMSD -1
REMARK  0 active torsions:
REMARK  status: ('A' for Active; 'I' for Inactive)
ROOT
ATOM      1  C   UNL d   1       4.942  -0.657   2.909  0.00  0.00     0.023 A 
ATOM      2  C1  UNL d   1       4.165  -1.178   3.944  0.00  0.00     0.003 A 
ATOM      3  C2  UNL d   1       2.808  -1.436   3.738  0.00  0.00     0.048 A 
ATOM      4  C3  UNL d   1       2.235  -1.172   2.494  0.00  0.00     0.023 A 
ATOM      5  C4  UNL d   1       3.009  -0.652   1.455  0.00  0.00     0.048 A 
ATOM      6  C5  UNL d   1       4.365  -0.394   1.666  0.00  0.00     0.003 A 
ATOM      7  I   UNL d   1       0.216  -1.556   2.185  0.00  0.00    -0.146 I 
ENDROOT
TORSDOF 0
ENDMDL
