MODEL 1
REMARK minimizedAffinity -0.803130746
REMARK minimizedRMSD -1
REMARK  0 active torsions:
REMARK  status: ('A' for Active; 'I' for Inactive)
ROOT
ATOM      1  C   UNL d   1      -5.696  -5.991  -1.939  0.00  0.00     0.023 A 
ATOM      2  C1  UNL d   1      -5.880  -5.988  -3.322  0.00  0.00     0.003 A 
ATOM      3  C2  UNL d   1      -4.774  -5.990  -4.175  0.00  0.00     0.048 A 
ATOM      4  C3  UNL d   1      -3.487  -5.996  -3.638  0.00  0.00     0.023 A 
ATOM      5  C4  UNL d   1      -3.298  -6.000  -2.256  0.00  0.00     0.048 A 
ATOM      6  C5  UNL d   1      -4.406  -5.997  -1.407  0.00  0.00     0.003 A 
ATOM      7  I   UNL d   1      -1.840  -5.999  -4.906  0.00  0.00    -0.146 I 
ENDROOT
TORSDOF 0
ENDMDL
