MODEL 1
REMARK minimizedAffinity 2.0592804
REMARK minimizedRMSD -1
REMARK  0 active torsions:
REMARK  status: ('A' for Active; 'I' for Inactive)
ROOT
ATOM      1  C   UNL d   1      -2.055   3.581  -5.539  0.00  0.00     0.023 A 
ATOM      2  C1  UNL d   1      -1.170   3.037  -4.608  0.00  0.00     0.003 A 
ATOM      3  C2  UNL d   1      -1.639   2.162  -3.626  0.00  0.00     0.048 A 
ATOM      4  C3  UNL d   1      -2.993   1.834  -3.581  0.00  0.00     0.023 A 
ATOM      5  C4  UNL d   1      -3.883   2.375  -4.511  0.00  0.00     0.048 A 
ATOM      6  C5  UNL d   1      -3.410   3.251  -5.490  0.00  0.00     0.003 A 
ATOM      7  I   UNL d   1      -3.693   0.531  -2.121  0.00  0.00    -0.146 I 
ENDROOT
TORSDOF 0
ENDMDL
