MODEL 1
REMARK minimizedAffinity -0.34035176
REMARK minimizedRMSD -1
REMARK  0 active torsions:
REMARK  status: ('A' for Active; 'I' for Inactive)
ROOT
ATOM      1  C   UNL d   1       4.510  -0.837   3.642  0.00  0.00     0.023 A 
ATOM      2  C1  UNL d   1       3.305  -1.283   4.186  0.00  0.00     0.003 A 
ATOM      3  C2  UNL d   1       2.151  -1.312   3.401  0.00  0.00     0.048 A 
ATOM      4  C3  UNL d   1       2.209  -0.894   2.072  0.00  0.00     0.023 A 
ATOM      5  C4  UNL d   1       3.412  -0.448   1.523  0.00  0.00     0.048 A 
ATOM      6  C5  UNL d   1       4.563  -0.420   2.312  0.00  0.00     0.003 A 
ATOM      7  I   UNL d   1       0.492  -0.936   0.901  0.00  0.00    -0.146 I 
ENDROOT
TORSDOF 0
ENDMDL
