MODEL 1
REMARK minimizedAffinity -2.031569
REMARK minimizedRMSD -1
REMARK  0 active torsions:
REMARK  status: ('A' for Active; 'I' for Inactive)
ROOT
ATOM      1  C   UNL d   1       2.087  -3.034   2.608  0.00  0.00     0.023 A 
ATOM      2  C1  UNL d   1       1.394  -2.143   3.428  0.00  0.00     0.003 A 
ATOM      3  C2  UNL d   1       0.757  -1.032   2.872  0.00  0.00     0.048 A 
ATOM      4  C3  UNL d   1       0.817  -0.818   1.496  0.00  0.00     0.023 A 
ATOM      5  C4  UNL d   1       1.509  -1.707   0.671  0.00  0.00     0.048 A 
ATOM      6  C5  UNL d   1       2.144  -2.816   1.232  0.00  0.00     0.003 A 
ATOM      7  I   UNL d   1      -0.130   0.836   0.666  0.00  0.00    -0.146 I 
ENDROOT
TORSDOF 0
ENDMDL
