MODEL 1
REMARK minimizedAffinity 2.39205408
REMARK minimizedRMSD -1
REMARK  0 active torsions:
REMARK  status: ('A' for Active; 'I' for Inactive)
ROOT
ATOM      1  C   UNL d   1      -0.246   5.291   0.559  0.00  0.00     0.023 A 
ATOM      2  C1  UNL d   1       0.659   5.629   1.565  0.00  0.00     0.003 A 
ATOM      3  C2  UNL d   1       2.012   5.310   1.425  0.00  0.00     0.048 A 
ATOM      4  C3  UNL d   1       2.452   4.654   0.276  0.00  0.00     0.023 A 
ATOM      5  C4  UNL d   1       1.550   4.315  -0.733  0.00  0.00     0.048 A 
ATOM      6  C5  UNL d   1       0.199   4.634  -0.589  0.00  0.00     0.003 A 
ATOM      7  I   UNL d   1       4.464   4.179   0.066  0.00  0.00    -0.146 I 
ENDROOT
TORSDOF 0
ENDMDL
