MODEL 1
REMARK minimizedAffinity -3.01319504
REMARK minimizedRMSD -1
REMARK  0 active torsions:
REMARK  status: ('A' for Active; 'I' for Inactive)
ROOT
ATOM      1  C   UNL d   1      -5.518   0.889  -1.512  0.00  0.00     0.023 A 
ATOM      2  C1  UNL d   1      -5.860   0.219  -0.337  0.00  0.00     0.003 A 
ATOM      3  C2  UNL d   1      -5.077  -0.846   0.115  0.00  0.00     0.048 A 
ATOM      4  C3  UNL d   1      -3.952  -1.234  -0.613  0.00  0.00     0.023 A 
ATOM      5  C4  UNL d   1      -3.606  -0.565  -1.788  0.00  0.00     0.048 A 
ATOM      6  C5  UNL d   1      -4.392   0.497  -2.236  0.00  0.00     0.003 A 
ATOM      7  I   UNL d   1      -2.785  -2.817   0.058  0.00  0.00    -0.146 I 
ENDROOT
TORSDOF 0
ENDMDL
