MODEL 1
REMARK minimizedAffinity 6.7884059
REMARK minimizedRMSD -1
REMARK  0 active torsions:
REMARK  status: ('A' for Active; 'I' for Inactive)
ROOT
ATOM      1  C   UNL d   1       5.024  -1.098   3.782  0.00  0.00     0.023 A 
ATOM      2  C1  UNL d   1       5.175  -0.776   2.434  0.00  0.00     0.003 A 
ATOM      3  C2  UNL d   1       4.065  -0.775   1.586  0.00  0.00     0.048 A 
ATOM      4  C3  UNL d   1       2.807  -1.095   2.094  0.00  0.00     0.023 A 
ATOM      5  C4  UNL d   1       2.650  -1.417   3.443  0.00  0.00     0.048 A 
ATOM      6  C5  UNL d   1       3.763  -1.418   4.286  0.00  0.00     0.003 A 
ATOM      7  I   UNL d   1       1.154  -1.094   0.834  0.00  0.00    -0.146 I 
ENDROOT
TORSDOF 0
ENDMDL
