MODEL 1
REMARK minimizedAffinity -1.05678117
REMARK minimizedRMSD -1
REMARK  0 active torsions:
REMARK  status: ('A' for Active; 'I' for Inactive)
ROOT
ATOM      1  C   UNL d   1       4.215   3.413  -0.550  0.00  0.00     0.023 A 
ATOM      2  C1  UNL d   1       4.538   2.122  -0.969  0.00  0.00     0.003 A 
ATOM      3  C2  UNL d   1       3.616   1.085  -0.813  0.00  0.00     0.048 A 
ATOM      4  C3  UNL d   1       2.372   1.346  -0.239  0.00  0.00     0.023 A 
ATOM      5  C4  UNL d   1       2.044   2.636   0.180  0.00  0.00     0.048 A 
ATOM      6  C5  UNL d   1       2.970   3.669   0.023  0.00  0.00     0.003 A 
ATOM      7  I   UNL d   1       0.998  -0.196  -0.007  0.00  0.00    -0.146 I 
ENDROOT
TORSDOF 0
ENDMDL
