MODEL 1
REMARK minimizedAffinity 5.40300417
REMARK minimizedRMSD -1
REMARK  0 active torsions:
REMARK  status: ('A' for Active; 'I' for Inactive)
ROOT
ATOM      1  C   UNL d   1       4.646  -1.080   3.177  0.00  0.00     0.023 A 
ATOM      2  C1  UNL d   1       4.852  -0.536   1.909  0.00  0.00     0.003 A 
ATOM      3  C2  UNL d   1       3.780  -0.399   1.024  0.00  0.00     0.048 A 
ATOM      4  C3  UNL d   1       2.505  -0.807   1.415  0.00  0.00     0.023 A 
ATOM      5  C4  UNL d   1       2.294  -1.350   2.683  0.00  0.00     0.048 A 
ATOM      6  C5  UNL d   1       3.369  -1.487   3.563  0.00  0.00     0.003 A 
ATOM      7  I   UNL d   1       0.908  -0.603   0.100  0.00  0.00    -0.146 I 
ENDROOT
TORSDOF 0
ENDMDL
