MODEL 1
REMARK minimizedAffinity 3.17376685
REMARK minimizedRMSD -1
REMARK  0 active torsions:
REMARK  status: ('A' for Active; 'I' for Inactive)
ROOT
ATOM      1  C   UNL d   1       1.557  -0.765  -0.183  0.00  0.00     0.023 A 
ATOM      2  C1  UNL d   1       0.531  -0.307   0.644  0.00  0.00     0.003 A 
ATOM      3  C2  UNL d   1      -0.576  -1.120   0.900  0.00  0.00     0.048 A 
ATOM      4  C3  UNL d   1      -0.649  -2.389   0.327  0.00  0.00     0.023 A 
ATOM      5  C4  UNL d   1       0.376  -2.851  -0.500  0.00  0.00     0.048 A 
ATOM      6  C5  UNL d   1       1.480  -2.035  -0.754  0.00  0.00     0.003 A 
ATOM      7  I   UNL d   1      -2.295  -3.600   0.706  0.00  0.00    -0.146 I 
ENDROOT
TORSDOF 0
ENDMDL
