MODEL 1
REMARK minimizedAffinity 7.65026331
REMARK minimizedRMSD -1
REMARK  0 active torsions:
REMARK  status: ('A' for Active; 'I' for Inactive)
ROOT
ATOM      1  C   UNL d   1       0.963   0.247  -0.722  0.00  0.00     0.023 A 
ATOM      2  C1  UNL d   1       2.327  -0.008  -0.865  0.00  0.00     0.003 A 
ATOM      3  C2  UNL d   1       3.064  -0.502   0.213  0.00  0.00     0.048 A 
ATOM      4  C3  UNL d   1       2.430  -0.740   1.432  0.00  0.00     0.023 A 
ATOM      5  C4  UNL d   1       1.065  -0.487   1.580  0.00  0.00     0.048 A 
ATOM      6  C5  UNL d   1       0.333   0.008   0.499  0.00  0.00     0.003 A 
ATOM      7  I   UNL d   1       3.523  -1.476   3.039  0.00  0.00    -0.146 I 
ENDROOT
TORSDOF 0
ENDMDL
