MODEL 1
REMARK minimizedAffinity 7.44296741
REMARK minimizedRMSD -1
REMARK  0 active torsions:
REMARK  status: ('A' for Active; 'I' for Inactive)
ROOT
ATOM      1  C   UNL d   1       1.108   0.049   0.602  0.00  0.00     0.023 A 
ATOM      2  C1  UNL d   1      -0.240   0.301   0.855  0.00  0.00     0.003 A 
ATOM      3  C2  UNL d   1      -1.142  -0.759   0.963  0.00  0.00     0.048 A 
ATOM      4  C3  UNL d   1      -0.689  -2.070   0.817  0.00  0.00     0.023 A 
ATOM      5  C4  UNL d   1       0.659  -2.327   0.564  0.00  0.00     0.048 A 
ATOM      6  C5  UNL d   1       1.557  -1.264   0.456  0.00  0.00     0.003 A 
ATOM      7  I   UNL d   1      -2.030  -3.650   0.977  0.00  0.00    -0.146 I 
ENDROOT
TORSDOF 0
ENDMDL
