MODEL 1
REMARK minimizedAffinity 1.67627871
REMARK minimizedRMSD -1
REMARK  0 active torsions:
REMARK  status: ('A' for Active; 'I' for Inactive)
ROOT
ATOM      1  C   UNL d   1       2.650  -4.663  -4.513  0.00  0.00     0.023 A 
ATOM      2  C1  UNL d   1       1.519  -4.142  -3.885  0.00  0.00     0.003 A 
ATOM      3  C2  UNL d   1       0.244  -4.525  -4.309  0.00  0.00     0.048 A 
ATOM      4  C3  UNL d   1       0.109  -5.429  -5.362  0.00  0.00     0.023 A 
ATOM      5  C4  UNL d   1       1.238  -5.954  -5.993  0.00  0.00     0.048 A 
ATOM      6  C5  UNL d   1       2.510  -5.568  -5.565  0.00  0.00     0.003 A 
ATOM      7  I   UNL d   1      -1.786  -6.000  -5.996  0.00  0.00    -0.146 I 
ENDROOT
TORSDOF 0
ENDMDL
