MODEL 1
REMARK minimizedAffinity 4.57882071
REMARK minimizedRMSD -1
REMARK  0 active torsions:
REMARK  status: ('A' for Active; 'I' for Inactive)
ROOT
ATOM      1  C   UNL d   1      -0.266   5.978  -2.535  0.00  0.00     0.023 A 
ATOM      2  C1  UNL d   1       0.669   6.000  -1.500  0.00  0.00     0.003 A 
ATOM      3  C2  UNL d   1       0.746   4.931  -0.605  0.00  0.00     0.048 A 
ATOM      4  C3  UNL d   1      -0.113   3.843  -0.751  0.00  0.00     0.023 A 
ATOM      5  C4  UNL d   1      -1.050   3.816  -1.786  0.00  0.00     0.048 A 
ATOM      6  C5  UNL d   1      -1.125   4.888  -2.678  0.00  0.00     0.003 A 
ATOM      7  I   UNL d   1       0.001   2.251   0.580  0.00  0.00    -0.146 I 
ENDROOT
TORSDOF 0
ENDMDL
