MODEL 1
REMARK minimizedAffinity 4.04286909
REMARK minimizedRMSD -1
REMARK  0 active torsions:
REMARK  status: ('A' for Active; 'I' for Inactive)
ROOT
ATOM      1  C   UNL d   1      -4.472   2.701  -5.998  0.00  0.00     0.023 A 
ATOM      2  C1  UNL d   1      -3.823   3.255  -4.894  0.00  0.00     0.003 A 
ATOM      3  C2  UNL d   1      -4.261   2.956  -3.603  0.00  0.00     0.048 A 
ATOM      4  C3  UNL d   1      -5.347   2.101  -3.421  0.00  0.00     0.023 A 
ATOM      5  C4  UNL d   1      -5.999   1.543  -4.522  0.00  0.00     0.048 A 
ATOM      6  C5  UNL d   1      -5.559   1.846  -5.812  0.00  0.00     0.003 A 
ATOM      7  I   UNL d   1      -6.000   1.653  -1.499  0.00  0.00    -0.146 I 
ENDROOT
TORSDOF 0
ENDMDL
