MODEL 1
REMARK minimizedAffinity 13.2256298
REMARK minimizedRMSD -1
REMARK  0 active torsions:
REMARK  status: ('A' for Active; 'I' for Inactive)
ROOT
ATOM      1  C   UNL d   1       4.538  -6.000  -0.808  0.00  0.00     0.023 A 
ATOM      2  C1  UNL d   1       5.361  -4.874  -0.837  0.00  0.00     0.003 A 
ATOM      3  C2  UNL d   1       4.804  -3.597  -0.743  0.00  0.00     0.048 A 
ATOM      4  C3  UNL d   1       3.423  -3.453  -0.620  0.00  0.00     0.023 A 
ATOM      5  C4  UNL d   1       2.595  -4.576  -0.589  0.00  0.00     0.048 A 
ATOM      6  C5  UNL d   1       3.156  -5.851  -0.684  0.00  0.00     0.003 A 
ATOM      7  I   UNL d   1       2.592  -1.553  -0.481  0.00  0.00    -0.146 I 
ENDROOT
TORSDOF 0
ENDMDL
