MODEL 1
REMARK minimizedAffinity 8.71143436
REMARK minimizedRMSD -1
REMARK  0 active torsions:
REMARK  status: ('A' for Active; 'I' for Inactive)
ROOT
ATOM      1  C   UNL d   1       5.609  -4.303  -0.472  0.00  0.00     0.023 A 
ATOM      2  C1  UNL d   1       5.200  -5.614  -0.716  0.00  0.00     0.003 A 
ATOM      3  C2  UNL d   1       4.802  -5.996  -1.998  0.00  0.00     0.048 A 
ATOM      4  C3  UNL d   1       4.817  -5.062  -3.034  0.00  0.00     0.023 A 
ATOM      5  C4  UNL d   1       5.227  -3.749  -2.795  0.00  0.00     0.048 A 
ATOM      6  C5  UNL d   1       5.623  -3.372  -1.510  0.00  0.00     0.003 A 
ATOM      7  I   UNL d   1       4.225  -5.628  -4.944  0.00  0.00    -0.146 I 
ENDROOT
TORSDOF 0
ENDMDL
