MODEL 1
REMARK minimizedAffinity 7.48928738
REMARK minimizedRMSD -1
REMARK  0 active torsions:
REMARK  status: ('A' for Active; 'I' for Inactive)
ROOT
ATOM      1  C   UNL d   1       5.892  -4.942  -1.505  0.00  0.00     0.023 A 
ATOM      2  C1  UNL d   1       4.721  -5.667  -1.286  0.00  0.00     0.003 A 
ATOM      3  C2  UNL d   1       3.550  -5.006  -0.907  0.00  0.00     0.048 A 
ATOM      4  C3  UNL d   1       3.558  -3.621  -0.749  0.00  0.00     0.023 A 
ATOM      5  C4  UNL d   1       4.728  -2.891  -0.968  0.00  0.00     0.048 A 
ATOM      6  C5  UNL d   1       5.896  -3.556  -1.346  0.00  0.00     0.003 A 
ATOM      7  I   UNL d   1       1.817  -2.635  -0.186  0.00  0.00    -0.146 I 
ENDROOT
TORSDOF 0
ENDMDL
