MODEL 1
REMARK minimizedAffinity 2.66488457
REMARK minimizedRMSD -1
REMARK  0 active torsions:
REMARK  status: ('A' for Active; 'I' for Inactive)
ROOT
ATOM      1  C   UNL d   1      -1.305  -0.916  -5.769  0.00  0.00     0.020 A 
ATOM      2  C1  UNL d   1      -1.308  -2.292  -5.996  0.00  0.00     0.020 A 
ATOM      3  C2  UNL d   1      -1.140  -3.176  -4.929  0.00  0.00     0.034 A 
ATOM      4  C3  UNL d   1      -0.968  -2.686  -3.629  0.00  0.00     0.017 A 
ATOM      5  C4  UNL d   1      -0.965  -1.305  -3.401  0.00  0.00     0.017 A 
ATOM      6  C5  UNL d   1      -1.134  -0.424  -4.474  0.00  0.00     0.034 A 
ATOM      7 Cl   UNL d   1      -0.759  -0.626  -1.826  0.00  0.00    -0.070 Cl
ATOM      8 Cl1  UNL d   1      -0.766  -3.838  -2.356  0.00  0.00    -0.070 Cl
ENDROOT
TORSDOF 0
ENDMDL
