MODEL 1
REMARK minimizedAffinity -2.24887872
REMARK minimizedRMSD -1
REMARK  0 active torsions:
REMARK  status: ('A' for Active; 'I' for Inactive)
ROOT
ATOM      1  C   UNL d   1       2.270  -1.292   0.677  0.00  0.00     0.020 A 
ATOM      2  C1  UNL d   1       2.333  -1.971  -0.539  0.00  0.00     0.020 A 
ATOM      3  C2  UNL d   1       1.316  -1.808  -1.483  0.00  0.00     0.034 A 
ATOM      4  C3  UNL d   1       0.232  -0.965  -1.212  0.00  0.00     0.017 A 
ATOM      5  C4  UNL d   1       0.170  -0.284   0.010  0.00  0.00     0.017 A 
ATOM      6  C5  UNL d   1       1.191  -0.451   0.951  0.00  0.00     0.034 A 
ATOM      7 Cl   UNL d   1      -1.135   0.774   0.416  0.00  0.00    -0.070 Cl
ATOM      8 Cl1  UNL d   1      -0.989  -0.810  -2.424  0.00  0.00    -0.070 Cl
ENDROOT
TORSDOF 0
ENDMDL
