MODEL 1
REMARK minimizedAffinity -4.58215427
REMARK minimizedRMSD -1
REMARK  0 active torsions:
REMARK  status: ('A' for Active; 'I' for Inactive)
ROOT
ATOM      1  C   UNL d   1       2.355  -2.043   0.456  0.00  0.00     0.020 A 
ATOM      2  C1  UNL d   1       2.769  -0.850   1.047  0.00  0.00     0.020 A 
ATOM      3  C2  UNL d   1       2.222   0.364   0.627  0.00  0.00     0.034 A 
ATOM      4  C3  UNL d   1       1.258   0.388  -0.388  0.00  0.00     0.017 A 
ATOM      5  C4  UNL d   1       0.843  -0.810  -0.981  0.00  0.00     0.017 A 
ATOM      6  C5  UNL d   1       1.394  -2.023  -0.556  0.00  0.00     0.034 A 
ATOM      7 Cl   UNL d   1      -0.341  -0.861  -2.239  0.00  0.00    -0.070 Cl
ATOM      8 Cl1  UNL d   1       0.625   1.925  -0.858  0.00  0.00    -0.070 Cl
ENDROOT
TORSDOF 0
ENDMDL
