MODEL 1
REMARK minimizedAffinity -2.98817801
REMARK minimizedRMSD -1
REMARK  0 active torsions:
REMARK  status: ('A' for Active; 'I' for Inactive)
ROOT
ATOM      1  C   UNL d   1       1.479   1.096   0.947  0.00  0.00     0.020 A 
ATOM      2  C1  UNL d   1       2.850   0.884   0.809  0.00  0.00     0.020 A 
ATOM      3  C2  UNL d   1       3.318  -0.194   0.054  0.00  0.00     0.034 A 
ATOM      4  C3  UNL d   1       2.413  -1.064  -0.566  0.00  0.00     0.017 A 
ATOM      5  C4  UNL d   1       1.037  -0.850  -0.427  0.00  0.00     0.017 A 
ATOM      6  C5  UNL d   1       0.575   0.231   0.330  0.00  0.00     0.034 A 
ATOM      7 Cl   UNL d   1      -0.140  -1.881  -1.162  0.00  0.00    -0.070 Cl
ATOM      8 Cl1  UNL d   1       3.061  -2.376  -1.485  0.00  0.00    -0.070 Cl
ENDROOT
TORSDOF 0
ENDMDL
