MODEL 1
REMARK minimizedAffinity 4.78730297
REMARK minimizedRMSD -1
REMARK  0 active torsions:
REMARK  status: ('A' for Active; 'I' for Inactive)
ROOT
ATOM      1  C   UNL d   1       0.976   2.205   0.411  0.00  0.00     0.020 A 
ATOM      2  C1  UNL d   1      -0.370   1.928   0.177  0.00  0.00     0.020 A 
ATOM      3  C2  UNL d   1      -0.763   0.644  -0.206  0.00  0.00     0.034 A 
ATOM      4  C3  UNL d   1       0.191  -0.369  -0.355  0.00  0.00     0.017 A 
ATOM      5  C4  UNL d   1       1.543  -0.090  -0.120  0.00  0.00     0.017 A 
ATOM      6  C5  UNL d   1       1.930   1.197   0.263  0.00  0.00     0.034 A 
ATOM      7 Cl   UNL d   1       2.778  -1.288  -0.284  0.00  0.00    -0.070 Cl
ATOM      8 Cl1  UNL d   1      -0.366  -1.934  -0.830  0.00  0.00    -0.070 Cl
ENDROOT
TORSDOF 0
ENDMDL
