MODEL 1
REMARK minimizedAffinity 6.41530657
REMARK minimizedRMSD -1
REMARK  3 active torsions:
REMARK  status: ('A' for Active; 'I' for Inactive)
REMARK    1  A    between atoms: C3'_2  and  C2'_3 
REMARK    2  A    between atoms: C2'_3  and  C1'_4 
REMARK    3  A    between atoms: C1'_4  and  C1_5 
ROOT
ATOM      1  C1  N4B d   1      -3.354   4.943   3.660  0.00  0.00    -0.075 A 
ATOM      2  C2  N4B d   1      -4.208   5.242   4.745  0.00  0.00     0.002 A 
ATOM      3  C3  N4B d   1      -3.690   5.775   5.900  0.00  0.00     0.002 A 
ATOM      4  C4  N4B d   1      -2.326   6.000   6.000  0.00  0.00    -0.004 A 
ATOM      5  C5  N4B d   1      -1.511   5.732   4.939  0.00  0.00     0.002 A 
ATOM      6  C6  N4B d   1      -2.018   5.200   3.771  0.00  0.00     0.002 A 
ENDROOT
BRANCH   1   7
ATOM      7  C1' N4B d   1      -3.861   4.279   2.410  0.00  0.00     0.057 C 
BRANCH   7   8
ATOM      8  C2' N4B d   1      -4.217   2.829   2.721  0.00  0.00     0.009 C 
BRANCH   8   9
ATOM      9  C3' N4B d   1      -3.052   2.079   3.344  0.00  0.00     0.004 C 
ATOM     10  C4' N4B d   1      -3.082   0.609   3.047  0.00  0.00     0.003 C 
ENDBRANCH   8   9
ENDBRANCH   7   8
ENDBRANCH   1   7
TORSDOF 3
ENDMDL
