MODEL 1
REMARK minimizedAffinity 2.64249516
REMARK minimizedRMSD -1
REMARK  3 active torsions:
REMARK  status: ('A' for Active; 'I' for Inactive)
REMARK    1  A    between atoms: C3'_2  and  C2'_3 
REMARK    2  A    between atoms: C2'_3  and  C1'_4 
REMARK    3  A    between atoms: C1'_4  and  C1_5 
ROOT
ATOM      1  C1  N4B d   1      -1.537   0.017  -0.010  0.00  0.00    -0.075 A 
ATOM      2  C2  N4B d   1      -1.476   0.558   1.293  0.00  0.00     0.002 A 
ATOM      3  C3  N4B d   1      -2.249   0.024   2.295  0.00  0.00     0.002 A 
ATOM      4  C4  N4B d   1      -3.101  -1.033   2.014  0.00  0.00    -0.004 A 
ATOM      5  C5  N4B d   1      -3.135  -1.567   0.759  0.00  0.00     0.002 A 
ATOM      6  C6  N4B d   1      -2.361  -1.043  -0.256  0.00  0.00     0.002 A 
ENDROOT
BRANCH   1   7
ATOM      7  C1' N4B d   1      -0.775   0.621  -1.158  0.00  0.00     0.057 C 
BRANCH   7   8
ATOM      8  C2' N4B d   1       0.669   0.131  -1.113  0.00  0.00     0.009 C 
BRANCH   8   9
ATOM      9  C3' N4B d   1       0.989  -0.801  -2.269  0.00  0.00     0.004 C 
ATOM     10  C4' N4B d   1       0.587  -2.220  -1.999  0.00  0.00     0.003 C 
ENDBRANCH   8   9
ENDBRANCH   7   8
ENDBRANCH   1   7
TORSDOF 3
ENDMDL
