MODEL 1
REMARK minimizedAffinity 12.1606789
REMARK minimizedRMSD -1
REMARK  3 active torsions:
REMARK  status: ('A' for Active; 'I' for Inactive)
REMARK    1  A    between atoms: C3'_2  and  C2'_3 
REMARK    2  A    between atoms: C2'_3  and  C1'_4 
REMARK    3  A    between atoms: C1'_4  and  C1_5 
ROOT
ATOM      1  C1  N4B d   1      -2.168   4.903   0.306  0.00  0.00    -0.075 A 
ATOM      2  C2  N4B d   1      -2.086   4.333  -0.983  0.00  0.00     0.002 A 
ATOM      3  C3  N4B d   1      -1.012   4.614  -1.791  0.00  0.00     0.002 A 
ATOM      4  C4  N4B d   1      -0.021   5.473  -1.341  0.00  0.00    -0.004 A 
ATOM      5  C5  N4B d   1      -0.094   5.999  -0.084  0.00  0.00     0.002 A 
ATOM      6  C6  N4B d   1      -1.166   5.723   0.740  0.00  0.00     0.002 A 
ENDROOT
BRANCH   1   7
ATOM      7  C1' N4B d   1      -3.365   4.694   1.193  0.00  0.00     0.057 C 
BRANCH   7   8
ATOM      8  C2' N4B d   1      -3.033   5.172   2.604  0.00  0.00     0.009 C 
BRANCH   8   9
ATOM      9  C3' N4B d   1      -4.158   5.998   3.203  0.00  0.00     0.004 C 
ATOM     10  C4' N4B d   1      -5.517   5.494   2.820  0.00  0.00     0.003 C 
ENDBRANCH   8   9
ENDBRANCH   7   8
ENDBRANCH   1   7
TORSDOF 3
ENDMDL
