MODEL 1
REMARK minimizedAffinity 15.3003292
REMARK minimizedRMSD -1
REMARK  3 active torsions:
REMARK  status: ('A' for Active; 'I' for Inactive)
REMARK    1  A    between atoms: C3'_2  and  C2'_3 
REMARK    2  A    between atoms: C2'_3  and  C1'_4 
REMARK    3  A    between atoms: C1'_4  and  C1_5 
ROOT
ATOM      1  C1  N4B d   1      -3.293  -1.461  -0.387  0.00  0.00    -0.075 A 
ATOM      2  C2  N4B d   1      -3.745  -1.883   0.883  0.00  0.00     0.002 A 
ATOM      3  C3  N4B d   1      -5.091  -1.938   1.149  0.00  0.00     0.002 A 
ATOM      4  C4  N4B d   1      -5.999  -1.561   0.171  0.00  0.00    -0.004 A 
ATOM      5  C5  N4B d   1      -5.555  -1.179  -1.061  0.00  0.00     0.002 A 
ATOM      6  C6  N4B d   1      -4.205  -1.123  -1.344  0.00  0.00     0.002 A 
ENDROOT
BRANCH   1   7
ATOM      7  C1' N4B d   1      -1.829  -1.303  -0.697  0.00  0.00     0.057 C 
BRANCH   7   8
ATOM      8  C2' N4B d   1      -1.539   0.163  -1.006  0.00  0.00     0.009 C 
BRANCH   8   9
ATOM      9  C3' N4B d   1      -0.054   0.475  -0.937  0.00  0.00     0.004 C 
ATOM     10  C4' N4B d   1       0.601   0.482  -2.286  0.00  0.00     0.003 C 
ENDBRANCH   8   9
ENDBRANCH   7   8
ENDBRANCH   1   7
TORSDOF 3
ENDMDL
