MODEL 1
REMARK minimizedAffinity 19.5235863
REMARK minimizedRMSD -1
REMARK  3 active torsions:
REMARK  status: ('A' for Active; 'I' for Inactive)
REMARK    1  A    between atoms: C3'_2  and  C2'_3 
REMARK    2  A    between atoms: C2'_3  and  C1'_4 
REMARK    3  A    between atoms: C1'_4  and  C1_5 
ROOT
ATOM      1  C1  N4B d   1      -3.729  -1.087   1.040  0.00  0.00    -0.075 A 
ATOM      2  C2  N4B d   1      -3.483  -0.908  -0.339  0.00  0.00     0.002 A 
ATOM      3  C3  N4B d   1      -4.499  -1.082  -1.246  0.00  0.00     0.002 A 
ATOM      4  C4  N4B d   1      -5.760  -1.450  -0.802  0.00  0.00    -0.004 A 
ATOM      5  C5  N4B d   1      -5.996  -1.595   0.534  0.00  0.00     0.002 A 
ATOM      6  C6  N4B d   1      -4.985  -1.421   1.457  0.00  0.00     0.002 A 
ENDROOT
BRANCH   1   7
ATOM      7  C1' N4B d   1      -2.630  -0.992   2.062  0.00  0.00     0.057 C 
BRANCH   7   8
ATOM      8  C2' N4B d   1      -2.120   0.445   2.118  0.00  0.00     0.009 C 
BRANCH   8   9
ATOM      9  C3' N4B d   1      -2.640   1.185   3.338  0.00  0.00     0.004 C 
ATOM     10  C4' N4B d   1      -3.528   0.336   4.198  0.00  0.00     0.003 C 
ENDBRANCH   8   9
ENDBRANCH   7   8
ENDBRANCH   1   7
TORSDOF 3
ENDMDL
