MODEL 1
REMARK minimizedAffinity 13.9309521
REMARK minimizedRMSD -1
REMARK  3 active torsions:
REMARK  status: ('A' for Active; 'I' for Inactive)
REMARK    1  A    between atoms: C3'_2  and  C2'_3 
REMARK    2  A    between atoms: C2'_3  and  C1'_4 
REMARK    3  A    between atoms: C1'_4  and  C1_5 
ROOT
ATOM      1  C1  N4B d   1       3.099  -0.191  -1.858  0.00  0.00    -0.075 A 
ATOM      2  C2  N4B d   1       2.268  -1.123  -2.517  0.00  0.00     0.002 A 
ATOM      3  C3  N4B d   1       1.090  -0.708  -3.088  0.00  0.00     0.002 A 
ATOM      4  C4  N4B d   1       0.715   0.624  -2.996  0.00  0.00    -0.004 A 
ATOM      5  C5  N4B d   1       1.536   1.522  -2.380  0.00  0.00     0.002 A 
ATOM      6  C6  N4B d   1       2.725   1.121  -1.805  0.00  0.00     0.002 A 
ENDROOT
BRANCH   1   7
ATOM      7  C1' N4B d   1       4.355  -0.612  -1.144  0.00  0.00     0.057 C 
BRANCH   7   8
ATOM      8  C2' N4B d   1       5.335  -1.197  -2.157  0.00  0.00     0.009 C 
BRANCH   8   9
ATOM      9  C3' N4B d   1       5.960  -0.121  -3.028  0.00  0.00     0.004 C 
ATOM     10  C4' N4B d   1       5.997  -0.498  -4.479  0.00  0.00     0.003 C 
ENDBRANCH   8   9
ENDBRANCH   7   8
ENDBRANCH   1   7
TORSDOF 3
ENDMDL
