MODEL 1
REMARK minimizedAffinity 6.85195112
REMARK minimizedRMSD -1
REMARK  3 active torsions:
REMARK  status: ('A' for Active; 'I' for Inactive)
REMARK    1  A    between atoms: C3'_2  and  C2'_3 
REMARK    2  A    between atoms: C2'_3  and  C1'_4 
REMARK    3  A    between atoms: C1'_4  and  C1_5 
ROOT
ATOM      1  C1  N4B d   1      -0.809  -0.790  -1.156  0.00  0.00    -0.075 A 
ATOM      2  C2  N4B d   1      -0.689  -2.122  -1.611  0.00  0.00     0.002 A 
ATOM      3  C3  N4B d   1       0.430  -2.513  -2.303  0.00  0.00     0.002 A 
ATOM      4  C4  N4B d   1       1.431  -1.590  -2.567  0.00  0.00    -0.004 A 
ATOM      5  C5  N4B d   1       1.319  -0.312  -2.103  0.00  0.00     0.002 A 
ATOM      6  C6  N4B d   1       0.201   0.095  -1.403  0.00  0.00     0.002 A 
ENDROOT
BRANCH   1   7
ATOM      7  C1' N4B d   1      -2.052  -0.293  -0.471  0.00  0.00     0.057 C 
BRANCH   7   8
ATOM      8  C2' N4B d   1      -2.116  -0.878   0.937  0.00  0.00     0.009 C 
BRANCH   8   9
ATOM      9  C3' N4B d   1      -1.487   0.046   1.965  0.00  0.00     0.004 C 
ATOM     10  C4' N4B d   1      -2.478   0.561   2.967  0.00  0.00     0.003 C 
ENDBRANCH   8   9
ENDBRANCH   7   8
ENDBRANCH   1   7
TORSDOF 3
ENDMDL
