MODEL 1
REMARK minimizedAffinity 7.83455038
REMARK minimizedRMSD -1
REMARK  3 active torsions:
REMARK  status: ('A' for Active; 'I' for Inactive)
REMARK    1  A    between atoms: C3'_2  and  C2'_3 
REMARK    2  A    between atoms: C2'_3  and  C1'_4 
REMARK    3  A    between atoms: C1'_4  and  C1_5 
ROOT
ATOM      1  C1  N4B d   1      -2.713   0.338   1.021  0.00  0.00    -0.075 A 
ATOM      2  C2  N4B d   1      -3.118   1.676   1.219  0.00  0.00     0.002 A 
ATOM      3  C3  N4B d   1      -3.261   2.169   2.493  0.00  0.00     0.002 A 
ATOM      4  C4  N4B d   1      -3.023   1.340   3.579  0.00  0.00    -0.004 A 
ATOM      5  C5  N4B d   1      -2.608   0.056   3.379  0.00  0.00     0.002 A 
ATOM      6  C6  N4B d   1      -2.456  -0.451   2.104  0.00  0.00     0.002 A 
ENDROOT
BRANCH   1   7
ATOM      7  C1' N4B d   1      -2.626  -0.270  -0.353  0.00  0.00     0.057 C 
BRANCH   7   8
ATOM      8  C2' N4B d   1      -3.505  -1.516  -0.405  0.00  0.00     0.009 C 
BRANCH   8   9
ATOM      9  C3' N4B d   1      -4.919  -1.196  -0.859  0.00  0.00     0.004 C 
ATOM     10  C4' N4B d   1      -5.955  -2.022  -0.158  0.00  0.00     0.003 C 
ENDBRANCH   8   9
ENDBRANCH   7   8
ENDBRANCH   1   7
TORSDOF 3
ENDMDL
