MODEL 1
REMARK minimizedAffinity 6.44367743
REMARK minimizedRMSD -1
REMARK  3 active torsions:
REMARK  status: ('A' for Active; 'I' for Inactive)
REMARK    1  A    between atoms: C3'_2  and  C2'_3 
REMARK    2  A    between atoms: C2'_3  and  C1'_4 
REMARK    3  A    between atoms: C1'_4  and  C1_5 
ROOT
ATOM      1  C1  N4B d   1      -1.418  -1.073  -0.875  0.00  0.00    -0.075 A 
ATOM      2  C2  N4B d   1      -0.336  -0.169  -0.939  0.00  0.00     0.002 A 
ATOM      3  C3  N4B d   1       0.773  -0.477  -1.688  0.00  0.00     0.002 A 
ATOM      4  C4  N4B d   1       0.830  -1.686  -2.364  0.00  0.00    -0.004 A 
ATOM      5  C5  N4B d   1      -0.231  -2.543  -2.318  0.00  0.00     0.002 A 
ATOM      6  C6  N4B d   1      -1.353  -2.245  -1.572  0.00  0.00     0.002 A 
ENDROOT
BRANCH   1   7
ATOM      7  C1' N4B d   1      -2.615  -0.819  -0.000  0.00  0.00     0.057 C 
BRANCH   7   8
ATOM      8  C2' N4B d   1      -2.365   0.430   0.840  0.00  0.00     0.009 C 
BRANCH   8   9
ATOM      9  C3' N4B d   1      -2.209   0.100   2.315  0.00  0.00     0.004 C 
ATOM     10  C4' N4B d   1      -1.469   1.162   3.072  0.00  0.00     0.003 C 
ENDBRANCH   8   9
ENDBRANCH   7   8
ENDBRANCH   1   7
TORSDOF 3
ENDMDL
