MODEL 1
REMARK minimizedAffinity 6.39349604
REMARK minimizedRMSD -1
REMARK  3 active torsions:
REMARK  status: ('A' for Active; 'I' for Inactive)
REMARK    1  A    between atoms: C3'_2  and  C2'_3 
REMARK    2  A    between atoms: C2'_3  and  C1'_4 
REMARK    3  A    between atoms: C1'_4  and  C1_5 
ROOT
ATOM      1  C1  N4B d   1       3.899   5.086   0.040  0.00  0.00    -0.075 A 
ATOM      2  C2  N4B d   1       3.452   5.815   1.164  0.00  0.00     0.002 A 
ATOM      3  C3  N4B d   1       4.285   5.997   2.240  0.00  0.00     0.002 A 
ATOM      4  C4  N4B d   1       5.557   5.446   2.224  0.00  0.00    -0.004 A 
ATOM      5  C5  N4B d   1       5.991   4.765   1.124  0.00  0.00     0.002 A 
ATOM      6  C6  N4B d   1       5.166   4.578   0.033  0.00  0.00     0.002 A 
ENDROOT
BRANCH   1   7
ATOM      7  C1' N4B d   1       2.995   4.788  -1.124  0.00  0.00     0.057 C 
BRANCH   7   8
ATOM      8  C2' N4B d   1       3.614   3.677  -1.967  0.00  0.00     0.009 C 
BRANCH   8   9
ATOM      9  C3' N4B d   1       2.558   2.780  -2.590  0.00  0.00     0.004 C 
ATOM     10  C4' N4B d   1       2.613   1.373  -2.074  0.00  0.00     0.003 C 
ENDBRANCH   8   9
ENDBRANCH   7   8
ENDBRANCH   1   7
TORSDOF 3
ENDMDL
