MODEL 1
REMARK minimizedAffinity -2.58628845
REMARK minimizedRMSD -1
REMARK  0 active torsions:
REMARK  status: ('A' for Active; 'I' for Inactive)
ROOT
ATOM      1  C1  DEN d   1      -1.867  -1.381   1.424  0.00  0.00     0.130 A 
ATOM      2  C2  DEN d   1      -1.726  -2.769   0.992  0.00  0.00    -0.031 A 
ATOM      3  C3  DEN d   1      -0.807  -2.796  -0.163  0.00  0.00     0.027 A 
ATOM      4  C4  DEN d   1       0.409  -0.834  -1.316  0.00  0.00     0.027 A 
ATOM      5  C5  DEN d   1       0.592   0.531  -1.312  0.00  0.00    -0.003 A 
ATOM      6  C6  DEN d   1      -0.053   1.351  -0.425  0.00  0.00     0.001 A 
ATOM      7  C7  DEN d   1      -0.877   0.809   0.526  0.00  0.00     0.017 A 
ATOM      8  C8  DEN d   1      -1.073  -0.566   0.523  0.00  0.00    -0.094 A 
ATOM      9  C9  DEN d   1      -0.402  -1.380  -0.374  0.00  0.00    -0.072 A 
ENDROOT
TORSDOF 0
ENDMDL
