MODEL 1
REMARK minimizedAffinity -5.05588627
REMARK minimizedRMSD -1
REMARK  0 active torsions:
REMARK  status: ('A' for Active; 'I' for Inactive)
ROOT
ATOM      1  C1  DEN d   1       0.697  -1.019  -2.204  0.00  0.00     0.130 A 
ATOM      2  C2  DEN d   1       0.561   0.434  -2.255  0.00  0.00    -0.031 A 
ATOM      3  C3  DEN d   1       0.019   0.887  -0.958  0.00  0.00     0.027 A 
ATOM      4  C4  DEN d   1      -0.614  -0.513   1.114  0.00  0.00     0.027 A 
ATOM      5  C5  DEN d   1      -0.685  -1.790   1.628  0.00  0.00    -0.003 A 
ATOM      6  C6  DEN d   1      -0.334  -2.892   0.894  0.00  0.00     0.001 A 
ATOM      7  C7  DEN d   1       0.146  -2.736  -0.379  0.00  0.00     0.017 A 
ATOM      8  C8  DEN d   1       0.212  -1.453  -0.907  0.00  0.00    -0.094 A 
ATOM      9  C9  DEN d   1      -0.135  -0.350  -0.145  0.00  0.00    -0.072 A 
ENDROOT
TORSDOF 0
ENDMDL
