MODEL 1
REMARK minimizedAffinity -4.41302729
REMARK minimizedRMSD -1
REMARK  0 active torsions:
REMARK  status: ('A' for Active; 'I' for Inactive)
ROOT
ATOM      1  C1  DEN d   1      -1.074   0.761   0.720  0.00  0.00     0.130 A 
ATOM      2  C2  DEN d   1      -0.089   1.579   0.019  0.00  0.00    -0.031 A 
ATOM      3  C3  DEN d   1       0.821   0.673  -0.711  0.00  0.00     0.027 A 
ATOM      4  C4  DEN d   1       0.795  -1.903  -0.827  0.00  0.00     0.027 A 
ATOM      5  C5  DEN d   1       0.155  -3.040  -0.388  0.00  0.00    -0.003 A 
ATOM      6  C6  DEN d   1      -0.911  -2.992   0.472  0.00  0.00     0.001 A 
ATOM      7  C7  DEN d   1      -1.396  -1.779   0.884  0.00  0.00     0.017 A 
ATOM      8  C8  DEN d   1      -0.751  -0.629   0.451  0.00  0.00    -0.094 A 
ATOM      9  C9  DEN d   1       0.317  -0.698  -0.428  0.00  0.00    -0.072 A 
ENDROOT
TORSDOF 0
ENDMDL
