MODEL 1
REMARK minimizedAffinity -0.284759462
REMARK minimizedRMSD -1
REMARK  0 active torsions:
REMARK  status: ('A' for Active; 'I' for Inactive)
ROOT
ATOM      1  C1  DEN d   1       0.710   3.091   1.258  0.00  0.00     0.130 A 
ATOM      2  C2  DEN d   1       1.833   3.596   0.473  0.00  0.00    -0.031 A 
ATOM      3  C3  DEN d   1       2.096   2.636  -0.618  0.00  0.00     0.027 A 
ATOM      4  C4  DEN d   1       0.878   0.429  -1.165  0.00  0.00     0.027 A 
ATOM      5  C5  DEN d   1      -0.131  -0.423  -0.774  0.00  0.00    -0.003 A 
ATOM      6  C6  DEN d   1      -0.902  -0.183   0.332  0.00  0.00     0.001 A 
ATOM      7  C7  DEN d   1      -0.706   0.960   1.061  0.00  0.00     0.017 A 
ATOM      8  C8  DEN d   1       0.315   1.821   0.677  0.00  0.00    -0.094 A 
ATOM      9  C9  DEN d   1       1.075   1.566  -0.451  0.00  0.00    -0.072 A 
ENDROOT
TORSDOF 0
ENDMDL
