MODEL 1
REMARK minimizedAffinity -5.87200928
REMARK minimizedRMSD -1
REMARK  0 active torsions:
REMARK  status: ('A' for Active; 'I' for Inactive)
ROOT
ATOM      1  C1  DEN d   1      -1.184  -0.259   0.584  0.00  0.00     0.130 A 
ATOM      2  C2  DEN d   1      -1.051   0.878  -0.324  0.00  0.00    -0.031 A 
ATOM      3  C3  DEN d   1      -0.306   0.426  -1.516  0.00  0.00     0.027 A 
ATOM      4  C4  DEN d   1       0.648  -1.912  -2.044  0.00  0.00     0.027 A 
ATOM      5  C5  DEN d   1       0.795  -3.197  -1.570  0.00  0.00    -0.003 A 
ATOM      6  C6  DEN d   1       0.327  -3.581  -0.342  0.00  0.00     0.001 A 
ATOM      7  C7  DEN d   1      -0.351  -2.682   0.438  0.00  0.00     0.017 A 
ATOM      8  C8  DEN d   1      -0.497  -1.382  -0.029  0.00  0.00    -0.094 A 
ATOM      9  C9  DEN d   1      -0.028  -1.017  -1.279  0.00  0.00    -0.072 A 
ENDROOT
TORSDOF 0
ENDMDL
