MODEL 1
REMARK minimizedAffinity -3.85980129
REMARK minimizedRMSD -1
REMARK  0 active torsions:
REMARK  status: ('A' for Active; 'I' for Inactive)
ROOT
ATOM      1  C1  DEN d   1       0.461  -0.652  -1.787  0.00  0.00     0.130 A 
ATOM      2  C2  DEN d   1       0.164   0.773  -1.906  0.00  0.00    -0.031 A 
ATOM      3  C3  DEN d   1      -0.622   1.176  -0.722  0.00  0.00     0.027 A 
ATOM      4  C4  DEN d   1      -1.399  -0.260   1.275  0.00  0.00     0.027 A 
ATOM      5  C5  DEN d   1      -1.397  -1.528   1.814  0.00  0.00    -0.003 A 
ATOM      6  C6  DEN d   1      -0.810  -2.590   1.180  0.00  0.00     0.001 A 
ATOM      7  C7  DEN d   1      -0.160  -2.396  -0.010  0.00  0.00     0.017 A 
ATOM      8  C8  DEN d   1      -0.164  -1.122  -0.564  0.00  0.00    -0.094 A 
ATOM      9  C9  DEN d   1      -0.753  -0.058   0.099  0.00  0.00    -0.072 A 
ENDROOT
TORSDOF 0
ENDMDL
