MODEL 1
REMARK minimizedAffinity -0.677347302
REMARK minimizedRMSD -1
REMARK  0 active torsions:
REMARK  status: ('A' for Active; 'I' for Inactive)
ROOT
ATOM      1  C1  DEN d   1      -0.619   1.106   0.472  0.00  0.00     0.130 A 
ATOM      2  C2  DEN d   1       0.643   1.383  -0.209  0.00  0.00    -0.031 A 
ATOM      3  C3  DEN d   1       1.186   0.101  -0.701  0.00  0.00     0.027 A 
ATOM      4  C4  DEN d   1       0.199  -2.272  -0.481  0.00  0.00     0.027 A 
ATOM      5  C5  DEN d   1      -0.849  -3.009   0.024  0.00  0.00    -0.003 A 
ATOM      6  C6  DEN d   1      -1.868  -2.436   0.738  0.00  0.00     0.001 A 
ATOM      7  C7  DEN d   1      -1.885  -1.079   0.927  0.00  0.00     0.017 A 
ATOM      8  C8  DEN d   1      -0.828  -0.330   0.427  0.00  0.00    -0.094 A 
ATOM      9  C9  DEN d   1       0.187  -0.926  -0.302  0.00  0.00    -0.072 A 
ENDROOT
TORSDOF 0
ENDMDL
