MODEL 1
REMARK minimizedAffinity -2.46512771
REMARK minimizedRMSD -1
REMARK  0 active torsions:
REMARK  status: ('A' for Active; 'I' for Inactive)
ROOT
ATOM      1  C1  DEN d   1       0.458  -1.019  -2.627  0.00  0.00     0.130 A 
ATOM      2  C2  DEN d   1       0.046   0.324  -3.026  0.00  0.00    -0.031 A 
ATOM      3  C3  DEN d   1      -0.577   0.977  -1.857  0.00  0.00     0.027 A 
ATOM      4  C4  DEN d   1      -0.937   0.046   0.521  0.00  0.00     0.027 A 
ATOM      5  C5  DEN d   1      -0.763  -1.052   1.335  0.00  0.00    -0.003 A 
ATOM      6  C6  DEN d   1      -0.206  -2.218   0.879  0.00  0.00     0.001 A 
ATOM      7  C7  DEN d   1       0.239  -2.298  -0.414  0.00  0.00     0.017 A 
ATOM      8  C8  DEN d   1       0.061  -1.197  -1.242  0.00  0.00    -0.094 A 
ATOM      9  C9  DEN d   1      -0.494  -0.024  -0.760  0.00  0.00    -0.072 A 
ENDROOT
TORSDOF 0
ENDMDL
