MODEL 1
REMARK minimizedAffinity -2.6323967
REMARK minimizedRMSD -1
REMARK  0 active torsions:
REMARK  status: ('A' for Active; 'I' for Inactive)
ROOT
ATOM      1  C1  DEN d   1       0.096   1.850   1.228  0.00  0.00     0.130 A 
ATOM      2  C2  DEN d   1       0.916   2.320   0.115  0.00  0.00    -0.031 A 
ATOM      3  C3  DEN d   1       1.066   1.206  -0.843  0.00  0.00     0.027 A 
ATOM      4  C4  DEN d   1       0.110  -1.186  -0.714  0.00  0.00     0.027 A 
ATOM      5  C5  DEN d   1      -0.638  -2.056   0.048  0.00  0.00    -0.003 A 
ATOM      6  C6  DEN d   1      -1.161  -1.699   1.263  0.00  0.00     0.001 A 
ATOM      7  C7  DEN d   1      -0.981  -0.424   1.731  0.00  0.00     0.017 A 
ATOM      8  C8  DEN d   1      -0.221   0.456   0.972  0.00  0.00    -0.094 A 
ATOM      9  C9  DEN d   1       0.289   0.080  -0.259  0.00  0.00    -0.072 A 
ENDROOT
TORSDOF 0
ENDMDL
