MODEL 1
REMARK minimizedAffinity -5.86360359
REMARK minimizedRMSD -1
REMARK  0 active torsions:
REMARK  status: ('A' for Active; 'I' for Inactive)
ROOT
ATOM      1  C1  DEN d   1       0.352   0.291  -1.633  0.00  0.00     0.130 A 
ATOM      2  C2  DEN d   1      -0.015   1.529  -0.951  0.00  0.00    -0.031 A 
ATOM      3  C3  DEN d   1      -0.502   1.179   0.399  0.00  0.00     0.027 A 
ATOM      4  C4  DEN d   1      -0.718  -1.146   1.494  0.00  0.00     0.027 A 
ATOM      5  C5  DEN d   1      -0.541  -2.498   1.301  0.00  0.00    -0.003 A 
ATOM      6  C6  DEN d   1      -0.089  -3.014   0.115  0.00  0.00     0.001 A 
ATOM      7  C7  DEN d   1       0.243  -2.168  -0.910  0.00  0.00     0.017 A 
ATOM      8  C8  DEN d   1       0.060  -0.804  -0.726  0.00  0.00    -0.094 A 
ATOM      9  C9  DEN d   1      -0.386  -0.302   0.485  0.00  0.00    -0.072 A 
ENDROOT
TORSDOF 0
ENDMDL
