MODEL 1
REMARK minimizedAffinity -4.60392904
REMARK minimizedRMSD -1
REMARK  0 active torsions:
REMARK  status: ('A' for Active; 'I' for Inactive)
ROOT
ATOM      1  C1  DEN d   1       1.276   0.288  -0.638  0.00  0.00     0.130 A 
ATOM      2  C2  DEN d   1       0.558   1.512  -0.291  0.00  0.00    -0.031 A 
ATOM      3  C3  DEN d   1      -0.649   1.134   0.469  0.00  0.00     0.027 A 
ATOM      4  C4  DEN d   1      -1.471  -1.215   1.146  0.00  0.00     0.027 A 
ATOM      5  C5  DEN d   1      -1.202  -2.564   1.068  0.00  0.00    -0.003 A 
ATOM      6  C6  DEN d   1      -0.116  -3.054   0.393  0.00  0.00     0.001 A 
ATOM      7  C7  DEN d   1       0.767  -2.187  -0.193  0.00  0.00     0.017 A 
ATOM      8  C8  DEN d   1       0.499  -0.826  -0.126  0.00  0.00    -0.094 A 
ATOM      9  C9  DEN d   1      -0.598  -0.349   0.572  0.00  0.00    -0.072 A 
ENDROOT
TORSDOF 0
ENDMDL
