MODEL 1
REMARK minimizedAffinity -6.7714591
REMARK minimizedRMSD -1
REMARK  0 active torsions:
REMARK  status: ('A' for Active; 'I' for Inactive)
ROOT
ATOM      1  C1  DEN d   1       0.204  -2.937  -1.319  0.00  0.00     0.130 A 
ATOM      2  C2  DEN d   1      -0.130  -3.383   0.031  0.00  0.00    -0.031 A 
ATOM      3  C3  DEN d   1      -0.413  -2.187   0.850  0.00  0.00     0.027 A 
ATOM      4  C4  DEN d   1      -0.371   0.298   0.163  0.00  0.00     0.027 A 
ATOM      5  C5  DEN d   1      -0.132   1.172  -0.875  0.00  0.00    -0.003 A 
ATOM      6  C6  DEN d   1       0.266   0.743  -2.114  0.00  0.00     0.001 A 
ATOM      7  C7  DEN d   1       0.392  -0.599  -2.359  0.00  0.00     0.017 A 
ATOM      8  C8  DEN d   1       0.160  -1.485  -1.316  0.00  0.00    -0.094 A 
ATOM      9  C9  DEN d   1      -0.253  -1.033  -0.074  0.00  0.00    -0.072 A 
ENDROOT
TORSDOF 0
ENDMDL
