MODEL 1
REMARK minimizedAffinity -3.35939121
REMARK minimizedRMSD -1
REMARK  0 active torsions:
REMARK  status: ('A' for Active; 'I' for Inactive)
ROOT
ATOM      1  C1  DEN d   1       0.073  -0.976  -2.473  0.00  0.00     0.130 A 
ATOM      2  C2  DEN d   1      -0.039  -2.351  -2.953  0.00  0.00    -0.031 A 
ATOM      3  C3  DEN d   1      -0.408  -3.205  -1.806  0.00  0.00     0.027 A 
ATOM      4  C4  DEN d   1      -0.818  -2.537   0.651  0.00  0.00     0.027 A 
ATOM      5  C5  DEN d   1      -0.828  -1.486   1.541  0.00  0.00    -0.003 A 
ATOM      6  C6  DEN d   1      -0.509  -0.208   1.166  0.00  0.00     0.001 A 
ATOM      7  C7  DEN d   1      -0.209   0.061  -0.143  0.00  0.00     0.017 A 
ATOM      8  C8  DEN d   1      -0.189  -0.995  -1.045  0.00  0.00    -0.094 A 
ATOM      9  C9  DEN d   1      -0.526  -2.278  -0.649  0.00  0.00    -0.072 A 
ENDROOT
TORSDOF 0
ENDMDL
