MODEL 1
REMARK minimizedAffinity 7.88582611
REMARK minimizedRMSD -1
REMARK  0 active torsions:
REMARK  status: ('A' for Active; 'I' for Inactive)
ROOT
ATOM      1  C   UNL d   1      -1.633  -0.164   0.750  0.00  0.00     0.124 A 
ATOM      2  C1  UNL d   1      -1.736   0.045   2.118  0.00  0.00     0.062 A 
ATOM      3  C2  UNL d   1      -0.668  -0.265   2.956  0.00  0.00     0.162 A 
ATOM      4  C3  UNL d   1       0.513  -0.786   2.427  0.00  0.00    -0.034 A 
ATOM      5  C4  UNL d   1       0.609  -0.994   1.050  0.00  0.00     0.162 A 
ATOM      6  C5  UNL d   1      -0.461  -0.683   0.217  0.00  0.00     0.062 A 
ATOM      7  F   UNL d   1      -0.359  -0.885  -1.105  0.00  0.00    -0.097 F 
ATOM      8  F1  UNL d   1       1.730  -1.493   0.509  0.00  0.00    -0.096 F 
ATOM      9  I   UNL d   1       2.112  -1.250   3.676  0.00  0.00    -0.060 I 
ATOM     10  F2  UNL d   1      -0.795  -0.053   4.274  0.00  0.00    -0.096 F 
ATOM     11  F3  UNL d   1      -2.867   0.545   2.635  0.00  0.00    -0.097 F 
ATOM     12  F4  UNL d   1      -2.662   0.134  -0.054  0.00  0.00    -0.092 F 
ENDROOT
TORSDOF 0
ENDMDL
