MODEL 1
REMARK minimizedAffinity 5.16479683
REMARK minimizedRMSD -1
REMARK  0 active torsions:
REMARK  status: ('A' for Active; 'I' for Inactive)
ROOT
ATOM      1  C   UNL d   1      -1.831  -0.329   0.456  0.00  0.00     0.124 A 
ATOM      2  C1  UNL d   1      -2.088  -0.330   1.820  0.00  0.00     0.062 A 
ATOM      3  C2  UNL d   1      -1.065  -0.601   2.725  0.00  0.00     0.162 A 
ATOM      4  C3  UNL d   1       0.225  -0.871   2.269  0.00  0.00    -0.034 A 
ATOM      5  C4  UNL d   1       0.475  -0.869   0.895  0.00  0.00     0.162 A 
ATOM      6  C5  UNL d   1      -0.550  -0.599  -0.005  0.00  0.00     0.062 A 
ATOM      7  F   UNL d   1      -0.300  -0.598  -1.322  0.00  0.00    -0.097 F 
ATOM      8  F1  UNL d   1       1.704  -1.125   0.422  0.00  0.00    -0.096 F 
ATOM      9  I   UNL d   1       1.757  -1.276   3.618  0.00  0.00    -0.060 I 
ATOM     10  F2  UNL d   1      -1.342  -0.595   4.037  0.00  0.00    -0.096 F 
ATOM     11  F3  UNL d   1      -3.325  -0.071   2.268  0.00  0.00    -0.097 F 
ATOM     12  F4  UNL d   1      -2.817  -0.070  -0.412  0.00  0.00    -0.092 F 
ENDROOT
TORSDOF 0
ENDMDL
