MODEL 1
REMARK minimizedAffinity 1.87106848
REMARK minimizedRMSD -1
REMARK  0 active torsions:
REMARK  status: ('A' for Active; 'I' for Inactive)
ROOT
ATOM      1  C   UNL d   1      -1.354  -0.131   1.066  0.00  0.00     0.124 A 
ATOM      2  C1  UNL d   1      -0.164  -0.610   0.535  0.00  0.00     0.062 A 
ATOM      3  C2  UNL d   1       0.887  -0.960   1.378  0.00  0.00     0.162 A 
ATOM      4  C3  UNL d   1       0.753  -0.833   2.760  0.00  0.00    -0.034 A 
ATOM      5  C4  UNL d   1      -0.446  -0.350   3.286  0.00  0.00     0.162 A 
ATOM      6  C5  UNL d   1      -1.494  -0.001   2.440  0.00  0.00     0.062 A 
ATOM      7  F   UNL d   1      -2.643   0.461   2.954  0.00  0.00    -0.097 F 
ATOM      8  F1  UNL d   1      -0.609  -0.215   4.611  0.00  0.00    -0.096 F 
ATOM      9  I   UNL d   1       2.323  -1.355   4.023  0.00  0.00    -0.060 I 
ATOM     10  F2  UNL d   1       2.025  -1.420   0.838  0.00  0.00    -0.096 F 
ATOM     11  F3  UNL d   1      -0.026  -0.736  -0.793  0.00  0.00    -0.097 F 
ATOM     12  F4  UNL d   1      -2.364   0.205   0.253  0.00  0.00    -0.092 F 
ENDROOT
TORSDOF 0
ENDMDL
