MODEL 1
REMARK minimizedAffinity 6.18004036
REMARK minimizedRMSD -1
REMARK  0 active torsions:
REMARK  status: ('A' for Active; 'I' for Inactive)
ROOT
ATOM      1  C   UNL d   1       0.709  -0.828   2.470  0.00  0.00     0.124 A 
ATOM      2  C1  UNL d   1      -0.556  -0.805   3.041  0.00  0.00     0.062 A 
ATOM      3  C2  UNL d   1      -1.664  -0.461   2.274  0.00  0.00     0.162 A 
ATOM      4  C3  UNL d   1      -1.514  -0.137   0.925  0.00  0.00    -0.034 A 
ATOM      5  C4  UNL d   1      -0.239  -0.162   0.358  0.00  0.00     0.162 A 
ATOM      6  C5  UNL d   1       0.866  -0.507   1.129  0.00  0.00     0.062 A 
ATOM      7  F   UNL d   1       2.087  -0.529   0.575  0.00  0.00    -0.097 F 
ATOM      8  F1  UNL d   1      -0.058   0.143  -0.936  0.00  0.00    -0.096 F 
ATOM      9  I   UNL d   1      -3.169   0.378  -0.226  0.00  0.00    -0.060 I 
ATOM     10  F2  UNL d   1      -2.875  -0.446   2.852  0.00  0.00    -0.096 F 
ATOM     11  F3  UNL d   1      -0.710  -1.114   4.337  0.00  0.00    -0.097 F 
ATOM     12  F4  UNL d   1       1.774  -1.159   3.211  0.00  0.00    -0.092 F 
ENDROOT
TORSDOF 0
ENDMDL
