MODEL 1
REMARK minimizedAffinity 16.1851254
REMARK minimizedRMSD -1
REMARK  0 active torsions:
REMARK  status: ('A' for Active; 'I' for Inactive)
ROOT
ATOM      1  C   UNL d   1       3.656  -0.267   3.134  0.00  0.00     0.124 A 
ATOM      2  C1  UNL d   1       2.643  -0.943   3.800  0.00  0.00     0.062 A 
ATOM      3  C2  UNL d   1       1.379  -1.049   3.228  0.00  0.00     0.162 A 
ATOM      4  C3  UNL d   1       1.120  -0.478   1.981  0.00  0.00    -0.034 A 
ATOM      5  C4  UNL d   1       2.144   0.201   1.318  0.00  0.00     0.162 A 
ATOM      6  C5  UNL d   1       3.406   0.305   1.895  0.00  0.00     0.062 A 
ATOM      7  F   UNL d   1       4.383   0.958   1.250  0.00  0.00    -0.097 F 
ATOM      8  F1  UNL d   1       1.930   0.762   0.119  0.00  0.00    -0.096 F 
ATOM      9  I   UNL d   1      -0.769  -0.634   1.122  0.00  0.00    -0.060 I 
ATOM     10  F2  UNL d   1       0.419  -1.708   3.893  0.00  0.00    -0.096 F 
ATOM     11  F3  UNL d   1       2.882  -1.495   4.998  0.00  0.00    -0.097 F 
ATOM     12  F4  UNL d   1       4.872  -0.165   3.688  0.00  0.00    -0.092 F 
ENDROOT
TORSDOF 0
ENDMDL
