MODEL 1
REMARK minimizedAffinity -2.31206179
REMARK minimizedRMSD -1
REMARK  0 active torsions:
REMARK  status: ('A' for Active; 'I' for Inactive)
ROOT
ATOM      1  C   UNL d   1      -1.631  -0.033   1.273  0.00  0.00    -0.002 A 
ATOM      2  C1  UNL d   1      -0.908  -0.628   2.297  0.00  0.00     0.010 A 
ATOM      3  C2  UNL d   1       0.262  -1.339   2.020  0.00  0.00     0.041 A 
ATOM      4  C3  UNL d   1       0.698  -1.440   0.684  0.00  0.00    -0.075 A 
ATOM      5  S   UNL d   1       2.101  -2.258   0.107  0.00  0.00     0.015 SA
ATOM      6  C4  UNL d   1       1.774  -1.836  -1.511  0.00  0.00     0.022 A 
ATOM      7  C5  UNL d   1       0.626  -1.089  -1.627  0.00  0.00     0.026 A 
ATOM      8  C6  UNL d   1      -0.013  -0.848  -0.364  0.00  0.00    -0.082 A 
ATOM      9  C7  UNL d   1      -1.196  -0.135  -0.051  0.00  0.00     0.045 A 
ENDROOT
TORSDOF 0
ENDMDL
