MODEL 1
REMARK minimizedAffinity -2.33029938
REMARK minimizedRMSD -1
REMARK  0 active torsions:
REMARK  status: ('A' for Active; 'I' for Inactive)
ROOT
ATOM      1  C   UNL d   1      -0.358  -0.761   0.309  0.00  0.00    -0.002 A 
ATOM      2  C1  UNL d   1       0.451   0.193   0.910  0.00  0.00     0.010 A 
ATOM      3  C2  UNL d   1       0.587   1.464   0.349  0.00  0.00     0.041 A 
ATOM      4  C3  UNL d   1      -0.113   1.764  -0.836  0.00  0.00    -0.075 A 
ATOM      5  S   UNL d   1      -0.099   3.255  -1.702  0.00  0.00     0.015 SA
ATOM      6  C4  UNL d   1      -1.168   2.662  -2.889  0.00  0.00     0.022 A 
ATOM      7  C5  UNL d   1      -1.536   1.360  -2.647  0.00  0.00     0.026 A 
ATOM      8  C6  UNL d   1      -0.934   0.821  -1.460  0.00  0.00    -0.082 A 
ATOM      9  C7  UNL d   1      -1.051  -0.459  -0.867  0.00  0.00     0.045 A 
ENDROOT
TORSDOF 0
ENDMDL
