MODEL 1
REMARK minimizedAffinity -2.01381683
REMARK minimizedRMSD -1
REMARK  0 active torsions:
REMARK  status: ('A' for Active; 'I' for Inactive)
ROOT
ATOM      1  C   UNL d   1       1.438  -2.470   1.866  0.00  0.00    -0.002 A 
ATOM      2  C1  UNL d   1       1.973  -2.389   0.588  0.00  0.00     0.010 A 
ATOM      3  C2  UNL d   1       1.476  -1.465  -0.333  0.00  0.00     0.041 A 
ATOM      4  C3  UNL d   1       0.422  -0.614   0.056  0.00  0.00    -0.075 A 
ATOM      5  S   UNL d   1      -0.345   0.596  -0.903  0.00  0.00     0.015 SA
ATOM      6  C4  UNL d   1      -1.401   1.034   0.361  0.00  0.00     0.022 A 
ATOM      7  C5  UNL d   1      -1.187   0.286   1.494  0.00  0.00     0.026 A 
ATOM      8  C6  UNL d   1      -0.132  -0.676   1.338  0.00  0.00    -0.082 A 
ATOM      9  C7  UNL d   1       0.393  -1.624   2.248  0.00  0.00     0.045 A 
ENDROOT
TORSDOF 0
ENDMDL
