MODEL 1
REMARK minimizedAffinity -3.17645431
REMARK minimizedRMSD -1
REMARK  0 active torsions:
REMARK  status: ('A' for Active; 'I' for Inactive)
ROOT
ATOM      1  C   UNL d   1      -0.288  -0.737   2.464  0.00  0.00    -0.002 A 
ATOM      2  C1  UNL d   1       0.759  -1.606   2.191  0.00  0.00     0.010 A 
ATOM      3  C2  UNL d   1       1.244  -1.746   0.889  0.00  0.00     0.041 A 
ATOM      4  C3  UNL d   1       0.656  -0.988  -0.143  0.00  0.00    -0.075 A 
ATOM      5  S   UNL d   1       1.087  -0.994  -1.812  0.00  0.00     0.015 SA
ATOM      6  C4  UNL d   1      -0.108   0.158  -2.201  0.00  0.00     0.022 A 
ATOM      7  C5  UNL d   1      -0.827   0.548  -1.097  0.00  0.00     0.026 A 
ATOM      8  C6  UNL d   1      -0.398  -0.105   0.108  0.00  0.00    -0.082 A 
ATOM      9  C7  UNL d   1      -0.869   0.013   1.438  0.00  0.00     0.045 A 
ENDROOT
TORSDOF 0
ENDMDL
