MODEL 1
REMARK minimizedAffinity -1.29276085
REMARK minimizedRMSD -1
REMARK  0 active torsions:
REMARK  status: ('A' for Active; 'I' for Inactive)
ROOT
ATOM      1  C   UNL d   1      -1.563   3.332  -1.198  0.00  0.00    -0.002 A 
ATOM      2  C1  UNL d   1      -1.370   2.741  -2.439  0.00  0.00     0.010 A 
ATOM      3  C2  UNL d   1      -0.875   1.439  -2.536  0.00  0.00     0.041 A 
ATOM      4  C3  UNL d   1      -0.576   0.734  -1.354  0.00  0.00    -0.075 A 
ATOM      5  S   UNL d   1       0.040  -0.872  -1.229  0.00  0.00     0.015 SA
ATOM      6  C4  UNL d   1       0.061  -0.811   0.475  0.00  0.00     0.022 A 
ATOM      7  C5  UNL d   1      -0.387   0.398   0.953  0.00  0.00     0.026 A 
ATOM      8  C6  UNL d   1      -0.762   1.308  -0.093  0.00  0.00    -0.082 A 
ATOM      9  C7  UNL d   1      -1.265   2.630  -0.028  0.00  0.00     0.045 A 
ENDROOT
TORSDOF 0
ENDMDL
