MODEL 1
REMARK minimizedAffinity 0.260982066
REMARK minimizedRMSD -1
REMARK  0 active torsions:
REMARK  status: ('A' for Active; 'I' for Inactive)
ROOT
ATOM      1  C   UNL d   1      -0.856  -1.037   2.652  0.00  0.00    -0.002 A 
ATOM      2  C1  UNL d   1      -1.832  -0.412   1.890  0.00  0.00     0.010 A 
ATOM      3  C2  UNL d   1      -1.608  -0.130   0.541  0.00  0.00     0.041 A 
ATOM      4  C3  UNL d   1      -0.375  -0.493  -0.035  0.00  0.00    -0.075 A 
ATOM      5  S   UNL d   1       0.121  -0.249  -1.668  0.00  0.00     0.015 SA
ATOM      6  C4  UNL d   1       1.641  -0.970  -1.393  0.00  0.00     0.022 A 
ATOM      7  C5  UNL d   1       1.783  -1.392  -0.092  0.00  0.00     0.026 A 
ATOM      8  C6  UNL d   1       0.623  -1.125   0.711  0.00  0.00    -0.082 A 
ATOM      9  C7  UNL d   1       0.366  -1.396   2.077  0.00  0.00     0.045 A 
ENDROOT
TORSDOF 0
ENDMDL
