MODEL 1
REMARK minimizedAffinity 15.6393356
REMARK minimizedRMSD -1
REMARK  1 active torsions:
REMARK  status: ('A' for Active; 'I' for Inactive)
REMARK    1  A    between atoms: C1_2  and  C2_3 
ROOT
ATOM      1  C2  UNL d   1      -4.573   4.059  -2.256  0.00  0.00    -0.073 A 
ATOM      2  C3  UNL d   1      -4.247   4.592  -3.509  0.00  0.00    -0.002 A 
ATOM      3  C4  UNL d   1      -3.530   3.831  -4.433  0.00  0.00     0.004 A 
ATOM      4  C5  UNL d   1      -3.138   2.530  -4.118  0.00  0.00    -0.004 A 
ATOM      5  C6  UNL d   1      -3.464   1.976  -2.875  0.00  0.00    -0.075 A 
ATOM      6  C7  UNL d   1      -3.048   0.579  -2.520  0.00  0.00     0.076 C 
ATOM      7  C8  UNL d   1      -4.182   2.748  -1.952  0.00  0.00     0.001 A 
ENDROOT
BRANCH   1   8
ATOM      8  C1  UNL d   1      -5.352   4.875  -1.257  0.00  0.00     0.053 C 
ATOM      9  C   UNL d   1      -5.799   4.043  -0.066  0.00  0.00     0.018 C 
ENDBRANCH   1   8
TORSDOF 1
ENDMDL
