MODEL 1
REMARK minimizedAffinity 7.93701267
REMARK minimizedRMSD -1
REMARK  1 active torsions:
REMARK  status: ('A' for Active; 'I' for Inactive)
REMARK    1  A    between atoms: C1_2  and  C2_3 
ROOT
ATOM      1  C2  UNL d   1       2.531  -3.522   3.636  0.00  0.00    -0.073 A 
ATOM      2  C3  UNL d   1       2.234  -3.183   4.961  0.00  0.00    -0.002 A 
ATOM      3  C4  UNL d   1       1.666  -1.944   5.262  0.00  0.00     0.004 A 
ATOM      4  C5  UNL d   1       1.384  -1.036   4.242  0.00  0.00    -0.004 A 
ATOM      5  C6  UNL d   1       1.662  -1.361   2.911  0.00  0.00    -0.075 A 
ATOM      6  C7  UNL d   1       1.366  -0.394   1.802  0.00  0.00     0.076 C 
ATOM      7  C8  UNL d   1       2.235  -2.605   2.617  0.00  0.00     0.001 A 
ENDROOT
BRANCH   1   8
ATOM      8  C1  UNL d   1       3.139  -4.861   3.306  0.00  0.00     0.053 C 
ATOM      9  C   UNL d   1       2.105  -5.839   2.770  0.00  0.00     0.018 C 
ENDBRANCH   1   8
TORSDOF 1
ENDMDL
