MODEL 1
REMARK minimizedAffinity 14.0692081
REMARK minimizedRMSD -1
REMARK  1 active torsions:
REMARK  status: ('A' for Active; 'I' for Inactive)
REMARK    1  A    between atoms: C1_2  and  C2_3 
ROOT
ATOM      1  C2  UNL d   1       1.853  -2.481   3.258  0.00  0.00    -0.073 A 
ATOM      2  C3  UNL d   1       0.972  -1.394   3.294  0.00  0.00    -0.002 A 
ATOM      3  C4  UNL d   1       0.917  -0.495   2.228  0.00  0.00     0.004 A 
ATOM      4  C5  UNL d   1       1.736  -0.676   1.114  0.00  0.00    -0.004 A 
ATOM      5  C6  UNL d   1       2.614  -1.763   1.054  0.00  0.00    -0.075 A 
ATOM      6  C7  UNL d   1       3.503  -1.971  -0.137  0.00  0.00     0.076 C 
ATOM      7  C8  UNL d   1       2.665  -2.660   2.129  0.00  0.00     0.001 A 
ENDROOT
BRANCH   1   8
ATOM      8  C1  UNL d   1       1.911  -3.458   4.403  0.00  0.00     0.053 C 
ATOM      9  C   UNL d   1       1.343  -2.868   5.685  0.00  0.00     0.018 C 
ENDBRANCH   1   8
TORSDOF 1
ENDMDL
