MODEL 1
REMARK minimizedAffinity 9.16546631
REMARK minimizedRMSD -1
REMARK  1 active torsions:
REMARK  status: ('A' for Active; 'I' for Inactive)
REMARK    1  A    between atoms: C1_2  and  C2_3 
ROOT
ATOM      1  C2  UNL d   1      -3.810   3.219  -2.645  0.00  0.00    -0.073 A 
ATOM      2  C3  UNL d   1      -4.377   4.006  -3.653  0.00  0.00    -0.002 A 
ATOM      3  C4  UNL d   1      -5.469   4.829  -3.375  0.00  0.00     0.004 A 
ATOM      4  C5  UNL d   1      -6.000   4.879  -2.086  0.00  0.00    -0.004 A 
ATOM      5  C6  UNL d   1      -5.439   4.108  -1.062  0.00  0.00    -0.075 A 
ATOM      6  C7  UNL d   1      -6.000   4.148   0.329  0.00  0.00     0.076 C 
ATOM      7  C8  UNL d   1      -4.345   3.282  -1.350  0.00  0.00     0.001 A 
ENDROOT
BRANCH   1   8
ATOM      8  C1  UNL d   1      -2.626   2.334  -2.940  0.00  0.00     0.053 C 
ATOM      9  C   UNL d   1      -2.245   1.475  -1.744  0.00  0.00     0.018 C 
ENDBRANCH   1   8
TORSDOF 1
ENDMDL
