MODEL 1
REMARK minimizedAffinity 7.8102951
REMARK minimizedRMSD -1
REMARK  1 active torsions:
REMARK  status: ('A' for Active; 'I' for Inactive)
REMARK    1  A    between atoms: C1_2  and  C2_3 
ROOT
ATOM      1  C2  UNL d   1       5.171  -2.935  -1.153  0.00  0.00    -0.073 A 
ATOM      2  C3  UNL d   1       4.517  -3.761  -2.073  0.00  0.00    -0.002 A 
ATOM      3  C4  UNL d   1       3.769  -3.205  -3.113  0.00  0.00     0.004 A 
ATOM      4  C5  UNL d   1       3.674  -1.820  -3.246  0.00  0.00    -0.004 A 
ATOM      5  C6  UNL d   1       4.331  -0.978  -2.343  0.00  0.00    -0.075 A 
ATOM      6  C7  UNL d   1       4.237   0.514  -2.472  0.00  0.00     0.076 C 
ATOM      7  C8  UNL d   1       5.078  -1.544  -1.301  0.00  0.00     0.001 A 
ENDROOT
BRANCH   1   8
ATOM      8  C1  UNL d   1       5.985  -3.531  -0.033  0.00  0.00     0.053 C 
ATOM      9  C   UNL d   1       6.000  -2.638   1.198  0.00  0.00     0.018 C 
ENDBRANCH   1   8
TORSDOF 1
ENDMDL
