MODEL 1
REMARK minimizedAffinity -4.9460969
REMARK minimizedRMSD -1
REMARK  1 active torsions:
REMARK  status: ('A' for Active; 'I' for Inactive)
REMARK    1  A    between atoms: C1_2  and  C2_3 
ROOT
ATOM      1  C2  UNL d   1      -0.008  -0.231   0.103  0.00  0.00    -0.077 A 
ATOM      2  C3  UNL d   1       0.595   0.306   1.249  0.00  0.00     0.002 A 
ATOM      3  C4  UNL d   1      -0.171   0.987   2.197  0.00  0.00     0.002 A 
ATOM      4  C5  UNL d   1      -1.544   1.133   2.011  0.00  0.00    -0.004 A 
ATOM      5  C6  UNL d   1      -2.153   0.604   0.874  0.00  0.00     0.002 A 
ATOM      6  C7  UNL d   1      -1.388  -0.076  -0.076  0.00  0.00     0.002 A 
ENDROOT
BRANCH   1   7
ATOM      7  C1  UNL d   1       0.809  -1.008  -0.896  0.00  0.00     0.055 C 
ATOM      8  C   UNL d   1       0.481  -0.592  -2.323  0.00  0.00     0.019 C 
ENDBRANCH   1   7
TORSDOF 1
ENDMDL
