MODEL 1
REMARK minimizedAffinity -4.65646076
REMARK minimizedRMSD -1
REMARK  1 active torsions:
REMARK  status: ('A' for Active; 'I' for Inactive)
REMARK    1  A    between atoms: C1_2  and  C2_3 
ROOT
ATOM      1  C2  UNL d   1       0.024   0.211   0.093  0.00  0.00    -0.077 A 
ATOM      2  C3  UNL d   1       0.675   0.829   1.170  0.00  0.00     0.002 A 
ATOM      3  C4  UNL d   1      -0.038   1.180   2.318  0.00  0.00     0.002 A 
ATOM      4  C5  UNL d   1      -1.403   0.914   2.402  0.00  0.00    -0.004 A 
ATOM      5  C6  UNL d   1      -2.060   0.302   1.336  0.00  0.00     0.002 A 
ATOM      6  C7  UNL d   1      -1.350  -0.049   0.187  0.00  0.00     0.002 A 
ENDROOT
BRANCH   1   7
ATOM      7  C1  UNL d   1       0.800  -0.214  -1.126  0.00  0.00     0.055 C 
ATOM      8  C   UNL d   1      -0.099  -0.304  -2.351  0.00  0.00     0.019 C 
ENDBRANCH   1   7
TORSDOF 1
ENDMDL
