MODEL 1
REMARK minimizedAffinity -5.81403685
REMARK minimizedRMSD -1
REMARK  1 active torsions:
REMARK  status: ('A' for Active; 'I' for Inactive)
REMARK    1  A    between atoms: C1_2  and  C2_3 
ROOT
ATOM      1  C2  UNL d   1      -0.242   0.562   1.067  0.00  0.00    -0.077 A 
ATOM      2  C3  UNL d   1       1.060   0.062   1.204  0.00  0.00     0.002 A 
ATOM      3  C4  UNL d   1       1.642  -0.057   2.468  0.00  0.00     0.002 A 
ATOM      4  C5  UNL d   1       0.928   0.319   3.604  0.00  0.00    -0.004 A 
ATOM      5  C6  UNL d   1      -0.368   0.819   3.478  0.00  0.00     0.002 A 
ATOM      6  C7  UNL d   1      -0.950   0.939   2.216  0.00  0.00     0.002 A 
ENDROOT
BRANCH   1   7
ATOM      7  C1  UNL d   1      -0.890   0.644  -0.290  0.00  0.00     0.055 C 
ATOM      8  C   UNL d   1      -2.180  -0.160  -0.338  0.00  0.00     0.019 C 
ENDBRANCH   1   7
TORSDOF 1
ENDMDL
