MODEL 1
REMARK minimizedAffinity -2.21976495
REMARK minimizedRMSD -1
REMARK  1 active torsions:
REMARK  status: ('A' for Active; 'I' for Inactive)
REMARK    1  A    between atoms: C1_2  and  C2_3 
ROOT
ATOM      1  C2  UNL d   1       1.129  -0.399  -4.507  0.00  0.00    -0.077 A 
ATOM      2  C3  UNL d   1       2.495  -0.716  -4.517  0.00  0.00     0.002 A 
ATOM      3  C4  UNL d   1       3.441   0.219  -4.093  0.00  0.00     0.002 A 
ATOM      4  C5  UNL d   1       3.031   1.475  -3.652  0.00  0.00    -0.004 A 
ATOM      5  C6  UNL d   1       1.676   1.802  -3.639  0.00  0.00     0.002 A 
ATOM      6  C7  UNL d   1       0.729   0.869  -4.064  0.00  0.00     0.002 A 
ENDROOT
BRANCH   1   7
ATOM      7  C1  UNL d   1       0.104  -1.423  -4.917  0.00  0.00     0.055 C 
ATOM      8  C   UNL d   1      -0.824  -0.877  -5.992  0.00  0.00     0.019 C 
ENDBRANCH   1   7
TORSDOF 1
ENDMDL
