MODEL 1
REMARK minimizedAffinity -4.42078161
REMARK minimizedRMSD -1
REMARK  1 active torsions:
REMARK  status: ('A' for Active; 'I' for Inactive)
REMARK    1  A    between atoms: C1_2  and  C2_3 
ROOT
ATOM      1  C2  UNL d   1       0.009  -0.224   0.547  0.00  0.00    -0.077 A 
ATOM      2  C3  UNL d   1      -1.024   0.602   1.012  0.00  0.00     0.002 A 
ATOM      3  C4  UNL d   1      -0.877   1.312   2.205  0.00  0.00     0.002 A 
ATOM      4  C5  UNL d   1       0.302   1.206   2.941  0.00  0.00    -0.004 A 
ATOM      5  C6  UNL d   1       1.333   0.385   2.488  0.00  0.00     0.002 A 
ATOM      6  C7  UNL d   1       1.188  -0.326   1.296  0.00  0.00     0.002 A 
ENDROOT
BRANCH   1   7
ATOM      7  C1  UNL d   1      -0.128  -0.952  -0.765  0.00  0.00     0.055 C 
ATOM      8  C   UNL d   1       0.465  -0.145  -1.910  0.00  0.00     0.019 C 
ENDBRANCH   1   7
TORSDOF 1
ENDMDL
