MODEL 1
REMARK minimizedAffinity 3.41203761
REMARK minimizedRMSD -1
REMARK  0 active torsions:
REMARK  status: ('A' for Active; 'I' for Inactive)
ROOT
ATOM      1  C   UNL d   1       4.909   2.596  -0.110  0.00  0.00     0.077 C 
ATOM      2  C1  UNL d   1       3.735   1.664  -0.062  0.00  0.00    -0.074 A 
ATOM      3  C2  UNL d   1       2.633   1.937   0.755  0.00  0.00    -0.005 A 
ATOM      4  C3  UNL d   1       1.545   1.066   0.781  0.00  0.00     0.006 A 
ATOM      5  C4  UNL d   1       1.546  -0.086  -0.007  0.00  0.00    -0.005 A 
ATOM      6  C5  UNL d   1       2.639  -0.375  -0.830  0.00  0.00    -0.074 A 
ATOM      7  C6  UNL d   1       2.653  -1.604  -1.691  0.00  0.00     0.077 C 
ATOM      8  C7  UNL d   1       3.726   0.509  -0.857  0.00  0.00    -0.001 A 
ENDROOT
TORSDOF 0
ENDMDL
