MODEL 1
REMARK minimizedAffinity 5.19757271
REMARK minimizedRMSD -1
REMARK  0 active torsions:
REMARK  status: ('A' for Active; 'I' for Inactive)
ROOT
ATOM      1  C   UNL d   1       0.500   1.880   0.667  0.00  0.00     0.077 C 
ATOM      2  C1  UNL d   1       0.268   0.520   0.078  0.00  0.00    -0.074 A 
ATOM      3  C2  UNL d   1      -0.953   0.195  -0.521  0.00  0.00    -0.005 A 
ATOM      4  C3  UNL d   1      -1.151  -1.070  -1.074  0.00  0.00     0.006 A 
ATOM      5  C4  UNL d   1      -0.131  -2.022  -1.032  0.00  0.00    -0.005 A 
ATOM      6  C5  UNL d   1       1.097  -1.715  -0.438  0.00  0.00    -0.074 A 
ATOM      7  C6  UNL d   1       2.207  -2.723  -0.394  0.00  0.00     0.077 C 
ATOM      8  C7  UNL d   1       1.291  -0.439   0.109  0.00  0.00    -0.001 A 
ENDROOT
TORSDOF 0
ENDMDL
