MODEL 1
REMARK minimizedAffinity 8.82258129
REMARK minimizedRMSD -1
REMARK  0 active torsions:
REMARK  status: ('A' for Active; 'I' for Inactive)
ROOT
ATOM      1  C   UNL d   1       1.148  -1.797   0.279  0.00  0.00     0.077 C 
ATOM      2  C1  UNL d   1       1.087  -0.702   1.303  0.00  0.00    -0.074 A 
ATOM      3  C2  UNL d   1       0.838   0.621   0.926  0.00  0.00    -0.005 A 
ATOM      4  C3  UNL d   1       0.775   1.627   1.890  0.00  0.00     0.006 A 
ATOM      5  C4  UNL d   1       0.961   1.320   3.239  0.00  0.00    -0.005 A 
ATOM      6  C5  UNL d   1       1.210   0.002   3.634  0.00  0.00    -0.074 A 
ATOM      7  C6  UNL d   1       1.402  -0.346   5.081  0.00  0.00     0.077 C 
ATOM      8  C7  UNL d   1       1.265  -1.004   2.660  0.00  0.00    -0.001 A 
ENDROOT
TORSDOF 0
ENDMDL
