MODEL 1
REMARK minimizedAffinity -2.00459433
REMARK minimizedRMSD -1
REMARK  0 active torsions:
REMARK  status: ('A' for Active; 'I' for Inactive)
ROOT
ATOM      1  C   UNL d   1       3.474   2.186   0.577  0.00  0.00     0.077 C 
ATOM      2  C1  UNL d   1       3.012   0.791   0.277  0.00  0.00    -0.074 A 
ATOM      3  C2  UNL d   1       1.951   0.217   0.984  0.00  0.00    -0.005 A 
ATOM      4  C3  UNL d   1       1.527  -1.078   0.687  0.00  0.00     0.006 A 
ATOM      5  C4  UNL d   1       2.159  -1.812  -0.318  0.00  0.00    -0.005 A 
ATOM      6  C5  UNL d   1       3.222  -1.254  -1.036  0.00  0.00    -0.074 A 
ATOM      7  C6  UNL d   1       3.906  -2.025  -2.125  0.00  0.00     0.077 C 
ATOM      8  C7  UNL d   1       3.637   0.051  -0.736  0.00  0.00    -0.001 A 
ENDROOT
TORSDOF 0
ENDMDL
