MODEL 1
REMARK minimizedAffinity 5.87583828
REMARK minimizedRMSD -1
REMARK  0 active torsions:
REMARK  status: ('A' for Active; 'I' for Inactive)
ROOT
ATOM      1  C   UNL d   1       0.755   1.592   0.437  0.00  0.00     0.077 C 
ATOM      2  C1  UNL d   1       0.900   0.137   0.103  0.00  0.00    -0.074 A 
ATOM      3  C2  UNL d   1       2.163  -0.437  -0.076  0.00  0.00    -0.005 A 
ATOM      4  C3  UNL d   1       2.283  -1.794  -0.376  0.00  0.00     0.006 A 
ATOM      5  C4  UNL d   1       1.143  -2.589  -0.500  0.00  0.00    -0.005 A 
ATOM      6  C5  UNL d   1      -0.128  -2.033  -0.323  0.00  0.00    -0.074 A 
ATOM      7  C6  UNL d   1      -1.363  -2.876  -0.442  0.00  0.00     0.077 C 
ATOM      8  C7  UNL d   1      -0.240  -0.670  -0.015  0.00  0.00    -0.001 A 
ENDROOT
TORSDOF 0
ENDMDL
