MODEL 1
REMARK minimizedAffinity -3.11247563
REMARK minimizedRMSD -1
REMARK  0 active torsions:
REMARK  status: ('A' for Active; 'I' for Inactive)
ROOT
ATOM      1  C   UNL d   1       3.496  -2.340  -2.518  0.00  0.00     0.077 C 
ATOM      2  C1  UNL d   1       2.847  -1.530  -1.435  0.00  0.00    -0.074 A 
ATOM      3  C2  UNL d   1       1.706  -1.996  -0.775  0.00  0.00    -0.005 A 
ATOM      4  C3  UNL d   1       1.119  -1.235   0.236  0.00  0.00     0.006 A 
ATOM      5  C4  UNL d   1       1.666  -0.003   0.597  0.00  0.00    -0.005 A 
ATOM      6  C5  UNL d   1       2.808   0.478  -0.052  0.00  0.00    -0.074 A 
ATOM      7  C6  UNL d   1       3.415   1.796   0.330  0.00  0.00     0.077 C 
ATOM      8  C7  UNL d   1       3.396  -0.295  -1.062  0.00  0.00    -0.001 A 
ENDROOT
TORSDOF 0
ENDMDL
