MODEL 1
REMARK minimizedAffinity 2.33165264
REMARK minimizedRMSD -1
REMARK  0 active torsions:
REMARK  status: ('A' for Active; 'I' for Inactive)
ROOT
ATOM      1  C   UNL d   1      -4.010   1.612   1.704  0.00  0.00     0.077 C 
ATOM      2  C1  UNL d   1      -2.512   1.577   1.770  0.00  0.00    -0.074 A 
ATOM      3  C2  UNL d   1      -1.852   1.246   2.958  0.00  0.00    -0.005 A 
ATOM      4  C3  UNL d   1      -0.459   1.208   3.002  0.00  0.00     0.006 A 
ATOM      5  C4  UNL d   1       0.288   1.501   1.861  0.00  0.00    -0.005 A 
ATOM      6  C5  UNL d   1      -0.353   1.833   0.663  0.00  0.00    -0.074 A 
ATOM      7  C6  UNL d   1       0.434   2.140  -0.575  0.00  0.00     0.077 C 
ATOM      8  C7  UNL d   1      -1.754   1.862   0.625  0.00  0.00    -0.001 A 
ENDROOT
TORSDOF 0
ENDMDL
