MODEL 1
REMARK minimizedAffinity 1.65007865
REMARK minimizedRMSD -1
REMARK  0 active torsions:
REMARK  status: ('A' for Active; 'I' for Inactive)
ROOT
ATOM      1  C   UNL d   1       0.980  -1.882  -0.354  0.00  0.00     0.077 C 
ATOM      2  C1  UNL d   1       2.170  -2.074  -1.247  0.00  0.00    -0.074 A 
ATOM      3  C2  UNL d   1       2.194  -3.093  -2.204  0.00  0.00    -0.005 A 
ATOM      4  C3  UNL d   1       3.304  -3.253  -3.033  0.00  0.00     0.006 A 
ATOM      5  C4  UNL d   1       4.399  -2.397  -2.914  0.00  0.00    -0.005 A 
ATOM      6  C5  UNL d   1       4.393  -1.372  -1.964  0.00  0.00    -0.074 A 
ATOM      7  C6  UNL d   1       5.558  -0.437  -1.829  0.00  0.00     0.077 C 
ATOM      8  C7  UNL d   1       3.271  -1.213  -1.138  0.00  0.00    -0.001 A 
ENDROOT
TORSDOF 0
ENDMDL
