MODEL 1
REMARK minimizedAffinity 0.195392266
REMARK minimizedRMSD -1
REMARK  1 active torsions:
REMARK  status: ('A' for Active; 'I' for Inactive)
REMARK    1  A    between atoms: C3_4  and  O_7 
ROOT
ATOM      1  C   UNL d   1       5.277   0.797  -5.999  0.00  0.00    -0.033 A 
ATOM      2  C1  UNL d   1       5.860  -0.469  -5.927  0.00  0.00     0.039 A 
ATOM      3  C2  UNL d   1       5.286  -1.460  -5.129  0.00  0.00    -0.080 A 
ATOM      4  C3  UNL d   1       4.129  -1.173  -4.409  0.00  0.00     0.150 A 
ATOM      5  C4  UNL d   1       3.540   0.085  -4.480  0.00  0.00    -0.007 A 
ATOM      6  C5  UNL d   1       4.116   1.074  -5.277  0.00  0.00     0.039 A 
ENDROOT
BRANCH   4   7
ATOM      7  O   UNL d   1       3.535  -2.106  -3.613  0.00  0.00    -0.526 OA
ATOM      8  H5  UNL d   1       4.068  -2.918  -3.640  0.00  0.00     0.418 HD
ENDBRANCH   4   7
TORSDOF 1
ENDMDL
