MODEL 1
REMARK minimizedAffinity 7.66603994
REMARK minimizedRMSD -1
REMARK  1 active torsions:
REMARK  status: ('A' for Active; 'I' for Inactive)
REMARK    1  A    between atoms: C3_4  and  O_7 
ROOT
ATOM      1  C   UNL d   1      -3.604   2.536  -0.590  0.00  0.00    -0.033 A 
ATOM      2  C1  UNL d   1      -4.674   2.110  -1.379  0.00  0.00     0.039 A 
ATOM      3  C2  UNL d   1      -4.434   1.436  -2.578  0.00  0.00    -0.080 A 
ATOM      4  C3  UNL d   1      -3.122   1.195  -2.976  0.00  0.00     0.150 A 
ATOM      5  C4  UNL d   1      -2.051   1.614  -2.193  0.00  0.00    -0.007 A 
ATOM      6  C5  UNL d   1      -2.292   2.287  -0.996  0.00  0.00     0.039 A 
ENDROOT
BRANCH   4   7
ATOM      7  O   UNL d   1      -2.838   0.545  -4.140  0.00  0.00    -0.526 OA
ATOM      8  H5  UNL d   1      -3.675   0.341  -4.591  0.00  0.00     0.418 HD
ENDBRANCH   4   7
TORSDOF 1
ENDMDL
