MODEL 1
REMARK minimizedAffinity 3.98832488
REMARK minimizedRMSD -1
REMARK  1 active torsions:
REMARK  status: ('A' for Active; 'I' for Inactive)
REMARK    1  A    between atoms: C3_4  and  O_7 
ROOT
ATOM      1  C   UNL d   1      -5.544  -2.485  -5.213  0.00  0.00    -0.033 A 
ATOM      2  C1  UNL d   1      -4.347  -2.565  -4.498  0.00  0.00     0.039 A 
ATOM      3  C2  UNL d   1      -3.592  -3.738  -4.528  0.00  0.00    -0.080 A 
ATOM      4  C3  UNL d   1      -4.043  -4.823  -5.275  0.00  0.00     0.150 A 
ATOM      5  C4  UNL d   1      -5.232  -4.749  -5.993  0.00  0.00    -0.007 A 
ATOM      6  C5  UNL d   1      -5.986  -3.576  -5.961  0.00  0.00     0.039 A 
ENDROOT
BRANCH   4   7
ATOM      7  O   UNL d   1      -3.342  -5.991  -5.331  0.00  0.00    -0.526 OA
ATOM      8  H5  UNL d   1      -2.557  -5.906  -4.764  0.00  0.00     0.418 HD
ENDBRANCH   4   7
TORSDOF 1
ENDMDL
