MODEL 1
REMARK minimizedAffinity -1.10381377
REMARK minimizedRMSD -1
REMARK  1 active torsions:
REMARK  status: ('A' for Active; 'I' for Inactive)
REMARK    1  A    between atoms: C3_4  and  O_7 
ROOT
ATOM      1  C   UNL d   1       5.086  -0.015  -5.997  0.00  0.00    -0.033 A 
ATOM      2  C1  UNL d   1       5.902  -1.142  -5.876  0.00  0.00     0.039 A 
ATOM      3  C2  UNL d   1       5.747  -2.004  -4.788  0.00  0.00    -0.080 A 
ATOM      4  C3  UNL d   1       4.774  -1.729  -3.831  0.00  0.00     0.150 A 
ATOM      5  C4  UNL d   1       3.955  -0.610  -3.948  0.00  0.00    -0.007 A 
ATOM      6  C5  UNL d   1       4.112   0.250  -5.035  0.00  0.00     0.039 A 
ENDROOT
BRANCH   4   7
ATOM      7  O   UNL d   1       4.589  -2.538  -2.750  0.00  0.00    -0.526 OA
ATOM      8  H5  UNL d   1       5.244  -3.255  -2.786  0.00  0.00     0.418 HD
ENDBRANCH   4   7
TORSDOF 1
ENDMDL
