MODEL 1
REMARK minimizedAffinity 1.87862349
REMARK minimizedRMSD -1
REMARK  1 active torsions:
REMARK  status: ('A' for Active; 'I' for Inactive)
REMARK    1  A    between atoms: C3_4  and  O_7 
ROOT
ATOM      1  C   UNL d   1       4.988  -0.042  -5.996  0.00  0.00    -0.033 A 
ATOM      2  C1  UNL d   1       3.973   0.374  -5.133  0.00  0.00     0.039 A 
ATOM      3  C2  UNL d   1       3.966  -0.052  -3.803  0.00  0.00    -0.080 A 
ATOM      4  C3  UNL d   1       4.979  -0.893  -3.350  0.00  0.00     0.150 A 
ATOM      5  C4  UNL d   1       5.995  -1.309  -4.204  0.00  0.00    -0.007 A 
ATOM      6  C5  UNL d   1       6.000  -0.883  -5.531  0.00  0.00     0.039 A 
ENDROOT
BRANCH   4   7
ATOM      7  O   UNL d   1       5.012  -1.339  -2.062  0.00  0.00    -0.526 OA
ATOM      8  H5  UNL d   1       4.231  -0.994  -1.597  0.00  0.00     0.418 HD
ENDBRANCH   4   7
TORSDOF 1
ENDMDL
