MODEL 1
REMARK minimizedAffinity 10.4658737
REMARK minimizedRMSD -1
REMARK  1 active torsions:
REMARK  status: ('A' for Active; 'I' for Inactive)
REMARK    1  A    between atoms: C3_4  and  O_7 
ROOT
ATOM      1  C   UNL d   1       1.518  -0.636  -0.110  0.00  0.00    -0.033 A 
ATOM      2  C1  UNL d   1       1.250  -0.877  -1.459  0.00  0.00     0.039 A 
ATOM      3  C2  UNL d   1       2.300  -1.068  -2.358  0.00  0.00    -0.080 A 
ATOM      4  C3  UNL d   1       3.613  -1.017  -1.897  0.00  0.00     0.150 A 
ATOM      5  C4  UNL d   1       3.887  -0.781  -0.553  0.00  0.00    -0.007 A 
ATOM      6  C5  UNL d   1       2.836  -0.590   0.343  0.00  0.00     0.039 A 
ENDROOT
BRANCH   4   7
ATOM      7  O   UNL d   1       4.671  -1.192  -2.737  0.00  0.00    -0.526 OA
ATOM      8  H5  UNL d   1       4.331  -1.317  -3.639  0.00  0.00     0.418 HD
ENDBRANCH   4   7
TORSDOF 1
ENDMDL
