MODEL 1
REMARK minimizedAffinity -0.16269961
REMARK minimizedRMSD -1
REMARK  1 active torsions:
REMARK  status: ('A' for Active; 'I' for Inactive)
REMARK    1  A    between atoms: C3_4  and  O_7 
ROOT
ATOM      1  C   UNL d   1      -5.985  -3.738  -5.697  0.00  0.00    -0.033 A 
ATOM      2  C1  UNL d   1      -4.770  -3.057  -5.605  0.00  0.00     0.039 A 
ATOM      3  C2  UNL d   1      -3.566  -3.757  -5.706  0.00  0.00    -0.080 A 
ATOM      4  C3  UNL d   1      -3.591  -5.136  -5.899  0.00  0.00     0.150 A 
ATOM      5  C4  UNL d   1      -4.799  -5.820  -5.996  0.00  0.00    -0.007 A 
ATOM      6  C5  UNL d   1      -6.000  -5.119  -5.894  0.00  0.00     0.039 A 
ENDROOT
BRANCH   4   7
ATOM      7  O   UNL d   1      -2.442  -5.863  -5.999  0.00  0.00    -0.526 OA
ATOM      8  H5  UNL d   1      -1.687  -5.262  -5.885  0.00  0.00     0.418 HD
ENDBRANCH   4   7
TORSDOF 1
ENDMDL
