MODEL 1
REMARK minimizedAffinity 10.7616262
REMARK minimizedRMSD -1
REMARK  1 active torsions:
REMARK  status: ('A' for Active; 'I' for Inactive)
REMARK    1  A    between atoms: C3_4  and  O_7 
ROOT
ATOM      1  C   UNL d   1       5.999  -3.855   5.183  0.00  0.00    -0.033 A 
ATOM      2  C1  UNL d   1       4.960  -3.393   5.993  0.00  0.00     0.039 A 
ATOM      3  C2  UNL d   1       3.726  -4.047   5.988  0.00  0.00    -0.080 A 
ATOM      4  C3  UNL d   1       3.545  -5.159   5.171  0.00  0.00     0.150 A 
ATOM      5  C4  UNL d   1       4.577  -5.626   4.364  0.00  0.00    -0.007 A 
ATOM      6  C5  UNL d   1       5.808  -4.972   4.369  0.00  0.00     0.039 A 
ENDROOT
BRANCH   4   7
ATOM      7  O   UNL d   1       2.357  -5.826   5.128  0.00  0.00    -0.526 OA
ATOM      8  H5  UNL d   1       1.728  -5.374   5.715  0.00  0.00     0.418 HD
ENDBRANCH   4   7
TORSDOF 1
ENDMDL
