MODEL 1
REMARK minimizedAffinity 10.9193468
REMARK minimizedRMSD -1
REMARK  1 active torsions:
REMARK  status: ('A' for Active; 'I' for Inactive)
REMARK    1  A    between atoms: C3_4  and  O_7 
ROOT
ATOM      1  C   UNL d   1      -5.874  -3.825  -5.656  0.00  0.00    -0.033 A 
ATOM      2  C1  UNL d   1      -5.939  -5.204  -5.863  0.00  0.00     0.039 A 
ATOM      3  C2  UNL d   1      -4.765  -5.951  -5.977  0.00  0.00    -0.080 A 
ATOM      4  C3  UNL d   1      -3.534  -5.308  -5.880  0.00  0.00     0.150 A 
ATOM      5  C4  UNL d   1      -3.462  -3.934  -5.670  0.00  0.00    -0.007 A 
ATOM      6  C5  UNL d   1      -4.636  -3.190  -5.558  0.00  0.00     0.039 A 
ENDROOT
BRANCH   4   7
ATOM      7  O   UNL d   1      -2.361  -5.993  -5.989  0.00  0.00    -0.526 OA
ATOM      8  H5  UNL d   1      -2.565  -6.928  -6.161  0.00  0.00     0.418 HD
ENDBRANCH   4   7
TORSDOF 1
ENDMDL
