MODEL 1
REMARK minimizedAffinity 12.2450323
REMARK minimizedRMSD -1
REMARK  0 active torsions:
REMARK  status: ('A' for Active; 'I' for Inactive)
ROOT
ATOM      1  C   UNL d   1       1.976   1.427  -2.368  0.00  0.00     0.020 A 
ATOM      2  C1  UNL d   1       3.051   2.250  -2.700  0.00  0.00     0.020 A 
ATOM      3  C2  UNL d   1       3.536   3.174  -1.772  0.00  0.00     0.034 A 
ATOM      4  C3  UNL d   1       2.944   3.278  -0.507  0.00  0.00     0.017 A 
ATOM      5  C4  UNL d   1       1.865   2.451  -0.175  0.00  0.00     0.017 A 
ATOM      6  C5  UNL d   1       1.384   1.527  -1.109  0.00  0.00     0.034 A 
ATOM      7 Cl   UNL d   1       1.083   2.521   1.365  0.00  0.00    -0.070 Cl
ATOM      8 Cl1  UNL d   1       3.595   4.443   0.591  0.00  0.00    -0.070 Cl
ENDROOT
TORSDOF 0
ENDMDL
