MODEL 1
REMARK minimizedAffinity 6.79788685
REMARK minimizedRMSD -1
REMARK  0 active torsions:
REMARK  status: ('A' for Active; 'I' for Inactive)
ROOT
ATOM      1  C   UNL d   1      -2.883  -3.326  -6.000  0.00  0.00     0.020 A 
ATOM      2  C1  UNL d   1      -1.909  -2.369  -5.722  0.00  0.00     0.020 A 
ATOM      3  C2  UNL d   1      -1.683  -1.964  -4.404  0.00  0.00     0.034 A 
ATOM      4  C3  UNL d   1      -2.433  -2.517  -3.360  0.00  0.00     0.017 A 
ATOM      5  C4  UNL d   1      -3.411  -3.478  -3.640  0.00  0.00     0.017 A 
ATOM      6  C5  UNL d   1      -3.633  -3.880  -4.961  0.00  0.00     0.034 A 
ATOM      7 Cl   UNL d   1      -4.376  -4.206  -2.405  0.00  0.00    -0.070 Cl
ATOM      8 Cl1  UNL d   1      -2.101  -1.971  -1.755  0.00  0.00    -0.070 Cl
ENDROOT
TORSDOF 0
ENDMDL
