MODEL 1
REMARK minimizedAffinity 25.2320251
REMARK minimizedRMSD -1
REMARK  0 active torsions:
REMARK  status: ('A' for Active; 'I' for Inactive)
ROOT
ATOM      1  C   UNL d   1       5.785   1.390  -4.246  0.00  0.00     0.020 A 
ATOM      2  C1  UNL d   1       5.280   1.622  -2.967  0.00  0.00     0.020 A 
ATOM      3  C2  UNL d   1       4.989   2.925  -2.558  0.00  0.00     0.034 A 
ATOM      4  C3  UNL d   1       5.203   4.001  -3.427  0.00  0.00     0.017 A 
ATOM      5  C4  UNL d   1       5.709   3.766  -4.711  0.00  0.00     0.017 A 
ATOM      6  C5  UNL d   1       5.999   2.460  -5.116  0.00  0.00     0.034 A 
ATOM      7 Cl   UNL d   1       5.999   5.042  -5.840  0.00  0.00    -0.070 Cl
ATOM      8 Cl1  UNL d   1       4.820   5.585  -2.854  0.00  0.00    -0.070 Cl
ENDROOT
TORSDOF 0
ENDMDL
