MODEL 1
REMARK minimizedAffinity 18.921608
REMARK minimizedRMSD -1
REMARK  0 active torsions:
REMARK  status: ('A' for Active; 'I' for Inactive)
ROOT
ATOM      1  C   UNL d   1      -1.911   2.316   3.290  0.00  0.00     0.020 A 
ATOM      2  C1  UNL d   1      -3.019   1.472   3.214  0.00  0.00     0.020 A 
ATOM      3  C2  UNL d   1      -2.840   0.088   3.185  0.00  0.00     0.034 A 
ATOM      4  C3  UNL d   1      -1.552  -0.457   3.230  0.00  0.00     0.017 A 
ATOM      5  C4  UNL d   1      -0.441   0.391   3.305  0.00  0.00     0.017 A 
ATOM      6  C5  UNL d   1      -0.626   1.776   3.335  0.00  0.00     0.034 A 
ATOM      7 Cl   UNL d   1       1.179  -0.208   3.365  0.00  0.00    -0.070 Cl
ATOM      8 Cl1  UNL d   1      -1.406  -2.179   3.190  0.00  0.00    -0.070 Cl
ENDROOT
TORSDOF 0
ENDMDL
