MODEL 1
REMARK minimizedAffinity 17.9374886
REMARK minimizedRMSD -1
REMARK  0 active torsions:
REMARK  status: ('A' for Active; 'I' for Inactive)
ROOT
ATOM      1  C   UNL d   1      -0.751  -2.259   3.062  0.00  0.00     0.020 A 
ATOM      2  C1  UNL d   1      -1.954  -1.657   3.426  0.00  0.00     0.020 A 
ATOM      3  C2  UNL d   1      -2.929  -2.396   4.100  0.00  0.00     0.034 A 
ATOM      4  C3  UNL d   1      -2.701  -3.741   4.413  0.00  0.00     0.017 A 
ATOM      5  C4  UNL d   1      -1.493  -4.345   4.047  0.00  0.00     0.017 A 
ATOM      6  C5  UNL d   1      -0.520  -3.600   3.372  0.00  0.00     0.034 A 
ATOM      7 Cl   UNL d   1      -1.140  -6.000   4.398  0.00  0.00    -0.070 Cl
ATOM      8 Cl1  UNL d   1      -3.950  -4.594   5.248  0.00  0.00    -0.070 Cl
ENDROOT
TORSDOF 0
ENDMDL
