MODEL 1
REMARK minimizedAffinity 15.1732044
REMARK minimizedRMSD -1
REMARK  0 active torsions:
REMARK  status: ('A' for Active; 'I' for Inactive)
ROOT
ATOM      1  C   UNL d   1      -0.137   1.279   5.343  0.00  0.00     0.020 A 
ATOM      2  C1  UNL d   1      -1.136   0.323   5.523  0.00  0.00     0.020 A 
ATOM      3  C2  UNL d   1      -1.312  -0.690   4.578  0.00  0.00     0.034 A 
ATOM      4  C3  UNL d   1      -0.488  -0.749   3.449  0.00  0.00     0.017 A 
ATOM      5  C4  UNL d   1       0.515   0.211   3.268  0.00  0.00     0.017 A 
ATOM      6  C5  UNL d   1       0.687   1.223   4.217  0.00  0.00     0.034 A 
ATOM      7 Cl   UNL d   1       1.570   0.202   1.899  0.00  0.00    -0.070 Cl
ATOM      8 Cl1  UNL d   1      -0.762  -2.030   2.321  0.00  0.00    -0.070 Cl
ENDROOT
TORSDOF 0
ENDMDL
