MODEL 1
REMARK minimizedAffinity 3.33671069
REMARK minimizedRMSD -1
REMARK  0 active torsions:
REMARK  status: ('A' for Active; 'I' for Inactive)
ROOT
ATOM      1  C   UNL d   1       3.813   0.730  -2.805  0.00  0.00     0.020 A 
ATOM      2  C1  UNL d   1       2.813   1.690  -2.958  0.00  0.00     0.020 A 
ATOM      3  C2  UNL d   1       2.112   2.153  -1.843  0.00  0.00     0.034 A 
ATOM      4  C3  UNL d   1       2.410   1.656  -0.568  0.00  0.00     0.017 A 
ATOM      5  C4  UNL d   1       3.414   0.693  -0.415  0.00  0.00     0.017 A 
ATOM      6  C5  UNL d   1       4.113   0.234  -1.536  0.00  0.00     0.034 A 
ATOM      7 Cl   UNL d   1       3.838   0.034   1.125  0.00  0.00    -0.070 Cl
ATOM      8 Cl1  UNL d   1       1.503   2.274   0.767  0.00  0.00    -0.070 Cl
ENDROOT
TORSDOF 0
ENDMDL
