MODEL 1
REMARK minimizedAffinity 9.71144104
REMARK minimizedRMSD -1
REMARK  0 active torsions:
REMARK  status: ('A' for Active; 'I' for Inactive)
ROOT
ATOM      1  C   UNL d   1      -4.967  -2.199  -5.993  0.00  0.00     0.020 A 
ATOM      2  C1  UNL d   1      -4.104  -1.104  -5.998  0.00  0.00     0.020 A 
ATOM      3  C2  UNL d   1      -2.722  -1.305  -6.000  0.00  0.00     0.034 A 
ATOM      4  C3  UNL d   1      -2.199  -2.603  -5.996  0.00  0.00     0.017 A 
ATOM      5  C4  UNL d   1      -3.066  -3.702  -5.991  0.00  0.00     0.017 A 
ATOM      6  C5  UNL d   1      -4.449  -3.495  -5.989  0.00  0.00     0.034 A 
ATOM      7 Cl   UNL d   1      -2.496  -5.333  -5.987  0.00  0.00    -0.070 Cl
ATOM      8 Cl1  UNL d   1      -0.480  -2.777  -5.999  0.00  0.00    -0.070 Cl
ENDROOT
TORSDOF 0
ENDMDL
