MODEL 1
REMARK minimizedAffinity 16.0012589
REMARK minimizedRMSD -1
REMARK  0 active torsions:
REMARK  status: ('A' for Active; 'I' for Inactive)
ROOT
ATOM      1  C   UNL d   1      -2.930  -3.353  -6.000  0.00  0.00     0.020 A 
ATOM      2  C1  UNL d   1      -1.614  -3.812  -5.982  0.00  0.00     0.020 A 
ATOM      3  C2  UNL d   1      -1.104  -4.427  -4.836  0.00  0.00     0.034 A 
ATOM      4  C3  UNL d   1      -1.912  -4.584  -3.704  0.00  0.00     0.017 A 
ATOM      5  C4  UNL d   1      -3.233  -4.123  -3.723  0.00  0.00     0.017 A 
ATOM      6  C5  UNL d   1      -3.738  -3.508  -4.873  0.00  0.00     0.034 A 
ATOM      7 Cl   UNL d   1      -4.289  -4.281  -2.364  0.00  0.00    -0.070 Cl
ATOM      8 Cl1  UNL d   1      -1.216  -5.354  -2.322  0.00  0.00    -0.070 Cl
ENDROOT
TORSDOF 0
ENDMDL
