MODEL 1
REMARK minimizedAffinity 5.80140877
REMARK minimizedRMSD -1
REMARK  0 active torsions:
REMARK  status: ('A' for Active; 'I' for Inactive)
ROOT
ATOM      1  C   UNL d   1      -1.151  -2.044   3.180  0.00  0.00     0.020 A 
ATOM      2  C1  UNL d   1      -0.648  -1.567   1.970  0.00  0.00     0.020 A 
ATOM      3  C2  UNL d   1      -0.155  -2.461   1.018  0.00  0.00     0.034 A 
ATOM      4  C3  UNL d   1      -0.163  -3.837   1.274  0.00  0.00     0.017 A 
ATOM      5  C4  UNL d   1      -0.668  -4.315   2.488  0.00  0.00     0.017 A 
ATOM      6  C5  UNL d   1      -1.161  -3.415   3.438  0.00  0.00     0.034 A 
ATOM      7 Cl   UNL d   1      -0.712  -5.999   2.876  0.00  0.00    -0.070 Cl
ATOM      8 Cl1  UNL d   1       0.462  -4.886   0.051  0.00  0.00    -0.070 Cl
ENDROOT
TORSDOF 0
ENDMDL
