MODEL 1
REMARK minimizedAffinity 12.7521448
REMARK minimizedRMSD -1
REMARK  0 active torsions:
REMARK  status: ('A' for Active; 'I' for Inactive)
ROOT
ATOM      1  C   UNL d   1       2.015  -1.144  -5.933  0.00  0.00     0.020 A 
ATOM      2  C1  UNL d   1       2.066  -2.536  -5.995  0.00  0.00     0.020 A 
ATOM      3  C2  UNL d   1       3.287  -3.197  -5.849  0.00  0.00     0.034 A 
ATOM      4  C3  UNL d   1       4.462  -2.467  -5.641  0.00  0.00     0.017 A 
ATOM      5  C4  UNL d   1       4.411  -1.070  -5.578  0.00  0.00     0.017 A 
ATOM      6  C5  UNL d   1       3.185  -0.412  -5.725  0.00  0.00     0.034 A 
ATOM      7 Cl   UNL d   1       5.819  -0.101  -5.323  0.00  0.00    -0.070 Cl
ATOM      8 Cl1  UNL d   1       5.937  -3.351  -5.468  0.00  0.00    -0.070 Cl
ENDROOT
TORSDOF 0
ENDMDL
