MODEL 1
REMARK minimizedAffinity 12.5065603
REMARK minimizedRMSD -1
REMARK  0 active torsions:
REMARK  status: ('A' for Active; 'I' for Inactive)
ROOT
ATOM      1  C   UNL d   1       3.550   0.069   2.782  0.00  0.00     0.020 A 
ATOM      2  C1  UNL d   1       3.031   0.354   1.519  0.00  0.00     0.020 A 
ATOM      3  C2  UNL d   1       1.899   1.162   1.395  0.00  0.00     0.034 A 
ATOM      4  C3  UNL d   1       1.282   1.688   2.536  0.00  0.00     0.017 A 
ATOM      5  C4  UNL d   1       1.803   1.402   3.803  0.00  0.00     0.017 A 
ATOM      6  C5  UNL d   1       2.937   0.592   3.921  0.00  0.00     0.034 A 
ATOM      7 Cl   UNL d   1       1.097   2.016   5.256  0.00  0.00    -0.070 Cl
ATOM      8 Cl1  UNL d   1      -0.114   2.681   2.309  0.00  0.00    -0.070 Cl
ENDROOT
TORSDOF 0
ENDMDL
