MODEL 1
REMARK minimizedAffinity -1.0934341
REMARK minimizedRMSD -1
REMARK  0 active torsions:
REMARK  status: ('A' for Active; 'I' for Inactive)
ROOT
ATOM      1  C   UNL d   1       3.993   0.256  -5.208  0.00  0.00     0.020 A 
ATOM      2  C1  UNL d   1       5.383   0.369  -5.214  0.00  0.00     0.020 A 
ATOM      3  C2  UNL d   1       5.982   1.606  -5.461  0.00  0.00     0.034 A 
ATOM      4  C3  UNL d   1       5.191   2.735  -5.702  0.00  0.00     0.017 A 
ATOM      5  C4  UNL d   1       3.796   2.621  -5.696  0.00  0.00     0.017 A 
ATOM      6  C5  UNL d   1       3.202   1.380  -5.448  0.00  0.00     0.034 A 
ATOM      7 Cl   UNL d   1       2.754   3.969  -5.986  0.00  0.00    -0.070 Cl
ATOM      8 Cl1  UNL d   1       5.999   4.233  -6.000  0.00  0.00    -0.070 Cl
ENDROOT
TORSDOF 0
ENDMDL
