MODEL 1
REMARK minimizedAffinity 15.8272696
REMARK minimizedRMSD -1
REMARK  0 active torsions:
REMARK  status: ('A' for Active; 'I' for Inactive)
ROOT
ATOM      1  C   UNL d   1      -5.105  -2.428  -5.801  0.00  0.00     0.020 A 
ATOM      2  C1  UNL d   1      -4.320  -1.275  -5.797  0.00  0.00     0.020 A 
ATOM      3  C2  UNL d   1      -2.929  -1.379  -5.855  0.00  0.00     0.034 A 
ATOM      4  C3  UNL d   1      -2.318  -2.637  -5.917  0.00  0.00     0.017 A 
ATOM      5  C4  UNL d   1      -3.107  -3.793  -5.921  0.00  0.00     0.017 A 
ATOM      6  C5  UNL d   1      -4.500  -3.683  -5.863  0.00  0.00     0.034 A 
ATOM      7 Cl   UNL d   1      -2.426  -5.379  -5.995  0.00  0.00    -0.070 Cl
ATOM      8 Cl1  UNL d   1      -0.592  -2.689  -5.987  0.00  0.00    -0.070 Cl
ENDROOT
TORSDOF 0
ENDMDL
