MODEL 1
REMARK minimizedAffinity 4.06067467
REMARK minimizedRMSD -1
REMARK  0 active torsions:
REMARK  status: ('A' for Active; 'I' for Inactive)
ROOT
ATOM      1  C   UNL d   1      -2.769  -5.255   4.838  0.00  0.00     0.020 A 
ATOM      2  C1  UNL d   1      -1.595  -5.644   4.193  0.00  0.00     0.020 A 
ATOM      3  C2  UNL d   1      -0.840  -4.703   3.490  0.00  0.00     0.034 A 
ATOM      4  C3  UNL d   1      -1.258  -3.368   3.429  0.00  0.00     0.017 A 
ATOM      5  C4  UNL d   1      -2.437  -2.979   4.076  0.00  0.00     0.017 A 
ATOM      6  C5  UNL d   1      -3.188  -3.925   4.780  0.00  0.00     0.034 A 
ATOM      7 Cl   UNL d   1      -3.016  -1.351   4.046  0.00  0.00    -0.070 Cl
ATOM      8 Cl1  UNL d   1      -0.276  -2.258   2.541  0.00  0.00    -0.070 Cl
ENDROOT
TORSDOF 0
ENDMDL
