MODEL 1
REMARK minimizedAffinity 13.1574345
REMARK minimizedRMSD -1
REMARK  0 active torsions:
REMARK  status: ('A' for Active; 'I' for Inactive)
ROOT
ATOM      1  C   UNL d   1      -1.000  -0.879   2.587  0.00  0.00     0.020 A 
ATOM      2  C1  UNL d   1      -1.847  -0.981   3.690  0.00  0.00     0.020 A 
ATOM      3  C2  UNL d   1      -2.243  -2.237   4.153  0.00  0.00     0.034 A 
ATOM      4  C3  UNL d   1      -1.793  -3.398   3.513  0.00  0.00     0.017 A 
ATOM      5  C4  UNL d   1      -0.942  -3.295   2.406  0.00  0.00     0.017 A 
ATOM      6  C5  UNL d   1      -0.549  -2.034   1.947  0.00  0.00     0.034 A 
ATOM      7 Cl   UNL d   1      -0.345  -4.681   1.564  0.00  0.00    -0.070 Cl
ATOM      8 Cl1  UNL d   1      -2.322  -4.918   4.140  0.00  0.00    -0.070 Cl
ENDROOT
TORSDOF 0
ENDMDL
