MODEL 1
REMARK minimizedAffinity 10.6590519
REMARK minimizedRMSD -1
REMARK  0 active torsions:
REMARK  status: ('A' for Active; 'I' for Inactive)
ROOT
ATOM      1  C   UNL d   1       1.758   1.093   3.707  0.00  0.00     0.020 A 
ATOM      2  C1  UNL d   1       2.738   0.140   3.982  0.00  0.00     0.020 A 
ATOM      3  C2  UNL d   1       3.522  -0.374   2.947  0.00  0.00     0.034 A 
ATOM      4  C3  UNL d   1       3.328   0.064   1.632  0.00  0.00     0.017 A 
ATOM      5  C4  UNL d   1       2.344   1.020   1.357  0.00  0.00     0.017 A 
ATOM      6  C5  UNL d   1       1.562   1.532   2.397  0.00  0.00     0.034 A 
ATOM      7 Cl   UNL d   1       2.045   1.610  -0.240  0.00  0.00    -0.070 Cl
ATOM      8 Cl1  UNL d   1       4.334  -0.615   0.402  0.00  0.00    -0.070 Cl
ENDROOT
TORSDOF 0
ENDMDL
