MODEL 1
REMARK minimizedAffinity 10.7977982
REMARK minimizedRMSD -1
REMARK  0 active torsions:
REMARK  status: ('A' for Active; 'I' for Inactive)
ROOT
ATOM      1  C   UNL d   1       2.793   0.427   3.901  0.00  0.00     0.020 A 
ATOM      2  C1  UNL d   1       2.166   1.531   4.476  0.00  0.00     0.020 A 
ATOM      3  C2  UNL d   1       1.353   2.357   3.696  0.00  0.00     0.034 A 
ATOM      4  C3  UNL d   1       1.165   2.079   2.337  0.00  0.00     0.017 A 
ATOM      5  C4  UNL d   1       1.795   0.969   1.761  0.00  0.00     0.017 A 
ATOM      6  C5  UNL d   1       2.608   0.146   2.547  0.00  0.00     0.034 A 
ATOM      7 Cl   UNL d   1       1.610   0.562   0.092  0.00  0.00    -0.070 Cl
ATOM      8 Cl1  UNL d   1       0.146   3.142   1.433  0.00  0.00    -0.070 Cl
ENDROOT
TORSDOF 0
ENDMDL
