MODEL 1
REMARK minimizedAffinity 12.8229227
REMARK minimizedRMSD -1
REMARK  0 active torsions:
REMARK  status: ('A' for Active; 'I' for Inactive)
ROOT
ATOM      1  C   UNL d   1      -1.478   2.659   2.405  0.00  0.00     0.020 A 
ATOM      2  C1  UNL d   1      -1.273   3.744   1.553  0.00  0.00     0.020 A 
ATOM      3  C2  UNL d   1      -0.008   3.976   1.010  0.00  0.00     0.034 A 
ATOM      4  C3  UNL d   1       1.058   3.123   1.320  0.00  0.00     0.017 A 
ATOM      5  C4  UNL d   1       0.852   2.035   2.175  0.00  0.00     0.017 A 
ATOM      6  C5  UNL d   1      -0.418   1.807   2.716  0.00  0.00     0.034 A 
ATOM      7 Cl   UNL d   1       2.118   0.939   2.603  0.00  0.00    -0.070 Cl
ATOM      8 Cl1  UNL d   1       2.596   3.470   0.613  0.00  0.00    -0.070 Cl
ENDROOT
TORSDOF 0
ENDMDL
