MODEL 1
REMARK minimizedAffinity 11.0597982
REMARK minimizedRMSD -1
REMARK  0 active torsions:
REMARK  status: ('A' for Active; 'I' for Inactive)
ROOT
ATOM      1  C   UNL d   1       3.203   1.885  -3.128  0.00  0.00     0.020 A 
ATOM      2  C1  UNL d   1       4.570   1.793  -2.869  0.00  0.00     0.020 A 
ATOM      3  C2  UNL d   1       5.356   0.882  -3.578  0.00  0.00     0.034 A 
ATOM      4  C3  UNL d   1       4.775   0.059  -4.549  0.00  0.00     0.017 A 
ATOM      5  C4  UNL d   1       3.403   0.151  -4.809  0.00  0.00     0.017 A 
ATOM      6  C5  UNL d   1       2.621   1.065  -4.096  0.00  0.00     0.034 A 
ATOM      7 Cl   UNL d   1       2.615  -0.831  -5.992  0.00  0.00    -0.070 Cl
ATOM      8 Cl1  UNL d   1       5.807  -1.045  -5.388  0.00  0.00    -0.070 Cl
ENDROOT
TORSDOF 0
ENDMDL
