MODEL 1
REMARK minimizedAffinity -5.00707006
REMARK minimizedRMSD -1
REMARK  0 active torsions:
REMARK  status: ('A' for Active; 'I' for Inactive)
ROOT
ATOM      1  C1  DEN d   1      -0.605  -0.016  -0.723  0.00  0.00     0.130 A 
ATOM      2  C2  DEN d   1       0.838   0.197  -0.804  0.00  0.00    -0.031 A 
ATOM      3  C3  DEN d   1       1.364   0.283   0.573  0.00  0.00     0.027 A 
ATOM      4  C4  DEN d   1       0.093   0.104   2.810  0.00  0.00     0.027 A 
ATOM      5  C5  DEN d   1      -1.146  -0.064   3.387  0.00  0.00    -0.003 A 
ATOM      6  C6  DEN d   1      -2.288  -0.193   2.640  0.00  0.00     0.001 A 
ATOM      7  C7  DEN d   1      -2.207  -0.201   1.273  0.00  0.00     0.017 A 
ATOM      8  C8  DEN d   1      -0.961  -0.024   0.684  0.00  0.00    -0.094 A 
ATOM      9  C9  DEN d   1       0.182   0.092   1.456  0.00  0.00    -0.072 A 
ENDROOT
TORSDOF 0
ENDMDL
