MODEL 1
REMARK minimizedAffinity -3.2428441
REMARK minimizedRMSD -1
REMARK  0 active torsions:
REMARK  status: ('A' for Active; 'I' for Inactive)
ROOT
ATOM      1  C1  DEN d   1      -1.888  -0.753   2.259  0.00  0.00     0.130 A 
ATOM      2  C2  DEN d   1      -1.468   0.187   3.296  0.00  0.00    -0.031 A 
ATOM      3  C3  DEN d   1      -0.366   1.005   2.750  0.00  0.00     0.027 A 
ATOM      4  C4  DEN d   1       0.721   0.912   0.413  0.00  0.00     0.027 A 
ATOM      5  C5  DEN d   1       0.710   0.270  -0.805  0.00  0.00    -0.003 A 
ATOM      6  C6  DEN d   1      -0.138  -0.772  -1.074  0.00  0.00     0.001 A 
ATOM      7  C7  DEN d   1      -1.041  -1.174  -0.126  0.00  0.00     0.017 A 
ATOM      8  C8  DEN d   1      -1.031  -0.536   1.108  0.00  0.00    -0.094 A 
ATOM      9  C9  DEN d   1      -0.175   0.524   1.356  0.00  0.00    -0.072 A 
ENDROOT
TORSDOF 0
ENDMDL
