MODEL 1
REMARK minimizedAffinity -6.59811306
REMARK minimizedRMSD -1
REMARK  0 active torsions:
REMARK  status: ('A' for Active; 'I' for Inactive)
ROOT
ATOM      1  C1  DEN d   1      -0.694   0.087  -0.914  0.00  0.00     0.130 A 
ATOM      2  C2  DEN d   1       0.763   0.158  -0.845  0.00  0.00    -0.031 A 
ATOM      3  C3  DEN d   1       1.159   0.050   0.574  0.00  0.00     0.027 A 
ATOM      4  C4  DEN d   1      -0.335  -0.222   2.659  0.00  0.00     0.027 A 
ATOM      5  C5  DEN d   1      -1.635  -0.320   3.103  0.00  0.00    -0.003 A 
ATOM      6  C6  DEN d   1      -2.705  -0.255   2.251  0.00  0.00     0.001 A 
ATOM      7  C7  DEN d   1      -2.492  -0.133   0.903  0.00  0.00     0.017 A 
ATOM      8  C8  DEN d   1      -1.185  -0.027   0.448  0.00  0.00    -0.094 A 
ATOM      9  C9  DEN d   1      -0.116  -0.107   1.325  0.00  0.00    -0.072 A 
ENDROOT
TORSDOF 0
ENDMDL
