MODEL 1
REMARK minimizedAffinity -6.14558315
REMARK minimizedRMSD -1
REMARK  0 active torsions:
REMARK  status: ('A' for Active; 'I' for Inactive)
ROOT
ATOM      1  C1  DEN d   1      -1.041   0.280  -0.745  0.00  0.00     0.130 A 
ATOM      2  C2  DEN d   1       0.324  -0.227  -0.846  0.00  0.00    -0.031 A 
ATOM      3  C3  DEN d   1       0.765  -0.624   0.507  0.00  0.00     0.027 A 
ATOM      4  C4  DEN d   1      -0.529  -0.506   2.735  0.00  0.00     0.027 A 
ATOM      5  C5  DEN d   1      -1.717  -0.137   3.324  0.00  0.00    -0.003 A 
ATOM      6  C6  DEN d   1      -2.743   0.424   2.611  0.00  0.00     0.001 A 
ATOM      7  C7  DEN d   1      -2.616   0.591   1.257  0.00  0.00     0.017 A 
ATOM      8  C8  DEN d   1      -1.418   0.228   0.657  0.00  0.00    -0.094 A 
ATOM      9  C9  DEN d   1      -0.397  -0.350   1.393  0.00  0.00    -0.072 A 
ENDROOT
TORSDOF 0
ENDMDL
