MODEL 1
REMARK minimizedAffinity -4.16328669
REMARK minimizedRMSD -1
REMARK  0 active torsions:
REMARK  status: ('A' for Active; 'I' for Inactive)
ROOT
ATOM      1  C1  DEN d   1      -2.652   0.054   2.146  0.00  0.00     0.130 A 
ATOM      2  C2  DEN d   1      -1.938  -0.101   3.410  0.00  0.00    -0.031 A 
ATOM      3  C3  DEN d   1      -0.490  -0.086   3.120  0.00  0.00     0.027 A 
ATOM      4  C4  DEN d   1       0.709   0.165   0.850  0.00  0.00     0.027 A 
ATOM      5  C5  DEN d   1       0.523   0.312  -0.507  0.00  0.00    -0.003 A 
ATOM      6  C6  DEN d   1      -0.723   0.349  -1.074  0.00  0.00     0.001 A 
ATOM      7  C7  DEN d   1      -1.834   0.283  -0.275  0.00  0.00     0.017 A 
ATOM      8  C8  DEN d   1      -1.655   0.127   1.093  0.00  0.00    -0.094 A 
ATOM      9  C9  DEN d   1      -0.387   0.104   1.648  0.00  0.00    -0.072 A 
ENDROOT
TORSDOF 0
ENDMDL
