MODEL 1
REMARK minimizedAffinity -6.28547764
REMARK minimizedRMSD -1
REMARK  0 active torsions:
REMARK  status: ('A' for Active; 'I' for Inactive)
ROOT
ATOM      1  C1  DEN d   1       0.754  -0.167   0.444  0.00  0.00     0.130 A 
ATOM      2  C2  DEN d   1       0.323   0.262  -0.884  0.00  0.00    -0.031 A 
ATOM      3  C3  DEN d   1      -1.132   0.508  -0.835  0.00  0.00     0.027 A 
ATOM      4  C4  DEN d   1      -2.751   0.272   1.159  0.00  0.00     0.027 A 
ATOM      5  C5  DEN d   1      -2.851  -0.075   2.489  0.00  0.00    -0.003 A 
ATOM      6  C6  DEN d   1      -1.772  -0.505   3.215  0.00  0.00     0.001 A 
ATOM      7  C7  DEN d   1      -0.536  -0.558   2.627  0.00  0.00     0.017 A 
ATOM      8  C8  DEN d   1      -0.428  -0.217   1.285  0.00  0.00    -0.094 A 
ATOM      9  C9  DEN d   1      -1.528   0.228   0.572  0.00  0.00    -0.072 A 
ENDROOT
TORSDOF 0
ENDMDL
