MODEL 1
REMARK minimizedAffinity -2.50541568
REMARK minimizedRMSD -1
REMARK  0 active torsions:
REMARK  status: ('A' for Active; 'I' for Inactive)
ROOT
ATOM      1  C1  DEN d   1      -0.765   0.004  -0.152  0.00  0.00     0.130 A 
ATOM      2  C2  DEN d   1       0.305   0.605   0.639  0.00  0.00    -0.031 A 
ATOM      3  C3  DEN d   1       1.530   0.619  -0.186  0.00  0.00     0.027 A 
ATOM      4  C4  DEN d   1       1.870  -0.224  -2.600  0.00  0.00     0.027 A 
ATOM      5  C5  DEN d   1       1.255  -0.824  -3.676  0.00  0.00    -0.003 A 
ATOM      6  C6  DEN d   1      -0.057  -1.218  -3.642  0.00  0.00     0.001 A 
ATOM      7  C7  DEN d   1      -0.809  -0.975  -2.523  0.00  0.00     0.017 A 
ATOM      8  C8  DEN d   1      -0.194  -0.377  -1.431  0.00  0.00    -0.094 A 
ATOM      9  C9  DEN d   1       1.129   0.025  -1.490  0.00  0.00    -0.072 A 
ENDROOT
TORSDOF 0
ENDMDL
