MODEL 1
REMARK minimizedAffinity -6.01560545
REMARK minimizedRMSD -1
REMARK  0 active torsions:
REMARK  status: ('A' for Active; 'I' for Inactive)
ROOT
ATOM      1  C1  DEN d   1      -1.962   0.265   2.663  0.00  0.00     0.130 A 
ATOM      2  C2  DEN d   1      -3.012   0.252   1.649  0.00  0.00    -0.031 A 
ATOM      3  C3  DEN d   1      -2.366   0.296   0.321  0.00  0.00     0.027 A 
ATOM      4  C4  DEN d   1       0.146   0.379  -0.258  0.00  0.00     0.027 A 
ATOM      5  C5  DEN d   1       1.418   0.419   0.268  0.00  0.00    -0.003 A 
ATOM      6  C6  DEN d   1       1.651   0.444   1.617  0.00  0.00     0.001 A 
ATOM      7  C7  DEN d   1       0.595   0.385   2.489  0.00  0.00     0.017 A 
ATOM      8  C8  DEN d   1      -0.691   0.352   1.966  0.00  0.00    -0.094 A 
ATOM      9  C9  DEN d   1      -0.904   0.314   0.599  0.00  0.00    -0.072 A 
ENDROOT
TORSDOF 0
ENDMDL
