MODEL 1
REMARK minimizedAffinity -5.4936986
REMARK minimizedRMSD -1
REMARK  0 active torsions:
REMARK  status: ('A' for Active; 'I' for Inactive)
ROOT
ATOM      1  C1  DEN d   1       1.186   0.121   0.323  0.00  0.00     0.130 A 
ATOM      2  C2  DEN d   1       0.488   0.412  -0.926  0.00  0.00    -0.031 A 
ATOM      3  C3  DEN d   1      -0.963   0.302  -0.674  0.00  0.00     0.027 A 
ATOM      4  C4  DEN d   1      -2.189  -0.281   1.519  0.00  0.00     0.027 A 
ATOM      5  C5  DEN d   1      -2.021  -0.619   2.844  0.00  0.00    -0.003 A 
ATOM      6  C6  DEN d   1      -0.781  -0.765   3.408  0.00  0.00     0.001 A 
ATOM      7  C7  DEN d   1       0.339  -0.530   2.656  0.00  0.00     0.017 A 
ATOM      8  C8  DEN d   1       0.177  -0.196   1.318  0.00  0.00    -0.094 A 
ATOM      9  C9  DEN d   1      -1.084  -0.041   0.769  0.00  0.00    -0.072 A 
ENDROOT
TORSDOF 0
ENDMDL
