MODEL 1
REMARK minimizedAffinity -6.98818684
REMARK minimizedRMSD -1
REMARK  0 active torsions:
REMARK  status: ('A' for Active; 'I' for Inactive)
ROOT
ATOM      1  C1  DEN d   1      -0.664   0.275  -0.679  0.00  0.00     0.130 A 
ATOM      2  C2  DEN d   1       0.796   0.251  -0.693  0.00  0.00    -0.031 A 
ATOM      3  C3  DEN d   1       1.262   0.011   0.687  0.00  0.00     0.027 A 
ATOM      4  C4  DEN d   1      -0.128  -0.329   2.833  0.00  0.00     0.027 A 
ATOM      5  C5  DEN d   1      -1.405  -0.382   3.347  0.00  0.00    -0.003 A 
ATOM      6  C6  DEN d   1      -2.514  -0.186   2.567  0.00  0.00     0.001 A 
ATOM      7  C7  DEN d   1      -2.369   0.026   1.221  0.00  0.00     0.017 A 
ATOM      8  C8  DEN d   1      -1.085   0.087   0.697  0.00  0.00    -0.094 A 
ATOM      9  C9  DEN d   1       0.023  -0.125   1.500  0.00  0.00    -0.072 A 
ENDROOT
TORSDOF 0
ENDMDL
