MODEL 1
REMARK minimizedAffinity -4.15341234
REMARK minimizedRMSD -1
REMARK  0 active torsions:
REMARK  status: ('A' for Active; 'I' for Inactive)
ROOT
ATOM      1  N1  IND d   1       0.174   1.156   0.186  0.00  0.00    -0.196 N 
ATOM      2  C2  IND d   1      -0.820   0.231   0.030  0.00  0.00     0.054 A 
ATOM      3  C3  IND d   1      -0.302  -1.017  -0.000  0.00  0.00    -0.031 A 
ATOM      4  C4  IND d   1       2.139  -1.781   0.290  0.00  0.00     0.051 A 
ATOM      5  C5  IND d   1       3.411  -1.298   0.421  0.00  0.00    -0.031 A 
ATOM      6  C6  IND d   1       3.674   0.055   0.485  0.00  0.00     0.015 A 
ATOM      7  C7  IND d   1       2.669   0.979   0.431  0.00  0.00    -0.016 A 
ATOM      8  C8  IND d   1       1.377   0.492   0.290  0.00  0.00    -0.047 A 
ATOM      9  C9  IND d   1       1.108  -0.878   0.182  0.00  0.00    -0.096 A 
ATOM     10  HN1 IND d   1       0.067   2.008   0.213  0.00  0.00     0.298 HD
ENDROOT
TORSDOF 0
ENDMDL
