MODEL 1
REMARK minimizedAffinity -3.30766535
REMARK minimizedRMSD -1
REMARK  0 active torsions:
REMARK  status: ('A' for Active; 'I' for Inactive)
ROOT
ATOM      1  N1  IND d   1      -1.249   1.435   0.362  0.00  0.00    -0.196 N 
ATOM      2  C2  IND d   1      -0.863   0.693  -0.719  0.00  0.00     0.054 A 
ATOM      3  C3  IND d   1      -1.809  -0.225  -1.021  0.00  0.00    -0.031 A 
ATOM      4  C4  IND d   1      -4.112  -0.617   0.060  0.00  0.00     0.051 A 
ATOM      5  C5  IND d   1      -4.896  -0.210   1.104  0.00  0.00    -0.031 A 
ATOM      6  C6  IND d   1      -4.496   0.788   1.969  0.00  0.00     0.015 A 
ATOM      7  C7  IND d   1      -3.299   1.427   1.816  0.00  0.00    -0.016 A 
ATOM      8  C8  IND d   1      -2.498   1.012   0.762  0.00  0.00    -0.047 A 
ATOM      9  C9  IND d   1      -2.879  -0.029  -0.095  0.00  0.00    -0.096 A 
ATOM     10  HN1 IND d   1      -0.789   2.061   0.731  0.00  0.00     0.298 HD
ENDROOT
TORSDOF 0
ENDMDL
