MODEL 1
REMARK minimizedAffinity -3.34567642
REMARK minimizedRMSD -1
REMARK  0 active torsions:
REMARK  status: ('A' for Active; 'I' for Inactive)
ROOT
ATOM      1  N1  IND d   1      -0.163   0.607   1.425  0.00  0.00    -0.196 N 
ATOM      2  C2  IND d   1      -1.131   0.709   0.466  0.00  0.00     0.054 A 
ATOM      3  C3  IND d   1      -0.791  -0.014  -0.625  0.00  0.00    -0.031 A 
ATOM      4  C4  IND d   1       1.259  -1.523  -1.013  0.00  0.00     0.051 A 
ATOM      5  C5  IND d   1       2.438  -1.906  -0.438  0.00  0.00    -0.031 A 
ATOM      6  C6  IND d   1       2.817  -1.464   0.813  0.00  0.00     0.015 A 
ATOM      7  C7  IND d   1       2.022  -0.628   1.544  0.00  0.00    -0.016 A 
ATOM      8  C8  IND d   1       0.827  -0.231   0.962  0.00  0.00    -0.047 A 
ATOM      9  C9  IND d   1       0.457  -0.642  -0.325  0.00  0.00    -0.096 A 
ATOM     10  HN1 IND d   1      -0.171   1.000   2.190  0.00  0.00     0.298 HD
ENDROOT
TORSDOF 0
ENDMDL
