MODEL 1
REMARK minimizedAffinity -4.0044589
REMARK minimizedRMSD -1
REMARK  0 active torsions:
REMARK  status: ('A' for Active; 'I' for Inactive)
ROOT
ATOM      1  N1  IND d   1       0.155  -0.406  -1.460  0.00  0.00    -0.196 N 
ATOM      2  C2  IND d   1      -0.737   0.537  -1.030  0.00  0.00     0.054 A 
ATOM      3  C3  IND d   1      -0.474   0.883   0.250  0.00  0.00    -0.031 A 
ATOM      4  C4  IND d   1       1.432   0.105   1.796  0.00  0.00     0.051 A 
ATOM      5  C5  IND d   1       2.476  -0.775   1.861  0.00  0.00    -0.031 A 
ATOM      6  C6  IND d   1       2.807  -1.592   0.799  0.00  0.00     0.015 A 
ATOM      7  C7  IND d   1       2.111  -1.551  -0.376  0.00  0.00    -0.016 A 
ATOM      8  C8  IND d   1       1.047  -0.663  -0.443  0.00  0.00    -0.047 A 
ATOM      9  C9  IND d   1       0.679   0.138   0.646  0.00  0.00    -0.096 A 
ATOM     10  HN1 IND d   1       0.158  -0.776  -2.237  0.00  0.00     0.298 HD
ENDROOT
TORSDOF 0
ENDMDL
