MODEL 1
REMARK minimizedAffinity -4.72572947
REMARK minimizedRMSD -1
REMARK  0 active torsions:
REMARK  status: ('A' for Active; 'I' for Inactive)
ROOT
ATOM      1  N1  IND d   1       0.522  -2.056  -0.939  0.00  0.00    -0.196 N 
ATOM      2  C2  IND d   1       1.640  -2.476  -0.274  0.00  0.00     0.054 A 
ATOM      3  C3  IND d   1       2.297  -1.420   0.255  0.00  0.00    -0.031 A 
ATOM      4  C4  IND d   1       1.663   1.075   0.241  0.00  0.00     0.051 A 
ATOM      5  C5  IND d   1       0.748   1.951  -0.272  0.00  0.00    -0.031 A 
ATOM      6  C6  IND d   1      -0.312   1.527  -1.047  0.00  0.00     0.015 A 
ATOM      7  C7  IND d   1      -0.504   0.204  -1.330  0.00  0.00    -0.016 A 
ATOM      8  C8  IND d   1       0.427  -0.687  -0.816  0.00  0.00    -0.047 A 
ATOM      9  C9  IND d   1       1.529  -0.259  -0.064  0.00  0.00    -0.096 A 
ATOM     10  HN1 IND d   1      -0.030  -2.562  -1.362  0.00  0.00     0.298 HD
ENDROOT
TORSDOF 0
ENDMDL
