MODEL 1
REMARK minimizedAffinity -3.08779335
REMARK minimizedRMSD -1
REMARK  0 active torsions:
REMARK  status: ('A' for Active; 'I' for Inactive)
ROOT
ATOM      1  N1  IND d   1      -0.526   0.042  -1.183  0.00  0.00    -0.196 N 
ATOM      2  C2  IND d   1      -0.781   1.123  -0.386  0.00  0.00     0.054 A 
ATOM      3  C3  IND d   1       0.014   1.098   0.707  0.00  0.00    -0.031 A 
ATOM      4  C4  IND d   1       1.874  -0.565   1.341  0.00  0.00     0.051 A 
ATOM      5  C5  IND d   1       2.450  -1.739   0.944  0.00  0.00    -0.031 A 
ATOM      6  C6  IND d   1       2.058  -2.391  -0.208  0.00  0.00     0.015 A 
ATOM      7  C7  IND d   1       1.078  -1.885  -1.014  0.00  0.00    -0.016 A 
ATOM      8  C8  IND d   1       0.486  -0.697  -0.610  0.00  0.00    -0.047 A 
ATOM      9  C9  IND d   1       0.850  -0.053   0.579  0.00  0.00    -0.096 A 
ATOM     10  HN1 IND d   1      -0.930  -0.146  -1.919  0.00  0.00     0.298 HD
ENDROOT
TORSDOF 0
ENDMDL
