MODEL 1
REMARK minimizedAffinity -1.93451834
REMARK minimizedRMSD -1
REMARK  0 active torsions:
REMARK  status: ('A' for Active; 'I' for Inactive)
ROOT
ATOM      1  N1  IND d   1       0.855  -1.786  -0.605  0.00  0.00    -0.196 N 
ATOM      2  C2  IND d   1       2.181  -2.082  -0.449  0.00  0.00     0.054 A 
ATOM      3  C3  IND d   1       2.882  -0.962  -0.164  0.00  0.00    -0.031 A 
ATOM      4  C4  IND d   1       2.044   1.446   0.194  0.00  0.00     0.051 A 
ATOM      5  C5  IND d   1       0.918   2.217   0.121  0.00  0.00    -0.031 A 
ATOM      6  C6  IND d   1      -0.312   1.681  -0.201  0.00  0.00     0.015 A 
ATOM      7  C7  IND d   1      -0.465   0.347  -0.453  0.00  0.00    -0.016 A 
ATOM      8  C8  IND d   1       0.678  -0.437  -0.387  0.00  0.00    -0.047 A 
ATOM      9  C9  IND d   1       1.937   0.108  -0.102  0.00  0.00    -0.096 A 
ATOM     10  HN1 IND d   1       0.236  -2.348  -0.805  0.00  0.00     0.298 HD
ENDROOT
TORSDOF 0
ENDMDL
