MODEL 1
REMARK minimizedAffinity -5.6770196
REMARK minimizedRMSD -1
REMARK  0 active torsions:
REMARK  status: ('A' for Active; 'I' for Inactive)
ROOT
ATOM      1  N1  IND d   1       1.141  -2.022   0.807  0.00  0.00    -0.196 N 
ATOM      2  C2  IND d   1       2.477  -2.186   1.046  0.00  0.00     0.054 A 
ATOM      3  C3  IND d   1       3.128  -1.010   0.905  0.00  0.00    -0.031 A 
ATOM      4  C4  IND d   1       2.185   1.329   0.388  0.00  0.00     0.051 A 
ATOM      5  C5  IND d   1       1.027   1.975   0.055  0.00  0.00    -0.031 A 
ATOM      6  C6  IND d   1      -0.177   1.308  -0.043  0.00  0.00     0.015 A 
ATOM      7  C7  IND d   1      -0.270  -0.034   0.200  0.00  0.00    -0.016 A 
ATOM      8  C8  IND d   1       0.905  -0.693   0.531  0.00  0.00    -0.047 A 
ATOM      9  C9  IND d   1       2.137  -0.030   0.591  0.00  0.00    -0.096 A 
ATOM     10  HN1 IND d   1       0.548  -2.644   0.827  0.00  0.00     0.298 HD
ENDROOT
TORSDOF 0
ENDMDL
