MODEL 1
REMARK minimizedAffinity 27.2454891
REMARK minimizedRMSD -1
REMARK  0 active torsions:
REMARK  status: ('A' for Active; 'I' for Inactive)
ROOT
ATOM      1  C   UNL d   1      -5.829   1.926  -3.790  0.00  0.00     0.124 A 
ATOM      2  C1  UNL d   1      -5.890   3.129  -3.101  0.00  0.00     0.062 A 
ATOM      3  C2  UNL d   1      -5.938   3.137  -1.710  0.00  0.00     0.162 A 
ATOM      4  C3  UNL d   1      -5.925   1.937  -0.998  0.00  0.00    -0.034 A 
ATOM      5  C4  UNL d   1      -5.864   0.731  -1.699  0.00  0.00     0.162 A 
ATOM      6  C5  UNL d   1      -5.816   0.729  -3.089  0.00  0.00     0.062 A 
ATOM      7  F   UNL d   1      -5.757  -0.435  -3.754  0.00  0.00    -0.097 F 
ATOM      8  F1  UNL d   1      -5.849  -0.441  -1.046  0.00  0.00    -0.096 F 
ATOM      9  I   UNL d   1      -5.997   1.944   1.082  0.00  0.00    -0.060 I 
ATOM     10  F2  UNL d   1      -5.997   4.314  -1.069  0.00  0.00    -0.096 F 
ATOM     11  F3  UNL d   1      -5.904   4.287  -3.776  0.00  0.00    -0.097 F 
ATOM     12  F4  UNL d   1      -5.784   1.922  -5.129  0.00  0.00    -0.092 F 
ENDROOT
TORSDOF 0
ENDMDL
