MODEL 1
REMARK minimizedAffinity 14.462162
REMARK minimizedRMSD -1
REMARK  0 active torsions:
REMARK  status: ('A' for Active; 'I' for Inactive)
ROOT
ATOM      1  C   UNL d   1       2.152  -1.233   3.177  0.00  0.00     0.124 A 
ATOM      2  C1  UNL d   1       1.857  -2.116   4.206  0.00  0.00     0.062 A 
ATOM      3  C2  UNL d   1       2.876  -2.616   5.012  0.00  0.00     0.162 A 
ATOM      4  C3  UNL d   1       4.199  -2.232   4.794  0.00  0.00    -0.034 A 
ATOM      5  C4  UNL d   1       4.487  -1.344   3.756  0.00  0.00     0.162 A 
ATOM      6  C5  UNL d   1       3.466  -0.848   2.952  0.00  0.00     0.062 A 
ATOM      7  F   UNL d   1       3.752   0.006   1.958  0.00  0.00    -0.097 F 
ATOM      8  F1  UNL d   1       5.749  -0.954   3.517  0.00  0.00    -0.096 F 
ATOM      9  I   UNL d   1       5.725  -2.977   5.997  0.00  0.00    -0.060 I 
ATOM     10  F2  UNL d   1       2.563  -3.468   6.000  0.00  0.00    -0.096 F 
ATOM     11  F3  UNL d   1       0.588  -2.491   4.424  0.00  0.00    -0.097 F 
ATOM     12  F4  UNL d   1       1.170  -0.755   2.402  0.00  0.00    -0.092 F 
ENDROOT
TORSDOF 0
ENDMDL
