MODEL 1
REMARK minimizedAffinity 25.3831005
REMARK minimizedRMSD -1
REMARK  0 active torsions:
REMARK  status: ('A' for Active; 'I' for Inactive)
ROOT
ATOM      1  C   UNL d   1       0.336  -0.879   1.151  0.00  0.00     0.124 A 
ATOM      2  C1  UNL d   1       0.256  -1.737   0.062  0.00  0.00     0.062 A 
ATOM      3  C2  UNL d   1       1.022  -2.898   0.028  0.00  0.00     0.162 A 
ATOM      4  C3  UNL d   1       1.876  -3.209   1.086  0.00  0.00    -0.034 A 
ATOM      5  C4  UNL d   1       1.953  -2.341   2.177  0.00  0.00     0.162 A 
ATOM      6  C5  UNL d   1       1.184  -1.182   2.206  0.00  0.00     0.062 A 
ATOM      7  F   UNL d   1       1.264  -0.355   3.259  0.00  0.00    -0.097 F 
ATOM      8  F1  UNL d   1       2.764  -2.610   3.211  0.00  0.00    -0.096 F 
ATOM      9  I   UNL d   1       3.025  -4.944   1.038  0.00  0.00    -0.060 I 
ATOM     10  F2  UNL d   1       0.924  -3.708  -1.037  0.00  0.00    -0.096 F 
ATOM     11  F3  UNL d   1      -0.562  -1.446  -0.959  0.00  0.00    -0.097 F 
ATOM     12  F4  UNL d   1      -0.402   0.238   1.181  0.00  0.00    -0.092 F 
ENDROOT
TORSDOF 0
ENDMDL
