MODEL 1
REMARK minimizedAffinity 22.7044353
REMARK minimizedRMSD -1
REMARK  0 active torsions:
REMARK  status: ('A' for Active; 'I' for Inactive)
ROOT
ATOM      1  C   UNL d   1       2.026   0.594   4.192  0.00  0.00     0.124 A 
ATOM      2  C1  UNL d   1       1.898  -0.610   3.513  0.00  0.00     0.062 A 
ATOM      3  C2  UNL d   1       2.299  -0.711   2.184  0.00  0.00     0.162 A 
ATOM      4  C3  UNL d   1       2.833   0.396   1.524  0.00  0.00    -0.034 A 
ATOM      5  C4  UNL d   1       2.957   1.604   2.213  0.00  0.00     0.162 A 
ATOM      6  C5  UNL d   1       2.555   1.700   3.541  0.00  0.00     0.062 A 
ATOM      7  F   UNL d   1       2.679   2.864   4.195  0.00  0.00    -0.097 F 
ATOM      8  F1  UNL d   1       3.466   2.688   1.609  0.00  0.00    -0.096 F 
ATOM      9  I   UNL d   1       3.434   0.250  -0.463  0.00  0.00    -0.060 I 
ATOM     10  F2  UNL d   1       2.165  -1.887   1.554  0.00  0.00    -0.096 F 
ATOM     11  F3  UNL d   1       1.387  -1.680   4.140  0.00  0.00    -0.097 F 
ATOM     12  F4  UNL d   1       1.638   0.689   5.470  0.00  0.00    -0.092 F 
ENDROOT
TORSDOF 0
ENDMDL
