MODEL 1
REMARK minimizedAffinity 13.4351931
REMARK minimizedRMSD -1
REMARK  0 active torsions:
REMARK  status: ('A' for Active; 'I' for Inactive)
ROOT
ATOM      1  C   UNL d   1       2.241  -1.442   3.059  0.00  0.00     0.124 A 
ATOM      2  C1  UNL d   1       2.033  -2.274   4.151  0.00  0.00     0.062 A 
ATOM      3  C2  UNL d   1       3.105  -2.659   4.951  0.00  0.00     0.162 A 
ATOM      4  C3  UNL d   1       4.394  -2.211   4.664  0.00  0.00    -0.034 A 
ATOM      5  C4  UNL d   1       4.596  -1.376   3.564  0.00  0.00     0.162 A 
ATOM      6  C5  UNL d   1       3.521  -0.994   2.766  0.00  0.00     0.062 A 
ATOM      7  F   UNL d   1       3.724  -0.191   1.712  0.00  0.00    -0.097 F 
ATOM      8  F1  UNL d   1       5.822  -0.927   3.259  0.00  0.00    -0.096 F 
ATOM      9  I   UNL d   1       5.999  -2.784   5.859  0.00  0.00    -0.060 I 
ATOM     10  F2  UNL d   1       2.875  -3.463   6.000  0.00  0.00    -0.096 F 
ATOM     11  F3  UNL d   1       0.797  -2.709   4.435  0.00  0.00    -0.097 F 
ATOM     12  F4  UNL d   1       1.208  -1.074   2.290  0.00  0.00    -0.092 F 
ENDROOT
TORSDOF 0
ENDMDL
