MODEL 1
REMARK minimizedAffinity 26.342823
REMARK minimizedRMSD -1
REMARK  0 active torsions:
REMARK  status: ('A' for Active; 'I' for Inactive)
ROOT
ATOM      1  C   UNL d   1       1.475  -1.159   0.903  0.00  0.00     0.124 A 
ATOM      2  C1  UNL d   1       0.400  -0.300   1.085  0.00  0.00     0.062 A 
ATOM      3  C2  UNL d   1      -0.794  -0.518   0.403  0.00  0.00     0.162 A 
ATOM      4  C3  UNL d   1      -0.919  -1.601  -0.467  0.00  0.00    -0.034 A 
ATOM      5  C4  UNL d   1       0.166  -2.460  -0.646  0.00  0.00     0.162 A 
ATOM      6  C5  UNL d   1       1.357  -2.237   0.038  0.00  0.00     0.062 A 
ATOM      7  F   UNL d   1       2.395  -3.068  -0.139  0.00  0.00    -0.097 F 
ATOM      8  F1  UNL d   1       0.080  -3.511  -1.475  0.00  0.00    -0.096 F 
ATOM      9  I   UNL d   1      -2.702  -1.930  -1.489  0.00  0.00    -0.060 I 
ATOM     10  F2  UNL d   1      -1.816   0.328   0.598  0.00  0.00    -0.096 F 
ATOM     11  F3  UNL d   1       0.511   0.744   1.919  0.00  0.00    -0.097 F 
ATOM     12  F4  UNL d   1       2.622  -0.946   1.559  0.00  0.00    -0.092 F 
ENDROOT
TORSDOF 0
ENDMDL
