MODEL 1
REMARK minimizedAffinity 22.3103714
REMARK minimizedRMSD -1
REMARK  0 active torsions:
REMARK  status: ('A' for Active; 'I' for Inactive)
ROOT
ATOM      1  C   UNL d   1       0.294   0.418  -0.504  0.00  0.00     0.124 A 
ATOM      2  C1  UNL d   1       1.529  -0.091  -0.127  0.00  0.00     0.062 A 
ATOM      3  C2  UNL d   1       2.284   0.554   0.848  0.00  0.00     0.162 A 
ATOM      4  C3  UNL d   1       1.807   1.716   1.454  0.00  0.00    -0.034 A 
ATOM      5  C4  UNL d   1       0.564   2.223   1.069  0.00  0.00     0.162 A 
ATOM      6  C5  UNL d   1      -0.187   1.574   0.094  0.00  0.00     0.062 A 
ATOM      7  F   UNL d   1      -1.380   2.068  -0.268  0.00  0.00    -0.097 F 
ATOM      8  F1  UNL d   1       0.075   3.338   1.631  0.00  0.00    -0.096 F 
ATOM      9  I   UNL d   1       2.933   2.684   2.911  0.00  0.00    -0.060 I 
ATOM     10  F2  UNL d   1       3.474   0.039   1.192  0.00  0.00    -0.096 F 
ATOM     11  F3  UNL d   1       1.996  -1.208  -0.704  0.00  0.00    -0.097 F 
ATOM     12  F4  UNL d   1      -0.431  -0.204  -1.442  0.00  0.00    -0.092 F 
ENDROOT
TORSDOF 0
ENDMDL
