MODEL 1
REMARK minimizedAffinity 6.15719509
REMARK minimizedRMSD -1
REMARK  0 active torsions:
REMARK  status: ('A' for Active; 'I' for Inactive)
ROOT
ATOM      1  C   UNL d   1      -3.282  -5.997  -4.892  0.00  0.00     0.172 C 
ATOM      2  N   UNL d   1      -2.592  -5.439  -3.753  0.00  0.00    -0.070 N 
ATOM      3  C1  UNL d   1      -1.517  -6.000  -3.118  0.00  0.00    -0.004 A 
ATOM      4  C2  UNL d   1      -1.153  -5.163  -2.085  0.00  0.00    -0.047 A 
ATOM      5  C3  UNL d   1      -2.041  -4.062  -2.099  0.00  0.00    -0.047 A 
ATOM      6  C4  UNL d   1      -2.922  -4.258  -3.142  0.00  0.00    -0.004 A 
ENDROOT
TORSDOF 0
ENDMDL
