MODEL 1
REMARK minimizedAffinity 2.43650866
REMARK minimizedRMSD -1
REMARK  0 active torsions:
REMARK  status: ('A' for Active; 'I' for Inactive)
ROOT
ATOM      1  C   UNL d   1       2.791   0.002  -0.742  0.00  0.00     0.172 C 
ATOM      2  N   UNL d   1       4.093   0.625  -0.737  0.00  0.00    -0.070 N 
ATOM      3  C1  UNL d   1       4.804   0.980   0.379  0.00  0.00    -0.004 A 
ATOM      4  C2  UNL d   1       5.991   1.541  -0.038  0.00  0.00    -0.047 A 
ATOM      5  C3  UNL d   1       5.995   1.524  -1.453  0.00  0.00    -0.047 A 
ATOM      6  C4  UNL d   1       4.808   0.951  -1.859  0.00  0.00    -0.004 A 
ENDROOT
TORSDOF 0
ENDMDL
