MODEL 1
REMARK minimizedAffinity 3.52283812
REMARK minimizedRMSD -1
REMARK  0 active torsions:
REMARK  status: ('A' for Active; 'I' for Inactive)
ROOT
ATOM      1  C   UNL d   1       3.195  -2.213  -1.567  0.00  0.00     0.172 C 
ATOM      2  N   UNL d   1       3.614  -0.886  -1.180  0.00  0.00    -0.070 N 
ATOM      3  C1  UNL d   1       3.276  -0.250  -0.016  0.00  0.00    -0.004 A 
ATOM      4  C2  UNL d   1       3.873   0.992  -0.025  0.00  0.00    -0.047 A 
ATOM      5  C3  UNL d   1       4.594   1.106  -1.237  0.00  0.00    -0.047 A 
ATOM      6  C4  UNL d   1       4.417  -0.070  -1.933  0.00  0.00    -0.004 A 
ENDROOT
TORSDOF 0
ENDMDL
