MODEL 1
REMARK minimizedAffinity 0.0697930604
REMARK minimizedRMSD -1
REMARK  0 active torsions:
REMARK  status: ('A' for Active; 'I' for Inactive)
ROOT
ATOM      1  C   UNL d   1       3.392  -2.167   0.036  0.00  0.00     0.172 C 
ATOM      2  N   UNL d   1       4.040  -0.894  -0.177  0.00  0.00    -0.070 N 
ATOM      3  C1  UNL d   1       3.507   0.169  -0.856  0.00  0.00    -0.004 A 
ATOM      4  C2  UNL d   1       4.433   1.190  -0.836  0.00  0.00    -0.047 A 
ATOM      5  C3  UNL d   1       5.562   0.723  -0.122  0.00  0.00    -0.047 A 
ATOM      6  C4  UNL d   1       5.291  -0.569   0.275  0.00  0.00    -0.004 A 
ENDROOT
TORSDOF 0
ENDMDL
