MODEL 1
REMARK minimizedAffinity 2.66770148
REMARK minimizedRMSD -1
REMARK  0 active torsions:
REMARK  status: ('A' for Active; 'I' for Inactive)
ROOT
ATOM      1  C   UNL d   1       3.375  -1.580  -0.376  0.00  0.00     0.172 C 
ATOM      2  N   UNL d   1       4.219  -0.433  -0.615  0.00  0.00    -0.070 N 
ATOM      3  C1  UNL d   1       5.565  -0.367  -0.371  0.00  0.00    -0.004 A 
ATOM      4  C2  UNL d   1       5.998   0.891  -0.730  0.00  0.00    -0.047 A 
ATOM      5  C3  UNL d   1       4.874   1.606  -1.206  0.00  0.00    -0.047 A 
ATOM      6  C4  UNL d   1       3.786   0.763  -1.123  0.00  0.00    -0.004 A 
ENDROOT
TORSDOF 0
ENDMDL
