MODEL 1
REMARK minimizedAffinity 3.20775127
REMARK minimizedRMSD -1
REMARK  0 active torsions:
REMARK  status: ('A' for Active; 'I' for Inactive)
ROOT
ATOM      1  C   UNL d   1       5.601   2.670   0.454  0.00  0.00     0.172 C 
ATOM      2  N   UNL d   1       5.699   3.865  -0.351  0.00  0.00    -0.070 N 
ATOM      3  C1  UNL d   1       5.509   3.932  -1.706  0.00  0.00    -0.004 A 
ATOM      4  C2  UNL d   1       5.689   5.242  -2.093  0.00  0.00    -0.047 A 
ATOM      5  C3  UNL d   1       6.000   5.988  -0.931  0.00  0.00    -0.047 A 
ATOM      6  C4  UNL d   1       5.999   5.111   0.133  0.00  0.00    -0.004 A 
ENDROOT
TORSDOF 0
ENDMDL
