MODEL 1
REMARK minimizedAffinity 3.57115459
REMARK minimizedRMSD -1
REMARK  0 active torsions:
REMARK  status: ('A' for Active; 'I' for Inactive)
ROOT
ATOM      1  C   UNL d   1       2.538  -0.189  -0.739  0.00  0.00     0.172 C 
ATOM      2  N   UNL d   1       3.867   0.374  -0.695  0.00  0.00    -0.070 N 
ATOM      3  C1  UNL d   1       4.908  -0.093   0.063  0.00  0.00    -0.004 A 
ATOM      4  C2  UNL d   1       5.999   0.714  -0.176  0.00  0.00    -0.047 A 
ATOM      5  C3  UNL d   1       5.600   1.701  -1.108  0.00  0.00    -0.047 A 
ATOM      6  C4  UNL d   1       4.276   1.467  -1.412  0.00  0.00    -0.004 A 
ENDROOT
TORSDOF 0
ENDMDL
