MODEL 1
REMARK minimizedAffinity 1.49662936
REMARK minimizedRMSD -1
REMARK  1 active torsions:
REMARK  status: ('A' for Active; 'I' for Inactive)
REMARK    1  A    between atoms: C1_2  and  C2_3 
ROOT
ATOM      1  C2  UNL d   1       1.365   3.786  -0.752  0.00  0.00    -0.077 A 
ATOM      2  C3  UNL d   1       0.120   3.344  -0.284  0.00  0.00     0.002 A 
ATOM      3  C4  UNL d   1       0.031   2.202   0.515  0.00  0.00     0.002 A 
ATOM      4  C5  UNL d   1       1.182   1.496   0.856  0.00  0.00    -0.004 A 
ATOM      5  C6  UNL d   1       2.425   1.927   0.393  0.00  0.00     0.002 A 
ATOM      6  C7  UNL d   1       2.517   3.067  -0.406  0.00  0.00     0.002 A 
ENDROOT
BRANCH   1   7
ATOM      7  C1  UNL d   1       1.470   5.044  -1.574  0.00  0.00     0.055 C 
ATOM      8  C   UNL d   1       2.920   5.384  -1.885  0.00  0.00     0.019 C 
ENDBRANCH   1   7
TORSDOF 1
ENDMDL
