MODEL 1
REMARK minimizedAffinity -0.188735351
REMARK minimizedRMSD -1
REMARK  1 active torsions:
REMARK  status: ('A' for Active; 'I' for Inactive)
REMARK    1  A    between atoms: C1_2  and  C2_3 
ROOT
ATOM      1  C2  UNL d   1       0.494  -1.737  -1.961  0.00  0.00    -0.077 A 
ATOM      2  C3  UNL d   1       0.757  -1.464  -0.611  0.00  0.00     0.002 A 
ATOM      3  C4  UNL d   1      -0.288  -1.404   0.313  0.00  0.00     0.002 A 
ATOM      4  C5  UNL d   1      -1.600  -1.621  -0.101  0.00  0.00    -0.004 A 
ATOM      5  C6  UNL d   1      -1.872  -1.892  -1.442  0.00  0.00     0.002 A 
ATOM      6  C7  UNL d   1      -0.829  -1.951  -2.367  0.00  0.00     0.002 A 
ENDROOT
BRANCH   1   7
ATOM      7  C1  UNL d   1       1.624  -1.851  -2.951  0.00  0.00     0.055 C 
ATOM      8  C   UNL d   1       2.413  -3.136  -2.745  0.00  0.00     0.019 C 
ENDBRANCH   1   7
TORSDOF 1
ENDMDL
