MODEL 1
REMARK minimizedAffinity 2.30223536
REMARK minimizedRMSD -1
REMARK  1 active torsions:
REMARK  status: ('A' for Active; 'I' for Inactive)
REMARK    1  A    between atoms: C1_2  and  C2_3 
ROOT
ATOM      1  C2  UNL d   1       1.173  -0.396   1.445  0.00  0.00    -0.077 A 
ATOM      2  C3  UNL d   1       0.925   0.530   0.421  0.00  0.00     0.002 A 
ATOM      3  C4  UNL d   1       1.706   1.681   0.306  0.00  0.00     0.002 A 
ATOM      4  C5  UNL d   1       2.743   1.915   1.207  0.00  0.00    -0.004 A 
ATOM      5  C6  UNL d   1       2.996   1.002   2.229  0.00  0.00     0.002 A 
ATOM      6  C7  UNL d   1       2.215  -0.149   2.347  0.00  0.00     0.002 A 
ENDROOT
BRANCH   1   7
ATOM      7  C1  UNL d   1       0.363  -1.662   1.541  0.00  0.00     0.055 C 
ATOM      8  C   UNL d   1      -1.016  -1.486   0.924  0.00  0.00     0.019 C 
ENDBRANCH   1   7
TORSDOF 1
ENDMDL
