MODEL 1
REMARK minimizedAffinity 0.0711060166
REMARK minimizedRMSD -1
REMARK  1 active torsions:
REMARK  status: ('A' for Active; 'I' for Inactive)
REMARK    1  A    between atoms: C1_2  and  C2_3 
ROOT
ATOM      1  C2  UNL d   1       1.803   1.074   0.939  0.00  0.00    -0.077 A 
ATOM      2  C3  UNL d   1       2.387   0.343   1.983  0.00  0.00     0.002 A 
ATOM      3  C4  UNL d   1       1.795  -0.837   2.437  0.00  0.00     0.002 A 
ATOM      4  C5  UNL d   1       0.619  -1.299   1.850  0.00  0.00    -0.004 A 
ATOM      5  C6  UNL d   1       0.029  -0.579   0.812  0.00  0.00     0.002 A 
ATOM      6  C7  UNL d   1       0.619   0.602   0.358  0.00  0.00     0.002 A 
ENDROOT
BRANCH   1   7
ATOM      7  C1  UNL d   1       2.466   2.321   0.415  0.00  0.00     0.055 C 
ATOM      8  C   UNL d   1       1.818   2.790  -0.880  0.00  0.00     0.019 C 
ENDBRANCH   1   7
TORSDOF 1
ENDMDL
