MODEL 1
REMARK minimizedAffinity 10.3239002
REMARK minimizedRMSD -1
REMARK  1 active torsions:
REMARK  status: ('A' for Active; 'I' for Inactive)
REMARK    1  A    between atoms: C1_2  and  C2_3 
ROOT
ATOM      1  C2  UNL d   1       2.038   0.624   1.819  0.00  0.00    -0.077 A 
ATOM      2  C3  UNL d   1       2.541  -0.297   2.749  0.00  0.00     0.002 A 
ATOM      3  C4  UNL d   1       1.922  -1.536   2.922  0.00  0.00     0.002 A 
ATOM      4  C5  UNL d   1       0.799  -1.867   2.165  0.00  0.00    -0.004 A 
ATOM      5  C6  UNL d   1       0.290  -0.957   1.239  0.00  0.00     0.002 A 
ATOM      6  C7  UNL d   1       0.908   0.283   1.067  0.00  0.00     0.002 A 
ENDROOT
BRANCH   1   7
ATOM      7  C1  UNL d   1       2.734   1.942   1.597  0.00  0.00     0.055 C 
ATOM      8  C   UNL d   1       2.630   2.384   0.145  0.00  0.00     0.019 C 
ENDBRANCH   1   7
TORSDOF 1
ENDMDL
