MODEL 1
REMARK minimizedAffinity -0.247338057
REMARK minimizedRMSD -1
REMARK  1 active torsions:
REMARK  status: ('A' for Active; 'I' for Inactive)
REMARK    1  A    between atoms: C1_2  and  C2_3 
ROOT
ATOM      1  C2  UNL d   1       0.829   0.456   1.171  0.00  0.00    -0.077 A 
ATOM      2  C3  UNL d   1       0.664   1.239   0.020  0.00  0.00     0.002 A 
ATOM      3  C4  UNL d   1       1.675   2.109  -0.393  0.00  0.00     0.002 A 
ATOM      4  C5  UNL d   1       2.859   2.200   0.336  0.00  0.00    -0.004 A 
ATOM      5  C6  UNL d   1       3.032   1.426   1.483  0.00  0.00     0.002 A 
ATOM      6  C7  UNL d   1       2.021   0.558   1.898  0.00  0.00     0.002 A 
ENDROOT
BRANCH   1   7
ATOM      7  C1  UNL d   1      -0.241  -0.518   1.591  0.00  0.00     0.055 C 
ATOM      8  C   UNL d   1       0.365  -1.801   2.141  0.00  0.00     0.019 C 
ENDBRANCH   1   7
TORSDOF 1
ENDMDL
