MODEL 1
REMARK minimizedAffinity 0.91163671
REMARK minimizedRMSD -1
REMARK  1 active torsions:
REMARK  status: ('A' for Active; 'I' for Inactive)
REMARK    1  A    between atoms: C1_2  and  C2_3 
ROOT
ATOM      1  C2  UNL d   1       1.848  -0.273   1.762  0.00  0.00    -0.077 A 
ATOM      2  C3  UNL d   1       2.321  -0.994   2.867  0.00  0.00     0.002 A 
ATOM      3  C4  UNL d   1       1.714  -2.195   3.239  0.00  0.00     0.002 A 
ATOM      4  C5  UNL d   1       0.635  -2.688   2.508  0.00  0.00    -0.004 A 
ATOM      5  C6  UNL d   1       0.156  -1.977   1.408  0.00  0.00     0.002 A 
ATOM      6  C7  UNL d   1       0.761  -0.776   1.036  0.00  0.00     0.002 A 
ENDROOT
BRANCH   1   7
ATOM      7  C1  UNL d   1       2.533   0.997   1.330  0.00  0.00     0.055 C 
ATOM      8  C   UNL d   1       1.567   1.930   0.613  0.00  0.00     0.019 C 
ENDBRANCH   1   7
TORSDOF 1
ENDMDL
