MODEL 1
REMARK minimizedAffinity 0.328958333
REMARK minimizedRMSD -1
REMARK  1 active torsions:
REMARK  status: ('A' for Active; 'I' for Inactive)
REMARK    1  A    between atoms: C1_2  and  C2_3 
ROOT
ATOM      1  C2  UNL d   1       1.487  -1.921   3.019  0.00  0.00    -0.077 A 
ATOM      2  C3  UNL d   1       2.847  -1.916   3.358  0.00  0.00     0.002 A 
ATOM      3  C4  UNL d   1       3.407  -2.993   4.048  0.00  0.00     0.002 A 
ATOM      4  C5  UNL d   1       2.616  -4.084   4.401  0.00  0.00    -0.004 A 
ATOM      5  C6  UNL d   1       1.261  -4.098   4.071  0.00  0.00     0.002 A 
ATOM      6  C7  UNL d   1       0.699  -3.022   3.382  0.00  0.00     0.002 A 
ENDROOT
BRANCH   1   7
ATOM      7  C1  UNL d   1       0.891  -0.783   2.232  0.00  0.00     0.055 C 
ATOM      8  C   UNL d   1       1.957  -0.043   1.437  0.00  0.00     0.019 C 
ENDBRANCH   1   7
TORSDOF 1
ENDMDL
