MODEL 1
REMARK minimizedAffinity 11.1868677
REMARK minimizedRMSD -1
REMARK  2 active torsions:
REMARK  status: ('A' for Active; 'I' for Inactive)
REMARK    1  A    between atoms: C2'_3  and  C1'_4 
REMARK    2  A    between atoms: C1'_4  and  C1_5 
ROOT
ATOM      1  C1  I4B d   1       3.308   0.481  -0.219  0.00  0.00    -0.075 A 
ATOM      2  C2  I4B d   1       4.020   1.160  -1.177  0.00  0.00     0.003 A 
ATOM      3  C3  I4B d   1       4.209   0.592  -2.460  0.00  0.00     0.002 A 
ATOM      4  C4  I4B d   1       3.717  -0.670  -2.725  0.00  0.00    -0.004 A 
ATOM      5  C5  I4B d   1       2.976  -1.346  -1.760  0.00  0.00     0.002 A 
ATOM      6  C6  I4B d   1       2.759  -0.762  -0.503  0.00  0.00     0.003 A 
ENDROOT
BRANCH   1   7
ATOM      7  C1' I4B d   1       3.155   1.096   1.136  0.00  0.00     0.060 C 
BRANCH   7   8
ATOM      8  C2' I4B d   1       4.480   1.727   1.514  0.00  0.00    -0.013 C 
ATOM      9  C4' I4B d   1       4.433   2.299   2.907  0.00  0.00     0.013 C 
ATOM     10  C3' I4B d   1       5.543   0.676   1.396  0.00  0.00     0.013 C 
ENDBRANCH   7   8
ENDBRANCH   1   7
TORSDOF 2
ENDMDL
