MODEL 1
REMARK minimizedAffinity 11.8778143
REMARK minimizedRMSD -1
REMARK  2 active torsions:
REMARK  status: ('A' for Active; 'I' for Inactive)
REMARK    1  A    between atoms: C2'_3  and  C1'_4 
REMARK    2  A    between atoms: C1'_4  and  C1_5 
ROOT
ATOM      1  C1  I4B d   1       2.094   0.408  -0.013  0.00  0.00    -0.075 A 
ATOM      2  C2  I4B d   1       1.106   0.789  -0.886  0.00  0.00     0.003 A 
ATOM      3  C3  I4B d   1      -0.186   1.108  -0.404  0.00  0.00     0.002 A 
ATOM      4  C4  I4B d   1      -0.459   0.984   0.943  0.00  0.00    -0.004 A 
ATOM      5  C5  I4B d   1       0.550   0.619   1.829  0.00  0.00     0.002 A 
ATOM      6  C6  I4B d   1       1.838   0.341   1.350  0.00  0.00     0.003 A 
ENDROOT
BRANCH   1   7
ATOM      7  C1' I4B d   1       3.439   0.046  -0.560  0.00  0.00     0.060 C 
BRANCH   7   8
ATOM      8  C2' I4B d   1       4.243   1.322  -0.704  0.00  0.00    -0.013 C 
ATOM      9  C4' I4B d   1       5.220   1.482   0.431  0.00  0.00     0.013 C 
ATOM     10  C3' I4B d   1       4.950   1.277  -2.026  0.00  0.00     0.013 C 
ENDBRANCH   7   8
ENDBRANCH   1   7
TORSDOF 2
ENDMDL
