MODEL 1
REMARK minimizedAffinity 13.3269873
REMARK minimizedRMSD -1
REMARK  2 active torsions:
REMARK  status: ('A' for Active; 'I' for Inactive)
REMARK    1  A    between atoms: C2'_3  and  C1'_4 
REMARK    2  A    between atoms: C1'_4  and  C1_5 
ROOT
ATOM      1  C1  I4B d   1       1.978   0.022   0.188  0.00  0.00    -0.075 A 
ATOM      2  C2  I4B d   1       1.699   0.197   1.521  0.00  0.00     0.003 A 
ATOM      3  C3  I4B d   1       0.386   0.523   1.937  0.00  0.00     0.002 A 
ATOM      4  C4  I4B d   1      -0.600   0.713   0.991  0.00  0.00    -0.004 A 
ATOM      5  C5  I4B d   1      -0.321   0.513  -0.358  0.00  0.00     0.002 A 
ATOM      6  C6  I4B d   1       0.973   0.153  -0.761  0.00  0.00     0.003 A 
ENDROOT
BRANCH   1   7
ATOM      7  C1' I4B d   1       3.383  -0.290  -0.219  0.00  0.00     0.060 C 
BRANCH   7   8
ATOM      8  C2' I4B d   1       4.216   0.960  -0.018  0.00  0.00    -0.013 C 
ATOM      9  C4' I4B d   1       5.494   0.651   0.717  0.00  0.00     0.013 C 
ATOM     10  C3' I4B d   1       4.496   1.552  -1.366  0.00  0.00     0.013 C 
ENDBRANCH   7   8
ENDBRANCH   1   7
TORSDOF 2
ENDMDL
