MODEL 1
REMARK minimizedAffinity 19.2475758
REMARK minimizedRMSD -1
REMARK  2 active torsions:
REMARK  status: ('A' for Active; 'I' for Inactive)
REMARK    1  A    between atoms: C2'_3  and  C1'_4 
REMARK    2  A    between atoms: C1'_4  and  C1_5 
ROOT
ATOM      1  C1  I4B d   1       4.859   1.332  -0.977  0.00  0.00    -0.075 A 
ATOM      2  C2  I4B d   1       3.695   0.619  -1.119  0.00  0.00     0.003 A 
ATOM      3  C3  I4B d   1       3.617  -0.717  -0.655  0.00  0.00     0.002 A 
ATOM      4  C4  I4B d   1       4.734  -1.312  -0.105  0.00  0.00    -0.004 A 
ATOM      5  C5  I4B d   1       5.906  -0.580   0.059  0.00  0.00     0.002 A 
ATOM      6  C6  I4B d   1       5.966   0.755  -0.368  0.00  0.00     0.003 A 
ENDROOT
BRANCH   1   7
ATOM      7  C1' I4B d   1       4.917   2.729  -1.508  0.00  0.00     0.060 C 
BRANCH   7   8
ATOM      8  C2' I4B d   1       5.912   3.506  -0.670  0.00  0.00    -0.013 C 
ATOM      9  C4' I4B d   1       5.996   4.942  -1.116  0.00  0.00     0.013 C 
ATOM     10  C3' I4B d   1       5.485   3.409   0.764  0.00  0.00     0.013 C 
ENDBRANCH   7   8
ENDBRANCH   1   7
TORSDOF 2
ENDMDL
