MODEL 1
REMARK minimizedAffinity -3.03878641
REMARK minimizedRMSD -1
REMARK  1 active torsions:
REMARK  status: ('A' for Active; 'I' for Inactive)
REMARK    1  A    between atoms: C1_2  and  C2_3 
ROOT
ATOM      1  C2  UNL d   1       0.063   2.350   0.590  0.00  0.00    -0.077 A 
ATOM      2  C3  UNL d   1       0.504   1.256  -0.167  0.00  0.00     0.002 A 
ATOM      3  C4  UNL d   1       0.629  -0.005   0.420  0.00  0.00     0.002 A 
ATOM      4  C5  UNL d   1       0.310  -0.184   1.765  0.00  0.00    -0.004 A 
ATOM      5  C6  UNL d   1      -0.128   0.899   2.527  0.00  0.00     0.002 A 
ATOM      6  C7  UNL d   1      -0.252   2.160   1.942  0.00  0.00     0.002 A 
ENDROOT
BRANCH   1   7
ATOM      7  C1  UNL d   1      -0.120   3.700  -0.054  0.00  0.00     0.055 C 
ATOM      8  C   UNL d   1      -0.170   3.587  -1.570  0.00  0.00     0.019 C 
ENDBRANCH   1   7
TORSDOF 1
ENDMDL
