MODEL 1
REMARK minimizedAffinity -2.57625532
REMARK minimizedRMSD -1
REMARK  1 active torsions:
REMARK  status: ('A' for Active; 'I' for Inactive)
REMARK    1  A    between atoms: C1_2  and  C2_3 
ROOT
ATOM      1  C2  UNL d   1       0.280  -2.077  -0.907  0.00  0.00    -0.077 A 
ATOM      2  C3  UNL d   1      -1.095  -2.352  -0.911  0.00  0.00     0.002 A 
ATOM      3  C4  UNL d   1      -1.552  -3.661  -1.069  0.00  0.00     0.002 A 
ATOM      4  C5  UNL d   1      -0.643  -4.706  -1.221  0.00  0.00    -0.004 A 
ATOM      5  C6  UNL d   1       0.726  -4.442  -1.221  0.00  0.00     0.002 A 
ATOM      6  C7  UNL d   1       1.186  -3.134  -1.064  0.00  0.00     0.002 A 
ENDROOT
BRANCH   1   7
ATOM      7  C1  UNL d   1       0.777  -0.672  -0.687  0.00  0.00     0.055 C 
ATOM      8  C   UNL d   1       0.018   0.014   0.440  0.00  0.00     0.019 C 
ENDBRANCH   1   7
TORSDOF 1
ENDMDL
