MODEL 1
REMARK minimizedAffinity -4.89808989
REMARK minimizedRMSD -1
REMARK  1 active torsions:
REMARK  status: ('A' for Active; 'I' for Inactive)
REMARK    1  A    between atoms: C1_2  and  C2_3 
ROOT
ATOM      1  C2  UNL d   1      -0.001  -1.864  -0.159  0.00  0.00    -0.077 A 
ATOM      2  C3  UNL d   1       0.769  -0.718  -0.402  0.00  0.00     0.002 A 
ATOM      3  C4  UNL d   1       0.672   0.390   0.441  0.00  0.00     0.002 A 
ATOM      4  C5  UNL d   1      -0.190   0.362   1.535  0.00  0.00    -0.004 A 
ATOM      5  C6  UNL d   1      -0.961  -0.773   1.785  0.00  0.00     0.002 A 
ATOM      6  C7  UNL d   1      -0.866  -1.881   0.942  0.00  0.00     0.002 A 
ENDROOT
BRANCH   1   7
ATOM      7  C1  UNL d   1       0.139  -3.079  -1.039  0.00  0.00     0.055 C 
ATOM      8  C   UNL d   1       0.274  -4.349  -0.212  0.00  0.00     0.019 C 
ENDBRANCH   1   7
TORSDOF 1
ENDMDL
