MODEL 1
REMARK minimizedAffinity -1.85574174
REMARK minimizedRMSD -1
REMARK  1 active torsions:
REMARK  status: ('A' for Active; 'I' for Inactive)
REMARK    1  A    between atoms: C1_2  and  C2_3 
ROOT
ATOM      1  C2  UNL d   1       0.960  -3.877  -0.419  0.00  0.00    -0.077 A 
ATOM      2  C3  UNL d   1       0.869  -3.058  -1.554  0.00  0.00     0.002 A 
ATOM      3  C4  UNL d   1      -0.372  -2.790  -2.134  0.00  0.00     0.002 A 
ATOM      4  C5  UNL d   1      -1.532  -3.331  -1.584  0.00  0.00    -0.004 A 
ATOM      5  C6  UNL d   1      -1.452  -4.147  -0.457  0.00  0.00     0.002 A 
ATOM      6  C7  UNL d   1      -0.212  -4.418   0.124  0.00  0.00     0.002 A 
ENDROOT
BRANCH   1   7
ATOM      7  C1  UNL d   1       2.292  -4.128   0.237  0.00  0.00     0.055 C 
ATOM      8  C   UNL d   1       2.433  -5.581   0.665  0.00  0.00     0.019 C 
ENDBRANCH   1   7
TORSDOF 1
ENDMDL
