MODEL 1
REMARK minimizedAffinity -4.45511484
REMARK minimizedRMSD -1
REMARK  1 active torsions:
REMARK  status: ('A' for Active; 'I' for Inactive)
REMARK    1  A    between atoms: C1_2  and  C2_3 
ROOT
ATOM      1  C2  UNL d   1       0.037   1.685   0.378  0.00  0.00    -0.077 A 
ATOM      2  C3  UNL d   1       0.435   0.790   1.381  0.00  0.00     0.002 A 
ATOM      3  C4  UNL d   1       0.872  -0.494   1.050  0.00  0.00     0.002 A 
ATOM      4  C5  UNL d   1       0.920  -0.893  -0.284  0.00  0.00    -0.004 A 
ATOM      5  C6  UNL d   1       0.525  -0.011  -1.289  0.00  0.00     0.002 A 
ATOM      6  C7  UNL d   1       0.086   1.272  -0.960  0.00  0.00     0.002 A 
ENDROOT
BRANCH   1   7
ATOM      7  C1  UNL d   1      -0.388   3.087   0.729  0.00  0.00     0.055 C 
ATOM      8  C   UNL d   1      -0.088   4.057  -0.404  0.00  0.00     0.019 C 
ENDBRANCH   1   7
TORSDOF 1
ENDMDL
