MODEL 1
REMARK minimizedAffinity -0.801068246
REMARK minimizedRMSD -1
REMARK  1 active torsions:
REMARK  status: ('A' for Active; 'I' for Inactive)
REMARK    1  A    between atoms: C1_2  and  C2_3 
ROOT
ATOM      1  C2  UNL d   1      -0.706  -0.694   1.057  0.00  0.00    -0.073 A 
ATOM      2  C3  UNL d   1      -0.366  -0.002   2.225  0.00  0.00    -0.002 A 
ATOM      3  C4  UNL d   1      -1.127   1.089   2.644  0.00  0.00     0.004 A 
ATOM      4  C5  UNL d   1      -2.239   1.495   1.906  0.00  0.00    -0.004 A 
ATOM      5  C6  UNL d   1      -2.602   0.809   0.742  0.00  0.00    -0.075 A 
ATOM      6  C7  UNL d   1      -3.793   1.235  -0.064  0.00  0.00     0.076 C 
ATOM      7  C8  UNL d   1      -1.830  -0.284   0.326  0.00  0.00     0.001 A 
ENDROOT
BRANCH   1   8
ATOM      8  C1  UNL d   1       0.110  -1.877   0.603  0.00  0.00     0.053 C 
ATOM      9  C   UNL d   1       1.402  -1.452  -0.077  0.00  0.00     0.018 C 
ENDBRANCH   1   8
TORSDOF 1
ENDMDL
