MODEL 1
REMARK minimizedAffinity -1.96641934
REMARK minimizedRMSD -1
REMARK  1 active torsions:
REMARK  status: ('A' for Active; 'I' for Inactive)
REMARK    1  A    between atoms: C1_2  and  C2_3 
ROOT
ATOM      1  C2  UNL d   1       2.567  -3.374  -0.138  0.00  0.00    -0.073 A 
ATOM      2  C3  UNL d   1       1.576  -4.070  -0.839  0.00  0.00    -0.002 A 
ATOM      3  C4  UNL d   1       0.237  -3.694  -0.726  0.00  0.00     0.004 A 
ATOM      4  C5  UNL d   1      -0.123  -2.615   0.081  0.00  0.00    -0.004 A 
ATOM      5  C6  UNL d   1       0.854  -1.899   0.780  0.00  0.00    -0.075 A 
ATOM      6  C7  UNL d   1       0.483  -0.737   1.654  0.00  0.00     0.076 C 
ATOM      7  C8  UNL d   1       2.196  -2.285   0.664  0.00  0.00     0.001 A 
ENDROOT
BRANCH   1   8
ATOM      8  C1  UNL d   1       4.015  -3.773  -0.261  0.00  0.00     0.053 C 
ATOM      9  C   UNL d   1       4.251  -5.208   0.183  0.00  0.00     0.018 C 
ENDBRANCH   1   8
TORSDOF 1
ENDMDL
