MODEL 1
REMARK minimizedAffinity -3.53016067
REMARK minimizedRMSD -1
REMARK  1 active torsions:
REMARK  status: ('A' for Active; 'I' for Inactive)
REMARK    1  A    between atoms: C1_2  and  C2_3 
ROOT
ATOM      1  C2  UNL d   1      -0.416  -1.594   0.644  0.00  0.00    -0.073 A 
ATOM      2  C3  UNL d   1      -0.038  -2.818   0.080  0.00  0.00    -0.002 A 
ATOM      3  C4  UNL d   1       1.310  -3.164  -0.014  0.00  0.00     0.004 A 
ATOM      4  C5  UNL d   1       2.293  -2.296   0.461  0.00  0.00    -0.004 A 
ATOM      5  C6  UNL d   1       1.935  -1.074   1.039  0.00  0.00    -0.075 A 
ATOM      6  C7  UNL d   1       2.981  -0.128   1.552  0.00  0.00     0.076 C 
ATOM      7  C8  UNL d   1       0.579  -0.732   1.127  0.00  0.00     0.001 A 
ENDROOT
BRANCH   1   8
ATOM      8  C1  UNL d   1      -1.871  -1.218   0.753  0.00  0.00     0.053 C 
ATOM      9  C   UNL d   1      -2.062   0.133   1.426  0.00  0.00     0.018 C 
ENDBRANCH   1   8
TORSDOF 1
ENDMDL
