MODEL 1
REMARK minimizedAffinity -4.64654016
REMARK minimizedRMSD -1
REMARK  1 active torsions:
REMARK  status: ('A' for Active; 'I' for Inactive)
REMARK    1  A    between atoms: C1_2  and  C2_3 
ROOT
ATOM      1  C2  UNL d   1       2.693  -3.867  -0.235  0.00  0.00    -0.073 A 
ATOM      2  C3  UNL d   1       1.421  -4.261  -0.666  0.00  0.00    -0.002 A 
ATOM      3  C4  UNL d   1       0.343  -3.378  -0.582  0.00  0.00     0.004 A 
ATOM      4  C5  UNL d   1       0.527  -2.092  -0.075  0.00  0.00    -0.004 A 
ATOM      5  C6  UNL d   1       1.793  -1.675   0.349  0.00  0.00    -0.075 A 
ATOM      6  C7  UNL d   1       2.008  -0.295   0.898  0.00  0.00     0.076 C 
ATOM      7  C8  UNL d   1       2.870  -2.568   0.264  0.00  0.00     0.001 A 
ENDROOT
BRANCH   1   8
ATOM      8  C1  UNL d   1       3.861  -4.814  -0.329  0.00  0.00     0.053 C 
ATOM      9  C   UNL d   1       3.896  -5.792   0.834  0.00  0.00     0.018 C 
ENDBRANCH   1   8
TORSDOF 1
ENDMDL
