MODEL 1
REMARK minimizedAffinity 0.0815002099
REMARK minimizedRMSD -1
REMARK  1 active torsions:
REMARK  status: ('A' for Active; 'I' for Inactive)
REMARK    1  A    between atoms: C1_2  and  C2_3 
ROOT
ATOM      1  C2  UNL d   1       1.054  -2.936   0.301  0.00  0.00    -0.073 A 
ATOM      2  C3  UNL d   1      -0.328  -2.751   0.427  0.00  0.00    -0.002 A 
ATOM      3  C4  UNL d   1      -0.841  -1.514   0.819  0.00  0.00     0.004 A 
ATOM      4  C5  UNL d   1       0.020  -0.449   1.084  0.00  0.00    -0.004 A 
ATOM      5  C6  UNL d   1       1.403  -0.611   0.953  0.00  0.00    -0.075 A 
ATOM      6  C7  UNL d   1       2.343   0.524   1.236  0.00  0.00     0.076 C 
ATOM      7  C8  UNL d   1       1.911  -1.857   0.561  0.00  0.00     0.001 A 
ENDROOT
BRANCH   1   8
ATOM      8  C1  UNL d   1       1.612  -4.268  -0.129  0.00  0.00     0.053 C 
ATOM      9  C   UNL d   1       3.131  -4.297  -0.064  0.00  0.00     0.018 C 
ENDBRANCH   1   8
TORSDOF 1
ENDMDL
