MODEL 1
REMARK minimizedAffinity -3.51027966
REMARK minimizedRMSD -1
REMARK  1 active torsions:
REMARK  status: ('A' for Active; 'I' for Inactive)
REMARK    1  A    between atoms: C1_2  and  C2_3 
ROOT
ATOM      1  C2  UNL d   1       0.816  -1.174   0.278  0.00  0.00    -0.073 A 
ATOM      2  C3  UNL d   1       0.766  -0.481   1.492  0.00  0.00    -0.002 A 
ATOM      3  C4  UNL d   1       1.319   0.796   1.598  0.00  0.00     0.004 A 
ATOM      4  C5  UNL d   1       1.921   1.395   0.491  0.00  0.00    -0.004 A 
ATOM      5  C6  UNL d   1       1.970   0.722  -0.734  0.00  0.00    -0.075 A 
ATOM      6  C7  UNL d   1       2.616   1.351  -1.934  0.00  0.00     0.076 C 
ATOM      7  C8  UNL d   1       1.415  -0.561  -0.832  0.00  0.00     0.001 A 
ENDROOT
BRANCH   1   8
ATOM      8  C1  UNL d   1       0.215  -2.551   0.157  0.00  0.00     0.053 C 
ATOM      9  C   UNL d   1       1.279  -3.626   0.005  0.00  0.00     0.018 C 
ENDBRANCH   1   8
TORSDOF 1
ENDMDL
