MODEL 1
REMARK minimizedAffinity -1.86626947
REMARK minimizedRMSD -1
REMARK  1 active torsions:
REMARK  status: ('A' for Active; 'I' for Inactive)
REMARK    1  A    between atoms: C1_2  and  C2_3 
ROOT
ATOM      1  C2  UNL d   1       1.957  -2.310   0.160  0.00  0.00    -0.073 A 
ATOM      2  C3  UNL d   1       1.878  -0.926   0.346  0.00  0.00    -0.002 A 
ATOM      3  C4  UNL d   1       0.649  -0.319   0.607  0.00  0.00     0.004 A 
ATOM      4  C5  UNL d   1      -0.511  -1.090   0.691  0.00  0.00    -0.004 A 
ATOM      5  C6  UNL d   1      -0.450  -2.476   0.520  0.00  0.00    -0.075 A 
ATOM      6  C7  UNL d   1      -1.688  -3.319   0.605  0.00  0.00     0.076 C 
ATOM      7  C8  UNL d   1       0.788  -3.078   0.256  0.00  0.00     0.001 A 
ENDROOT
BRANCH   1   8
ATOM      8  C1  UNL d   1       3.284  -2.971  -0.116  0.00  0.00     0.053 C 
ATOM      9  C   UNL d   1       3.161  -4.484  -0.193  0.00  0.00     0.018 C 
ENDBRANCH   1   8
TORSDOF 1
ENDMDL
