MODEL 1
REMARK minimizedAffinity -3.64314318
REMARK minimizedRMSD -1
REMARK  1 active torsions:
REMARK  status: ('A' for Active; 'I' for Inactive)
REMARK    1  A    between atoms: C1_2  and  C2_3 
ROOT
ATOM      1  C2  UNL d   1       1.755  -2.336   0.043  0.00  0.00    -0.073 A 
ATOM      2  C3  UNL d   1       2.614  -1.405   0.637  0.00  0.00    -0.002 A 
ATOM      3  C4  UNL d   1       2.100  -0.262   1.250  0.00  0.00     0.004 A 
ATOM      4  C5  UNL d   1       0.723  -0.041   1.282  0.00  0.00    -0.004 A 
ATOM      5  C6  UNL d   1      -0.153  -0.966   0.705  0.00  0.00    -0.075 A 
ATOM      6  C7  UNL d   1      -1.636  -0.743   0.729  0.00  0.00     0.076 C 
ATOM      7  C8  UNL d   1       0.371  -2.110   0.089  0.00  0.00     0.001 A 
ENDROOT
BRANCH   1   8
ATOM      8  C1  UNL d   1       2.305  -3.575  -0.614  0.00  0.00     0.053 C 
ATOM      9  C   UNL d   1       3.766  -3.807  -0.262  0.00  0.00     0.018 C 
ENDBRANCH   1   8
TORSDOF 1
ENDMDL
