MODEL 1
REMARK minimizedAffinity 1.49371302
REMARK minimizedRMSD -1
REMARK  1 active torsions:
REMARK  status: ('A' for Active; 'I' for Inactive)
REMARK    1  A    between atoms: C1_2  and  C2_3 
ROOT
ATOM      1  C2  UNL d   1      -0.399  -0.887   0.870  0.00  0.00    -0.073 A 
ATOM      2  C3  UNL d   1       0.622   0.064   0.971  0.00  0.00    -0.002 A 
ATOM      3  C4  UNL d   1       1.950  -0.340   1.113  0.00  0.00     0.004 A 
ATOM      4  C5  UNL d   1       2.271  -1.697   1.149  0.00  0.00    -0.004 A 
ATOM      5  C6  UNL d   1       1.266  -2.663   1.037  0.00  0.00    -0.075 A 
ATOM      6  C7  UNL d   1       1.595  -4.126   1.076  0.00  0.00     0.076 C 
ATOM      7  C8  UNL d   1      -0.066  -2.249   0.897  0.00  0.00     0.001 A 
ENDROOT
BRANCH   1   8
ATOM      8  C1  UNL d   1      -1.834  -0.456   0.710  0.00  0.00     0.053 C 
ATOM      9  C   UNL d   1      -2.057   0.971   1.184  0.00  0.00     0.018 C 
ENDBRANCH   1   8
TORSDOF 1
ENDMDL
