MODEL 1
REMARK minimizedAffinity 3.5834856
REMARK minimizedRMSD -1
REMARK  1 active torsions:
REMARK  status: ('A' for Active; 'I' for Inactive)
REMARK    1  A    between atoms: C1_2  and  C2_3 
ROOT
ATOM      1  C2  UNL d   1       0.436  -2.326   0.190  0.00  0.00    -0.073 A 
ATOM      2  C3  UNL d   1      -0.858  -1.803   0.085  0.00  0.00    -0.002 A 
ATOM      3  C4  UNL d   1      -1.175  -0.583   0.684  0.00  0.00     0.004 A 
ATOM      4  C5  UNL d   1      -0.202   0.129   1.386  0.00  0.00    -0.004 A 
ATOM      5  C6  UNL d   1       1.099  -0.372   1.492  0.00  0.00    -0.075 A 
ATOM      6  C7  UNL d   1       2.156   0.380   2.246  0.00  0.00     0.076 C 
ATOM      7  C8  UNL d   1       1.409  -1.599   0.890  0.00  0.00     0.001 A 
ENDROOT
BRANCH   1   8
ATOM      8  C1  UNL d   1       0.785  -3.640  -0.460  0.00  0.00     0.053 C 
ATOM      9  C   UNL d   1       2.156  -4.141  -0.033  0.00  0.00     0.018 C 
ENDBRANCH   1   8
TORSDOF 1
ENDMDL
