MODEL 1
REMARK minimizedAffinity -0.705026984
REMARK minimizedRMSD -1
REMARK  1 active torsions:
REMARK  status: ('A' for Active; 'I' for Inactive)
REMARK    1  A    between atoms: C1_2  and  C2_3 
ROOT
ATOM      1  C2  UNL d   1       1.380  -3.113   0.193  0.00  0.00    -0.073 A 
ATOM      2  C3  UNL d   1       2.121  -1.988  -0.186  0.00  0.00    -0.002 A 
ATOM      3  C4  UNL d   1       1.617  -0.705   0.035  0.00  0.00     0.004 A 
ATOM      4  C5  UNL d   1       0.373  -0.534   0.642  0.00  0.00    -0.004 A 
ATOM      5  C6  UNL d   1      -0.377  -1.646   1.038  0.00  0.00    -0.075 A 
ATOM      6  C7  UNL d   1      -1.718  -1.479   1.690  0.00  0.00     0.076 C 
ATOM      7  C8  UNL d   1       0.134  -2.931   0.811  0.00  0.00     0.001 A 
ENDROOT
BRANCH   1   8
ATOM      8  C1  UNL d   1       1.922  -4.500  -0.037  0.00  0.00     0.053 C 
ATOM      9  C   UNL d   1       3.442  -4.527  -0.023  0.00  0.00     0.018 C 
ENDBRANCH   1   8
TORSDOF 1
ENDMDL
