MODEL 1
REMARK minimizedAffinity 3.15365791
REMARK minimizedRMSD -1
REMARK  1 active torsions:
REMARK  status: ('A' for Active; 'I' for Inactive)
REMARK    1  A    between atoms: C1_2  and  C2_3 
ROOT
ATOM      1  C2  UNL d   1       0.657  -1.451   0.993  0.00  0.00    -0.073 A 
ATOM      2  C3  UNL d   1       0.048  -2.711   0.957  0.00  0.00    -0.002 A 
ATOM      3  C4  UNL d   1       0.773  -3.834   0.557  0.00  0.00     0.004 A 
ATOM      4  C5  UNL d   1       2.115  -3.711   0.196  0.00  0.00    -0.004 A 
ATOM      5  C6  UNL d   1       2.745  -2.463   0.236  0.00  0.00    -0.075 A 
ATOM      6  C7  UNL d   1       4.187  -2.313  -0.151  0.00  0.00     0.076 C 
ATOM      7  C8  UNL d   1       2.009  -1.339   0.637  0.00  0.00     0.001 A 
ENDROOT
BRANCH   1   8
ATOM      8  C1  UNL d   1      -0.120  -0.237   1.430  0.00  0.00     0.053 C 
ATOM      9  C   UNL d   1      -1.621  -0.475   1.386  0.00  0.00     0.018 C 
ENDBRANCH   1   8
TORSDOF 1
ENDMDL
