MODEL 1
REMARK minimizedAffinity -1.565063
REMARK minimizedRMSD -1
REMARK  0 active torsions:
REMARK  status: ('A' for Active; 'I' for Inactive)
ROOT
ATOM      1  C   UNL d   1      -0.344  -0.252  -0.057  0.00  0.00     0.172 C 
ATOM      2  N   UNL d   1       1.021   0.087   0.269  0.00  0.00    -0.070 N 
ATOM      3  C1  UNL d   1       1.490   1.346   0.534  0.00  0.00    -0.004 A 
ATOM      4  C2  UNL d   1       2.839   1.248   0.798  0.00  0.00    -0.047 A 
ATOM      5  C3  UNL d   1       3.194  -0.118   0.687  0.00  0.00    -0.047 A 
ATOM      6  C4  UNL d   1       2.050  -0.814   0.358  0.00  0.00    -0.004 A 
ENDROOT
TORSDOF 0
ENDMDL
