MODEL 1
REMARK minimizedAffinity -2.31032825
REMARK minimizedRMSD -1
REMARK  0 active torsions:
REMARK  status: ('A' for Active; 'I' for Inactive)
ROOT
ATOM      1  C   UNL d   1      -1.748  -0.359  -0.489  0.00  0.00     0.172 C 
ATOM      2  N   UNL d   1      -0.565  -0.109   0.299  0.00  0.00    -0.070 N 
ATOM      3  C1  UNL d   1       0.166   1.049   0.296  0.00  0.00    -0.004 A 
ATOM      4  C2  UNL d   1       1.212   0.890   1.180  0.00  0.00    -0.047 A 
ATOM      5  C3  UNL d   1       1.106  -0.408   1.733  0.00  0.00    -0.047 A 
ATOM      6  C4  UNL d   1      -0.003  -1.005   1.170  0.00  0.00    -0.004 A 
ENDROOT
TORSDOF 0
ENDMDL
