MODEL 1
REMARK minimizedAffinity -3.15106153
REMARK minimizedRMSD -1
REMARK  0 active torsions:
REMARK  status: ('A' for Active; 'I' for Inactive)
ROOT
ATOM      1  C   UNL d   1      -1.064   0.043  -0.305  0.00  0.00     0.172 C 
ATOM      2  N   UNL d   1       0.213   0.376   0.279  0.00  0.00    -0.070 N 
ATOM      3  C1  UNL d   1       0.737   1.637   0.390  0.00  0.00    -0.004 A 
ATOM      4  C2  UNL d   1       1.967   1.531   1.002  0.00  0.00    -0.047 A 
ATOM      5  C3  UNL d   1       2.191   0.159   1.267  0.00  0.00    -0.047 A 
ATOM      6  C4  UNL d   1       1.090  -0.533   0.809  0.00  0.00    -0.004 A 
ENDROOT
TORSDOF 0
ENDMDL
