MODEL 1
REMARK minimizedAffinity -3.19452286
REMARK minimizedRMSD -1
REMARK  0 active torsions:
REMARK  status: ('A' for Active; 'I' for Inactive)
ROOT
ATOM      1  C   UNL d   1       0.955   1.517   0.377  0.00  0.00     0.172 C 
ATOM      2  N   UNL d   1       1.803   0.549   1.032  0.00  0.00    -0.070 N 
ATOM      3  C1  UNL d   1       1.627  -0.809   1.014  0.00  0.00    -0.004 A 
ATOM      4  C2  UNL d   1       2.643  -1.376   1.753  0.00  0.00    -0.047 A 
ATOM      5  C3  UNL d   1       3.456  -0.322   2.234  0.00  0.00    -0.047 A 
ATOM      6  C4  UNL d   1       2.913   0.859   1.773  0.00  0.00    -0.004 A 
ENDROOT
TORSDOF 0
ENDMDL
