MODEL 1
REMARK minimizedAffinity -2.6300621
REMARK minimizedRMSD -1
REMARK  0 active torsions:
REMARK  status: ('A' for Active; 'I' for Inactive)
ROOT
ATOM      1  C   UNL d   1      -1.019   0.804   0.003  0.00  0.00     0.172 C 
ATOM      2  N   UNL d   1       0.376   0.924   0.357  0.00  0.00    -0.070 N 
ATOM      3  C1  UNL d   1       1.168   2.016   0.123  0.00  0.00    -0.004 A 
ATOM      4  C2  UNL d   1       2.427   1.736   0.608  0.00  0.00    -0.047 A 
ATOM      5  C3  UNL d   1       2.391   0.430   1.152  0.00  0.00    -0.047 A 
ATOM      6  C4  UNL d   1       1.109  -0.050   0.983  0.00  0.00    -0.004 A 
ENDROOT
TORSDOF 0
ENDMDL
