MODEL 1
REMARK minimizedAffinity -2.90967011
REMARK minimizedRMSD -1
REMARK  0 active torsions:
REMARK  status: ('A' for Active; 'I' for Inactive)
ROOT
ATOM      1  C   UNL d   1      -0.549  -0.027  -0.271  0.00  0.00     0.172 C 
ATOM      2  N   UNL d   1       0.744   0.333   0.262  0.00  0.00    -0.070 N 
ATOM      3  C1  UNL d   1       1.387   1.525   0.060  0.00  0.00    -0.004 A 
ATOM      4  C2  UNL d   1       2.588   1.476   0.734  0.00  0.00    -0.047 A 
ATOM      5  C3  UNL d   1       2.670   0.211   1.363  0.00  0.00    -0.047 A 
ATOM      6  C4  UNL d   1       1.515  -0.476   1.054  0.00  0.00    -0.004 A 
ENDROOT
TORSDOF 0
ENDMDL
