MODEL 1
REMARK minimizedAffinity -0.483270645
REMARK minimizedRMSD -1
REMARK  0 active torsions:
REMARK  status: ('A' for Active; 'I' for Inactive)
ROOT
ATOM      1  C   UNL d   1      -2.098  -0.043  -1.711  0.00  0.00     0.172 C 
ATOM      2  N   UNL d   1      -1.060  -0.069  -0.709  0.00  0.00    -0.070 N 
ATOM      3  C1  UNL d   1      -1.133  -0.707   0.501  0.00  0.00    -0.004 A 
ATOM      4  C2  UNL d   1       0.057  -0.494   1.163  0.00  0.00    -0.047 A 
ATOM      5  C3  UNL d   1       0.873   0.301   0.323  0.00  0.00    -0.047 A 
ATOM      6  C4  UNL d   1       0.157   0.550  -0.829  0.00  0.00    -0.004 A 
ENDROOT
TORSDOF 0
ENDMDL
