MODEL 1
REMARK minimizedAffinity -3.60989785
REMARK minimizedRMSD -1
REMARK  0 active torsions:
REMARK  status: ('A' for Active; 'I' for Inactive)
ROOT
ATOM      1  C1  BNZ d   1      -2.680   0.395   1.189  0.00  0.00     0.000 A 
ATOM      2  C2  BNZ d   1      -3.147   0.975   2.338  0.00  0.00     0.000 A 
ATOM      3  C3  BNZ d   1      -2.300   1.263   3.371  0.00  0.00     0.000 A 
ATOM      4  C4  BNZ d   1      -0.996   0.933   3.271  0.00  0.00     0.000 A 
ATOM      5  C5  BNZ d   1      -0.512   0.339   2.123  0.00  0.00     0.000 A 
ATOM      6  C6  BNZ d   1      -1.360   0.086   1.069  0.00  0.00     0.000 A 
ENDROOT
TORSDOF 0
ENDMDL
