MODEL 1
REMARK minimizedAffinity -3.03923392
REMARK minimizedRMSD -1
REMARK  0 active torsions:
REMARK  status: ('A' for Active; 'I' for Inactive)
ROOT
ATOM      1  C1  BNZ d   1       0.622  -1.213  -0.238  0.00  0.00     0.000 A 
ATOM      2  C2  BNZ d   1       1.583  -1.438  -1.188  0.00  0.00     0.000 A 
ATOM      3  C3  BNZ d   1       1.855  -0.500  -2.144  0.00  0.00     0.000 A 
ATOM      4  C4  BNZ d   1       1.139   0.643  -2.174  0.00  0.00     0.000 A 
ATOM      5  C5  BNZ d   1       0.160   0.880  -1.230  0.00  0.00     0.000 A 
ATOM      6  C6  BNZ d   1      -0.084  -0.050  -0.245  0.00  0.00     0.000 A 
ENDROOT
TORSDOF 0
ENDMDL
