MODEL 1
REMARK minimizedAffinity -2.31832552
REMARK minimizedRMSD -1
REMARK  0 active torsions:
REMARK  status: ('A' for Active; 'I' for Inactive)
ROOT
ATOM      1  C1  BNZ d   1      -2.177   1.184   1.495  0.00  0.00     0.000 A 
ATOM      2  C2  BNZ d   1      -2.686  -0.064   1.735  0.00  0.00     0.000 A 
ATOM      3  C3  BNZ d   1      -2.573  -0.640   2.969  0.00  0.00     0.000 A 
ATOM      4  C4  BNZ d   1      -1.918   0.015   3.949  0.00  0.00     0.000 A 
ATOM      5  C5  BNZ d   1      -1.392   1.271   3.720  0.00  0.00     0.000 A 
ATOM      6  C6  BNZ d   1      -1.541   1.864   2.488  0.00  0.00     0.000 A 
ENDROOT
TORSDOF 0
ENDMDL
