MODEL 1
REMARK minimizedAffinity -4.59733105
REMARK minimizedRMSD -1
REMARK  0 active torsions:
REMARK  status: ('A' for Active; 'I' for Inactive)
ROOT
ATOM      1  C1  BNZ d   1       1.184   0.614  -1.211  0.00  0.00     0.000 A 
ATOM      2  C2  BNZ d   1       0.033   0.502  -0.478  0.00  0.00     0.000 A 
ATOM      3  C3  BNZ d   1      -0.309  -0.683   0.112  0.00  0.00     0.000 A 
ATOM      4  C4  BNZ d   1       0.478  -1.763  -0.065  0.00  0.00     0.000 A 
ATOM      5  C5  BNZ d   1       1.637  -1.669  -0.809  0.00  0.00     0.000 A 
ATOM      6  C6  BNZ d   1       1.998  -0.465  -1.369  0.00  0.00     0.000 A 
ENDROOT
TORSDOF 0
ENDMDL
