MODEL 1
REMARK minimizedAffinity -3.05914235
REMARK minimizedRMSD -1
REMARK  0 active torsions:
REMARK  status: ('A' for Active; 'I' for Inactive)
ROOT
ATOM      1  C1  BNZ d   1      -0.700   0.722   0.807  0.00  0.00     0.000 A 
ATOM      2  C2  BNZ d   1      -1.455   0.023   1.711  0.00  0.00     0.000 A 
ATOM      3  C3  BNZ d   1      -1.687   0.522   2.963  0.00  0.00     0.000 A 
ATOM      4  C4  BNZ d   1      -1.132   1.698   3.321  0.00  0.00     0.000 A 
ATOM      5  C5  BNZ d   1      -0.360   2.409   2.424  0.00  0.00     0.000 A 
ATOM      6  C6  BNZ d   1      -0.161   1.923   1.152  0.00  0.00     0.000 A 
ENDROOT
TORSDOF 0
ENDMDL
