MODEL 1
REMARK minimizedAffinity -3.68518996
REMARK minimizedRMSD -1
REMARK  0 active torsions:
REMARK  status: ('A' for Active; 'I' for Inactive)
ROOT
ATOM      1  C1  BNZ d   1       0.042   1.043  -0.787  0.00  0.00     0.000 A 
ATOM      2  C2  BNZ d   1       1.204   0.341  -0.970  0.00  0.00     0.000 A 
ATOM      3  C3  BNZ d   1       1.372  -0.893  -0.407  0.00  0.00     0.000 A 
ATOM      4  C4  BNZ d   1       0.397  -1.405   0.372  0.00  0.00     0.000 A 
ATOM      5  C5  BNZ d   1      -0.776  -0.706   0.574  0.00  0.00     0.000 A 
ATOM      6  C6  BNZ d   1      -0.958   0.518  -0.027  0.00  0.00     0.000 A 
ENDROOT
TORSDOF 0
ENDMDL
