MODEL 1
REMARK minimizedAffinity -4.8644309
REMARK minimizedRMSD -1
REMARK  0 active torsions:
REMARK  status: ('A' for Active; 'I' for Inactive)
ROOT
ATOM      1  C1  BNZ d   1       2.558  -0.945  -2.306  0.00  0.00     0.000 A 
ATOM      2  C2  BNZ d   1       2.173  -1.699  -1.230  0.00  0.00     0.000 A 
ATOM      3  C3  BNZ d   1       1.168  -1.279  -0.404  0.00  0.00     0.000 A 
ATOM      4  C4  BNZ d   1       0.577  -0.088  -0.632  0.00  0.00     0.000 A 
ATOM      5  C5  BNZ d   1       0.960   0.688  -1.708  0.00  0.00     0.000 A 
ATOM      6  C6  BNZ d   1       1.945   0.243  -2.560  0.00  0.00     0.000 A 
ENDROOT
TORSDOF 0
ENDMDL
