MODEL 1
REMARK minimizedAffinity -1.00227487
REMARK minimizedRMSD -1
REMARK  0 active torsions:
REMARK  status: ('A' for Active; 'I' for Inactive)
ROOT
ATOM      1  C1  BNZ d   1       0.370  -0.892   1.296  0.00  0.00     0.000 A 
ATOM      2  C2  BNZ d   1      -0.344   0.234   1.610  0.00  0.00     0.000 A 
ATOM      3  C3  BNZ d   1      -1.222   0.778   0.714  0.00  0.00     0.000 A 
ATOM      4  C4  BNZ d   1      -1.354   0.221  -0.507  0.00  0.00     0.000 A 
ATOM      5  C5  BNZ d   1      -0.634  -0.909  -0.842  0.00  0.00     0.000 A 
ATOM      6  C6  BNZ d   1       0.219  -1.477   0.077  0.00  0.00     0.000 A 
ENDROOT
TORSDOF 0
ENDMDL
