MODEL 1
REMARK minimizedAffinity -3.35310102
REMARK minimizedRMSD -1
REMARK  0 active torsions:
REMARK  status: ('A' for Active; 'I' for Inactive)
ROOT
ATOM      1  C1  BNZ d   1      -0.867   0.646   3.513  0.00  0.00     0.000 A 
ATOM      2  C2  BNZ d   1      -0.272   0.028   2.445  0.00  0.00     0.000 A 
ATOM      3  C3  BNZ d   1      -0.799   0.139   1.189  0.00  0.00     0.000 A 
ATOM      4  C4  BNZ d   1      -1.940   0.835   1.008  0.00  0.00     0.000 A 
ATOM      5  C5  BNZ d   1      -2.557   1.457   2.075  0.00  0.00     0.000 A 
ATOM      6  C6  BNZ d   1      -2.002   1.374   3.332  0.00  0.00     0.000 A 
ENDROOT
TORSDOF 0
ENDMDL
