MODEL 1
REMARK minimizedAffinity -1.56259334
REMARK minimizedRMSD -1
REMARK  0 active torsions:
REMARK  status: ('A' for Active; 'I' for Inactive)
ROOT
ATOM      1  C1  BNZ d   1       5.423   0.761   3.655  0.00  0.00     0.000 A 
ATOM      2  C2  BNZ d   1       5.562   0.060   4.823  0.00  0.00     0.000 A 
ATOM      3  C3  BNZ d   1       5.826   0.704   5.999  0.00  0.00     0.000 A 
ATOM      4  C4  BNZ d   1       5.990   2.043   5.999  0.00  0.00     0.000 A 
ATOM      5  C5  BNZ d   1       5.862   2.763   4.828  0.00  0.00     0.000 A 
ATOM      6  C6  BNZ d   1       5.558   2.115   3.653  0.00  0.00     0.000 A 
ENDROOT
TORSDOF 0
ENDMDL
