MODEL 1
REMARK minimizedAffinity -2.96751189
REMARK minimizedRMSD -1
REMARK  0 active torsions:
REMARK  status: ('A' for Active; 'I' for Inactive)
ROOT
ATOM      1  C1  BNZ d   1      -2.785   0.285   3.284  0.00  0.00     0.000 A 
ATOM      2  C2  BNZ d   1      -2.808  -0.414   2.107  0.00  0.00     0.000 A 
ATOM      3  C3  BNZ d   1      -2.001  -0.055   1.063  0.00  0.00     0.000 A 
ATOM      4  C4  BNZ d   1      -1.203   1.025   1.184  0.00  0.00     0.000 A 
ATOM      5  C5  BNZ d   1      -1.175   1.746   2.361  0.00  0.00     0.000 A 
ATOM      6  C6  BNZ d   1      -1.959   1.358   3.423  0.00  0.00     0.000 A 
ENDROOT
TORSDOF 0
ENDMDL
