MODEL 1
REMARK minimizedAffinity -2.41804028
REMARK minimizedRMSD -1
REMARK  0 active torsions:
REMARK  status: ('A' for Active; 'I' for Inactive)
ROOT
ATOM      1  C1  BNZ d   1      -0.676   0.677   1.005  0.00  0.00     0.000 A 
ATOM      2  C2  BNZ d   1      -0.292   1.191   2.215  0.00  0.00     0.000 A 
ATOM      3  C3  BNZ d   1      -1.124   1.130   3.297  0.00  0.00     0.000 A 
ATOM      4  C4  BNZ d   1      -2.353   0.593   3.159  0.00  0.00     0.000 A 
ATOM      5  C5  BNZ d   1      -2.759   0.080   1.943  0.00  0.00     0.000 A 
ATOM      6  C6  BNZ d   1      -1.904   0.108   0.866  0.00  0.00     0.000 A 
ENDROOT
TORSDOF 0
ENDMDL
