MODEL 1
REMARK minimizedAffinity -4.69264269
REMARK minimizedRMSD -1
REMARK  0 active torsions:
REMARK  status: ('A' for Active; 'I' for Inactive)
ROOT
ATOM      1  C1  BNZ d   1      -0.324   0.291  -0.345  0.00  0.00     0.000 A 
ATOM      2  C2  BNZ d   1       0.757   0.340  -1.185  0.00  0.00     0.000 A 
ATOM      3  C3  BNZ d   1       1.629  -0.709  -1.265  0.00  0.00     0.000 A 
ATOM      4  C4  BNZ d   1       1.444  -1.787  -0.476  0.00  0.00     0.000 A 
ATOM      5  C5  BNZ d   1       0.365  -1.847   0.383  0.00  0.00     0.000 A 
ATOM      6  C6  BNZ d   1      -0.533  -0.806   0.432  0.00  0.00     0.000 A 
ENDROOT
TORSDOF 0
ENDMDL
