MODEL 1
REMARK minimizedAffinity -2.12337422
REMARK minimizedRMSD -1
REMARK  0 active torsions:
REMARK  status: ('A' for Active; 'I' for Inactive)
ROOT
ATOM      1  C1  BNZ d   1      -0.239  -0.015   0.301  0.00  0.00     0.000 A 
ATOM      2  C2  BNZ d   1       0.198  -1.251   0.696  0.00  0.00     0.000 A 
ATOM      3  C3  BNZ d   1       1.049  -1.977  -0.090  0.00  0.00     0.000 A 
ATOM      4  C4  BNZ d   1       1.430  -1.484  -1.286  0.00  0.00     0.000 A 
ATOM      5  C5  BNZ d   1       0.991  -0.243  -1.702  0.00  0.00     0.000 A 
ATOM      6  C6  BNZ d   1       0.166   0.502  -0.892  0.00  0.00     0.000 A 
ENDROOT
TORSDOF 0
ENDMDL
