MODEL 1
REMARK minimizedAffinity -2.82987595
REMARK minimizedRMSD -1
REMARK  0 active torsions:
REMARK  status: ('A' for Active; 'I' for Inactive)
ROOT
ATOM      1  C1  BNZ d   1       1.131  -1.293  -0.673  0.00  0.00     0.000 A 
ATOM      2  C2  BNZ d   1      -0.042  -1.299   0.034  0.00  0.00     0.000 A 
ATOM      3  C3  BNZ d   1      -0.669  -0.129   0.359  0.00  0.00     0.000 A 
ATOM      4  C4  BNZ d   1      -0.103   1.045   0.013  0.00  0.00     0.000 A 
ATOM      5  C5  BNZ d   1       1.084   1.068  -0.692  0.00  0.00     0.000 A 
ATOM      6  C6  BNZ d   1       1.692  -0.112  -1.051  0.00  0.00     0.000 A 
ENDROOT
TORSDOF 0
ENDMDL
