MODEL 1
REMARK minimizedAffinity 6.96111965
REMARK minimizedRMSD -1
REMARK  0 active torsions:
REMARK  status: ('A' for Active; 'I' for Inactive)
ROOT
ATOM      1  C   UNL d   1      -2.298  -3.457   2.679  0.00  0.00     0.172 C 
ATOM      2  N   UNL d   1      -1.210  -2.513   2.785  0.00  0.00    -0.070 N 
ATOM      3  C1  UNL d   1      -0.057  -2.537   2.048  0.00  0.00    -0.004 A 
ATOM      4  C2  UNL d   1       0.722  -1.472   2.446  0.00  0.00    -0.047 A 
ATOM      5  C3  UNL d   1       0.012  -0.784   3.459  0.00  0.00    -0.047 A 
ATOM      6  C4  UNL d   1      -1.180  -1.450   3.649  0.00  0.00    -0.004 A 
ENDROOT
TORSDOF 0
ENDMDL
