MODEL 1
REMARK minimizedAffinity 7.9258256
REMARK minimizedRMSD -1
REMARK  0 active torsions:
REMARK  status: ('A' for Active; 'I' for Inactive)
ROOT
ATOM      1  C   UNL d   1       3.563   0.755   2.173  0.00  0.00     0.172 C 
ATOM      2  N   UNL d   1       2.591  -0.295   1.979  0.00  0.00    -0.070 N 
ATOM      3  C1  UNL d   1       1.282  -0.255   2.379  0.00  0.00    -0.004 A 
ATOM      4  C2  UNL d   1       0.692  -1.444   2.009  0.00  0.00    -0.047 A 
ATOM      5  C3  UNL d   1       1.680  -2.226   1.365  0.00  0.00    -0.047 A 
ATOM      6  C4  UNL d   1       2.846  -1.491   1.360  0.00  0.00    -0.004 A 
ENDROOT
TORSDOF 0
ENDMDL
