MODEL 1
REMARK minimizedAffinity 1.46265936
REMARK minimizedRMSD -1
REMARK  0 active torsions:
REMARK  status: ('A' for Active; 'I' for Inactive)
ROOT
ATOM      1  C   UNL d   1      -4.126  -6.000   0.048  0.00  0.00     0.172 C 
ATOM      2  N   UNL d   1      -3.904  -4.946   1.010  0.00  0.00    -0.070 N 
ATOM      3  C1  UNL d   1      -4.731  -3.877   1.229  0.00  0.00    -0.004 A 
ATOM      4  C2  UNL d   1      -4.169  -3.105   2.223  0.00  0.00    -0.047 A 
ATOM      5  C3  UNL d   1      -2.963  -3.732   2.615  0.00  0.00    -0.047 A 
ATOM      6  C4  UNL d   1      -2.823  -4.870   1.848  0.00  0.00    -0.004 A 
ENDROOT
TORSDOF 0
ENDMDL
