MODEL 1
REMARK minimizedAffinity 9.3528204
REMARK minimizedRMSD -1
REMARK  0 active torsions:
REMARK  status: ('A' for Active; 'I' for Inactive)
ROOT
ATOM      1  C   UNL d   1      -0.042   2.555  -0.893  0.00  0.00     0.172 C 
ATOM      2  N   UNL d   1      -1.131   2.469  -1.838  0.00  0.00    -0.070 N 
ATOM      3  C1  UNL d   1      -2.147   1.551  -1.804  0.00  0.00    -0.004 A 
ATOM      4  C2  UNL d   1      -2.980   1.804  -2.873  0.00  0.00    -0.047 A 
ATOM      5  C3  UNL d   1      -2.446   2.912  -3.573  0.00  0.00    -0.047 A 
ATOM      6  C4  UNL d   1      -1.302   3.304  -2.911  0.00  0.00    -0.004 A 
ENDROOT
TORSDOF 0
ENDMDL
