MODEL 1
REMARK minimizedAffinity 10.2938032
REMARK minimizedRMSD -1
REMARK  0 active torsions:
REMARK  status: ('A' for Active; 'I' for Inactive)
ROOT
ATOM      1  C   UNL d   1      -3.191   2.844  -1.524  0.00  0.00     0.172 C 
ATOM      2  N   UNL d   1      -1.788   2.785  -1.187  0.00  0.00    -0.070 N 
ATOM      3  C1  UNL d   1      -1.254   3.033   0.049  0.00  0.00    -0.004 A 
ATOM      4  C2  UNL d   1       0.112   2.873  -0.041  0.00  0.00    -0.047 A 
ATOM      5  C3  UNL d   1       0.408   2.516  -1.378  0.00  0.00    -0.047 A 
ATOM      6  C4  UNL d   1      -0.786   2.469  -2.065  0.00  0.00    -0.004 A 
ENDROOT
TORSDOF 0
ENDMDL
