MODEL 1
REMARK minimizedAffinity 14.3265972
REMARK minimizedRMSD -1
REMARK  0 active torsions:
REMARK  status: ('A' for Active; 'I' for Inactive)
ROOT
ATOM      1  C   UNL d   1      -0.268  -0.293   4.977  0.00  0.00     0.172 C 
ATOM      2  N   UNL d   1       0.120  -0.790   3.677  0.00  0.00    -0.070 N 
ATOM      3  C1  UNL d   1      -0.498  -1.801   2.992  0.00  0.00    -0.004 A 
ATOM      4  C2  UNL d   1       0.170  -1.973   1.799  0.00  0.00    -0.047 A 
ATOM      5  C3  UNL d   1       1.227  -1.032   1.766  0.00  0.00    -0.047 A 
ATOM      6  C4  UNL d   1       1.173  -0.312   2.942  0.00  0.00    -0.004 A 
ENDROOT
TORSDOF 0
ENDMDL
