MODEL 1
REMARK minimizedAffinity 10.9175701
REMARK minimizedRMSD -1
REMARK  0 active torsions:
REMARK  status: ('A' for Active; 'I' for Inactive)
ROOT
ATOM      1  C   UNL d   1       2.590  -0.474   2.124  0.00  0.00     0.172 C 
ATOM      2  N   UNL d   1       1.284  -0.496   2.739  0.00  0.00    -0.070 N 
ATOM      3  C1  UNL d   1       0.998  -0.108   4.020  0.00  0.00    -0.004 A 
ATOM      4  C2  UNL d   1      -0.355  -0.280   4.221  0.00  0.00    -0.047 A 
ATOM      5  C3  UNL d   1      -0.900  -0.790   3.019  0.00  0.00    -0.047 A 
ATOM      6  C4  UNL d   1       0.136  -0.914   2.118  0.00  0.00    -0.004 A 
ENDROOT
TORSDOF 0
ENDMDL
