MODEL 1
REMARK minimizedAffinity 1.41561806
REMARK minimizedRMSD -1
REMARK  0 active torsions:
REMARK  status: ('A' for Active; 'I' for Inactive)
ROOT
ATOM      1  C   UNL d   1      -2.405  -3.041   2.784  0.00  0.00     0.172 C 
ATOM      2  N   UNL d   1      -1.437  -2.057   3.208  0.00  0.00    -0.070 N 
ATOM      3  C1  UNL d   1      -1.476  -1.354   4.383  0.00  0.00    -0.004 A 
ATOM      4  C2  UNL d   1      -0.378  -0.521   4.412  0.00  0.00    -0.047 A 
ATOM      5  C3  UNL d   1       0.344  -0.730   3.213  0.00  0.00    -0.047 A 
ATOM      6  C4  UNL d   1      -0.334  -1.686   2.486  0.00  0.00    -0.004 A 
ENDROOT
TORSDOF 0
ENDMDL
