MODEL 1
REMARK minimizedAffinity 13.5105228
REMARK minimizedRMSD -1
REMARK  0 active torsions:
REMARK  status: ('A' for Active; 'I' for Inactive)
ROOT
ATOM      1  C   UNL d   1       1.472   6.000   0.370  0.00  0.00     0.172 C 
ATOM      2  N   UNL d   1       1.148   4.749  -0.274  0.00  0.00    -0.070 N 
ATOM      3  C1  UNL d   1       0.405   3.738   0.275  0.00  0.00    -0.004 A 
ATOM      4  C2  UNL d   1       0.324   2.722  -0.654  0.00  0.00    -0.047 A 
ATOM      5  C3  UNL d   1       1.045   3.137  -1.799  0.00  0.00    -0.047 A 
ATOM      6  C4  UNL d   1       1.544   4.395  -1.536  0.00  0.00    -0.004 A 
ENDROOT
TORSDOF 0
ENDMDL
