MODEL 1
REMARK minimizedAffinity 5.65254164
REMARK minimizedRMSD -1
REMARK  0 active torsions:
REMARK  status: ('A' for Active; 'I' for Inactive)
ROOT
ATOM      1  C   UNL d   1      -1.726   4.429  -4.642  0.00  0.00     0.172 C 
ATOM      2  N   UNL d   1      -1.956   3.603  -3.480  0.00  0.00    -0.070 N 
ATOM      3  C1  UNL d   1      -3.092   3.601  -2.714  0.00  0.00    -0.004 A 
ATOM      4  C2  UNL d   1      -2.919   2.678  -1.706  0.00  0.00    -0.047 A 
ATOM      5  C3  UNL d   1      -1.636   2.106  -1.870  0.00  0.00    -0.047 A 
ATOM      6  C4  UNL d   1      -1.061   2.696  -2.976  0.00  0.00    -0.004 A 
ENDROOT
TORSDOF 0
ENDMDL
