MODEL 1
REMARK minimizedAffinity 2.5361073
REMARK minimizedRMSD -1
REMARK  0 active torsions:
REMARK  status: ('A' for Active; 'I' for Inactive)
ROOT
ATOM      1  C   UNL d   1      -4.407   4.855  -1.140  0.00  0.00     0.172 C 
ATOM      2  N   UNL d   1      -3.412   3.949  -1.664  0.00  0.00    -0.070 N 
ATOM      3  C1  UNL d   1      -3.296   2.621  -1.350  0.00  0.00    -0.004 A 
ATOM      4  C2  UNL d   1      -2.227   2.112  -2.055  0.00  0.00    -0.047 A 
ATOM      5  C3  UNL d   1      -1.681   3.170  -2.819  0.00  0.00    -0.047 A 
ATOM      6  C4  UNL d   1      -2.434   4.296  -2.558  0.00  0.00    -0.004 A 
ENDROOT
TORSDOF 0
ENDMDL
