MODEL 1
REMARK minimizedAffinity 7.71738482
REMARK minimizedRMSD -1
REMARK  0 active torsions:
REMARK  status: ('A' for Active; 'I' for Inactive)
ROOT
ATOM      1  C   UNL d   1      -2.551   3.603  -5.999  0.00  0.00     0.172 C 
ATOM      2  N   UNL d   1      -2.365   3.237  -4.615  0.00  0.00    -0.070 N 
ATOM      3  C1  UNL d   1      -1.167   3.201  -3.953  0.00  0.00    -0.004 A 
ATOM      4  C2  UNL d   1      -1.413   2.806  -2.656  0.00  0.00    -0.047 A 
ATOM      5  C3  UNL d   1      -2.807   2.597  -2.534  0.00  0.00    -0.047 A 
ATOM      6  C4  UNL d   1      -3.372   2.871  -3.761  0.00  0.00    -0.004 A 
ENDROOT
TORSDOF 0
ENDMDL
