MODEL 1
REMARK minimizedAffinity -0.909945786
REMARK minimizedRMSD -1
REMARK  0 active torsions:
REMARK  status: ('A' for Active; 'I' for Inactive)
ROOT
ATOM      1  C   UNL d   1      -1.751  -0.146   1.310  0.00  0.00     0.172 C 
ATOM      2  N   UNL d   1      -0.415  -0.036   0.774  0.00  0.00    -0.070 N 
ATOM      3  C1  UNL d   1       0.508  -1.046   0.717  0.00  0.00    -0.004 A 
ATOM      4  C2  UNL d   1       1.652  -0.541   0.139  0.00  0.00    -0.047 A 
ATOM      5  C3  UNL d   1       1.409   0.821  -0.161  0.00  0.00    -0.047 A 
ATOM      6  C4  UNL d   1       0.122   1.107   0.242  0.00  0.00    -0.004 A 
ENDROOT
TORSDOF 0
ENDMDL
