MODEL 1
REMARK minimizedAffinity -0.640196085
REMARK minimizedRMSD -1
REMARK  2 active torsions:
REMARK  status: ('A' for Active; 'I' for Inactive)
REMARK    1  A    between atoms: C1_2  and  C2_3 
REMARK    2  A    between atoms: C2_3  and  C3_4 
ROOT
ATOM      1  C3  UNL d   1      -2.481   1.171   0.900  0.00  0.00    -0.075 A 
ATOM      2  C4  UNL d   1      -2.340   1.247   2.293  0.00  0.00     0.002 A 
ATOM      3  C5  UNL d   1      -2.830   0.229   3.111  0.00  0.00     0.002 A 
ATOM      4  C6  UNL d   1      -3.474  -0.871   2.550  0.00  0.00    -0.004 A 
ATOM      5  C7  UNL d   1      -3.634  -0.950   1.168  0.00  0.00     0.002 A 
ATOM      6  C8  UNL d   1      -3.142   0.066   0.346  0.00  0.00     0.002 A 
ENDROOT
BRANCH   1   7
ATOM      7  C2  UNL d   1      -1.928   2.255   0.006  0.00  0.00     0.056 C 
BRANCH   7   8
ATOM      8  C1  UNL d   1      -3.001   3.089  -0.701  0.00  0.00     0.007 C 
ATOM      9  C   UNL d   1      -3.822   3.946   0.254  0.00  0.00     0.009 C 
ENDBRANCH   7   8
ENDBRANCH   1   7
TORSDOF 2
ENDMDL
