MODEL 1
REMARK minimizedAffinity -4.82757044
REMARK minimizedRMSD -1
REMARK  2 active torsions:
REMARK  status: ('A' for Active; 'I' for Inactive)
REMARK    1  A    between atoms: C1_2  and  C2_3 
REMARK    2  A    between atoms: C2_3  and  C3_4 
ROOT
ATOM      1  C3  UNL d   1      -2.479   1.027   1.226  0.00  0.00    -0.075 A 
ATOM      2  C4  UNL d   1      -2.691   1.506   2.527  0.00  0.00     0.002 A 
ATOM      3  C5  UNL d   1      -2.976   0.624   3.569  0.00  0.00     0.002 A 
ATOM      4  C6  UNL d   1      -3.064  -0.745   3.322  0.00  0.00    -0.004 A 
ATOM      5  C7  UNL d   1      -2.872  -1.230   2.031  0.00  0.00     0.002 A 
ATOM      6  C8  UNL d   1      -2.582  -0.350   0.987  0.00  0.00     0.002 A 
ENDROOT
BRANCH   1   7
ATOM      7  C2  UNL d   1      -2.141   1.974   0.099  0.00  0.00     0.056 C 
BRANCH   7   8
ATOM      8  C1  UNL d   1      -3.365   2.556  -0.616  0.00  0.00     0.007 C 
ATOM      9  C   UNL d   1      -3.632   4.013  -0.260  0.00  0.00     0.009 C 
ENDBRANCH   7   8
ENDBRANCH   1   7
TORSDOF 2
ENDMDL
