MODEL 1
REMARK minimizedAffinity -3.69560957
REMARK minimizedRMSD -1
REMARK  2 active torsions:
REMARK  status: ('A' for Active; 'I' for Inactive)
REMARK    1  A    between atoms: C1_2  and  C2_3 
REMARK    2  A    between atoms: C2_3  and  C3_4 
ROOT
ATOM      1  C3  UNL d   1      -2.400   0.779   1.127  0.00  0.00    -0.075 A 
ATOM      2  C4  UNL d   1      -2.585   1.199   2.453  0.00  0.00     0.002 A 
ATOM      3  C5  UNL d   1      -2.647   0.266   3.489  0.00  0.00     0.002 A 
ATOM      4  C6  UNL d   1      -2.536  -1.095   3.212  0.00  0.00    -0.004 A 
ATOM      5  C7  UNL d   1      -2.369  -1.524   1.897  0.00  0.00     0.002 A 
ATOM      6  C8  UNL d   1      -2.302  -0.593   0.859  0.00  0.00     0.002 A 
ENDROOT
BRANCH   1   7
ATOM      7  C2  UNL d   1      -2.303   1.785   0.005  0.00  0.00     0.056 C 
BRANCH   7   8
ATOM      8  C1  UNL d   1      -3.630   2.471  -0.335  0.00  0.00     0.007 C 
ATOM      9  C   UNL d   1      -3.623   3.967  -0.051  0.00  0.00     0.009 C 
ENDBRANCH   7   8
ENDBRANCH   1   7
TORSDOF 2
ENDMDL
