MODEL 1
REMARK minimizedAffinity -0.163505301
REMARK minimizedRMSD -1
REMARK  2 active torsions:
REMARK  status: ('A' for Active; 'I' for Inactive)
REMARK    1  A    between atoms: C1_2  and  C2_3 
REMARK    2  A    between atoms: C2_3  and  C3_4 
ROOT
ATOM      1  C3  UNL d   1      -2.918   1.195   0.391  0.00  0.00    -0.075 A 
ATOM      2  C4  UNL d   1      -4.044   1.644  -0.313  0.00  0.00     0.002 A 
ATOM      3  C5  UNL d   1      -4.311   3.008  -0.427  0.00  0.00     0.002 A 
ATOM      4  C6  UNL d   1      -3.462   3.939   0.169  0.00  0.00    -0.004 A 
ATOM      5  C7  UNL d   1      -2.349   3.504   0.884  0.00  0.00     0.002 A 
ATOM      6  C8  UNL d   1      -2.078   2.139   0.996  0.00  0.00     0.002 A 
ENDROOT
BRANCH   1   7
ATOM      7  C2  UNL d   1      -2.607  -0.280   0.492  0.00  0.00     0.056 C 
BRANCH   7   8
ATOM      8  C1  UNL d   1      -3.007  -0.910   1.830  0.00  0.00     0.007 C 
ATOM      9  C   UNL d   1      -2.234  -0.345   3.015  0.00  0.00     0.009 C 
ENDBRANCH   7   8
ENDBRANCH   1   7
TORSDOF 2
ENDMDL
