MODEL 1
REMARK minimizedAffinity 6.64252186
REMARK minimizedRMSD -1
REMARK  2 active torsions:
REMARK  status: ('A' for Active; 'I' for Inactive)
REMARK    1  A    between atoms: C1_2  and  C2_3 
REMARK    2  A    between atoms: C2_3  and  C3_4 
ROOT
ATOM      1  C3  UNL d   1      -2.833  -1.099   1.663  0.00  0.00    -0.075 A 
ATOM      2  C4  UNL d   1      -1.944  -0.372   2.469  0.00  0.00     0.002 A 
ATOM      3  C5  UNL d   1      -2.209  -0.188   3.827  0.00  0.00     0.002 A 
ATOM      4  C6  UNL d   1      -3.367  -0.717   4.392  0.00  0.00    -0.004 A 
ATOM      5  C7  UNL d   1      -4.265  -1.426   3.597  0.00  0.00     0.002 A 
ATOM      6  C8  UNL d   1      -4.000  -1.616   2.239  0.00  0.00     0.002 A 
ENDROOT
BRANCH   1   7
ATOM      7  C2  UNL d   1      -2.538  -1.327   0.199  0.00  0.00     0.056 C 
BRANCH   7   8
ATOM      8  C1  UNL d   1      -1.667  -2.557  -0.077  0.00  0.00     0.007 C 
ATOM      9  C   UNL d   1      -1.133  -2.607  -1.502  0.00  0.00     0.009 C 
ENDBRANCH   7   8
ENDBRANCH   1   7
TORSDOF 2
ENDMDL
