MODEL 1
REMARK minimizedAffinity 2.9308548
REMARK minimizedRMSD -1
REMARK  2 active torsions:
REMARK  status: ('A' for Active; 'I' for Inactive)
REMARK    1  A    between atoms: C1_2  and  C2_3 
REMARK    2  A    between atoms: C2_3  and  C3_4 
ROOT
ATOM      1  C3  UNL d   1       4.773   0.008   2.876  0.00  0.00    -0.075 A 
ATOM      2  C4  UNL d   1       5.443  -0.015   4.108  0.00  0.00     0.002 A 
ATOM      3  C5  UNL d   1       5.999   1.152   4.633  0.00  0.00     0.002 A 
ATOM      4  C6  UNL d   1       5.903   2.351   3.931  0.00  0.00    -0.004 A 
ATOM      5  C7  UNL d   1       5.255   2.381   2.698  0.00  0.00     0.002 A 
ATOM      6  C8  UNL d   1       4.693   1.217   2.172  0.00  0.00     0.002 A 
ENDROOT
BRANCH   1   7
ATOM      7  C2  UNL d   1       4.143  -1.245   2.316  0.00  0.00     0.056 C 
BRANCH   7   8
ATOM      8  C1  UNL d   1       3.369  -2.070   3.350  0.00  0.00     0.007 C 
ATOM      9  C   UNL d   1       2.605  -3.236   2.737  0.00  0.00     0.009 C 
ENDBRANCH   7   8
ENDBRANCH   1   7
TORSDOF 2
ENDMDL
