MODEL 1
REMARK minimizedAffinity 2.12583613
REMARK minimizedRMSD -1
REMARK  2 active torsions:
REMARK  status: ('A' for Active; 'I' for Inactive)
REMARK    1  A    between atoms: C1_2  and  C2_3 
REMARK    2  A    between atoms: C2_3  and  C3_4 
ROOT
ATOM      1  C3  UNL d   1       4.788   0.106   4.606  0.00  0.00    -0.075 A 
ATOM      2  C4  UNL d   1       5.997  -0.564   4.847  0.00  0.00     0.002 A 
ATOM      3  C5  UNL d   1       5.999  -1.894   5.269  0.00  0.00     0.002 A 
ATOM      4  C6  UNL d   1       4.795  -2.567   5.464  0.00  0.00    -0.004 A 
ATOM      5  C7  UNL d   1       3.588  -1.907   5.244  0.00  0.00     0.002 A 
ATOM      6  C8  UNL d   1       3.583  -0.578   4.818  0.00  0.00     0.002 A 
ENDROOT
BRANCH   1   7
ATOM      7  C2  UNL d   1       4.780   1.536   4.122  0.00  0.00     0.056 C 
BRANCH   7   8
ATOM      8  C1  UNL d   1       4.511   1.684   2.621  0.00  0.00     0.007 C 
ATOM      9  C   UNL d   1       3.656   2.897   2.281  0.00  0.00     0.009 C 
ENDBRANCH   7   8
ENDBRANCH   1   7
TORSDOF 2
ENDMDL
