MODEL 1
REMARK minimizedAffinity -3.10198808
REMARK minimizedRMSD -1
REMARK  2 active torsions:
REMARK  status: ('A' for Active; 'I' for Inactive)
REMARK    1  A    between atoms: C1_2  and  C2_3 
REMARK    2  A    between atoms: C2_3  and  C3_4 
ROOT
ATOM      1  C3  UNL d   1       1.436  -2.765   0.825  0.00  0.00    -0.075 A 
ATOM      2  C4  UNL d   1       0.575  -2.575  -0.266  0.00  0.00     0.002 A 
ATOM      3  C5  UNL d   1      -0.474  -3.463  -0.504  0.00  0.00     0.002 A 
ATOM      4  C6  UNL d   1      -0.669  -4.557   0.337  0.00  0.00    -0.004 A 
ATOM      5  C7  UNL d   1       0.190  -4.764   1.414  0.00  0.00     0.002 A 
ATOM      6  C8  UNL d   1       1.238  -3.874   1.658  0.00  0.00     0.002 A 
ENDROOT
BRANCH   1   7
ATOM      7  C2  UNL d   1       2.555  -1.790   1.105  0.00  0.00     0.056 C 
BRANCH   7   8
ATOM      8  C1  UNL d   1       2.854  -1.596   2.596  0.00  0.00     0.007 C 
ATOM      9  C   UNL d   1       3.313  -0.185   2.937  0.00  0.00     0.009 C 
ENDBRANCH   7   8
ENDBRANCH   1   7
TORSDOF 2
ENDMDL
