MODEL 1
REMARK minimizedAffinity -1.61782241
REMARK minimizedRMSD -1
REMARK  2 active torsions:
REMARK  status: ('A' for Active; 'I' for Inactive)
REMARK    1  A    between atoms: C1_2  and  C2_3 
REMARK    2  A    between atoms: C2_3  and  C3_4 
ROOT
ATOM      1  C3  UNL d   1      -3.011   1.293   0.918  0.00  0.00    -0.075 A 
ATOM      2  C4  UNL d   1      -2.463   2.414   1.558  0.00  0.00     0.002 A 
ATOM      3  C5  UNL d   1      -2.759   3.702   1.109  0.00  0.00     0.002 A 
ATOM      4  C6  UNL d   1      -3.596   3.884   0.011  0.00  0.00    -0.004 A 
ATOM      5  C7  UNL d   1      -4.133   2.777  -0.643  0.00  0.00     0.002 A 
ATOM      6  C8  UNL d   1      -3.842   1.488  -0.193  0.00  0.00     0.002 A 
ENDROOT
BRANCH   1   7
ATOM      7  C2  UNL d   1      -2.718  -0.101   1.417  0.00  0.00     0.056 C 
BRANCH   7   8
ATOM      8  C1  UNL d   1      -2.470  -0.184   2.927  0.00  0.00     0.007 C 
ATOM      9  C   UNL d   1      -3.472  -1.073   3.652  0.00  0.00     0.009 C 
ENDBRANCH   7   8
ENDBRANCH   1   7
TORSDOF 2
ENDMDL
