MODEL 1
REMARK minimizedAffinity 5.171731
REMARK minimizedRMSD -1
REMARK  2 active torsions:
REMARK  status: ('A' for Active; 'I' for Inactive)
REMARK    1  A    between atoms: C1_2  and  C2_3 
REMARK    2  A    between atoms: C2_3  and  C3_4 
ROOT
ATOM      1  C3  UNL d   1       5.007   2.556   3.936  0.00  0.00    -0.075 A 
ATOM      2  C4  UNL d   1       4.872   1.507   3.016  0.00  0.00     0.002 A 
ATOM      3  C5  UNL d   1       5.283   0.216   3.347  0.00  0.00     0.002 A 
ATOM      4  C6  UNL d   1       5.844  -0.040   4.596  0.00  0.00    -0.004 A 
ATOM      5  C7  UNL d   1       5.999   0.997   5.513  0.00  0.00     0.002 A 
ATOM      6  C8  UNL d   1       5.584   2.289   5.185  0.00  0.00     0.002 A 
ENDROOT
BRANCH   1   7
ATOM      7  C2  UNL d   1       4.536   3.950   3.595  0.00  0.00     0.056 C 
BRANCH   7   8
ATOM      8  C1  UNL d   1       5.611   5.029   3.761  0.00  0.00     0.007 C 
ATOM      9  C   UNL d   1       5.317   5.999   4.898  0.00  0.00     0.009 C 
ENDBRANCH   7   8
ENDBRANCH   1   7
TORSDOF 2
ENDMDL
