MODEL 1
REMARK minimizedAffinity -0.15495868
REMARK minimizedRMSD -1
REMARK  2 active torsions:
REMARK  status: ('A' for Active; 'I' for Inactive)
REMARK    1  A    between atoms: C1_2  and  C2_3 
REMARK    2  A    between atoms: C2_3  and  C3_4 
ROOT
ATOM      1  C3  UNL d   1       3.444  -0.798   2.797  0.00  0.00    -0.075 A 
ATOM      2  C4  UNL d   1       4.426   0.141   2.450  0.00  0.00     0.002 A 
ATOM      3  C5  UNL d   1       5.282   0.662   3.421  0.00  0.00     0.002 A 
ATOM      4  C6  UNL d   1       5.161   0.260   4.749  0.00  0.00    -0.004 A 
ATOM      5  C7  UNL d   1       4.178  -0.660   5.108  0.00  0.00     0.002 A 
ATOM      6  C8  UNL d   1       3.323  -1.186   4.138  0.00  0.00     0.002 A 
ENDROOT
BRANCH   1   7
ATOM      7  C2  UNL d   1       2.533  -1.388   1.747  0.00  0.00     0.056 C 
BRANCH   7   8
ATOM      8  C1  UNL d   1       2.143  -2.846   2.007  0.00  0.00     0.007 C 
ATOM      9  C   UNL d   1       1.106  -3.375   1.026  0.00  0.00     0.009 C 
ENDBRANCH   7   8
ENDBRANCH   1   7
TORSDOF 2
ENDMDL
