MODEL 1
REMARK minimizedAffinity 11.5636826
REMARK minimizedRMSD -1
REMARK  2 active torsions:
REMARK  status: ('A' for Active; 'I' for Inactive)
REMARK    1  A    between atoms: C1_2  and  C2_3 
REMARK    2  A    between atoms: C2_3  and  C3_4 
ROOT
ATOM      1  C3  UNL d   1      -3.097   0.107   2.690  0.00  0.00    -0.075 A 
ATOM      2  C4  UNL d   1      -1.971  -0.685   2.958  0.00  0.00     0.002 A 
ATOM      3  C5  UNL d   1      -2.072  -1.804   3.785  0.00  0.00     0.002 A 
ATOM      4  C6  UNL d   1      -3.295  -2.139   4.361  0.00  0.00    -0.004 A 
ATOM      5  C7  UNL d   1      -4.417  -1.351   4.115  0.00  0.00     0.002 A 
ATOM      6  C8  UNL d   1      -4.320  -0.233   3.284  0.00  0.00     0.002 A 
ENDROOT
BRANCH   1   7
ATOM      7  C2  UNL d   1      -3.001   1.302   1.772  0.00  0.00     0.056 C 
BRANCH   7   8
ATOM      8  C1  UNL d   1      -3.196   0.967   0.290  0.00  0.00     0.007 C 
ATOM      9  C   UNL d   1      -4.661   0.857  -0.113  0.00  0.00     0.009 C 
ENDBRANCH   7   8
ENDBRANCH   1   7
TORSDOF 2
ENDMDL
