MODEL 1
REMARK minimizedAffinity 3.68552923
REMARK minimizedRMSD -1
REMARK  2 active torsions:
REMARK  status: ('A' for Active; 'I' for Inactive)
REMARK    1  A    between atoms: C1_2  and  C2_3 
REMARK    2  A    between atoms: C2_3  and  C3_4 
ROOT
ATOM      1  C3  UNL d   1       3.848   0.071   3.596  0.00  0.00    -0.075 A 
ATOM      2  C4  UNL d   1       4.941   0.328   4.435  0.00  0.00     0.002 A 
ATOM      3  C5  UNL d   1       5.586   1.564   4.399  0.00  0.00     0.002 A 
ATOM      4  C6  UNL d   1       5.154   2.554   3.519  0.00  0.00    -0.004 A 
ATOM      5  C7  UNL d   1       4.079   2.303   2.669  0.00  0.00     0.002 A 
ATOM      6  C8  UNL d   1       3.429   1.069   2.706  0.00  0.00     0.002 A 
ENDROOT
BRANCH   1   7
ATOM      7  C2  UNL d   1       3.127  -1.255   3.650  0.00  0.00     0.056 C 
BRANCH   7   8
ATOM      8  C1  UNL d   1       3.063  -1.986   2.305  0.00  0.00     0.007 C 
ATOM      9  C   UNL d   1       2.113  -3.177   2.314  0.00  0.00     0.009 C 
ENDBRANCH   7   8
ENDBRANCH   1   7
TORSDOF 2
ENDMDL
