MODEL 1
REMARK minimizedAffinity -3.07663774
REMARK minimizedRMSD -1
REMARK  2 active torsions:
REMARK  status: ('A' for Active; 'I' for Inactive)
REMARK    1  A    between atoms: C1_2  and  C2_3 
REMARK    2  A    between atoms: C2_3  and  C3_4 
ROOT
ATOM      1  C3  UNL d   1       3.347  -0.856   2.473  0.00  0.00    -0.075 A 
ATOM      2  C4  UNL d   1       3.894   0.419   2.268  0.00  0.00     0.002 A 
ATOM      3  C5  UNL d   1       4.662   1.028   3.260  0.00  0.00     0.002 A 
ATOM      4  C6  UNL d   1       4.885   0.377   4.471  0.00  0.00    -0.004 A 
ATOM      5  C7  UNL d   1       4.333  -0.883   4.692  0.00  0.00     0.002 A 
ATOM      6  C8  UNL d   1       3.568  -1.497   3.700  0.00  0.00     0.002 A 
ENDROOT
BRANCH   1   7
ATOM      7  C2  UNL d   1       2.539  -1.534   1.392  0.00  0.00     0.056 C 
BRANCH   7   8
ATOM      8  C1  UNL d   1       2.176  -2.989   1.705  0.00  0.00     0.007 C 
ATOM      9  C   UNL d   1       1.120  -3.559   0.767  0.00  0.00     0.009 C 
ENDBRANCH   7   8
ENDBRANCH   1   7
TORSDOF 2
ENDMDL
