MODEL 1
REMARK minimizedAffinity 0.63714397
REMARK minimizedRMSD -1
REMARK  2 active torsions:
REMARK  status: ('A' for Active; 'I' for Inactive)
REMARK    1  A    between atoms: C1_2  and  C2_3 
REMARK    2  A    between atoms: C2_3  and  C3_4 
ROOT
ATOM      1  C3  UNL d   1      -3.577   0.421   1.761  0.00  0.00    -0.075 A 
ATOM      2  C4  UNL d   1      -3.045   1.691   2.029  0.00  0.00     0.002 A 
ATOM      3  C5  UNL d   1      -2.633   2.520   0.986  0.00  0.00     0.002 A 
ATOM      4  C6  UNL d   1      -2.737   2.089  -0.334  0.00  0.00    -0.004 A 
ATOM      5  C7  UNL d   1      -3.248   0.823  -0.612  0.00  0.00     0.002 A 
ATOM      6  C8  UNL d   1      -3.666  -0.008   0.430  0.00  0.00     0.002 A 
ENDROOT
BRANCH   1   7
ATOM      7  C2  UNL d   1      -4.053  -0.470   2.883  0.00  0.00     0.056 C 
BRANCH   7   8
ATOM      8  C1  UNL d   1      -2.924  -1.191   3.628  0.00  0.00     0.007 C 
ATOM      9  C   UNL d   1      -2.276  -0.336   4.709  0.00  0.00     0.009 C 
ENDBRANCH   7   8
ENDBRANCH   1   7
TORSDOF 2
ENDMDL
