MODEL 1
REMARK minimizedAffinity -1.38610327
REMARK minimizedRMSD -1
REMARK  2 active torsions:
REMARK  status: ('A' for Active; 'I' for Inactive)
REMARK    1  A    between atoms: C1_2  and  C2_3 
REMARK    2  A    between atoms: C2_3  and  C3_4 
ROOT
ATOM      1  C3  UNL d   1       0.623  -2.725  -1.506  0.00  0.00    -0.075 A 
ATOM      2  C4  UNL d   1       1.748  -3.376  -0.977  0.00  0.00     0.002 A 
ATOM      3  C5  UNL d   1       1.671  -4.039   0.248  0.00  0.00     0.002 A 
ATOM      4  C6  UNL d   1       0.476  -4.051   0.963  0.00  0.00    -0.004 A 
ATOM      5  C7  UNL d   1      -0.643  -3.394   0.455  0.00  0.00     0.002 A 
ATOM      6  C8  UNL d   1      -0.570  -2.734  -0.773  0.00  0.00     0.002 A 
ENDROOT
BRANCH   1   7
ATOM      7  C2  UNL d   1       0.692  -2.031  -2.846  0.00  0.00     0.056 C 
BRANCH   7   8
ATOM      8  C1  UNL d   1       1.479  -0.716  -2.827  0.00  0.00     0.007 C 
ATOM      9  C   UNL d   1       0.591   0.514  -2.694  0.00  0.00     0.009 C 
ENDBRANCH   7   8
ENDBRANCH   1   7
TORSDOF 2
ENDMDL
