MODEL 1
REMARK minimizedAffinity -4.83355141
REMARK minimizedRMSD -1
REMARK  1 active torsions:
REMARK  status: ('A' for Active; 'I' for Inactive)
REMARK    1  A    between atoms: C1_2  and  C2_3 
ROOT
ATOM      1  C2  UNL d   1       0.325   1.505   0.625  0.00  0.00    -0.076 A 
ATOM      2  C3  UNL d   1      -0.922   1.064   1.103  0.00  0.00     0.004 A 
ATOM      3  C4  UNL d   1      -1.506  -0.103   0.615  0.00  0.00    -0.003 A 
ATOM      4  C5  UNL d   1      -0.853  -0.850  -0.359  0.00  0.00     0.000 A 
ATOM      5  C6  UNL d   1       0.392  -0.438  -0.833  0.00  0.00     0.000 A 
ATOM      6  C7  UNL d   1       1.003   0.728  -0.339  0.00  0.00    -0.073 A 
ATOM      7  C8  UNL d   1       2.344   1.129  -0.890  0.00  0.00     0.078 C 
ENDROOT
BRANCH   1   8
ATOM      8  C1  UNL d   1       0.896   2.793   1.172  0.00  0.00     0.053 C 
ATOM      9  C   UNL d   1       1.493   2.622   2.560  0.00  0.00     0.018 C 
ENDBRANCH   1   8
TORSDOF 1
ENDMDL
