MODEL 1
REMARK minimizedAffinity -5.08834028
REMARK minimizedRMSD -1
REMARK  1 active torsions:
REMARK  status: ('A' for Active; 'I' for Inactive)
REMARK    1  A    between atoms: C1_2  and  C2_3 
ROOT
ATOM      1  C2  UNL d   1       0.250   0.010   0.243  0.00  0.00    -0.076 A 
ATOM      2  C3  UNL d   1       1.420   0.521  -0.346  0.00  0.00     0.004 A 
ATOM      3  C4  UNL d   1       1.910   1.778   0.005  0.00  0.00    -0.003 A 
ATOM      4  C5  UNL d   1       1.240   2.543   0.952  0.00  0.00     0.000 A 
ATOM      5  C6  UNL d   1       0.088   2.045   1.560  0.00  0.00     0.000 A 
ATOM      6  C7  UNL d   1      -0.411   0.773   1.229  0.00  0.00    -0.073 A 
ATOM      7  C8  UNL d   1      -1.661   0.288   1.911  0.00  0.00     0.078 C 
ENDROOT
BRANCH   1   8
ATOM      8  C1  UNL d   1      -0.249  -1.347  -0.198  0.00  0.00     0.053 C 
ATOM      9  C   UNL d   1      -1.268  -1.256  -1.324  0.00  0.00     0.018 C 
ENDBRANCH   1   8
TORSDOF 1
ENDMDL
