MODEL 1
REMARK minimizedAffinity -2.56057215
REMARK minimizedRMSD -1
REMARK  1 active torsions:
REMARK  status: ('A' for Active; 'I' for Inactive)
REMARK    1  A    between atoms: C1_2  and  C2_3 
ROOT
ATOM      1  C2  UNL d   1       0.204   0.054   0.239  0.00  0.00    -0.076 A 
ATOM      2  C3  UNL d   1       1.375   0.553  -0.357  0.00  0.00     0.004 A 
ATOM      3  C4  UNL d   1       1.974   1.723   0.108  0.00  0.00    -0.003 A 
ATOM      4  C5  UNL d   1       1.411   2.412   1.177  0.00  0.00     0.000 A 
ATOM      5  C6  UNL d   1       0.259   1.921   1.791  0.00  0.00     0.000 A 
ATOM      6  C7  UNL d   1      -0.348   0.735   1.345  0.00  0.00    -0.073 A 
ATOM      7  C8  UNL d   1      -1.592   0.255   2.040  0.00  0.00     0.078 C 
ENDROOT
BRANCH   1   8
ATOM      8  C1  UNL d   1      -0.415  -1.205  -0.326  0.00  0.00     0.053 C 
ATOM      9  C   UNL d   1      -1.397  -0.917  -1.452  0.00  0.00     0.018 C 
ENDBRANCH   1   8
TORSDOF 1
ENDMDL
