MODEL 1
REMARK minimizedAffinity -5.49165487
REMARK minimizedRMSD -1
REMARK  1 active torsions:
REMARK  status: ('A' for Active; 'I' for Inactive)
REMARK    1  A    between atoms: C1_2  and  C2_3 
ROOT
ATOM      1  C2  UNL d   1      -0.116   0.780   0.089  0.00  0.00    -0.076 A 
ATOM      2  C3  UNL d   1       1.221   1.175  -0.094  0.00  0.00     0.004 A 
ATOM      3  C4  UNL d   1       1.870   1.969   0.850  0.00  0.00    -0.003 A 
ATOM      4  C5  UNL d   1       1.193   2.381   1.993  0.00  0.00     0.000 A 
ATOM      5  C6  UNL d   1      -0.128   1.984   2.199  0.00  0.00     0.000 A 
ATOM      6  C7  UNL d   1      -0.792   1.170   1.265  0.00  0.00    -0.073 A 
ATOM      7  C8  UNL d   1      -2.218   0.777   1.535  0.00  0.00     0.078 C 
ENDROOT
BRANCH   1   8
ATOM      8  C1  UNL d   1      -0.776  -0.059  -0.982  0.00  0.00     0.053 C 
ATOM      9  C   UNL d   1       0.081  -1.241  -1.406  0.00  0.00     0.018 C 
ENDBRANCH   1   8
TORSDOF 1
ENDMDL
