MODEL 1
REMARK minimizedAffinity -3.76881003
REMARK minimizedRMSD -1
REMARK  1 active torsions:
REMARK  status: ('A' for Active; 'I' for Inactive)
REMARK    1  A    between atoms: C1_2  and  C2_3 
ROOT
ATOM      1  C2  UNL d   1      -0.055   0.246   0.005  0.00  0.00    -0.076 A 
ATOM      2  C3  UNL d   1       1.113   0.749  -0.595  0.00  0.00     0.004 A 
ATOM      3  C4  UNL d   1       1.726   1.904  -0.114  0.00  0.00    -0.003 A 
ATOM      4  C5  UNL d   1       1.183   2.575   0.977  0.00  0.00     0.000 A 
ATOM      5  C6  UNL d   1       0.036   2.080   1.596  0.00  0.00     0.000 A 
ATOM      6  C7  UNL d   1      -0.586   0.908   1.133  0.00  0.00    -0.073 A 
ATOM      7  C8  UNL d   1      -1.825   0.422   1.835  0.00  0.00     0.078 C 
ENDROOT
BRANCH   1   8
ATOM      8  C1  UNL d   1      -0.691  -0.996  -0.577  0.00  0.00     0.053 C 
ATOM      9  C   UNL d   1      -1.719  -0.674  -1.652  0.00  0.00     0.018 C 
ENDBRANCH   1   8
TORSDOF 1
ENDMDL
