MODEL 1
REMARK minimizedAffinity -2.65641165
REMARK minimizedRMSD -1
REMARK  1 active torsions:
REMARK  status: ('A' for Active; 'I' for Inactive)
REMARK    1  A    between atoms: C1_2  and  C2_3 
ROOT
ATOM      1  C2  UNL d   1      -0.890  -0.284  -0.987  0.00  0.00    -0.076 A 
ATOM      2  C3  UNL d   1      -1.707   0.711  -0.423  0.00  0.00     0.004 A 
ATOM      3  C4  UNL d   1      -1.329   1.374   0.743  0.00  0.00    -0.003 A 
ATOM      4  C5  UNL d   1      -0.127   1.055   1.364  0.00  0.00     0.000 A 
ATOM      5  C6  UNL d   1       0.705   0.083   0.809  0.00  0.00     0.000 A 
ATOM      6  C7  UNL d   1       0.346  -0.585  -0.375  0.00  0.00    -0.073 A 
ATOM      7  C8  UNL d   1       1.278  -1.628  -0.927  0.00  0.00     0.078 C 
ENDROOT
BRANCH   1   8
ATOM      8  C1  UNL d   1      -1.365  -0.989  -2.237  0.00  0.00     0.053 C 
ATOM      9  C   UNL d   1      -2.287  -2.160  -1.931  0.00  0.00     0.018 C 
ENDBRANCH   1   8
TORSDOF 1
ENDMDL
