MODEL 1
REMARK minimizedAffinity -3.8571651
REMARK minimizedRMSD -1
REMARK  1 active torsions:
REMARK  status: ('A' for Active; 'I' for Inactive)
REMARK    1  A    between atoms: C1_2  and  C2_3 
ROOT
ATOM      1  C2  UNL d   1       0.265   0.119  -0.205  0.00  0.00    -0.076 A 
ATOM      2  C3  UNL d   1      -0.862   0.560   0.511  0.00  0.00     0.004 A 
ATOM      3  C4  UNL d   1      -0.802   1.699   1.312  0.00  0.00    -0.003 A 
ATOM      4  C5  UNL d   1       0.385   2.417   1.410  0.00  0.00     0.000 A 
ATOM      5  C6  UNL d   1       1.507   2.004   0.692  0.00  0.00     0.000 A 
ATOM      6  C7  UNL d   1       1.459   0.867  -0.132  0.00  0.00    -0.073 A 
ATOM      7  C8  UNL d   1       2.702   0.464  -0.879  0.00  0.00     0.078 C 
ENDROOT
BRANCH   1   8
ATOM      8  C1  UNL d   1       0.148  -1.139  -1.036  0.00  0.00     0.053 C 
ATOM      9  C   UNL d   1      -1.297  -1.553  -1.266  0.00  0.00     0.018 C 
ENDBRANCH   1   8
TORSDOF 1
ENDMDL
