MODEL 1
REMARK minimizedAffinity -0.0801452026
REMARK minimizedRMSD -1
REMARK  1 active torsions:
REMARK  status: ('A' for Active; 'I' for Inactive)
REMARK    1  A    between atoms: C1_2  and  C2_3 
ROOT
ATOM      1  C2  UNL d   1       1.211   0.649   0.522  0.00  0.00    -0.076 A 
ATOM      2  C3  UNL d   1       1.197   1.628   1.530  0.00  0.00     0.004 A 
ATOM      3  C4  UNL d   1       2.385   2.151   2.039  0.00  0.00    -0.003 A 
ATOM      4  C5  UNL d   1       3.606   1.704   1.546  0.00  0.00     0.000 A 
ATOM      5  C6  UNL d   1       3.638   0.746   0.533  0.00  0.00     0.000 A 
ATOM      6  C7  UNL d   1       2.449   0.221  -0.002  0.00  0.00    -0.073 A 
ATOM      7  C8  UNL d   1       2.543  -0.815  -1.089  0.00  0.00     0.078 C 
ENDROOT
BRANCH   1   8
ATOM      8  C1  UNL d   1      -0.109   0.098   0.029  0.00  0.00     0.053 C 
ATOM      9  C   UNL d   1      -0.889  -0.612   1.124  0.00  0.00     0.018 C 
ENDBRANCH   1   8
TORSDOF 1
ENDMDL
