MODEL 1
REMARK minimizedAffinity -3.62633729
REMARK minimizedRMSD -1
REMARK  1 active torsions:
REMARK  status: ('A' for Active; 'I' for Inactive)
REMARK    1  A    between atoms: C1_2  and  C2_3 
ROOT
ATOM      1  C2  UNL d   1      -0.524   0.198   0.215  0.00  0.00    -0.076 A 
ATOM      2  C3  UNL d   1       0.654   0.770  -0.297  0.00  0.00     0.004 A 
ATOM      3  C4  UNL d   1       1.188   1.931   0.261  0.00  0.00    -0.003 A 
ATOM      4  C5  UNL d   1       0.554   2.537   1.339  0.00  0.00     0.000 A 
ATOM      5  C6  UNL d   1      -0.605   1.973   1.871  0.00  0.00     0.000 A 
ATOM      6  C7  UNL d   1      -1.148   0.794   1.331  0.00  0.00    -0.073 A 
ATOM      7  C8  UNL d   1      -2.403   0.233   1.940  0.00  0.00     0.078 C 
ENDROOT
BRANCH   1   8
ATOM      8  C1  UNL d   1      -1.071  -1.046  -0.447  0.00  0.00     0.053 C 
ATOM      9  C   UNL d   1      -1.375  -0.835  -1.923  0.00  0.00     0.018 C 
ENDBRANCH   1   8
TORSDOF 1
ENDMDL
