MODEL 1
REMARK minimizedAffinity -4.80644655
REMARK minimizedRMSD -1
REMARK  1 active torsions:
REMARK  status: ('A' for Active; 'I' for Inactive)
REMARK    1  A    between atoms: C1_2  and  C2_3 
ROOT
ATOM      1  C2  UNL d   1       2.414   1.868   1.437  0.00  0.00    -0.076 A 
ATOM      2  C3  UNL d   1       2.225   1.826   2.829  0.00  0.00     0.004 A 
ATOM      3  C4  UNL d   1       3.163   1.220   3.662  0.00  0.00    -0.003 A 
ATOM      4  C5  UNL d   1       4.307   0.646   3.117  0.00  0.00     0.000 A 
ATOM      5  C6  UNL d   1       4.519   0.694   1.740  0.00  0.00     0.000 A 
ATOM      6  C7  UNL d   1       3.591   1.316   0.887  0.00  0.00    -0.073 A 
ATOM      7  C8  UNL d   1       3.868   1.333  -0.592  0.00  0.00     0.078 C 
ENDROOT
BRANCH   1   8
ATOM      8  C1  UNL d   1       1.349   2.515   0.580  0.00  0.00     0.053 C 
ATOM      9  C   UNL d   1       0.402   1.499  -0.039  0.00  0.00     0.018 C 
ENDBRANCH   1   8
TORSDOF 1
ENDMDL
