MODEL 1
REMARK minimizedAffinity -1.76367342
REMARK minimizedRMSD -1
REMARK  1 active torsions:
REMARK  status: ('A' for Active; 'I' for Inactive)
REMARK    1  A    between atoms: C1_2  and  C2_3 
ROOT
ATOM      1  C2  UNL d   1      -0.737  -1.782  -1.527  0.00  0.00    -0.076 A 
ATOM      2  C3  UNL d   1      -1.726  -2.348  -0.703  0.00  0.00     0.004 A 
ATOM      3  C4  UNL d   1      -2.996  -2.634  -1.201  0.00  0.00    -0.003 A 
ATOM      4  C5  UNL d   1      -3.298  -2.360  -2.531  0.00  0.00     0.000 A 
ATOM      5  C6  UNL d   1      -2.323  -1.815  -3.366  0.00  0.00     0.000 A 
ATOM      6  C7  UNL d   1      -1.033  -1.536  -2.884  0.00  0.00    -0.073 A 
ATOM      7  C8  UNL d   1      -0.022  -0.943  -3.828  0.00  0.00     0.078 C 
ENDROOT
BRANCH   1   8
ATOM      8  C1  UNL d   1       0.614  -1.468  -0.924  0.00  0.00     0.053 C 
ATOM      9  C   UNL d   1       0.627  -0.141  -0.183  0.00  0.00     0.018 C 
ENDBRANCH   1   8
TORSDOF 1
ENDMDL
