MODEL 1
REMARK minimizedAffinity -1.12745988
REMARK minimizedRMSD -1
REMARK  1 active torsions:
REMARK  status: ('A' for Active; 'I' for Inactive)
REMARK    1  A    between atoms: C1_2  and  C2_3 
ROOT
ATOM      1  C2  UNL d   1      -1.052  -1.438  -1.608  0.00  0.00    -0.076 A 
ATOM      2  C3  UNL d   1      -0.576  -0.652  -2.671  0.00  0.00     0.004 A 
ATOM      3  C4  UNL d   1      -1.203  -0.673  -3.916  0.00  0.00    -0.003 A 
ATOM      4  C5  UNL d   1      -2.317  -1.480  -4.117  0.00  0.00     0.000 A 
ATOM      5  C6  UNL d   1      -2.814  -2.253  -3.068  0.00  0.00     0.000 A 
ATOM      6  C7  UNL d   1      -2.203  -2.231  -1.802  0.00  0.00    -0.073 A 
ATOM      7  C8  UNL d   1      -2.777  -3.090  -0.709  0.00  0.00     0.078 C 
ENDROOT
BRANCH   1   8
ATOM      8  C1  UNL d   1      -0.315  -1.395  -0.288  0.00  0.00     0.053 C 
ATOM      9  C   UNL d   1      -0.627  -0.141   0.513  0.00  0.00     0.018 C 
ENDBRANCH   1   8
TORSDOF 1
ENDMDL
