MODEL 1
REMARK minimizedAffinity -0.0283740684
REMARK minimizedRMSD -1
REMARK  1 active torsions:
REMARK  status: ('A' for Active; 'I' for Inactive)
REMARK    1  A    between atoms: C1_2  and  C2_3 
ROOT
ATOM      1  C2  UNL d   1       0.746   1.136   2.645  0.00  0.00    -0.076 A 
ATOM      2  C3  UNL d   1      -0.272   1.201   3.613  0.00  0.00     0.004 A 
ATOM      3  C4  UNL d   1       0.022   1.097   4.972  0.00  0.00    -0.003 A 
ATOM      4  C5  UNL d   1       1.339   0.926   5.385  0.00  0.00     0.000 A 
ATOM      5  C6  UNL d   1       2.363   0.876   4.439  0.00  0.00     0.000 A 
ATOM      6  C7  UNL d   1       2.085   0.996   3.067  0.00  0.00    -0.073 A 
ATOM      7  C8  UNL d   1       3.228   0.929   2.091  0.00  0.00     0.078 C 
ENDROOT
BRANCH   1   8
ATOM      8  C1  UNL d   1       0.364   1.228   1.185  0.00  0.00     0.053 C 
ATOM      9  C   UNL d   1      -0.783   0.297   0.823  0.00  0.00     0.018 C 
ENDBRANCH   1   8
TORSDOF 1
ENDMDL
