MODEL 1
REMARK minimizedAffinity 6.2337842
REMARK minimizedRMSD -1
REMARK  1 active torsions:
REMARK  status: ('A' for Active; 'I' for Inactive)
REMARK    1  A    between atoms: C1_2  and  C2_3 
ROOT
ATOM      1  C2  UNL d   1       0.740   0.689   1.495  0.00  0.00    -0.076 A 
ATOM      2  C3  UNL d   1       1.909   0.841   2.261  0.00  0.00     0.004 A 
ATOM      3  C4  UNL d   1       1.856   1.357   3.555  0.00  0.00    -0.003 A 
ATOM      4  C5  UNL d   1       0.633   1.728   4.104  0.00  0.00     0.000 A 
ATOM      5  C6  UNL d   1      -0.538   1.567   3.364  0.00  0.00     0.000 A 
ATOM      6  C7  UNL d   1      -0.504   1.033   2.064  0.00  0.00    -0.073 A 
ATOM      7  C8  UNL d   1      -1.797   0.887   1.310  0.00  0.00     0.078 C 
ENDROOT
BRANCH   1   8
ATOM      8  C1  UNL d   1       0.863   0.149   0.088  0.00  0.00     0.053 C 
ATOM      9  C   UNL d   1       0.057  -1.124  -0.120  0.00  0.00     0.018 C 
ENDBRANCH   1   8
TORSDOF 1
ENDMDL
