MODEL 1
REMARK minimizedAffinity -4.626791
REMARK minimizedRMSD -1
REMARK  2 active torsions:
REMARK  status: ('A' for Active; 'I' for Inactive)
REMARK    1  A    between atoms: C1_2  and  C2_3 
REMARK    2  A    between atoms: C2_3  and  C3_4 
ROOT
ATOM      1  C3  UNL d   1       0.103   0.380  -0.113  0.00  0.00    -0.075 A 
ATOM      2  C4  UNL d   1      -0.197  -0.626  -1.043  0.00  0.00     0.002 A 
ATOM      3  C5  UNL d   1       0.556  -0.760  -2.209  0.00  0.00     0.002 A 
ATOM      4  C6  UNL d   1       1.610   0.114  -2.466  0.00  0.00    -0.004 A 
ATOM      5  C7  UNL d   1       1.907   1.128  -1.557  0.00  0.00     0.002 A 
ATOM      6  C8  UNL d   1       1.158   1.262  -0.387  0.00  0.00     0.002 A 
ENDROOT
BRANCH   1   7
ATOM      7  C2  UNL d   1      -0.689   0.512   1.165  0.00  0.00     0.056 C 
BRANCH   7   8
ATOM      8  C1  UNL d   1      -2.194   0.280   0.993  0.00  0.00     0.007 C 
ATOM      9  C   UNL d   1      -3.034   0.966   2.062  0.00  0.00     0.009 C 
ENDBRANCH   7   8
ENDBRANCH   1   7
TORSDOF 2
ENDMDL
