MODEL 1
REMARK minimizedAffinity -3.99750876
REMARK minimizedRMSD -1
REMARK  2 active torsions:
REMARK  status: ('A' for Active; 'I' for Inactive)
REMARK    1  A    between atoms: C1_2  and  C2_3 
REMARK    2  A    between atoms: C2_3  and  C3_4 
ROOT
ATOM      1  C3  UNL d   1      -0.362   0.026   0.667  0.00  0.00    -0.075 A 
ATOM      2  C4  UNL d   1      -0.014  -1.275   0.275  0.00  0.00     0.002 A 
ATOM      3  C5  UNL d   1       0.913  -1.483  -0.747  0.00  0.00     0.002 A 
ATOM      4  C6  UNL d   1       1.495  -0.396  -1.394  0.00  0.00    -0.004 A 
ATOM      5  C7  UNL d   1       1.145   0.901  -1.024  0.00  0.00     0.002 A 
ATOM      6  C8  UNL d   1       0.221   1.112   0.001  0.00  0.00     0.002 A 
ENDROOT
BRANCH   1   7
ATOM      7  C2  UNL d   1      -1.343   0.257   1.792  0.00  0.00     0.056 C 
BRANCH   7   8
ATOM      8  C1  UNL d   1      -2.802  -0.022   1.415  0.00  0.00     0.007 C 
ATOM      9  C   UNL d   1      -3.751   1.100   1.815  0.00  0.00     0.009 C 
ENDBRANCH   7   8
ENDBRANCH   1   7
TORSDOF 2
ENDMDL
