MODEL 1
REMARK minimizedAffinity -3.07550693
REMARK minimizedRMSD -1
REMARK  2 active torsions:
REMARK  status: ('A' for Active; 'I' for Inactive)
REMARK    1  A    between atoms: C1_2  and  C2_3 
REMARK    2  A    between atoms: C2_3  and  C3_4 
ROOT
ATOM      1  C3  UNL d   1      -1.562   0.317   0.968  0.00  0.00    -0.075 A 
ATOM      2  C4  UNL d   1      -2.493  -0.726   0.851  0.00  0.00     0.002 A 
ATOM      3  C5  UNL d   1      -3.831  -0.522   1.187  0.00  0.00     0.002 A 
ATOM      4  C6  UNL d   1      -4.254   0.721   1.652  0.00  0.00    -0.004 A 
ATOM      5  C7  UNL d   1      -3.335   1.759   1.788  0.00  0.00     0.002 A 
ATOM      6  C8  UNL d   1      -1.996   1.559   1.449  0.00  0.00     0.002 A 
ENDROOT
BRANCH   1   7
ATOM      7  C2  UNL d   1      -0.118   0.110   0.578  0.00  0.00     0.056 C 
BRANCH   7   8
ATOM      8  C1  UNL d   1       0.320   0.922  -0.645  0.00  0.00     0.007 C 
ATOM      9  C   UNL d   1       1.227   0.144  -1.589  0.00  0.00     0.009 C 
ENDBRANCH   7   8
ENDBRANCH   1   7
TORSDOF 2
ENDMDL
