MODEL 1
REMARK minimizedAffinity -5.30017424
REMARK minimizedRMSD -1
REMARK  2 active torsions:
REMARK  status: ('A' for Active; 'I' for Inactive)
REMARK    1  A    between atoms: C1_2  and  C2_3 
REMARK    2  A    between atoms: C2_3  and  C3_4 
ROOT
ATOM      1  C3  UNL d   1      -0.089  -0.652  -0.014  0.00  0.00    -0.075 A 
ATOM      2  C4  UNL d   1       0.725   0.488   0.064  0.00  0.00     0.002 A 
ATOM      3  C5  UNL d   1       1.466   0.905  -1.042  0.00  0.00     0.002 A 
ATOM      4  C6  UNL d   1       1.413   0.185  -2.233  0.00  0.00    -0.004 A 
ATOM      5  C7  UNL d   1       0.621  -0.958  -2.316  0.00  0.00     0.002 A 
ATOM      6  C8  UNL d   1      -0.126  -1.376  -1.213  0.00  0.00     0.002 A 
ENDROOT
BRANCH   1   7
ATOM      7  C2  UNL d   1      -0.917  -1.092   1.170  0.00  0.00     0.056 C 
BRANCH   7   8
ATOM      8  C1  UNL d   1      -1.978  -0.075   1.601  0.00  0.00     0.007 C 
ATOM      9  C   UNL d   1      -3.399  -0.615   1.511  0.00  0.00     0.009 C 
ENDBRANCH   7   8
ENDBRANCH   1   7
TORSDOF 2
ENDMDL
