MODEL 1
REMARK minimizedAffinity -2.72067404
REMARK minimizedRMSD -1
REMARK  2 active torsions:
REMARK  status: ('A' for Active; 'I' for Inactive)
REMARK    1  A    between atoms: C1_2  and  C2_3 
REMARK    2  A    between atoms: C2_3  and  C3_4 
ROOT
ATOM      1  C3  UNL d   1      -0.926   0.337   0.649  0.00  0.00    -0.075 A 
ATOM      2  C4  UNL d   1      -2.109   0.560  -0.071  0.00  0.00     0.002 A 
ATOM      3  C5  UNL d   1      -3.342   0.584   0.581  0.00  0.00     0.002 A 
ATOM      4  C6  UNL d   1      -3.409   0.376   1.957  0.00  0.00    -0.004 A 
ATOM      5  C7  UNL d   1      -2.242   0.138   2.680  0.00  0.00     0.002 A 
ATOM      6  C8  UNL d   1      -1.007   0.118   2.031  0.00  0.00     0.002 A 
ENDROOT
BRANCH   1   7
ATOM      7  C2  UNL d   1       0.414   0.340  -0.046  0.00  0.00     0.056 C 
BRANCH   7   8
ATOM      8  C1  UNL d   1       0.439   1.146  -1.349  0.00  0.00     0.007 C 
ATOM      9  C   UNL d   1       1.325   0.527  -2.422  0.00  0.00     0.009 C 
ENDBRANCH   7   8
ENDBRANCH   1   7
TORSDOF 2
ENDMDL
