MODEL 1
REMARK minimizedAffinity -4.72309971
REMARK minimizedRMSD -1
REMARK  2 active torsions:
REMARK  status: ('A' for Active; 'I' for Inactive)
REMARK    1  A    between atoms: C1_2  and  C2_3 
REMARK    2  A    between atoms: C2_3  and  C3_4 
ROOT
ATOM      1  C3  UNL d   1       0.452  -0.301  -0.735  0.00  0.00    -0.075 A 
ATOM      2  C4  UNL d   1       0.156  -1.672  -0.730  0.00  0.00     0.002 A 
ATOM      3  C5  UNL d   1       0.776  -2.534  -1.634  0.00  0.00     0.002 A 
ATOM      4  C6  UNL d   1       1.691  -2.037  -2.559  0.00  0.00    -0.004 A 
ATOM      5  C7  UNL d   1       1.981  -0.675  -2.584  0.00  0.00     0.002 A 
ATOM      6  C8  UNL d   1       1.365   0.190  -1.678  0.00  0.00     0.002 A 
ENDROOT
BRANCH   1   7
ATOM      7  C2  UNL d   1      -0.194   0.633   0.260  0.00  0.00     0.056 C 
BRANCH   7   8
ATOM      8  C1  UNL d   1      -0.763  -0.070   1.497  0.00  0.00     0.007 C 
ATOM      9  C   UNL d   1      -2.277   0.044   1.609  0.00  0.00     0.009 C 
ENDBRANCH   7   8
ENDBRANCH   1   7
TORSDOF 2
ENDMDL
