MODEL 1
REMARK minimizedAffinity -3.29179668
REMARK minimizedRMSD -1
REMARK  2 active torsions:
REMARK  status: ('A' for Active; 'I' for Inactive)
REMARK    1  A    between atoms: C1_2  and  C2_3 
REMARK    2  A    between atoms: C2_3  and  C3_4 
ROOT
ATOM      1  C3  UNL d   1      -0.092   0.114  -0.022  0.00  0.00    -0.075 A 
ATOM      2  C4  UNL d   1       0.070  -0.856  -1.021  0.00  0.00     0.002 A 
ATOM      3  C5  UNL d   1       1.027  -0.689  -2.023  0.00  0.00     0.002 A 
ATOM      4  C6  UNL d   1       1.825   0.453  -2.044  0.00  0.00    -0.004 A 
ATOM      5  C7  UNL d   1       1.661   1.431  -1.065  0.00  0.00     0.002 A 
ATOM      6  C8  UNL d   1       0.707   1.264  -0.060  0.00  0.00     0.002 A 
ENDROOT
BRANCH   1   7
ATOM      7  C2  UNL d   1      -1.106  -0.075   1.081  0.00  0.00     0.056 C 
BRANCH   7   8
ATOM      8  C1  UNL d   1      -2.558  -0.123   0.593  0.00  0.00     0.007 C 
ATOM      9  C   UNL d   1      -3.529   0.588   1.525  0.00  0.00     0.009 C 
ENDBRANCH   7   8
ENDBRANCH   1   7
TORSDOF 2
ENDMDL
