MODEL 1
REMARK minimizedAffinity -5.15167332
REMARK minimizedRMSD -1
REMARK  2 active torsions:
REMARK  status: ('A' for Active; 'I' for Inactive)
REMARK    1  A    between atoms: C1_2  and  C2_3 
REMARK    2  A    between atoms: C2_3  and  C3_4 
ROOT
ATOM      1  C3  UNL d   1      -0.097  -1.049   0.324  0.00  0.00    -0.075 A 
ATOM      2  C4  UNL d   1       0.186   0.083  -0.454  0.00  0.00     0.002 A 
ATOM      3  C5  UNL d   1       0.512  -0.049  -1.804  0.00  0.00     0.002 A 
ATOM      4  C6  UNL d   1       0.569  -1.312  -2.390  0.00  0.00    -0.004 A 
ATOM      5  C7  UNL d   1       0.306  -2.444  -1.622  0.00  0.00     0.002 A 
ATOM      6  C8  UNL d   1      -0.025  -2.315  -0.272  0.00  0.00     0.002 A 
ENDROOT
BRANCH   1   7
ATOM      7  C2  UNL d   1      -0.480  -0.910   1.778  0.00  0.00     0.056 C 
BRANCH   7   8
ATOM      8  C1  UNL d   1      -1.389   0.287   2.073  0.00  0.00     0.007 C 
ATOM      9  C   UNL d   1      -2.859   0.009   1.788  0.00  0.00     0.009 C 
ENDBRANCH   7   8
ENDBRANCH   1   7
TORSDOF 2
ENDMDL
