MODEL 1
REMARK minimizedAffinity -4.61439276
REMARK minimizedRMSD -1
REMARK  2 active torsions:
REMARK  status: ('A' for Active; 'I' for Inactive)
REMARK    1  A    between atoms: C1_2  and  C2_3 
REMARK    2  A    between atoms: C2_3  and  C3_4 
ROOT
ATOM      1  C3  UNL d   1      -1.349  -0.210   0.705  0.00  0.00    -0.075 A 
ATOM      2  C4  UNL d   1      -1.297   0.078   2.076  0.00  0.00     0.002 A 
ATOM      3  C5  UNL d   1      -2.472   0.203   2.819  0.00  0.00     0.002 A 
ATOM      4  C6  UNL d   1      -3.710   0.052   2.199  0.00  0.00    -0.004 A 
ATOM      5  C7  UNL d   1      -3.774  -0.218   0.834  0.00  0.00     0.002 A 
ATOM      6  C8  UNL d   1      -2.600  -0.348   0.089  0.00  0.00     0.002 A 
ENDROOT
BRANCH   1   7
ATOM      7  C2  UNL d   1      -0.081  -0.375  -0.099  0.00  0.00     0.056 C 
BRANCH   7   8
ATOM      8  C1  UNL d   1       0.322   0.873  -0.892  0.00  0.00     0.007 C 
ATOM      9  C   UNL d   1       1.621   0.698  -1.666  0.00  0.00     0.009 C 
ENDBRANCH   7   8
ENDBRANCH   1   7
TORSDOF 2
ENDMDL
