MODEL 1
REMARK minimizedAffinity -2.95132351
REMARK minimizedRMSD -1
REMARK  1 active torsions:
REMARK  status: ('A' for Active; 'I' for Inactive)
REMARK    1  A    between atoms: C3_4  and  O_7 
ROOT
ATOM      1  C   UNL d   1      -1.319   0.118   0.426  0.00  0.00    -0.033 A 
ATOM      2  C1  UNL d   1      -0.853   0.067   1.741  0.00  0.00     0.039 A 
ATOM      3  C2  UNL d   1       0.418  -0.441   2.014  0.00  0.00    -0.080 A 
ATOM      4  C3  UNL d   1       1.213  -0.894   0.965  0.00  0.00     0.150 A 
ATOM      5  C4  UNL d   1       0.757  -0.843  -0.348  0.00  0.00    -0.007 A 
ATOM      6  C5  UNL d   1      -0.514  -0.336  -0.619  0.00  0.00     0.039 A 
ENDROOT
BRANCH   4   7
ATOM      7  O   UNL d   1       2.459  -1.402   1.182  0.00  0.00    -0.526 OA
ATOM      8  H5  UNL d   1       2.629  -1.402   2.139  0.00  0.00     0.418 HD
ENDBRANCH   4   7
TORSDOF 1
ENDMDL
