MODEL 1
REMARK minimizedAffinity -3.07131481
REMARK minimizedRMSD -1
REMARK  1 active torsions:
REMARK  status: ('A' for Active; 'I' for Inactive)
REMARK    1  A    between atoms: C3_4  and  O_7 
ROOT
ATOM      1  C   UNL d   1       0.789   0.630  -4.904  0.00  0.00    -0.033 A 
ATOM      2  C1  UNL d   1      -0.366   0.074  -4.351  0.00  0.00     0.039 A 
ATOM      3  C2  UNL d   1      -0.335  -0.469  -3.065  0.00  0.00    -0.080 A 
ATOM      4  C3  UNL d   1       0.856  -0.449  -2.344  0.00  0.00     0.150 A 
ATOM      5  C4  UNL d   1       2.010   0.106  -2.888  0.00  0.00    -0.007 A 
ATOM      6  C5  UNL d   1       1.976   0.647  -4.172  0.00  0.00     0.039 A 
ENDROOT
BRANCH   4   7
ATOM      7  O   UNL d   1       0.937  -0.972  -1.088  0.00  0.00    -0.526 OA
ATOM      8  H5  UNL d   1       0.071  -1.346  -0.854  0.00  0.00     0.418 HD
ENDBRANCH   4   7
TORSDOF 1
ENDMDL
