MODEL 1
REMARK minimizedAffinity -2.45896125
REMARK minimizedRMSD -1
REMARK  1 active torsions:
REMARK  status: ('A' for Active; 'I' for Inactive)
REMARK    1  A    between atoms: C3_4  and  O_7 
ROOT
ATOM      1  C   UNL d   1      -0.533  -0.527  -0.891  0.00  0.00    -0.033 A 
ATOM      2  C1  UNL d   1      -0.736   0.058   0.361  0.00  0.00     0.039 A 
ATOM      3  C2  UNL d   1       0.227  -0.079   1.362  0.00  0.00    -0.080 A 
ATOM      4  C3  UNL d   1       1.388  -0.801   1.100  0.00  0.00     0.150 A 
ATOM      5  C4  UNL d   1       1.599  -1.383  -0.146  0.00  0.00    -0.007 A 
ATOM      6  C5  UNL d   1       0.635  -1.246  -1.145  0.00  0.00     0.039 A 
ENDROOT
BRANCH   4   7
ATOM      7  O   UNL d   1       2.354  -0.966   2.047  0.00  0.00    -0.526 OA
ATOM      8  H5  UNL d   1       2.059  -0.535   2.866  0.00  0.00     0.418 HD
ENDBRANCH   4   7
TORSDOF 1
ENDMDL
