MODEL 1
REMARK minimizedAffinity -4.63627863
REMARK minimizedRMSD -1
REMARK  1 active torsions:
REMARK  status: ('A' for Active; 'I' for Inactive)
REMARK    1  A    between atoms: C3_4  and  O_7 
ROOT
ATOM      1  C   UNL d   1      -2.099   0.296   0.347  0.00  0.00    -0.033 A 
ATOM      2  C1  UNL d   1      -1.901   0.735   1.657  0.00  0.00     0.039 A 
ATOM      3  C2  UNL d   1      -0.635   0.654   2.239  0.00  0.00    -0.080 A 
ATOM      4  C3  UNL d   1       0.425   0.135   1.500  0.00  0.00     0.150 A 
ATOM      5  C4  UNL d   1       0.236  -0.301   0.193  0.00  0.00    -0.007 A 
ATOM      6  C5  UNL d   1      -1.030  -0.221  -0.386  0.00  0.00     0.039 A 
ENDROOT
BRANCH   4   7
ATOM      7  O   UNL d   1       1.678   0.032   2.027  0.00  0.00    -0.526 OA
ATOM      8  H5  UNL d   1       1.652   0.344   2.946  0.00  0.00     0.418 HD
ENDBRANCH   4   7
TORSDOF 1
ENDMDL
