MODEL 1
REMARK minimizedAffinity -2.22687888
REMARK minimizedRMSD -1
REMARK  1 active torsions:
REMARK  status: ('A' for Active; 'I' for Inactive)
REMARK    1  A    between atoms: C3_4  and  O_7 
ROOT
ATOM      1  C   UNL d   1       1.182   0.304  -2.804  0.00  0.00    -0.033 A 
ATOM      2  C1  UNL d   1       1.137   1.356  -3.721  0.00  0.00     0.039 A 
ATOM      3  C2  UNL d   1       0.236   1.318  -4.786  0.00  0.00    -0.080 A 
ATOM      4  C3  UNL d   1      -0.615   0.224  -4.922  0.00  0.00     0.150 A 
ATOM      5  C4  UNL d   1      -0.578  -0.826  -4.010  0.00  0.00    -0.007 A 
ATOM      6  C5  UNL d   1       0.324  -0.786  -2.947  0.00  0.00     0.039 A 
ENDROOT
BRANCH   4   7
ATOM      7  O   UNL d   1      -1.508   0.139  -5.948  0.00  0.00    -0.526 OA
ATOM      8  H5  UNL d   1      -1.401   0.922  -6.515  0.00  0.00     0.418 HD
ENDBRANCH   4   7
TORSDOF 1
ENDMDL
