MODEL 1
REMARK minimizedAffinity 5.48716068
REMARK minimizedRMSD -1
REMARK  0 active torsions:
REMARK  status: ('A' for Active; 'I' for Inactive)
ROOT
ATOM      1  C   UNL d   1       1.905  -5.999  -0.859  0.00  0.00     0.023 A 
ATOM      2  C1  UNL d   1       3.151  -5.947  -1.483  0.00  0.00     0.003 A 
ATOM      3  C2  UNL d   1       4.021  -4.887  -1.222  0.00  0.00     0.048 A 
ATOM      4  C3  UNL d   1       3.639  -3.882  -0.334  0.00  0.00     0.023 A 
ATOM      5  C4  UNL d   1       2.393  -3.930   0.294  0.00  0.00     0.048 A 
ATOM      6  C5  UNL d   1       1.526  -4.991   0.028  0.00  0.00     0.003 A 
ATOM      7  I   UNL d   1       4.932  -2.302   0.057  0.00  0.00    -0.146 I 
ENDROOT
TORSDOF 0
ENDMDL
