MODEL 1
REMARK minimizedAffinity 8.78385067
REMARK minimizedRMSD -1
REMARK  0 active torsions:
REMARK  status: ('A' for Active; 'I' for Inactive)
ROOT
ATOM      1  C   UNL d   1       6.000  -2.306  -2.415  0.00  0.00     0.023 A 
ATOM      2  C1  UNL d   1       5.884  -2.663  -1.072  0.00  0.00     0.003 A 
ATOM      3  C2  UNL d   1       5.055  -3.722  -0.698  0.00  0.00     0.048 A 
ATOM      4  C3  UNL d   1       4.345  -4.422  -1.673  0.00  0.00     0.023 A 
ATOM      5  C4  UNL d   1       4.458  -4.070  -3.019  0.00  0.00     0.048 A 
ATOM      6  C5  UNL d   1       5.288  -3.009  -3.388  0.00  0.00     0.003 A 
ATOM      7  I   UNL d   1       3.111  -6.000  -1.119  0.00  0.00    -0.146 I 
ENDROOT
TORSDOF 0
ENDMDL
