MODEL 1
REMARK minimizedAffinity 12.8751087
REMARK minimizedRMSD -1
REMARK  0 active torsions:
REMARK  status: ('A' for Active; 'I' for Inactive)
ROOT
ATOM      1  C   UNL d   1       4.219  -3.826  -3.062  0.00  0.00     0.023 A 
ATOM      2  C1  UNL d   1       5.254  -3.232  -2.340  0.00  0.00     0.003 A 
ATOM      3  C2  UNL d   1       5.756  -3.854  -1.196  0.00  0.00     0.048 A 
ATOM      4  C3  UNL d   1       5.219  -5.071  -0.778  0.00  0.00     0.023 A 
ATOM      5  C4  UNL d   1       4.183  -5.670  -1.498  0.00  0.00     0.048 A 
ATOM      6  C5  UNL d   1       3.684  -5.043  -2.641  0.00  0.00     0.003 A 
ATOM      7  I   UNL d   1       5.964  -6.000   0.925  0.00  0.00    -0.146 I 
ENDROOT
TORSDOF 0
ENDMDL
