MODEL 1
REMARK minimizedAffinity 10.9011011
REMARK minimizedRMSD -1
REMARK  0 active torsions:
REMARK  status: ('A' for Active; 'I' for Inactive)
ROOT
ATOM      1  C   UNL d   1      -0.475   2.297   1.734  0.00  0.00     0.023 A 
ATOM      2  C1  UNL d   1       0.881   1.997   1.603  0.00  0.00     0.003 A 
ATOM      3  C2  UNL d   1       1.461   1.014   2.408  0.00  0.00     0.048 A 
ATOM      4  C3  UNL d   1       0.678   0.335   3.342  0.00  0.00     0.023 A 
ATOM      5  C4  UNL d   1      -0.679   0.631   3.476  0.00  0.00     0.048 A 
ATOM      6  C5  UNL d   1      -1.254   1.615   2.669  0.00  0.00     0.003 A 
ATOM      7  I   UNL d   1       1.539  -1.128   4.541  0.00  0.00    -0.146 I 
ENDROOT
TORSDOF 0
ENDMDL
