MODEL 1
REMARK minimizedAffinity 11.5952253
REMARK minimizedRMSD -1
REMARK  0 active torsions:
REMARK  status: ('A' for Active; 'I' for Inactive)
ROOT
ATOM      1  C   UNL d   1      -1.371  -0.203  -3.660  0.00  0.00     0.023 A 
ATOM      2  C1  UNL d   1      -2.296   0.831  -3.513  0.00  0.00     0.003 A 
ATOM      3  C2  UNL d   1      -2.818   1.129  -2.252  0.00  0.00     0.048 A 
ATOM      4  C3  UNL d   1      -2.410   0.388  -1.143  0.00  0.00     0.023 A 
ATOM      5  C4  UNL d   1      -1.485  -0.647  -1.285  0.00  0.00     0.048 A 
ATOM      6  C5  UNL d   1      -0.967  -0.941  -2.548  0.00  0.00     0.003 A 
ATOM      7  I   UNL d   1      -3.186   0.829   0.734  0.00  0.00    -0.146 I 
ENDROOT
TORSDOF 0
ENDMDL
