MODEL 1
REMARK minimizedAffinity 2.6568563
REMARK minimizedRMSD -1
REMARK  0 active torsions:
REMARK  status: ('A' for Active; 'I' for Inactive)
ROOT
ATOM      1  C   UNL d   1       0.225   4.642  -0.068  0.00  0.00     0.023 A 
ATOM      2  C1  UNL d   1       0.719   3.541   0.632  0.00  0.00     0.003 A 
ATOM      3  C2  UNL d   1      -0.163   2.645   1.239  0.00  0.00     0.048 A 
ATOM      4  C3  UNL d   1      -1.538   2.854   1.140  0.00  0.00     0.023 A 
ATOM      5  C4  UNL d   1      -2.037   3.953   0.439  0.00  0.00     0.048 A 
ATOM      6  C5  UNL d   1      -1.151   4.848  -0.165  0.00  0.00     0.003 A 
ATOM      7  I   UNL d   1      -2.853   1.521   2.041  0.00  0.00    -0.146 I 
ENDROOT
TORSDOF 0
ENDMDL
