MODEL 1
REMARK minimizedAffinity 9.32018375
REMARK minimizedRMSD -1
REMARK  0 active torsions:
REMARK  status: ('A' for Active; 'I' for Inactive)
ROOT
ATOM      1  C   UNL d   1       4.791  -3.133   0.278  0.00  0.00     0.023 A 
ATOM      2  C1  UNL d   1       4.713  -4.330  -0.434  0.00  0.00     0.003 A 
ATOM      3  C2  UNL d   1       4.899  -4.333  -1.818  0.00  0.00     0.048 A 
ATOM      4  C3  UNL d   1       5.164  -3.137  -2.483  0.00  0.00     0.023 A 
ATOM      5  C4  UNL d   1       5.244  -1.937  -1.774  0.00  0.00     0.048 A 
ATOM      6  C5  UNL d   1       5.057  -1.938  -0.391  0.00  0.00     0.003 A 
ATOM      7  I   UNL d   1       5.442  -3.139  -4.543  0.00  0.00    -0.146 I 
ENDROOT
TORSDOF 0
ENDMDL
