MODEL 1
REMARK minimizedAffinity 11.7826509
REMARK minimizedRMSD -1
REMARK  0 active torsions:
REMARK  status: ('A' for Active; 'I' for Inactive)
ROOT
ATOM      1  C   UNL d   1       1.129   4.167   0.469  0.00  0.00     0.023 A 
ATOM      2  C1  UNL d   1       0.276   3.088   0.699  0.00  0.00     0.003 A 
ATOM      3  C2  UNL d   1       0.595   2.139   1.673  0.00  0.00     0.048 A 
ATOM      4  C3  UNL d   1       1.767   2.277   2.415  0.00  0.00     0.023 A 
ATOM      5  C4  UNL d   1       2.624   3.356   2.189  0.00  0.00     0.048 A 
ATOM      6  C5  UNL d   1       2.302   4.301   1.213  0.00  0.00     0.003 A 
ATOM      7  I   UNL d   1       2.243   0.867   3.866  0.00  0.00    -0.146 I 
ENDROOT
TORSDOF 0
ENDMDL
