MODEL 1
REMARK minimizedAffinity 10.9964771
REMARK minimizedRMSD -1
REMARK  0 active torsions:
REMARK  status: ('A' for Active; 'I' for Inactive)
ROOT
ATOM      1  C   UNL d   1      -2.694  -5.265  -4.509  0.00  0.00     0.023 A 
ATOM      2  C1  UNL d   1      -3.553  -5.570  -5.565  0.00  0.00     0.003 A 
ATOM      3  C2  UNL d   1      -4.495  -4.632  -5.993  0.00  0.00     0.048 A 
ATOM      4  C3  UNL d   1      -4.571  -3.391  -5.361  0.00  0.00     0.023 A 
ATOM      5  C4  UNL d   1      -3.713  -3.082  -4.305  0.00  0.00     0.048 A 
ATOM      6  C5  UNL d   1      -2.774  -4.023  -3.880  0.00  0.00     0.003 A 
ATOM      7  I   UNL d   1      -5.973  -1.994  -5.997  0.00  0.00    -0.146 I 
ENDROOT
TORSDOF 0
ENDMDL
