MODEL 1
REMARK minimizedAffinity 12.0026865
REMARK minimizedRMSD -1
REMARK  0 active torsions:
REMARK  status: ('A' for Active; 'I' for Inactive)
ROOT
ATOM      1  C   UNL d   1      -2.619  -4.570  -3.047  0.00  0.00     0.023 A 
ATOM      2  C1  UNL d   1      -3.084  -3.352  -3.541  0.00  0.00     0.003 A 
ATOM      3  C2  UNL d   1      -2.245  -2.236  -3.556  0.00  0.00     0.048 A 
ATOM      4  C3  UNL d   1      -0.940  -2.347  -3.076  0.00  0.00     0.023 A 
ATOM      5  C4  UNL d   1      -0.469  -3.565  -2.582  0.00  0.00     0.048 A 
ATOM      6  C5  UNL d   1      -1.313  -4.677  -2.569  0.00  0.00     0.003 A 
ATOM      7  I   UNL d   1       0.312  -0.688  -3.098  0.00  0.00    -0.146 I 
ENDROOT
TORSDOF 0
ENDMDL
