MODEL 1
REMARK minimizedAffinity 8.08571911
REMARK minimizedRMSD -1
REMARK  0 active torsions:
REMARK  status: ('A' for Active; 'I' for Inactive)
ROOT
ATOM      1  C   UNL d   1      -1.873  -4.295  -3.107  0.00  0.00     0.023 A 
ATOM      2  C1  UNL d   1      -1.898  -3.319  -4.102  0.00  0.00     0.003 A 
ATOM      3  C2  UNL d   1      -3.014  -3.195  -4.932  0.00  0.00     0.048 A 
ATOM      4  C3  UNL d   1      -4.101  -4.051  -4.761  0.00  0.00     0.023 A 
ATOM      5  C4  UNL d   1      -4.081  -5.029  -3.766  0.00  0.00     0.048 A 
ATOM      6  C5  UNL d   1      -2.963  -5.150  -2.939  0.00  0.00     0.003 A 
ATOM      7  I   UNL d   1      -5.764  -3.868  -5.995  0.00  0.00    -0.146 I 
ENDROOT
TORSDOF 0
ENDMDL
