MODEL 1
REMARK minimizedAffinity 14.0623074
REMARK minimizedRMSD -1
REMARK  0 active torsions:
REMARK  status: ('A' for Active; 'I' for Inactive)
ROOT
ATOM      1  C   UNL d   1       4.346   0.464   0.208  0.00  0.00     0.023 A 
ATOM      2  C1  UNL d   1       4.303   1.566  -0.647  0.00  0.00     0.003 A 
ATOM      3  C2  UNL d   1       3.659   1.468  -1.882  0.00  0.00     0.048 A 
ATOM      4  C3  UNL d   1       3.059   0.266  -2.256  0.00  0.00     0.023 A 
ATOM      5  C4  UNL d   1       3.099  -0.839  -1.403  0.00  0.00     0.048 A 
ATOM      6  C5  UNL d   1       3.744  -0.737  -0.170  0.00  0.00     0.003 A 
ATOM      7  I   UNL d   1       2.100   0.118  -4.094  0.00  0.00    -0.146 I 
ENDROOT
TORSDOF 0
ENDMDL
