MODEL 1
REMARK minimizedAffinity 6.18770742
REMARK minimizedRMSD -1
REMARK  0 active torsions:
REMARK  status: ('A' for Active; 'I' for Inactive)
ROOT
ATOM      1  C   UNL d   1      -5.999  -3.948  -6.000  0.00  0.00     0.023 A 
ATOM      2  C1  UNL d   1      -5.308  -3.039  -5.198  0.00  0.00     0.003 A 
ATOM      3  C2  UNL d   1      -4.254  -3.476  -4.394  0.00  0.00     0.048 A 
ATOM      4  C3  UNL d   1      -3.895  -4.823  -4.397  0.00  0.00     0.023 A 
ATOM      5  C4  UNL d   1      -4.582  -5.736  -5.198  0.00  0.00     0.048 A 
ATOM      6  C5  UNL d   1      -5.636  -5.295  -6.000  0.00  0.00     0.003 A 
ATOM      7  I   UNL d   1      -2.325  -5.476  -3.201  0.00  0.00    -0.146 I 
ENDROOT
TORSDOF 0
ENDMDL
