MODEL 1
REMARK minimizedAffinity 10.3787632
REMARK minimizedRMSD -1
REMARK  0 active torsions:
REMARK  status: ('A' for Active; 'I' for Inactive)
ROOT
ATOM      1  C   UNL d   1      -1.114   4.602  -5.991  0.00  0.00     0.023 A 
ATOM      2  C1  UNL d   1      -1.882   5.766  -5.987  0.00  0.00     0.003 A 
ATOM      3  C2  UNL d   1      -3.276   5.684  -5.990  0.00  0.00     0.048 A 
ATOM      4  C3  UNL d   1      -3.895   4.435  -5.996  0.00  0.00     0.023 A 
ATOM      5  C4  UNL d   1      -3.130   3.267  -5.999  0.00  0.00     0.048 A 
ATOM      6  C5  UNL d   1      -1.737   3.354  -5.997  0.00  0.00     0.003 A 
ATOM      7  I   UNL d   1      -5.970   4.310  -6.000  0.00  0.00    -0.146 I 
ENDROOT
TORSDOF 0
ENDMDL
