MODEL 1
REMARK minimizedAffinity 12.7307682
REMARK minimizedRMSD -1
REMARK  0 active torsions:
REMARK  status: ('A' for Active; 'I' for Inactive)
ROOT
ATOM      1  C   UNL d   1       4.204   1.022   0.170  0.00  0.00     0.023 A 
ATOM      2  C1  UNL d   1       3.630  -0.202  -0.174  0.00  0.00     0.003 A 
ATOM      3  C2  UNL d   1       3.028  -0.365  -1.423  0.00  0.00     0.048 A 
ATOM      4  C3  UNL d   1       3.003   0.699  -2.324  0.00  0.00     0.023 A 
ATOM      5  C4  UNL d   1       3.577   1.925  -1.984  0.00  0.00     0.048 A 
ATOM      6  C5  UNL d   1       4.178   2.084  -0.734  0.00  0.00     0.003 A 
ATOM      7  I   UNL d   1       2.107   0.458  -4.183  0.00  0.00    -0.146 I 
ENDROOT
TORSDOF 0
ENDMDL
