MODEL 1
REMARK minimizedAffinity 16.4405041
REMARK minimizedRMSD -1
REMARK  0 active torsions:
REMARK  status: ('A' for Active; 'I' for Inactive)
ROOT
ATOM      1  C   UNL d   1       2.481  -0.494  -5.227  0.00  0.00     0.023 A 
ATOM      2  C1  UNL d   1       2.126  -0.090  -3.940  0.00  0.00     0.003 A 
ATOM      3  C2  UNL d   1       1.041  -0.686  -3.294  0.00  0.00     0.048 A 
ATOM      4  C3  UNL d   1       0.316  -1.687  -3.941  0.00  0.00     0.023 A 
ATOM      5  C4  UNL d   1       0.668  -2.094  -5.229  0.00  0.00     0.048 A 
ATOM      6  C5  UNL d   1       1.753  -1.495  -5.871  0.00  0.00     0.003 A 
ATOM      7  I   UNL d   1      -1.299  -2.576  -2.982  0.00  0.00    -0.146 I 
ENDROOT
TORSDOF 0
ENDMDL
