MODEL 1
REMARK minimizedAffinity 21.049036
REMARK minimizedRMSD -1
REMARK  0 active torsions:
REMARK  status: ('A' for Active; 'I' for Inactive)
ROOT
ATOM      1  C   UNL d   1       1.479   5.891  -0.787  0.00  0.00     0.023 A 
ATOM      2  C1  UNL d   1       1.502   5.265   0.460  0.00  0.00     0.003 A 
ATOM      3  C2  UNL d   1       2.045   3.985   0.590  0.00  0.00     0.048 A 
ATOM      4  C3  UNL d   1       2.564   3.337  -0.530  0.00  0.00     0.023 A 
ATOM      5  C4  UNL d   1       2.543   3.959  -1.779  0.00  0.00     0.048 A 
ATOM      6  C5  UNL d   1       1.999   5.238  -1.905  0.00  0.00     0.003 A 
ATOM      7  I   UNL d   1       3.372   1.432  -0.338  0.00  0.00    -0.146 I 
ENDROOT
TORSDOF 0
ENDMDL
