MODEL 1
REMARK minimizedAffinity 18.7238483
REMARK minimizedRMSD -1
REMARK  0 active torsions:
REMARK  status: ('A' for Active; 'I' for Inactive)
ROOT
ATOM      1  C   UNL d   1      -2.764  -3.833  -3.001  0.00  0.00     0.023 A 
ATOM      2  C1  UNL d   1      -2.612  -4.924  -2.145  0.00  0.00     0.003 A 
ATOM      3  C2  UNL d   1      -1.369  -5.547  -2.020  0.00  0.00     0.048 A 
ATOM      4  C3  UNL d   1      -0.281  -5.074  -2.753  0.00  0.00     0.023 A 
ATOM      5  C4  UNL d   1      -0.428  -3.982  -3.611  0.00  0.00     0.048 A 
ATOM      6  C5  UNL d   1      -1.674  -3.363  -3.733  0.00  0.00     0.003 A 
ATOM      7  I   UNL d   1       1.570  -6.000  -2.569  0.00  0.00    -0.146 I 
ENDROOT
TORSDOF 0
ENDMDL
