MODEL 1
REMARK minimizedAffinity 13.0604868
REMARK minimizedRMSD -1
REMARK  0 active torsions:
REMARK  status: ('A' for Active; 'I' for Inactive)
ROOT
ATOM      1  C   UNL d   1       0.139   1.341   2.811  0.00  0.00     0.023 A 
ATOM      2  C1  UNL d   1      -1.056   1.908   2.368  0.00  0.00     0.003 A 
ATOM      3  C2  UNL d   1      -2.243   1.175   2.428  0.00  0.00     0.048 A 
ATOM      4  C3  UNL d   1      -2.227  -0.125   2.934  0.00  0.00     0.023 A 
ATOM      5  C4  UNL d   1      -1.034  -0.696   3.379  0.00  0.00     0.048 A 
ATOM      6  C5  UNL d   1       0.150   0.041   3.316  0.00  0.00     0.003 A 
ATOM      7  I   UNL d   1      -3.993  -1.218   3.026  0.00  0.00    -0.146 I 
ENDROOT
TORSDOF 0
ENDMDL
