MODEL 1
REMARK minimizedAffinity 12.1346588
REMARK minimizedRMSD -1
REMARK  0 active torsions:
REMARK  status: ('A' for Active; 'I' for Inactive)
ROOT
ATOM      1  C   UNL d   1      -2.051   0.989   2.734  0.00  0.00     0.023 A 
ATOM      2  C1  UNL d   1      -1.877  -0.040   1.808  0.00  0.00     0.003 A 
ATOM      3  C2  UNL d   1      -2.935  -0.901   1.511  0.00  0.00     0.048 A 
ATOM      4  C3  UNL d   1      -4.166  -0.727   2.143  0.00  0.00     0.023 A 
ATOM      5  C4  UNL d   1      -4.345   0.301   3.070  0.00  0.00     0.048 A 
ATOM      6  C5  UNL d   1      -3.284   1.159   3.364  0.00  0.00     0.003 A 
ATOM      7  I   UNL d   1      -5.743  -2.008   1.703  0.00  0.00    -0.146 I 
ENDROOT
TORSDOF 0
ENDMDL
