MODEL 1
REMARK minimizedAffinity 2.82651281
REMARK minimizedRMSD -1
REMARK  0 active torsions:
REMARK  status: ('A' for Active; 'I' for Inactive)
ROOT
ATOM      1  C   UNL d   1      -4.156  -3.367  -6.000  0.00  0.00     0.023 A 
ATOM      2  C1  UNL d   1      -4.879  -4.161  -5.109  0.00  0.00     0.003 A 
ATOM      3  C2  UNL d   1      -4.209  -4.918  -4.145  0.00  0.00     0.048 A 
ATOM      4  C3  UNL d   1      -2.817  -4.875  -4.076  0.00  0.00     0.023 A 
ATOM      5  C4  UNL d   1      -2.090  -4.081  -4.965  0.00  0.00     0.048 A 
ATOM      6  C5  UNL d   1      -2.764  -3.327  -5.928  0.00  0.00     0.003 A 
ATOM      7  I   UNL d   1      -1.819  -6.000  -2.642  0.00  0.00    -0.146 I 
ENDROOT
TORSDOF 0
ENDMDL
