MODEL 1
REMARK minimizedAffinity 16.8863811
REMARK minimizedRMSD -1
REMARK  0 active torsions:
REMARK  status: ('A' for Active; 'I' for Inactive)
ROOT
ATOM      1  C   UNL d   1      -1.007  -0.976   2.503  0.00  0.00     0.023 A 
ATOM      2  C1  UNL d   1      -1.956  -0.108   1.965  0.00  0.00     0.003 A 
ATOM      3  C2  UNL d   1      -3.271  -0.539   1.775  0.00  0.00     0.048 A 
ATOM      4  C3  UNL d   1      -3.629  -1.840   2.126  0.00  0.00     0.023 A 
ATOM      5  C4  UNL d   1      -2.683  -2.712   2.666  0.00  0.00     0.048 A 
ATOM      6  C5  UNL d   1      -1.370  -2.277   2.853  0.00  0.00     0.003 A 
ATOM      7  I   UNL d   1      -5.585  -2.484   1.844  0.00  0.00    -0.146 I 
ENDROOT
TORSDOF 0
ENDMDL
