MODEL 1
REMARK minimizedAffinity 9.43273354
REMARK minimizedRMSD -1
REMARK  0 active torsions:
REMARK  status: ('A' for Active; 'I' for Inactive)
ROOT
ATOM      1  C   UNL d   1       0.767   1.449   5.997  0.00  0.00     0.023 A 
ATOM      2  C1  UNL d   1      -0.033   0.305   6.000  0.00  0.00     0.003 A 
ATOM      3  C2  UNL d   1      -1.424   0.425   5.999  0.00  0.00     0.048 A 
ATOM      4  C3  UNL d   1      -2.009   1.690   5.995  0.00  0.00     0.023 A 
ATOM      5  C4  UNL d   1      -1.213   2.837   5.991  0.00  0.00     0.048 A 
ATOM      6  C5  UNL d   1       0.177   2.713   5.992  0.00  0.00     0.003 A 
ATOM      7  I   UNL d   1      -4.080   1.870   5.993  0.00  0.00    -0.146 I 
ENDROOT
TORSDOF 0
ENDMDL
