MODEL 1
REMARK minimizedAffinity 9.14209366
REMARK minimizedRMSD -1
REMARK  0 active torsions:
REMARK  status: ('A' for Active; 'I' for Inactive)
ROOT
ATOM      1  C   UNL d   1      -1.883   1.263   5.999  0.00  0.00     0.023 A 
ATOM      2  C1  UNL d   1      -2.749   0.248   5.592  0.00  0.00     0.003 A 
ATOM      3  C2  UNL d   1      -3.536   0.415   4.450  0.00  0.00     0.048 A 
ATOM      4  C3  UNL d   1      -3.450   1.600   3.720  0.00  0.00     0.023 A 
ATOM      5  C4  UNL d   1      -2.585   2.618   4.122  0.00  0.00     0.048 A 
ATOM      6  C5  UNL d   1      -1.801   2.446   5.265  0.00  0.00     0.003 A 
ATOM      7  I   UNL d   1      -4.620   1.851   2.020  0.00  0.00    -0.146 I 
ENDROOT
TORSDOF 0
ENDMDL
