MODEL 1
REMARK minimizedAffinity 6.07861423
REMARK minimizedRMSD -1
REMARK  0 active torsions:
REMARK  status: ('A' for Active; 'I' for Inactive)
ROOT
ATOM      1  C   UNL d   1       0.822   4.283  -1.952  0.00  0.00     0.023 A 
ATOM      2  C1  UNL d   1       0.939   4.587  -0.595  0.00  0.00     0.003 A 
ATOM      3  C2  UNL d   1       1.380   3.614   0.304  0.00  0.00     0.048 A 
ATOM      4  C3  UNL d   1       1.702   2.339  -0.160  0.00  0.00     0.023 A 
ATOM      5  C4  UNL d   1       1.587   2.031  -1.516  0.00  0.00     0.048 A 
ATOM      6  C5  UNL d   1       1.145   3.007  -2.411  0.00  0.00     0.003 A 
ATOM      7  I   UNL d   1       2.358   0.889   1.177  0.00  0.00    -0.146 I 
ENDROOT
TORSDOF 0
ENDMDL
