MODEL 1
REMARK minimizedAffinity 7.54499054
REMARK minimizedRMSD -1
REMARK  0 active torsions:
REMARK  status: ('A' for Active; 'I' for Inactive)
ROOT
ATOM      1  C   UNL d   1       3.629  -0.136  -0.747  0.00  0.00     0.124 A 
ATOM      2  C1  UNL d   1       3.539  -1.159  -1.681  0.00  0.00     0.062 A 
ATOM      3  C2  UNL d   1       2.411  -1.271  -2.489  0.00  0.00     0.162 A 
ATOM      4  C3  UNL d   1       1.364  -0.358  -2.367  0.00  0.00    -0.034 A 
ATOM      5  C4  UNL d   1       1.461   0.667  -1.425  0.00  0.00     0.162 A 
ATOM      6  C5  UNL d   1       2.590   0.776  -0.620  0.00  0.00     0.062 A 
ATOM      7  F   UNL d   1       2.675   1.764   0.282  0.00  0.00    -0.097 F 
ATOM      8  F1  UNL d   1       0.473   1.562  -1.282  0.00  0.00    -0.096 F 
ATOM      9  I   UNL d   1      -0.324  -0.523  -3.574  0.00  0.00    -0.060 I 
ATOM     10  F2  UNL d   1       2.352  -2.269  -3.383  0.00  0.00    -0.096 F 
ATOM     11  F3  UNL d   1       4.541  -2.041  -1.805  0.00  0.00    -0.097 F 
ATOM     12  F4  UNL d   1       4.714  -0.030   0.030  0.00  0.00    -0.092 F 
ENDROOT
TORSDOF 0
ENDMDL
