MODEL 1
REMARK minimizedAffinity 7.48241901
REMARK minimizedRMSD -1
REMARK  0 active torsions:
REMARK  status: ('A' for Active; 'I' for Inactive)
ROOT
ATOM      1  C   UNL d   1       0.340   1.052   0.090  0.00  0.00     0.124 A 
ATOM      2  C1  UNL d   1       0.108  -0.258  -0.304  0.00  0.00     0.062 A 
ATOM      3  C2  UNL d   1       1.153  -1.038  -0.793  0.00  0.00     0.162 A 
ATOM      4  C3  UNL d   1       2.440  -0.509  -0.889  0.00  0.00    -0.034 A 
ATOM      5  C4  UNL d   1       2.665   0.810  -0.491  0.00  0.00     0.162 A 
ATOM      6  C5  UNL d   1       1.618   1.585  -0.004  0.00  0.00     0.062 A 
ATOM      7  F   UNL d   1       1.844   2.851   0.377  0.00  0.00    -0.097 F 
ATOM      8  F1  UNL d   1       3.891   1.350  -0.570  0.00  0.00    -0.096 F 
ATOM      9  I   UNL d   1       4.005  -1.671  -1.619  0.00  0.00    -0.060 I 
ATOM     10  F2  UNL d   1       0.900  -2.301  -1.166  0.00  0.00    -0.096 F 
ATOM     11  F3  UNL d   1      -1.126  -0.775  -0.215  0.00  0.00    -0.097 F 
ATOM     12  F4  UNL d   1      -0.667   1.800   0.559  0.00  0.00    -0.092 F 
ENDROOT
TORSDOF 0
ENDMDL
