MODEL 1
REMARK minimizedAffinity 16.0491199
REMARK minimizedRMSD -1
REMARK  0 active torsions:
REMARK  status: ('A' for Active; 'I' for Inactive)
ROOT
ATOM      1  C   UNL d   1       2.395  -1.022  -2.632  0.00  0.00     0.124 A 
ATOM      2  C1  UNL d   1       1.150  -0.492  -2.321  0.00  0.00     0.062 A 
ATOM      3  C2  UNL d   1       0.997   0.328  -1.207  0.00  0.00     0.162 A 
ATOM      4  C3  UNL d   1       2.091   0.624  -0.394  0.00  0.00    -0.034 A 
ATOM      5  C4  UNL d   1       3.340   0.086  -0.712  0.00  0.00     0.162 A 
ATOM      6  C5  UNL d   1       3.488  -0.733  -1.827  0.00  0.00     0.062 A 
ATOM      7  F   UNL d   1       4.691  -1.245  -2.126  0.00  0.00    -0.097 F 
ATOM      8  F1  UNL d   1       4.413   0.349   0.047  0.00  0.00    -0.096 F 
ATOM      9  I   UNL d   1       1.866   1.849   1.273  0.00  0.00    -0.060 I 
ATOM     10  F2  UNL d   1      -0.218   0.827  -0.931  0.00  0.00    -0.096 F 
ATOM     11  F3  UNL d   1       0.092  -0.770  -3.096  0.00  0.00    -0.097 F 
ATOM     12  F4  UNL d   1       2.539  -1.811  -3.704  0.00  0.00    -0.092 F 
ENDROOT
TORSDOF 0
ENDMDL
