MODEL 1
REMARK minimizedAffinity 1.60737765
REMARK minimizedRMSD -1
REMARK  0 active torsions:
REMARK  status: ('A' for Active; 'I' for Inactive)
ROOT
ATOM      1  C   UNL d   1       4.057  -0.399  -1.907  0.00  0.00     0.124 A 
ATOM      2  C1  UNL d   1       3.962   0.391  -0.770  0.00  0.00     0.062 A 
ATOM      3  C2  UNL d   1       2.719   0.828  -0.323  0.00  0.00     0.162 A 
ATOM      4  C3  UNL d   1       1.559   0.476  -1.014  0.00  0.00    -0.034 A 
ATOM      5  C4  UNL d   1       1.663  -0.317  -2.157  0.00  0.00     0.162 A 
ATOM      6  C5  UNL d   1       2.908  -0.752  -2.600  0.00  0.00     0.062 A 
ATOM      7  F   UNL d   1       2.998  -1.515  -3.699  0.00  0.00    -0.097 F 
ATOM      8  F1  UNL d   1       0.568  -0.674  -2.845  0.00  0.00    -0.096 F 
ATOM      9  I   UNL d   1      -0.302   1.128  -0.349  0.00  0.00    -0.060 I 
ATOM     10  F2  UNL d   1       2.657   1.590   0.779  0.00  0.00    -0.096 F 
ATOM     11  F3  UNL d   1       5.072   0.734  -0.099  0.00  0.00    -0.097 F 
ATOM     12  F4  UNL d   1       5.255  -0.818  -2.335  0.00  0.00    -0.092 F 
ENDROOT
TORSDOF 0
ENDMDL
