MODEL 1
REMARK minimizedAffinity 9.37164497
REMARK minimizedRMSD -1
REMARK  0 active torsions:
REMARK  status: ('A' for Active; 'I' for Inactive)
ROOT
ATOM      1  C   UNL d   1       3.217  -1.452  -1.253  0.00  0.00     0.124 A 
ATOM      2  C1  UNL d   1       2.042  -1.737  -1.933  0.00  0.00     0.062 A 
ATOM      3  C2  UNL d   1       0.919  -0.933  -1.760  0.00  0.00     0.162 A 
ATOM      4  C3  UNL d   1       0.967   0.166  -0.902  0.00  0.00    -0.034 A 
ATOM      5  C4  UNL d   1       2.152   0.447  -0.220  0.00  0.00     0.162 A 
ATOM      6  C5  UNL d   1       3.271  -0.360  -0.397  0.00  0.00     0.062 A 
ATOM      7  F   UNL d   1       4.406  -0.083   0.261  0.00  0.00    -0.097 F 
ATOM      8  F1  UNL d   1       2.233   1.496   0.612  0.00  0.00    -0.096 F 
ATOM      9  I   UNL d   1      -0.710   1.372  -0.640  0.00  0.00    -0.060 I 
ATOM     10  F2  UNL d   1      -0.203  -1.232  -2.430  0.00  0.00    -0.096 F 
ATOM     11  F3  UNL d   1       1.986  -2.792  -2.759  0.00  0.00    -0.097 F 
ATOM     12  F4  UNL d   1       4.295  -2.228  -1.421  0.00  0.00    -0.092 F 
ENDROOT
TORSDOF 0
ENDMDL
