MODEL 1
REMARK minimizedAffinity 7.59888506
REMARK minimizedRMSD -1
REMARK  0 active torsions:
REMARK  status: ('A' for Active; 'I' for Inactive)
ROOT
ATOM      1  C   UNL d   1      -1.545   1.953  -5.980  0.00  0.00     0.124 A 
ATOM      2  C1  UNL d   1      -1.691   3.333  -5.986  0.00  0.00     0.062 A 
ATOM      3  C2  UNL d   1      -2.961   3.903  -5.991  0.00  0.00     0.162 A 
ATOM      4  C3  UNL d   1      -4.096   3.093  -5.989  0.00  0.00    -0.034 A 
ATOM      5  C4  UNL d   1      -3.942   1.705  -5.984  0.00  0.00     0.162 A 
ATOM      6  C5  UNL d   1      -2.670   1.140  -5.979  0.00  0.00     0.062 A 
ATOM      7  F   UNL d   1      -2.532  -0.193  -5.973  0.00  0.00    -0.097 F 
ATOM      8  F1  UNL d   1      -5.012   0.896  -5.983  0.00  0.00    -0.096 F 
ATOM      9  I   UNL d   1      -5.996   3.941  -5.998  0.00  0.00    -0.060 I 
ATOM     10  F2  UNL d   1      -3.072   5.240  -5.997  0.00  0.00    -0.096 F 
ATOM     11  F3  UNL d   1      -0.606   4.120  -5.987  0.00  0.00    -0.097 F 
ATOM     12  F4  UNL d   1      -0.322   1.407  -5.976  0.00  0.00    -0.092 F 
ENDROOT
TORSDOF 0
ENDMDL
