MODEL 1
REMARK minimizedAffinity 6.22888803
REMARK minimizedRMSD -1
REMARK  0 active torsions:
REMARK  status: ('A' for Active; 'I' for Inactive)
ROOT
ATOM      1  C   UNL d   1       1.838   1.102  -1.500  0.00  0.00     0.124 A 
ATOM      2  C1  UNL d   1       1.169   0.170  -2.281  0.00  0.00     0.062 A 
ATOM      3  C2  UNL d   1       0.236  -0.686  -1.703  0.00  0.00     0.162 A 
ATOM      4  C3  UNL d   1      -0.035  -0.613  -0.337  0.00  0.00    -0.034 A 
ATOM      5  C4  UNL d   1       0.642   0.327   0.442  0.00  0.00     0.162 A 
ATOM      6  C5  UNL d   1       1.574   1.180  -0.140  0.00  0.00     0.062 A 
ATOM      7  F   UNL d   1       2.219   2.080   0.616  0.00  0.00    -0.097 F 
ATOM      8  F1  UNL d   1       0.405   0.424   1.759  0.00  0.00    -0.096 F 
ATOM      9  I   UNL d   1      -1.430  -1.891   0.530  0.00  0.00    -0.060 I 
ATOM     10  F2  UNL d   1      -0.396  -1.578  -2.482  0.00  0.00    -0.096 F 
ATOM     11  F3  UNL d   1       1.423   0.092  -3.595  0.00  0.00    -0.097 F 
ATOM     12  F4  UNL d   1       2.736   1.924  -2.058  0.00  0.00    -0.092 F 
ENDROOT
TORSDOF 0
ENDMDL
