MODEL 1
REMARK minimizedAffinity 6.00412035
REMARK minimizedRMSD -1
REMARK  0 active torsions:
REMARK  status: ('A' for Active; 'I' for Inactive)
ROOT
ATOM      1  C   UNL d   1       4.520   2.252  -0.390  0.00  0.00     0.124 A 
ATOM      2  C1  UNL d   1       3.219   2.738  -0.387  0.00  0.00     0.062 A 
ATOM      3  C2  UNL d   1       2.143   1.856  -0.405  0.00  0.00     0.162 A 
ATOM      4  C3  UNL d   1       2.361   0.479  -0.425  0.00  0.00    -0.034 A 
ATOM      5  C4  UNL d   1       3.672  -0.002  -0.428  0.00  0.00     0.162 A 
ATOM      6  C5  UNL d   1       4.744   0.883  -0.410  0.00  0.00     0.062 A 
ATOM      7  F   UNL d   1       6.000   0.412  -0.413  0.00  0.00    -0.097 F 
ATOM      8  F1  UNL d   1       3.918  -1.321  -0.447  0.00  0.00    -0.096 F 
ATOM      9  I   UNL d   1       0.754  -0.843  -0.452  0.00  0.00    -0.060 I 
ATOM     10  F2  UNL d   1       0.897   2.354  -0.402  0.00  0.00    -0.096 F 
ATOM     11  F3  UNL d   1       3.000   4.061  -0.368  0.00  0.00    -0.097 F 
ATOM     12  F4  UNL d   1       5.554   3.103  -0.373  0.00  0.00    -0.092 F 
ENDROOT
TORSDOF 0
ENDMDL
