MODEL 1
REMARK minimizedAffinity 12.7736769
REMARK minimizedRMSD -1
REMARK  0 active torsions:
REMARK  status: ('A' for Active; 'I' for Inactive)
ROOT
ATOM      1  C   UNL d   1      -4.862  -2.422   0.488  0.00  0.00     0.124 A 
ATOM      2  C1  UNL d   1      -3.829  -3.010  -0.230  0.00  0.00     0.062 A 
ATOM      3  C2  UNL d   1      -2.645  -2.312  -0.451  0.00  0.00     0.162 A 
ATOM      4  C3  UNL d   1      -2.487  -1.018   0.046  0.00  0.00    -0.034 A 
ATOM      5  C4  UNL d   1      -3.530  -0.434   0.766  0.00  0.00     0.162 A 
ATOM      6  C5  UNL d   1      -4.712  -1.135   0.985  0.00  0.00     0.062 A 
ATOM      7  F   UNL d   1      -5.708  -0.566   1.678  0.00  0.00    -0.097 F 
ATOM      8  F1  UNL d   1      -3.412   0.808   1.258  0.00  0.00    -0.096 F 
ATOM      9  I   UNL d   1      -0.718   0.028  -0.283  0.00  0.00    -0.060 I 
ATOM     10  F2  UNL d   1      -1.664  -2.905  -1.147  0.00  0.00    -0.096 F 
ATOM     11  F3  UNL d   1      -3.972  -4.253  -0.712  0.00  0.00    -0.097 F 
ATOM     12  F4  UNL d   1      -6.000  -3.095   0.698  0.00  0.00    -0.092 F 
ENDROOT
TORSDOF 0
ENDMDL
