MODEL 1
REMARK minimizedAffinity 9.18334007
REMARK minimizedRMSD -1
REMARK  0 active torsions:
REMARK  status: ('A' for Active; 'I' for Inactive)
ROOT
ATOM      1  C   UNL d   1      -0.844  -2.066  -1.078  0.00  0.00     0.124 A 
ATOM      2  C1  UNL d   1      -0.527  -1.535   0.164  0.00  0.00     0.062 A 
ATOM      3  C2  UNL d   1       0.382  -0.485   0.265  0.00  0.00     0.162 A 
ATOM      4  C3  UNL d   1       0.979   0.042  -0.880  0.00  0.00    -0.034 A 
ATOM      5  C4  UNL d   1       0.655  -0.498  -2.126  0.00  0.00     0.162 A 
ATOM      6  C5  UNL d   1      -0.254  -1.547  -2.222  0.00  0.00     0.062 A 
ATOM      7  F   UNL d   1      -0.559  -2.059  -3.423  0.00  0.00    -0.097 F 
ATOM      8  F1  UNL d   1       1.210  -0.015  -3.247  0.00  0.00    -0.096 F 
ATOM      9  I   UNL d   1       2.338   1.611  -0.733  0.00  0.00    -0.060 I 
ATOM     10  F2  UNL d   1       0.670   0.008   1.479  0.00  0.00    -0.096 F 
ATOM     11  F3  UNL d   1      -1.095  -2.035   1.271  0.00  0.00    -0.097 F 
ATOM     12  F4  UNL d   1      -1.718  -3.076  -1.173  0.00  0.00    -0.092 F 
ENDROOT
TORSDOF 0
ENDMDL
