MODEL 1
REMARK minimizedAffinity 7.45669746
REMARK minimizedRMSD -1
REMARK  0 active torsions:
REMARK  status: ('A' for Active; 'I' for Inactive)
ROOT
ATOM      1  C   UNL d   1      -3.435   1.115  -5.986  0.00  0.00     0.124 A 
ATOM      2  C1  UNL d   1      -4.556   1.933  -5.981  0.00  0.00     0.062 A 
ATOM      3  C2  UNL d   1      -4.412   3.317  -5.983  0.00  0.00     0.162 A 
ATOM      4  C3  UNL d   1      -3.142   3.893  -5.990  0.00  0.00    -0.034 A 
ATOM      5  C4  UNL d   1      -2.019   3.064  -5.993  0.00  0.00     0.162 A 
ATOM      6  C5  UNL d   1      -2.168   1.681  -5.992  0.00  0.00     0.062 A 
ATOM      7  F   UNL d   1      -1.083   0.892  -5.996  0.00  0.00    -0.097 F 
ATOM      8  F1  UNL d   1      -0.783   3.584  -6.000  0.00  0.00    -0.096 F 
ATOM      9  I   UNL d   1      -2.923   5.963  -5.992  0.00  0.00    -0.060 I 
ATOM     10  F2  UNL d   1      -5.514   4.083  -5.978  0.00  0.00    -0.096 F 
ATOM     11  F3  UNL d   1      -5.781   1.388  -5.975  0.00  0.00    -0.097 F 
ATOM     12  F4  UNL d   1      -3.576  -0.217  -5.984  0.00  0.00    -0.092 F 
ENDROOT
TORSDOF 0
ENDMDL
