MODEL 1
REMARK minimizedAffinity 8.77948093
REMARK minimizedRMSD -1
REMARK  0 active torsions:
REMARK  status: ('A' for Active; 'I' for Inactive)
ROOT
ATOM      1  C   UNL d   1       0.978   0.654  -0.972  0.00  0.00     0.124 A 
ATOM      2  C1  UNL d   1       0.514  -0.446  -1.680  0.00  0.00     0.062 A 
ATOM      3  C2  UNL d   1       1.367  -1.511  -1.957  0.00  0.00     0.162 A 
ATOM      4  C3  UNL d   1       2.693  -1.481  -1.526  0.00  0.00    -0.034 A 
ATOM      5  C4  UNL d   1       3.153  -0.371  -0.815  0.00  0.00     0.162 A 
ATOM      6  C5  UNL d   1       2.297   0.691  -0.541  0.00  0.00     0.062 A 
ATOM      7  F   UNL d   1       2.747   1.753   0.143  0.00  0.00    -0.097 F 
ATOM      8  F1  UNL d   1       4.422  -0.310  -0.386  0.00  0.00    -0.096 F 
ATOM      9  I   UNL d   1       3.971  -3.071  -1.939  0.00  0.00    -0.060 I 
ATOM     10  F2  UNL d   1       0.891  -2.561  -2.643  0.00  0.00    -0.096 F 
ATOM     11  F3  UNL d   1      -0.759  -0.483  -2.098  0.00  0.00    -0.097 F 
ATOM     12  F4  UNL d   1       0.156   1.677  -0.707  0.00  0.00    -0.092 F 
ENDROOT
TORSDOF 0
ENDMDL
