MODEL 1
REMARK minimizedAffinity 6.67156124
REMARK minimizedRMSD -1
REMARK  0 active torsions:
REMARK  status: ('A' for Active; 'I' for Inactive)
ROOT
ATOM      1  C   UNL d   1      -3.489  -2.866  -0.282  0.00  0.00     0.124 A 
ATOM      2  C1  UNL d   1      -2.576  -3.447   0.587  0.00  0.00     0.062 A 
ATOM      3  C2  UNL d   1      -2.688  -3.243   1.959  0.00  0.00     0.162 A 
ATOM      4  C3  UNL d   1      -3.718  -2.453   2.472  0.00  0.00    -0.034 A 
ATOM      5  C4  UNL d   1      -4.632  -1.871   1.591  0.00  0.00     0.162 A 
ATOM      6  C5  UNL d   1      -4.516  -2.079   0.221  0.00  0.00     0.062 A 
ATOM      7  F   UNL d   1      -5.399  -1.516  -0.617  0.00  0.00    -0.097 F 
ATOM      8  F1  UNL d   1      -5.634  -1.107   2.050  0.00  0.00    -0.096 F 
ATOM      9  I   UNL d   1      -3.888  -2.145   4.523  0.00  0.00    -0.060 I 
ATOM     10  F2  UNL d   1      -1.792  -3.817   2.776  0.00  0.00    -0.096 F 
ATOM     11  F3  UNL d   1      -1.583  -4.208   0.104  0.00  0.00    -0.097 F 
ATOM     12  F4  UNL d   1      -3.379  -3.064  -1.602  0.00  0.00    -0.092 F 
ENDROOT
TORSDOF 0
ENDMDL
