MODEL 1
REMARK minimizedAffinity 11.3733854
REMARK minimizedRMSD -1
REMARK  0 active torsions:
REMARK  status: ('A' for Active; 'I' for Inactive)
ROOT
ATOM      1  C   UNL d   1      -1.763   1.819  -5.996  0.00  0.00     0.124 A 
ATOM      2  C1  UNL d   1      -1.745   3.207  -5.997  0.00  0.00     0.062 A 
ATOM      3  C2  UNL d   1      -2.940   3.922  -5.998  0.00  0.00     0.162 A 
ATOM      4  C3  UNL d   1      -4.162   3.250  -5.997  0.00  0.00    -0.034 A 
ATOM      5  C4  UNL d   1      -4.172   1.854  -5.998  0.00  0.00     0.162 A 
ATOM      6  C5  UNL d   1      -2.976   1.144  -5.997  0.00  0.00     0.062 A 
ATOM      7  F   UNL d   1      -2.995  -0.197  -5.996  0.00  0.00    -0.097 F 
ATOM      8  F1  UNL d   1      -5.329   1.177  -5.997  0.00  0.00    -0.096 F 
ATOM      9  I   UNL d   1      -5.950   4.316  -5.999  0.00  0.00    -0.060 I 
ATOM     10  F2  UNL d   1      -2.893   5.263  -5.998  0.00  0.00    -0.096 F 
ATOM     11  F3  UNL d   1      -0.575   3.861  -5.997  0.00  0.00    -0.097 F 
ATOM     12  F4  UNL d   1      -0.613   1.133  -5.996  0.00  0.00    -0.092 F 
ENDROOT
TORSDOF 0
ENDMDL
