MODEL 1
REMARK minimizedAffinity 1.94120896
REMARK minimizedRMSD -1
REMARK  0 active torsions:
REMARK  status: ('A' for Active; 'I' for Inactive)
ROOT
ATOM      1  C   UNL d   1      -2.376   2.872  -5.869  0.00  0.00     0.124 A 
ATOM      2  C1  UNL d   1      -2.042   1.525  -5.898  0.00  0.00     0.062 A 
ATOM      3  C2  UNL d   1      -3.042   0.557  -5.921  0.00  0.00     0.162 A 
ATOM      4  C3  UNL d   1      -4.386   0.932  -5.916  0.00  0.00    -0.034 A 
ATOM      5  C4  UNL d   1      -4.713   2.289  -5.886  0.00  0.00     0.162 A 
ATOM      6  C5  UNL d   1      -3.710   3.253  -5.863  0.00  0.00     0.062 A 
ATOM      7  F   UNL d   1      -4.034   4.554  -5.834  0.00  0.00    -0.097 F 
ATOM      8  F1  UNL d   1      -5.995   2.685  -5.880  0.00  0.00    -0.096 F 
ATOM      9  I   UNL d   1      -5.883  -0.512  -5.951  0.00  0.00    -0.060 I 
ATOM     10  F2  UNL d   1      -2.691  -0.738  -5.949  0.00  0.00    -0.096 F 
ATOM     11  F3  UNL d   1      -0.754   1.154  -5.903  0.00  0.00    -0.097 F 
ATOM     12  F4  UNL d   1      -1.412   3.801  -5.846  0.00  0.00    -0.092 F 
ENDROOT
TORSDOF 0
ENDMDL
