MODEL 1
REMARK minimizedAffinity 6.05604982
REMARK minimizedRMSD -1
REMARK  0 active torsions:
REMARK  status: ('A' for Active; 'I' for Inactive)
ROOT
ATOM      1  C   UNL d   1      -3.454   3.516  -5.917  0.00  0.00     0.124 A 
ATOM      2  C1  UNL d   1      -2.299   2.747  -5.933  0.00  0.00     0.062 A 
ATOM      3  C2  UNL d   1      -2.383   1.358  -5.956  0.00  0.00     0.162 A 
ATOM      4  C3  UNL d   1      -3.628   0.728  -5.964  0.00  0.00    -0.034 A 
ATOM      5  C4  UNL d   1      -4.786   1.509  -5.946  0.00  0.00     0.162 A 
ATOM      6  C5  UNL d   1      -4.696   2.897  -5.924  0.00  0.00     0.062 A 
ATOM      7  F   UNL d   1      -5.813   3.639  -5.908  0.00  0.00    -0.097 F 
ATOM      8  F1  UNL d   1      -5.999   0.937  -5.953  0.00  0.00    -0.096 F 
ATOM      9  I   UNL d   1      -3.759  -1.348  -5.998  0.00  0.00    -0.060 I 
ATOM     10  F2  UNL d   1      -1.251   0.639  -5.971  0.00  0.00    -0.096 F 
ATOM     11  F3  UNL d   1      -1.098   3.343  -5.926  0.00  0.00    -0.097 F 
ATOM     12  F4  UNL d   1      -3.369   4.853  -5.894  0.00  0.00    -0.092 F 
ENDROOT
TORSDOF 0
ENDMDL
