MODEL 1
REMARK minimizedAffinity 7.53607941
REMARK minimizedRMSD -1
REMARK  0 active torsions:
REMARK  status: ('A' for Active; 'I' for Inactive)
ROOT
ATOM      1  C   UNL d   1       3.702  -0.947  -1.558  0.00  0.00     0.124 A 
ATOM      2  C1  UNL d   1       3.755   0.244  -0.847  0.00  0.00     0.062 A 
ATOM      3  C2  UNL d   1       2.579   0.901  -0.494  0.00  0.00     0.162 A 
ATOM      4  C3  UNL d   1       1.341   0.368  -0.851  0.00  0.00    -0.034 A 
ATOM      5  C4  UNL d   1       1.296  -0.830  -1.566  0.00  0.00     0.162 A 
ATOM      6  C5  UNL d   1       2.474  -1.483  -1.917  0.00  0.00     0.062 A 
ATOM      7  F   UNL d   1       2.421  -2.633  -2.604  0.00  0.00    -0.097 F 
ATOM      8  F1  UNL d   1       0.122  -1.371  -1.925  0.00  0.00    -0.096 F 
ATOM      9  I   UNL d   1      -0.419   1.346  -0.324  0.00  0.00    -0.060 I 
ATOM     10  F2  UNL d   1       2.660   2.050   0.193  0.00  0.00    -0.096 F 
ATOM     11  F3  UNL d   1       4.941   0.765  -0.501  0.00  0.00    -0.097 F 
ATOM     12  F4  UNL d   1       4.835  -1.576  -1.898  0.00  0.00    -0.092 F 
ENDROOT
TORSDOF 0
ENDMDL
