MODEL 1
REMARK minimizedAffinity 5.77256966
REMARK minimizedRMSD -1
REMARK  0 active torsions:
REMARK  status: ('A' for Active; 'I' for Inactive)
ROOT
ATOM      1  C   UNL d   1      -3.104   3.398  -5.999  0.00  0.00     0.124 A 
ATOM      2  C1  UNL d   1      -4.317   2.724  -5.999  0.00  0.00     0.062 A 
ATOM      3  C2  UNL d   1      -4.345   1.332  -6.000  0.00  0.00     0.162 A 
ATOM      4  C3  UNL d   1      -3.155   0.605  -5.999  0.00  0.00    -0.034 A 
ATOM      5  C4  UNL d   1      -1.938   1.289  -6.000  0.00  0.00     0.162 A 
ATOM      6  C5  UNL d   1      -1.916   2.680  -5.999  0.00  0.00     0.062 A 
ATOM      7  F   UNL d   1      -0.742   3.329  -5.999  0.00  0.00    -0.097 F 
ATOM      8  F1  UNL d   1      -0.776   0.621  -5.999  0.00  0.00    -0.096 F 
ATOM      9  I   UNL d   1      -3.193  -1.476  -6.000  0.00  0.00    -0.060 I 
ATOM     10  F2  UNL d   1      -5.532   0.708  -6.000  0.00  0.00    -0.096 F 
ATOM     11  F3  UNL d   1      -5.466   3.415  -5.999  0.00  0.00    -0.097 F 
ATOM     12  F4  UNL d   1      -3.080   4.737  -5.999  0.00  0.00    -0.092 F 
ENDROOT
TORSDOF 0
ENDMDL
