MODEL 1
REMARK minimizedAffinity 5.33776188
REMARK minimizedRMSD -1
REMARK  0 active torsions:
REMARK  status: ('A' for Active; 'I' for Inactive)
ROOT
ATOM      1  C   UNL d   1       1.787   2.448   2.647  0.00  0.00     0.124 A 
ATOM      2  C1  UNL d   1       1.387   1.120   2.688  0.00  0.00     0.062 A 
ATOM      3  C2  UNL d   1       1.010   0.466   1.518  0.00  0.00     0.162 A 
ATOM      4  C3  UNL d   1       1.031   1.139   0.297  0.00  0.00    -0.034 A 
ATOM      5  C4  UNL d   1       1.433   2.476   0.264  0.00  0.00     0.162 A 
ATOM      6  C5  UNL d   1       1.810   3.125   1.435  0.00  0.00     0.062 A 
ATOM      7  F   UNL d   1       2.196   4.408   1.394  0.00  0.00    -0.097 F 
ATOM      8  F1  UNL d   1       1.465   3.153  -0.893  0.00  0.00    -0.096 F 
ATOM      9  I   UNL d   1       0.467   0.165  -1.454  0.00  0.00    -0.060 I 
ATOM     10  F2  UNL d   1       0.628  -0.818   1.588  0.00  0.00    -0.096 F 
ATOM     11  F3  UNL d   1       1.364   0.464   3.857  0.00  0.00    -0.097 F 
ATOM     12  F4  UNL d   1       2.149   3.075   3.773  0.00  0.00    -0.092 F 
ENDROOT
TORSDOF 0
ENDMDL
