MODEL 1
REMARK minimizedAffinity 15.4584751
REMARK minimizedRMSD -1
REMARK  0 active torsions:
REMARK  status: ('A' for Active; 'I' for Inactive)
ROOT
ATOM      1  C   UNL d   1      -2.708  -0.591  -4.484  0.00  0.00     0.124 A 
ATOM      2  C1  UNL d   1      -2.449   0.760  -4.303  0.00  0.00     0.062 A 
ATOM      3  C2  UNL d   1      -3.386   1.712  -4.694  0.00  0.00     0.162 A 
ATOM      4  C3  UNL d   1      -4.593   1.315  -5.269  0.00  0.00    -0.034 A 
ATOM      5  C4  UNL d   1      -4.847  -0.046  -5.449  0.00  0.00     0.162 A 
ATOM      6  C5  UNL d   1      -3.907  -0.993  -5.057  0.00  0.00     0.062 A 
ATOM      7  F   UNL d   1      -4.159  -2.298  -5.232  0.00  0.00    -0.097 F 
ATOM      8  F1  UNL d   1      -5.997  -0.462  -5.999  0.00  0.00    -0.096 F 
ATOM      9  I   UNL d   1      -5.998   2.735  -5.856  0.00  0.00    -0.060 I 
ATOM     10  F2  UNL d   1      -3.109   3.011  -4.507  0.00  0.00    -0.096 F 
ATOM     11  F3  UNL d   1      -1.291   1.151  -3.750  0.00  0.00    -0.097 F 
ATOM     12  F4  UNL d   1      -1.804  -1.504  -4.107  0.00  0.00    -0.092 F 
ENDROOT
TORSDOF 0
ENDMDL
