MODEL 1
REMARK minimizedAffinity 10.5708399
REMARK minimizedRMSD -1
REMARK  1 active torsions:
REMARK  status: ('A' for Active; 'I' for Inactive)
REMARK    1  A    between atoms: C1_2  and  C2_3 
ROOT
ATOM      1  C2  UNL d   1      -0.420   2.381   0.220  0.00  0.00    -0.073 A 
ATOM      2  C3  UNL d   1      -0.051   2.637   1.546  0.00  0.00    -0.002 A 
ATOM      3  C4  UNL d   1       0.442   3.891   1.910  0.00  0.00     0.004 A 
ATOM      4  C5  UNL d   1       0.565   4.901   0.957  0.00  0.00    -0.004 A 
ATOM      5  C6  UNL d   1       0.190   4.668  -0.370  0.00  0.00    -0.075 A 
ATOM      6  C7  UNL d   1       0.318   5.744  -1.408  0.00  0.00     0.076 C 
ATOM      7  C8  UNL d   1      -0.302   3.406  -0.729  0.00  0.00     0.001 A 
ENDROOT
BRANCH   1   8
ATOM      8  C1  UNL d   1      -0.959   1.031  -0.177  0.00  0.00     0.053 C 
ATOM      9  C   UNL d   1      -2.449   0.908   0.100  0.00  0.00     0.018 C 
ENDBRANCH   1   8
TORSDOF 1
ENDMDL
