MODEL 1
REMARK minimizedAffinity 6.90751076
REMARK minimizedRMSD -1
REMARK  1 active torsions:
REMARK  status: ('A' for Active; 'I' for Inactive)
REMARK    1  A    between atoms: C1_2  and  C2_3 
ROOT
ATOM      1  C2  UNL d   1       0.050   3.773   1.130  0.00  0.00    -0.073 A 
ATOM      2  C3  UNL d   1      -0.999   4.562   1.615  0.00  0.00    -0.002 A 
ATOM      3  C4  UNL d   1      -1.440   5.671   0.892  0.00  0.00     0.004 A 
ATOM      4  C5  UNL d   1      -0.841   5.999  -0.325  0.00  0.00    -0.004 A 
ATOM      5  C6  UNL d   1       0.201   5.217  -0.832  0.00  0.00    -0.075 A 
ATOM      6  C7  UNL d   1       0.857   5.557  -2.138  0.00  0.00     0.076 C 
ATOM      7  C8  UNL d   1       0.639   4.106  -0.099  0.00  0.00     0.001 A 
ENDROOT
BRANCH   1   8
ATOM      8  C1  UNL d   1       0.525   2.571   1.904  0.00  0.00     0.053 C 
ATOM      9  C   UNL d   1       1.854   2.828   2.597  0.00  0.00     0.018 C 
ENDBRANCH   1   8
TORSDOF 1
ENDMDL
