MODEL 1
REMARK minimizedAffinity 13.5280361
REMARK minimizedRMSD -1
REMARK  1 active torsions:
REMARK  status: ('A' for Active; 'I' for Inactive)
REMARK    1  A    between atoms: C1_2  and  C2_3 
ROOT
ATOM      1  C2  UNL d   1      -2.493   0.999  -3.411  0.00  0.00    -0.073 A 
ATOM      2  C3  UNL d   1      -1.410   0.307  -3.965  0.00  0.00    -0.002 A 
ATOM      3  C4  UNL d   1      -0.696  -0.615  -3.198  0.00  0.00     0.004 A 
ATOM      4  C5  UNL d   1      -1.062  -0.860  -1.874  0.00  0.00    -0.004 A 
ATOM      5  C6  UNL d   1      -2.150  -0.188  -1.307  0.00  0.00    -0.075 A 
ATOM      6  C7  UNL d   1      -2.555  -0.438   0.116  0.00  0.00     0.076 C 
ATOM      7  C8  UNL d   1      -2.859   0.739  -2.083  0.00  0.00     0.001 A 
ENDROOT
BRANCH   1   8
ATOM      8  C1  UNL d   1      -3.270   1.991  -4.237  0.00  0.00     0.053 C 
ATOM      9  C   UNL d   1      -3.601   1.447  -5.618  0.00  0.00     0.018 C 
ENDBRANCH   1   8
TORSDOF 1
ENDMDL
