MODEL 1
REMARK minimizedAffinity 10.5811062
REMARK minimizedRMSD -1
REMARK  1 active torsions:
REMARK  status: ('A' for Active; 'I' for Inactive)
REMARK    1  A    between atoms: C1_2  and  C2_3 
ROOT
ATOM      1  C2  UNL d   1       3.352  -5.513  -0.389  0.00  0.00    -0.073 A 
ATOM      2  C3  UNL d   1       4.402  -6.000   0.397  0.00  0.00    -0.002 A 
ATOM      3  C4  UNL d   1       5.719  -5.921  -0.058  0.00  0.00     0.004 A 
ATOM      4  C5  UNL d   1       6.000  -5.348  -1.298  0.00  0.00    -0.004 A 
ATOM      5  C6  UNL d   1       4.965  -4.844  -2.093  0.00  0.00    -0.075 A 
ATOM      6  C7  UNL d   1       5.250  -4.227  -3.431  0.00  0.00     0.076 C 
ATOM      7  C8  UNL d   1       3.645  -4.930  -1.631  0.00  0.00     0.001 A 
ENDROOT
BRANCH   1   8
ATOM      8  C1  UNL d   1       1.929  -5.590   0.100  0.00  0.00     0.053 C 
ATOM      9  C   UNL d   1       0.927  -5.343  -1.017  0.00  0.00     0.018 C 
ENDBRANCH   1   8
TORSDOF 1
ENDMDL
