MODEL 1
REMARK minimizedAffinity 8.47550297
REMARK minimizedRMSD -1
REMARK  1 active torsions:
REMARK  status: ('A' for Active; 'I' for Inactive)
REMARK    1  A    between atoms: N_2  and  C1_3 
ROOT
ATOM      1  C1  UNL d   1      -1.260  -1.042   0.864  0.00  0.00     0.143 A 
ATOM      2  C2  UNL d   1      -0.466  -0.666   1.953  0.00  0.00    -0.057 A 
ATOM      3  C3  UNL d   1       0.898  -0.391   1.796  0.00  0.00     0.033 A 
ATOM      4  C4  UNL d   1       1.500  -0.515   0.548  0.00  0.00    -0.042 A 
ATOM      5  C5  UNL d   1       0.736  -0.911  -0.544  0.00  0.00     0.033 A 
ATOM      6  C6  UNL d   1      -0.627  -1.178  -0.382  0.00  0.00    -0.057 A 
ENDROOT
BRANCH   1   7
ATOM      7  N   UNL d   1      -2.599  -1.424   0.973  0.00  0.00    -0.732 N 
ATOM      8  C   UNL d   1      -3.605  -0.472   1.391  0.00  0.00     0.284 C 
ATOM      9  H3  UNL d   1      -2.892  -2.032   0.212  0.00  0.00     0.395 HD
ENDBRANCH   1   7
TORSDOF 1
ENDMDL
