MODEL 1
REMARK minimizedAffinity 7.83309126
REMARK minimizedRMSD -1
REMARK  1 active torsions:
REMARK  status: ('A' for Active; 'I' for Inactive)
REMARK    1  A    between atoms: N_2  and  C1_3 
ROOT
ATOM      1  C1  UNL d   1      -1.249  -0.724   0.810  0.00  0.00     0.143 A 
ATOM      2  C2  UNL d   1      -0.410  -0.273   1.834  0.00  0.00    -0.057 A 
ATOM      3  C3  UNL d   1       0.908   0.122   1.572  0.00  0.00     0.033 A 
ATOM      4  C4  UNL d   1       1.419   0.045   0.280  0.00  0.00    -0.042 A 
ATOM      5  C5  UNL d   1       0.610  -0.425  -0.749  0.00  0.00     0.033 A 
ATOM      6  C6  UNL d   1      -0.706  -0.811  -0.481  0.00  0.00    -0.057 A 
ENDROOT
BRANCH   1   7
ATOM      7  N   UNL d   1      -2.536  -1.224   1.024  0.00  0.00    -0.732 N 
ATOM      8  C   UNL d   1      -3.653  -0.324   1.223  0.00  0.00     0.284 C 
ATOM      9  H3  UNL d   1      -2.747  -2.022   0.429  0.00  0.00     0.395 HD
ENDBRANCH   1   7
TORSDOF 1
ENDMDL
