MODEL 1
REMARK minimizedAffinity 3.40099502
REMARK minimizedRMSD -1
REMARK  1 active torsions:
REMARK  status: ('A' for Active; 'I' for Inactive)
REMARK    1  A    between atoms: N_2  and  C1_3 
ROOT
ATOM      1  C1  UNL d   1      -3.289   2.329   2.522  0.00  0.00     0.143 A 
ATOM      2  C2  UNL d   1      -2.583   3.142   1.629  0.00  0.00    -0.057 A 
ATOM      3  C3  UNL d   1      -1.283   3.578   1.915  0.00  0.00     0.033 A 
ATOM      4  C4  UNL d   1      -0.676   3.230   3.117  0.00  0.00    -0.042 A 
ATOM      5  C5  UNL d   1      -1.368   2.443   4.031  0.00  0.00     0.033 A 
ATOM      6  C6  UNL d   1      -2.663   2.006   3.736  0.00  0.00    -0.057 A 
ENDROOT
BRANCH   1   7
ATOM      7  N   UNL d   1      -4.619   1.945   2.339  0.00  0.00    -0.732 N 
ATOM      8  C   UNL d   1      -5.699   2.863   2.633  0.00  0.00     0.284 C 
ATOM      9  H3  UNL d   1      -4.754   1.404   1.488  0.00  0.00     0.395 HD
ENDBRANCH   1   7
TORSDOF 1
ENDMDL
