MODEL 1
REMARK minimizedAffinity 5.50213957
REMARK minimizedRMSD -1
REMARK  1 active torsions:
REMARK  status: ('A' for Active; 'I' for Inactive)
REMARK    1  A    between atoms: N_2  and  C1_3 
ROOT
ATOM      1  C1  UNL d   1       0.196   4.028   3.820  0.00  0.00     0.143 A 
ATOM      2  C2  UNL d   1       0.355   2.709   4.259  0.00  0.00    -0.057 A 
ATOM      3  C3  UNL d   1       0.044   1.625   3.429  0.00  0.00     0.033 A 
ATOM      4  C4  UNL d   1      -0.461   1.842   2.151  0.00  0.00    -0.042 A 
ATOM      5  C5  UNL d   1      -0.650   3.145   1.702  0.00  0.00     0.033 A 
ATOM      6  C6  UNL d   1      -0.332   4.223   2.534  0.00  0.00    -0.057 A 
ENDROOT
BRANCH   1   7
ATOM      7  N   UNL d   1       0.394   5.147   4.632  0.00  0.00    -0.732 N 
ATOM      8  C   UNL d   1      -0.639   5.589   5.543  0.00  0.00     0.284 C 
ATOM      9  H3  UNL d   1       1.334   5.183   5.020  0.00  0.00     0.395 HD
ENDBRANCH   1   7
TORSDOF 1
ENDMDL
