MODEL 1
REMARK minimizedAffinity 14.717761
REMARK minimizedRMSD -1
REMARK  1 active torsions:
REMARK  status: ('A' for Active; 'I' for Inactive)
REMARK    1  A    between atoms: N_2  and  C1_3 
ROOT
ATOM      1  C1  UNL d   1      -4.954  -0.341   0.366  0.00  0.00     0.143 A 
ATOM      2  C2  UNL d   1      -5.905  -1.234  -0.140  0.00  0.00    -0.057 A 
ATOM      3  C3  UNL d   1      -5.998  -1.495  -1.512  0.00  0.00     0.033 A 
ATOM      4  C4  UNL d   1      -5.158  -0.843  -2.409  0.00  0.00    -0.042 A 
ATOM      5  C5  UNL d   1      -4.222   0.068  -1.931  0.00  0.00     0.033 A 
ATOM      6  C6  UNL d   1      -4.130   0.319  -0.559  0.00  0.00    -0.057 A 
ENDROOT
BRANCH   1   7
ATOM      7  N   UNL d   1      -4.877   0.034   1.709  0.00  0.00    -0.732 N 
ATOM      8  C   UNL d   1      -4.875   1.431   2.085  0.00  0.00     0.284 C 
ATOM      9  H3  UNL d   1      -5.445  -0.558   2.311  0.00  0.00     0.395 HD
ENDBRANCH   1   7
TORSDOF 1
ENDMDL
