MODEL 1
REMARK minimizedAffinity 4.76214504
REMARK minimizedRMSD -1
REMARK  1 active torsions:
REMARK  status: ('A' for Active; 'I' for Inactive)
REMARK    1  A    between atoms: N_2  and  C1_3 
ROOT
ATOM      1  C1  UNL d   1      -0.937  -5.416   5.188  0.00  0.00     0.143 A 
ATOM      2  C2  UNL d   1      -0.638  -4.231   4.507  0.00  0.00    -0.057 A 
ATOM      3  C3  UNL d   1       0.646  -3.674   4.547  0.00  0.00     0.033 A 
ATOM      4  C4  UNL d   1       1.650  -4.280   5.295  0.00  0.00    -0.042 A 
ATOM      5  C5  UNL d   1       1.370  -5.446   5.999  0.00  0.00     0.033 A 
ATOM      6  C6  UNL d   1       0.087  -6.000   5.950  0.00  0.00    -0.057 A 
ENDROOT
BRANCH   1   7
ATOM      7  N   UNL d   1      -2.219  -5.965   5.267  0.00  0.00    -0.732 N 
ATOM      8  C   UNL d   1      -3.276  -5.271   5.971  0.00  0.00     0.284 C 
ATOM      9  H3  UNL d   1      -2.513  -6.393   4.392  0.00  0.00     0.395 HD
ENDBRANCH   1   7
TORSDOF 1
ENDMDL
