MODEL 1
REMARK minimizedAffinity -2.55263901
REMARK minimizedRMSD -1
REMARK  1 active torsions:
REMARK  status: ('A' for Active; 'I' for Inactive)
REMARK    1  A    between atoms: C1_2  and  C2_3 
ROOT
ATOM      1  C2  UNL d   1      -0.917  -1.506   0.120  0.00  0.00    -0.073 A 
ATOM      2  C3  UNL d   1      -1.046  -0.302   0.821  0.00  0.00    -0.002 A 
ATOM      3  C4  UNL d   1      -0.634   0.899   0.241  0.00  0.00     0.004 A 
ATOM      4  C5  UNL d   1      -0.096   0.909  -1.045  0.00  0.00    -0.004 A 
ATOM      5  C6  UNL d   1       0.031  -0.283  -1.766  0.00  0.00    -0.075 A 
ATOM      6  C7  UNL d   1       0.610  -0.290  -3.150  0.00  0.00     0.076 C 
ATOM      7  C8  UNL d   1      -0.383  -1.485  -1.176  0.00  0.00     0.001 A 
ENDROOT
BRANCH   1   8
ATOM      8  C1  UNL d   1      -1.366  -2.804   0.740  0.00  0.00     0.053 C 
ATOM      9  C   UNL d   1      -0.423  -3.950   0.409  0.00  0.00     0.018 C 
ENDBRANCH   1   8
TORSDOF 1
ENDMDL
