MODEL 1
REMARK minimizedAffinity -2.21021986
REMARK minimizedRMSD -1
REMARK  1 active torsions:
REMARK  status: ('A' for Active; 'I' for Inactive)
REMARK    1  A    between atoms: C1_2  and  C2_3 
ROOT
ATOM      1  C2  UNL d   1       0.254   1.625   0.034  0.00  0.00    -0.073 A 
ATOM      2  C3  UNL d   1      -0.545   1.026   1.014  0.00  0.00    -0.002 A 
ATOM      3  C4  UNL d   1      -0.952  -0.302   0.877  0.00  0.00     0.004 A 
ATOM      4  C5  UNL d   1      -0.558  -1.045  -0.236  0.00  0.00    -0.004 A 
ATOM      5  C6  UNL d   1       0.250  -0.467  -1.220  0.00  0.00    -0.075 A 
ATOM      6  C7  UNL d   1       0.680  -1.252  -2.425  0.00  0.00     0.076 C 
ATOM      7  C8  UNL d   1       0.652   0.868  -1.077  0.00  0.00     0.001 A 
ENDROOT
BRANCH   1   8
ATOM      8  C1  UNL d   1       0.700   3.057   0.181  0.00  0.00     0.053 C 
ATOM      9  C   UNL d   1       2.209   3.171   0.328  0.00  0.00     0.018 C 
ENDBRANCH   1   8
TORSDOF 1
ENDMDL
