MODEL 1
REMARK minimizedAffinity -4.30172586
REMARK minimizedRMSD -1
REMARK  1 active torsions:
REMARK  status: ('A' for Active; 'I' for Inactive)
REMARK    1  A    between atoms: C1_2  and  C2_3 
ROOT
ATOM      1  C2  UNL d   1      -0.120   0.502   0.030  0.00  0.00    -0.073 A 
ATOM      2  C3  UNL d   1      -1.202   0.463   0.916  0.00  0.00    -0.002 A 
ATOM      3  C4  UNL d   1      -1.670  -0.758   1.403  0.00  0.00     0.004 A 
ATOM      4  C5  UNL d   1      -1.057  -1.950   1.017  0.00  0.00    -0.004 A 
ATOM      5  C6  UNL d   1       0.034  -1.931   0.142  0.00  0.00    -0.075 A 
ATOM      6  C7  UNL d   1       0.703  -3.204  -0.285  0.00  0.00     0.076 C 
ATOM      7  C8  UNL d   1       0.496  -0.701  -0.346  0.00  0.00     0.001 A 
ENDROOT
BRANCH   1   8
ATOM      8  C1  UNL d   1       0.393   1.818  -0.495  0.00  0.00     0.053 C 
ATOM      9  C   UNL d   1       1.457   2.417   0.412  0.00  0.00     0.018 C 
ENDBRANCH   1   8
TORSDOF 1
ENDMDL
