MODEL 1
REMARK minimizedAffinity -0.877497971
REMARK minimizedRMSD -1
REMARK  1 active torsions:
REMARK  status: ('A' for Active; 'I' for Inactive)
REMARK    1  A    between atoms: C1_2  and  C2_3 
ROOT
ATOM      1  C2  UNL d   1      -0.106   0.189  -0.251  0.00  0.00    -0.073 A 
ATOM      2  C3  UNL d   1      -1.229   0.455   0.540  0.00  0.00    -0.002 A 
ATOM      3  C4  UNL d   1      -1.946  -0.592   1.122  0.00  0.00     0.004 A 
ATOM      4  C5  UNL d   1      -1.544  -1.913   0.924  0.00  0.00    -0.004 A 
ATOM      5  C6  UNL d   1      -0.417  -2.198   0.146  0.00  0.00    -0.075 A 
ATOM      6  C7  UNL d   1       0.026  -3.614  -0.078  0.00  0.00     0.076 C 
ATOM      7  C8  UNL d   1       0.296  -1.142  -0.437  0.00  0.00     0.001 A 
ENDROOT
BRANCH   1   8
ATOM      8  C1  UNL d   1       0.675   1.316  -0.876  0.00  0.00     0.053 C 
ATOM      9  C   UNL d   1       0.996   2.412   0.128  0.00  0.00     0.018 C 
ENDBRANCH   1   8
TORSDOF 1
ENDMDL
