MODEL 1
REMARK minimizedAffinity -5.32224226
REMARK minimizedRMSD -1
REMARK  1 active torsions:
REMARK  status: ('A' for Active; 'I' for Inactive)
REMARK    1  A    between atoms: C1_2  and  C2_3 
ROOT
ATOM      1  C2  UNL d   1       0.560   0.401   0.218  0.00  0.00    -0.073 A 
ATOM      2  C3  UNL d   1      -0.390   0.770   1.177  0.00  0.00    -0.002 A 
ATOM      3  C4  UNL d   1      -1.195  -0.196   1.781  0.00  0.00     0.004 A 
ATOM      4  C5  UNL d   1      -1.054  -1.541   1.439  0.00  0.00    -0.004 A 
ATOM      5  C6  UNL d   1      -0.102  -1.932   0.492  0.00  0.00    -0.075 A 
ATOM      6  C7  UNL d   1       0.060  -3.374   0.111  0.00  0.00     0.076 C 
ATOM      7  C8  UNL d   1       0.701  -0.955  -0.113  0.00  0.00     0.001 A 
ENDROOT
BRANCH   1   8
ATOM      8  C1  UNL d   1       1.436   1.440  -0.432  0.00  0.00     0.053 C 
ATOM      9  C   UNL d   1       1.601   2.674   0.441  0.00  0.00     0.018 C 
ENDBRANCH   1   8
TORSDOF 1
ENDMDL
