MODEL 1
REMARK minimizedAffinity -3.44493699
REMARK minimizedRMSD -1
REMARK  1 active torsions:
REMARK  status: ('A' for Active; 'I' for Inactive)
REMARK    1  A    between atoms: C1_2  and  C2_3 
ROOT
ATOM      1  C2  UNL d   1       0.066   0.940  -0.192  0.00  0.00    -0.073 A 
ATOM      2  C3  UNL d   1      -0.114   0.968  -1.580  0.00  0.00    -0.002 A 
ATOM      3  C4  UNL d   1      -0.153  -0.220  -2.310  0.00  0.00     0.004 A 
ATOM      4  C5  UNL d   1      -0.021  -1.448  -1.660  0.00  0.00    -0.004 A 
ATOM      5  C6  UNL d   1       0.147  -1.497  -0.273  0.00  0.00    -0.075 A 
ATOM      6  C7  UNL d   1       0.293  -2.809   0.440  0.00  0.00     0.076 C 
ATOM      7  C8  UNL d   1       0.189  -0.299   0.453  0.00  0.00     0.001 A 
ENDROOT
BRANCH   1   8
ATOM      8  C1  UNL d   1       0.103   2.221   0.601  0.00  0.00     0.053 C 
ATOM      9  C   UNL d   1       1.380   3.008   0.353  0.00  0.00     0.018 C 
ENDBRANCH   1   8
TORSDOF 1
ENDMDL
