MODEL 1
REMARK minimizedAffinity -3.19716597
REMARK minimizedRMSD -1
REMARK  1 active torsions:
REMARK  status: ('A' for Active; 'I' for Inactive)
REMARK    1  A    between atoms: C1_2  and  C2_3 
ROOT
ATOM      1  C2  UNL d   1      -0.323  -1.645   0.063  0.00  0.00    -0.073 A 
ATOM      2  C3  UNL d   1      -0.953  -0.796   0.981  0.00  0.00    -0.002 A 
ATOM      3  C4  UNL d   1      -1.027   0.575   0.736  0.00  0.00     0.004 A 
ATOM      4  C5  UNL d   1      -0.480   1.112  -0.430  0.00  0.00    -0.004 A 
ATOM      5  C6  UNL d   1       0.143   0.278  -1.364  0.00  0.00    -0.075 A 
ATOM      6  C7  UNL d   1       0.738   0.840  -2.622  0.00  0.00     0.076 C 
ATOM      7  C8  UNL d   1       0.216  -1.098  -1.110  0.00  0.00     0.001 A 
ENDROOT
BRANCH   1   8
ATOM      8  C1  UNL d   1      -0.246  -3.128   0.320  0.00  0.00     0.053 C 
ATOM      9  C   UNL d   1       1.190  -3.608   0.457  0.00  0.00     0.018 C 
ENDBRANCH   1   8
TORSDOF 1
ENDMDL
