MODEL 1
REMARK minimizedAffinity -5.7869339
REMARK minimizedRMSD -1
REMARK  1 active torsions:
REMARK  status: ('A' for Active; 'I' for Inactive)
REMARK    1  A    between atoms: C1_2  and  C2_3 
ROOT
ATOM      1  C2  UNL d   1       0.406   1.076   0.693  0.00  0.00    -0.073 A 
ATOM      2  C3  UNL d   1       0.163   2.086   1.631  0.00  0.00    -0.002 A 
ATOM      3  C4  UNL d   1       1.108   3.090   1.847  0.00  0.00     0.004 A 
ATOM      4  C5  UNL d   1       2.300   3.099   1.124  0.00  0.00    -0.004 A 
ATOM      5  C6  UNL d   1       2.557   2.105   0.174  0.00  0.00    -0.075 A 
ATOM      6  C7  UNL d   1       3.836   2.100  -0.611  0.00  0.00     0.076 C 
ATOM      7  C8  UNL d   1       1.604   1.099  -0.036  0.00  0.00     0.001 A 
ENDROOT
BRANCH   1   8
ATOM      8  C1  UNL d   1      -0.614  -0.006   0.451  0.00  0.00     0.053 C 
ATOM      9  C   UNL d   1      -1.082  -0.035  -0.995  0.00  0.00     0.018 C 
ENDBRANCH   1   8
TORSDOF 1
ENDMDL
