MODEL 1
REMARK minimizedAffinity -3.06685781
REMARK minimizedRMSD -1
REMARK  1 active torsions:
REMARK  status: ('A' for Active; 'I' for Inactive)
REMARK    1  A    between atoms: C1_2  and  C2_3 
ROOT
ATOM      1  C2  UNL d   1       1.118   1.247   0.583  0.00  0.00    -0.073 A 
ATOM      2  C3  UNL d   1       0.989   1.213  -0.810  0.00  0.00    -0.002 A 
ATOM      3  C4  UNL d   1       0.041   0.383  -1.410  0.00  0.00     0.004 A 
ATOM      4  C5  UNL d   1      -0.791  -0.415  -0.625  0.00  0.00    -0.004 A 
ATOM      5  C6  UNL d   1      -0.685  -0.386   0.770  0.00  0.00    -0.075 A 
ATOM      6  C7  UNL d   1      -1.571  -1.241   1.628  0.00  0.00     0.076 C 
ATOM      7  C8  UNL d   1       0.271   0.448   1.365  0.00  0.00     0.001 A 
ENDROOT
BRANCH   1   8
ATOM      8  C1  UNL d   1       2.135   2.146   1.236  0.00  0.00     0.053 C 
ATOM      9  C   UNL d   1       2.516   3.317   0.345  0.00  0.00     0.018 C 
ENDBRANCH   1   8
TORSDOF 1
ENDMDL
