MODEL 1
REMARK minimizedAffinity -1.87950194
REMARK minimizedRMSD -1
REMARK  1 active torsions:
REMARK  status: ('A' for Active; 'I' for Inactive)
REMARK    1  A    between atoms: C1_2  and  C2_3 
ROOT
ATOM      1  C2  UNL d   1       0.006   0.519  -0.253  0.00  0.00    -0.073 A 
ATOM      2  C3  UNL d   1      -1.056   0.633  -1.157  0.00  0.00    -0.002 A 
ATOM      3  C4  UNL d   1      -2.119  -0.271  -1.114  0.00  0.00     0.004 A 
ATOM      4  C5  UNL d   1      -2.134  -1.292  -0.164  0.00  0.00    -0.004 A 
ATOM      5  C6  UNL d   1      -1.088  -1.415   0.756  0.00  0.00    -0.075 A 
ATOM      6  C7  UNL d   1      -1.088  -2.509   1.783  0.00  0.00     0.076 C 
ATOM      7  C8  UNL d   1      -0.023  -0.505   0.705  0.00  0.00     0.001 A 
ENDROOT
BRANCH   1   8
ATOM      8  C1  UNL d   1       1.152   1.496  -0.292  0.00  0.00     0.053 C 
ATOM      9  C   UNL d   1       1.852   1.607   1.054  0.00  0.00     0.018 C 
ENDBRANCH   1   8
TORSDOF 1
ENDMDL
