MODEL 1
REMARK minimizedAffinity -5.8444376
REMARK minimizedRMSD -1
REMARK  1 active torsions:
REMARK  status: ('A' for Active; 'I' for Inactive)
REMARK    1  A    between atoms: C1_2  and  C2_3 
ROOT
ATOM      1  C2  UNL d   1      -0.525   0.136  -0.676  0.00  0.00    -0.073 A 
ATOM      2  C3  UNL d   1      -0.805   0.686  -1.932  0.00  0.00    -0.002 A 
ATOM      3  C4  UNL d   1      -2.078   0.556  -2.490  0.00  0.00     0.004 A 
ATOM      4  C5  UNL d   1      -3.083  -0.117  -1.796  0.00  0.00    -0.004 A 
ATOM      5  C6  UNL d   1      -2.825  -0.663  -0.535  0.00  0.00    -0.075 A 
ATOM      6  C7  UNL d   1      -3.895  -1.393   0.224  0.00  0.00     0.076 C 
ATOM      7  C8  UNL d   1      -1.544  -0.532   0.018  0.00  0.00     0.001 A 
ENDROOT
BRANCH   1   8
ATOM      8  C1  UNL d   1       0.846   0.279  -0.067  0.00  0.00     0.053 C 
ATOM      9  C   UNL d   1       1.015   1.608   0.652  0.00  0.00     0.018 C 
ENDBRANCH   1   8
TORSDOF 1
ENDMDL
