MODEL 1
REMARK minimizedAffinity 1.76054668
REMARK minimizedRMSD -1
REMARK  1 active torsions:
REMARK  status: ('A' for Active; 'I' for Inactive)
REMARK    1  A    between atoms: C1_2  and  C2_3 
ROOT
ATOM      1  C2  UNL d   1       0.246  -0.489   0.056  0.00  0.00    -0.073 A 
ATOM      2  C3  UNL d   1       0.809  -1.286   1.059  0.00  0.00    -0.002 A 
ATOM      3  C4  UNL d   1       0.049  -1.672   2.163  0.00  0.00     0.004 A 
ATOM      4  C5  UNL d   1      -1.283  -1.271   2.274  0.00  0.00    -0.004 A 
ATOM      5  C6  UNL d   1      -1.867  -0.484   1.276  0.00  0.00    -0.075 A 
ATOM      6  C7  UNL d   1      -3.297  -0.042   1.381  0.00  0.00     0.076 C 
ATOM      7  C8  UNL d   1      -1.096  -0.098   0.172  0.00  0.00     0.001 A 
ENDROOT
BRANCH   1   8
ATOM      8  C1  UNL d   1       1.062  -0.075  -1.141  0.00  0.00     0.053 C 
ATOM      9  C   UNL d   1       0.185   0.321  -2.319  0.00  0.00     0.018 C 
ENDBRANCH   1   8
TORSDOF 1
ENDMDL
