MODEL 1
REMARK minimizedAffinity -5.67493057
REMARK minimizedRMSD -1
REMARK  1 active torsions:
REMARK  status: ('A' for Active; 'I' for Inactive)
REMARK    1  A    between atoms: C1_2  and  C2_3 
ROOT
ATOM      1  C2  UNL d   1      -0.680   0.736  -0.052  0.00  0.00    -0.073 A 
ATOM      2  C3  UNL d   1      -0.526  -0.547   0.485  0.00  0.00    -0.002 A 
ATOM      3  C4  UNL d   1       0.731  -0.994   0.894  0.00  0.00     0.004 A 
ATOM      4  C5  UNL d   1       1.844  -0.161   0.778  0.00  0.00    -0.004 A 
ATOM      5  C6  UNL d   1       1.708   1.128   0.255  0.00  0.00    -0.075 A 
ATOM      6  C7  UNL d   1       2.896   2.036   0.121  0.00  0.00     0.076 C 
ATOM      7  C8  UNL d   1       0.443   1.569  -0.157  0.00  0.00     0.001 A 
ENDROOT
BRANCH   1   8
ATOM      8  C1  UNL d   1      -2.037   1.225  -0.490  0.00  0.00     0.053 C 
ATOM      9  C   UNL d   1      -3.028   0.084  -0.655  0.00  0.00     0.018 C 
ENDBRANCH   1   8
TORSDOF 1
ENDMDL
