MODEL 1
REMARK minimizedAffinity -5.75081253
REMARK minimizedRMSD -1
REMARK  1 active torsions:
REMARK  status: ('A' for Active; 'I' for Inactive)
REMARK    1  A    between atoms: C1_2  and  C2_3 
ROOT
ATOM      1  C2  UNL d   1      -1.464  -0.711   0.369  0.00  0.00    -0.073 A 
ATOM      2  C3  UNL d   1      -2.838  -0.935   0.216  0.00  0.00    -0.002 A 
ATOM      3  C4  UNL d   1      -3.477  -0.605  -0.980  0.00  0.00     0.004 A 
ATOM      4  C5  UNL d   1      -2.750  -0.056  -2.036  0.00  0.00    -0.004 A 
ATOM      5  C6  UNL d   1      -1.375   0.164  -1.907  0.00  0.00    -0.075 A 
ATOM      6  C7  UNL d   1      -0.579   0.755  -3.033  0.00  0.00     0.076 C 
ATOM      7  C8  UNL d   1      -0.741  -0.168  -0.702  0.00  0.00     0.001 A 
ENDROOT
BRANCH   1   8
ATOM      8  C1  UNL d   1      -0.769  -1.072   1.656  0.00  0.00     0.053 C 
ATOM      9  C   UNL d   1       0.524  -1.834   1.411  0.00  0.00     0.018 C 
ENDBRANCH   1   8
TORSDOF 1
ENDMDL
