MODEL 1
REMARK minimizedAffinity -4.55072451
REMARK minimizedRMSD -1
REMARK  1 active torsions:
REMARK  status: ('A' for Active; 'I' for Inactive)
REMARK    1  A    between atoms: C1_2  and  C2_3 
ROOT
ATOM      1  C2  UNL d   1       1.324   1.624   1.609  0.00  0.00    -0.073 A 
ATOM      2  C3  UNL d   1       1.623   0.513   2.406  0.00  0.00    -0.002 A 
ATOM      3  C4  UNL d   1       1.314  -0.775   1.966  0.00  0.00     0.004 A 
ATOM      4  C5  UNL d   1       0.711  -0.965   0.722  0.00  0.00    -0.004 A 
ATOM      5  C6  UNL d   1       0.416   0.131  -0.094  0.00  0.00    -0.075 A 
ATOM      6  C7  UNL d   1      -0.235  -0.057  -1.433  0.00  0.00     0.076 C 
ATOM      7  C8  UNL d   1       0.726   1.421   0.357  0.00  0.00     0.001 A 
ENDROOT
BRANCH   1   8
ATOM      8  C1  UNL d   1       1.661   3.015   2.078  0.00  0.00     0.053 C 
ATOM      9  C   UNL d   1       2.589   3.734   1.111  0.00  0.00     0.018 C 
ENDBRANCH   1   8
TORSDOF 1
ENDMDL
