MODEL 1
REMARK minimizedAffinity -1.80666995
REMARK minimizedRMSD -1
REMARK  1 active torsions:
REMARK  status: ('A' for Active; 'I' for Inactive)
REMARK    1  A    between atoms: C1_2  and  C2_3 
ROOT
ATOM      1  C2  UNL d   1      -0.595  -0.059  -0.195  0.00  0.00    -0.073 A 
ATOM      2  C3  UNL d   1      -1.392   1.030  -0.565  0.00  0.00    -0.002 A 
ATOM      3  C4  UNL d   1      -2.319   0.906  -1.601  0.00  0.00     0.004 A 
ATOM      4  C5  UNL d   1      -2.463  -0.308  -2.272  0.00  0.00    -0.004 A 
ATOM      5  C6  UNL d   1      -1.683  -1.411  -1.910  0.00  0.00    -0.075 A 
ATOM      6  C7  UNL d   1      -1.824  -2.723  -2.624  0.00  0.00     0.076 C 
ATOM      7  C8  UNL d   1      -0.753  -1.278  -0.870  0.00  0.00     0.001 A 
ENDROOT
BRANCH   1   8
ATOM      8  C1  UNL d   1       0.403   0.068   0.927  0.00  0.00     0.053 C 
ATOM      9  C   UNL d   1       1.798   0.392   0.416  0.00  0.00     0.018 C 
ENDBRANCH   1   8
TORSDOF 1
ENDMDL
