MODEL 1
REMARK minimizedAffinity -3.45290589
REMARK minimizedRMSD -1
REMARK  0 active torsions:
REMARK  status: ('A' for Active; 'I' for Inactive)
ROOT
ATOM      1  C   UNL d   1      -0.087  -2.441   0.349  0.00  0.00     0.020 A 
ATOM      2  C1  UNL d   1       0.405  -1.143   0.479  0.00  0.00     0.020 A 
ATOM      3  C2  UNL d   1       1.782  -0.913   0.452  0.00  0.00     0.034 A 
ATOM      4  C3  UNL d   1       2.672  -1.982   0.293  0.00  0.00     0.017 A 
ATOM      5  C4  UNL d   1       2.177  -3.284   0.163  0.00  0.00     0.017 A 
ATOM      6  C5  UNL d   1       0.797  -3.510   0.191  0.00  0.00     0.034 A 
ATOM      7 Cl   UNL d   1       3.212  -4.654  -0.036  0.00  0.00    -0.070 Cl
ATOM      8 Cl1  UNL d   1       4.362  -1.624   0.268  0.00  0.00    -0.070 Cl
ENDROOT
TORSDOF 0
ENDMDL
