MODEL 1
REMARK minimizedAffinity 1.7727139
REMARK minimizedRMSD -1
REMARK  0 active torsions:
REMARK  status: ('A' for Active; 'I' for Inactive)
ROOT
ATOM      1  C   UNL d   1       0.318  -3.008   0.176  0.00  0.00     0.020 A 
ATOM      2  C1  UNL d   1       0.596  -1.644   0.257  0.00  0.00     0.020 A 
ATOM      3  C2  UNL d   1       1.916  -1.195   0.174  0.00  0.00     0.034 A 
ATOM      4  C3  UNL d   1       2.962  -2.110   0.009  0.00  0.00     0.017 A 
ATOM      5  C4  UNL d   1       2.681  -3.479  -0.073  0.00  0.00     0.017 A 
ATOM      6  C5  UNL d   1       1.358  -3.923   0.011  0.00  0.00     0.034 A 
ATOM      7 Cl   UNL d   1       3.919  -4.668  -0.276  0.00  0.00    -0.070 Cl
ATOM      8 Cl1  UNL d   1       4.569  -1.484  -0.087  0.00  0.00    -0.070 Cl
ENDROOT
TORSDOF 0
ENDMDL
