MODEL 1
REMARK minimizedAffinity -2.06681919
REMARK minimizedRMSD -1
REMARK  0 active torsions:
REMARK  status: ('A' for Active; 'I' for Inactive)
ROOT
ATOM      1  C   UNL d   1       0.192  -1.781   0.530  0.00  0.00     0.020 A 
ATOM      2  C1  UNL d   1       0.084  -3.116   0.146  0.00  0.00     0.020 A 
ATOM      3  C2  UNL d   1       1.234  -3.855  -0.142  0.00  0.00     0.034 A 
ATOM      4  C3  UNL d   1       2.496  -3.258  -0.046  0.00  0.00     0.017 A 
ATOM      5  C4  UNL d   1       2.603  -1.917   0.340  0.00  0.00     0.017 A 
ATOM      6  C5  UNL d   1       1.449  -1.182   0.627  0.00  0.00     0.034 A 
ATOM      7 Cl   UNL d   1       4.126  -1.112   0.481  0.00  0.00    -0.070 Cl
ATOM      8 Cl1  UNL d   1       3.876  -4.231  -0.417  0.00  0.00    -0.070 Cl
ENDROOT
TORSDOF 0
ENDMDL
