MODEL 1
REMARK minimizedAffinity -0.494162232
REMARK minimizedRMSD -1
REMARK  0 active torsions:
REMARK  status: ('A' for Active; 'I' for Inactive)
ROOT
ATOM      1  C   UNL d   1      -0.414  -1.433   1.007  0.00  0.00     0.020 A 
ATOM      2  C1  UNL d   1       0.305  -0.239   0.971  0.00  0.00     0.020 A 
ATOM      3  C2  UNL d   1       1.700  -0.265   0.915  0.00  0.00     0.034 A 
ATOM      4  C3  UNL d   1       2.381  -1.488   0.894  0.00  0.00     0.017 A 
ATOM      5  C4  UNL d   1       1.658  -2.686   0.930  0.00  0.00     0.017 A 
ATOM      6  C5  UNL d   1       0.262  -2.654   0.986  0.00  0.00     0.034 A 
ATOM      7 Cl   UNL d   1       2.428  -4.234   0.907  0.00  0.00    -0.070 Cl
ATOM      8 Cl1  UNL d   1       4.107  -1.446   0.824  0.00  0.00    -0.070 Cl
ENDROOT
TORSDOF 0
ENDMDL
