MODEL 1
REMARK minimizedAffinity -4.57039976
REMARK minimizedRMSD -1
REMARK  0 active torsions:
REMARK  status: ('A' for Active; 'I' for Inactive)
ROOT
ATOM      1  C   UNL d   1       2.788  -3.898  -0.156  0.00  0.00     0.020 A 
ATOM      2  C1  UNL d   1       1.542  -4.336  -0.604  0.00  0.00     0.020 A 
ATOM      3  C2  UNL d   1       0.445  -3.472  -0.572  0.00  0.00     0.034 A 
ATOM      4  C3  UNL d   1       0.592  -2.166  -0.090  0.00  0.00     0.017 A 
ATOM      5  C4  UNL d   1       1.843  -1.727   0.359  0.00  0.00     0.017 A 
ATOM      6  C5  UNL d   1       2.938  -2.597   0.324  0.00  0.00     0.034 A 
ATOM      7 Cl   UNL d   1       2.102  -0.130   0.967  0.00  0.00    -0.070 Cl
ATOM      8 Cl1  UNL d   1      -0.807  -1.151  -0.079  0.00  0.00    -0.070 Cl
ENDROOT
TORSDOF 0
ENDMDL
