MODEL 1
REMARK minimizedAffinity -2.13831663
REMARK minimizedRMSD -1
REMARK  0 active torsions:
REMARK  status: ('A' for Active; 'I' for Inactive)
ROOT
ATOM      1  C   UNL d   1       2.747  -2.986  -0.172  0.00  0.00     0.020 A 
ATOM      2  C1  UNL d   1       1.589  -3.753  -0.051  0.00  0.00     0.020 A 
ATOM      3  C2  UNL d   1       0.376  -3.142   0.273  0.00  0.00     0.034 A 
ATOM      4  C3  UNL d   1       0.318  -1.758   0.476  0.00  0.00     0.017 A 
ATOM      5  C4  UNL d   1       1.481  -0.988   0.354  0.00  0.00     0.017 A 
ATOM      6  C5  UNL d   1       2.692  -1.606   0.030  0.00  0.00     0.034 A 
ATOM      7 Cl   UNL d   1       1.487   0.724   0.590  0.00  0.00    -0.070 Cl
ATOM      8 Cl1  UNL d   1      -1.216  -1.068   0.873  0.00  0.00    -0.070 Cl
ENDROOT
TORSDOF 0
ENDMDL
