MODEL 1
REMARK minimizedAffinity -0.856306314
REMARK minimizedRMSD -1
REMARK  0 active torsions:
REMARK  status: ('A' for Active; 'I' for Inactive)
ROOT
ATOM      1  C   UNL d   1       0.008  -1.323   1.694  0.00  0.00     0.020 A 
ATOM      2  C1  UNL d   1       0.318  -2.663   1.925  0.00  0.00     0.020 A 
ATOM      3  C2  UNL d   1       1.281  -3.302   1.142  0.00  0.00     0.034 A 
ATOM      4  C3  UNL d   1       1.937  -2.602   0.123  0.00  0.00     0.017 A 
ATOM      5  C4  UNL d   1       1.625  -1.257  -0.109  0.00  0.00     0.017 A 
ATOM      6  C5  UNL d   1       0.660  -0.622   0.679  0.00  0.00     0.034 A 
ATOM      7 Cl   UNL d   1       2.392  -0.327  -1.348  0.00  0.00    -0.070 Cl
ATOM      8 Cl1  UNL d   1       3.118  -3.455  -0.807  0.00  0.00    -0.070 Cl
ENDROOT
TORSDOF 0
ENDMDL
