MODEL 1
REMARK minimizedAffinity 0.186910659
REMARK minimizedRMSD -1
REMARK  0 active torsions:
REMARK  status: ('A' for Active; 'I' for Inactive)
ROOT
ATOM      1  C   UNL d   1      -0.940  -1.094   0.925  0.00  0.00     0.020 A 
ATOM      2  C1  UNL d   1      -1.115  -2.454   0.671  0.00  0.00     0.020 A 
ATOM      3  C2  UNL d   1      -0.008  -3.264   0.412  0.00  0.00     0.034 A 
ATOM      4  C3  UNL d   1       1.280  -2.716   0.406  0.00  0.00     0.017 A 
ATOM      5  C4  UNL d   1       1.455  -1.351   0.661  0.00  0.00     0.017 A 
ATOM      6  C5  UNL d   1       0.343  -0.544   0.920  0.00  0.00     0.034 A 
ATOM      7 Cl   UNL d   1       3.013  -0.602   0.671  0.00  0.00    -0.070 Cl
ATOM      8 Cl1  UNL d   1       2.603  -3.777   0.078  0.00  0.00    -0.070 Cl
ENDROOT
TORSDOF 0
ENDMDL
