MODEL 1
REMARK minimizedAffinity 6.23212242
REMARK minimizedRMSD -1
REMARK  0 active torsions:
REMARK  status: ('A' for Active; 'I' for Inactive)
ROOT
ATOM      1  C   UNL d   1       0.577  -1.427   0.516  0.00  0.00     0.020 A 
ATOM      2  C1  UNL d   1       0.082  -2.716   0.324  0.00  0.00     0.020 A 
ATOM      3  C2  UNL d   1       0.957  -3.763   0.026  0.00  0.00     0.034 A 
ATOM      4  C3  UNL d   1       2.332  -3.522  -0.081  0.00  0.00     0.017 A 
ATOM      5  C4  UNL d   1       2.828  -2.228   0.111  0.00  0.00     0.017 A 
ATOM      6  C5  UNL d   1       1.947  -1.183   0.409  0.00  0.00     0.034 A 
ATOM      7 Cl   UNL d   1       4.511  -1.853  -0.005  0.00  0.00    -0.070 Cl
ATOM      8 Cl1  UNL d   1       3.356  -4.864  -0.452  0.00  0.00    -0.070 Cl
ENDROOT
TORSDOF 0
ENDMDL
