MODEL 1
REMARK minimizedAffinity -2.79823756
REMARK minimizedRMSD -1
REMARK  0 active torsions:
REMARK  status: ('A' for Active; 'I' for Inactive)
ROOT
ATOM      1  C   UNL d   1      -0.154  -2.637   1.392  0.00  0.00     0.020 A 
ATOM      2  C1  UNL d   1      -0.345  -1.260   1.286  0.00  0.00     0.020 A 
ATOM      3  C2  UNL d   1       0.633  -0.463   0.688  0.00  0.00     0.034 A 
ATOM      4  C3  UNL d   1       1.806  -1.043   0.192  0.00  0.00     0.017 A 
ATOM      5  C4  UNL d   1       1.997  -2.426   0.298  0.00  0.00     0.017 A 
ATOM      6  C5  UNL d   1       1.014  -3.219   0.899  0.00  0.00     0.034 A 
ATOM      7 Cl   UNL d   1       3.419  -3.213  -0.290  0.00  0.00    -0.070 Cl
ATOM      8 Cl1  UNL d   1       2.973   0.002  -0.536  0.00  0.00    -0.070 Cl
ENDROOT
TORSDOF 0
ENDMDL
