MODEL 1
REMARK minimizedAffinity -1.472036
REMARK minimizedRMSD -1
REMARK  0 active torsions:
REMARK  status: ('A' for Active; 'I' for Inactive)
ROOT
ATOM      1  C   UNL d   1       0.330  -0.189   0.791  0.00  0.00     0.020 A 
ATOM      2  C1  UNL d   1       1.708  -0.301   0.610  0.00  0.00     0.020 A 
ATOM      3  C2  UNL d   1       2.275  -1.542   0.316  0.00  0.00     0.034 A 
ATOM      4  C3  UNL d   1       1.464  -2.677   0.202  0.00  0.00     0.017 A 
ATOM      5  C4  UNL d   1       0.081  -2.564   0.384  0.00  0.00     0.017 A 
ATOM      6  C5  UNL d   1      -0.481  -1.319   0.678  0.00  0.00     0.034 A 
ATOM      7 Cl   UNL d   1      -0.984  -3.920   0.259  0.00  0.00    -0.070 Cl
ATOM      8 Cl1  UNL d   1       2.234  -4.181  -0.164  0.00  0.00    -0.070 Cl
ENDROOT
TORSDOF 0
ENDMDL
