MODEL 1
REMARK minimizedAffinity 0.782808721
REMARK minimizedRMSD -1
REMARK  0 active torsions:
REMARK  status: ('A' for Active; 'I' for Inactive)
ROOT
ATOM      1  C   UNL d   1      -0.823   0.060   0.974  0.00  0.00     0.020 A 
ATOM      2  C1  UNL d   1      -1.458  -1.170   0.806  0.00  0.00     0.020 A 
ATOM      3  C2  UNL d   1      -0.709  -2.348   0.813  0.00  0.00     0.034 A 
ATOM      4  C3  UNL d   1       0.679  -2.300   0.987  0.00  0.00     0.017 A 
ATOM      5  C4  UNL d   1       1.315  -1.065   1.156  0.00  0.00     0.017 A 
ATOM      6  C5  UNL d   1       0.561   0.113   1.149  0.00  0.00     0.034 A 
ATOM      7 Cl   UNL d   1       3.024  -0.925   1.377  0.00  0.00    -0.070 Cl
ATOM      8 Cl1  UNL d   1       1.542  -3.797   0.985  0.00  0.00    -0.070 Cl
ENDROOT
TORSDOF 0
ENDMDL
