MODEL 1
REMARK minimizedAffinity -0.425972939
REMARK minimizedRMSD -1
REMARK  0 active torsions:
REMARK  status: ('A' for Active; 'I' for Inactive)
ROOT
ATOM      1  C   UNL d   1       1.824  -3.773  -0.482  0.00  0.00     0.020 A 
ATOM      2  C1  UNL d   1       3.030  -3.202  -0.079  0.00  0.00     0.020 A 
ATOM      3  C2  UNL d   1       3.033  -1.974   0.586  0.00  0.00     0.034 A 
ATOM      4  C3  UNL d   1       1.827  -1.313   0.849  0.00  0.00     0.017 A 
ATOM      5  C4  UNL d   1       0.617  -1.888   0.444  0.00  0.00     0.017 A 
ATOM      6  C5  UNL d   1       0.620  -3.117  -0.221  0.00  0.00     0.034 A 
ATOM      7 Cl   UNL d   1      -0.910  -1.132   0.733  0.00  0.00    -0.070 Cl
ATOM      8 Cl1  UNL d   1       1.905   0.202   1.676  0.00  0.00    -0.070 Cl
ENDROOT
TORSDOF 0
ENDMDL
