MODEL 1
REMARK minimizedAffinity 4.3621316
REMARK minimizedRMSD -1
REMARK  0 active torsions:
REMARK  status: ('A' for Active; 'I' for Inactive)
ROOT
ATOM      1  C   UNL d   1      -0.450   0.101   1.189  0.00  0.00     0.020 A 
ATOM      2  C1  UNL d   1      -1.270  -0.950   0.779  0.00  0.00     0.020 A 
ATOM      3  C2  UNL d   1      -0.701  -2.136   0.309  0.00  0.00     0.034 A 
ATOM      4  C3  UNL d   1       0.690  -2.274   0.247  0.00  0.00     0.017 A 
ATOM      5  C4  UNL d   1       1.512  -1.218   0.659  0.00  0.00     0.017 A 
ATOM      6  C5  UNL d   1       0.937  -0.033   1.129  0.00  0.00     0.034 A 
ATOM      7 Cl   UNL d   1       3.237  -1.314   0.612  0.00  0.00    -0.070 Cl
ATOM      8 Cl1  UNL d   1       1.324  -3.768  -0.345  0.00  0.00    -0.070 Cl
ENDROOT
TORSDOF 0
ENDMDL
