MODEL 1
REMARK minimizedAffinity 0.990547895
REMARK minimizedRMSD -1
REMARK  0 active torsions:
REMARK  status: ('A' for Active; 'I' for Inactive)
ROOT
ATOM      1  C   UNL d   1       0.792  -0.916   1.379  0.00  0.00     0.020 A 
ATOM      2  C1  UNL d   1      -0.410  -0.996   0.677  0.00  0.00     0.020 A 
ATOM      3  C2  UNL d   1      -0.680  -2.112  -0.119  0.00  0.00     0.034 A 
ATOM      4  C3  UNL d   1       0.252  -3.151  -0.213  0.00  0.00     0.017 A 
ATOM      5  C4  UNL d   1       1.458  -3.069   0.492  0.00  0.00     0.017 A 
ATOM      6  C5  UNL d   1       1.724  -1.950   1.287  0.00  0.00     0.034 A 
ATOM      7 Cl   UNL d   1       2.658  -4.312   0.425  0.00  0.00    -0.070 Cl
ATOM      8 Cl1  UNL d   1      -0.148  -4.501  -1.215  0.00  0.00    -0.070 Cl
ENDROOT
TORSDOF 0
ENDMDL
