MODEL 1
REMARK minimizedAffinity 3.18475556
REMARK minimizedRMSD -1
REMARK  0 active torsions:
REMARK  status: ('A' for Active; 'I' for Inactive)
ROOT
ATOM      1  C   UNL d   1      -0.550  -0.707   1.541  0.00  0.00     0.020 A 
ATOM      2  C1  UNL d   1       0.623   0.040   1.443  0.00  0.00     0.020 A 
ATOM      3  C2  UNL d   1       1.791  -0.553   0.958  0.00  0.00     0.034 A 
ATOM      4  C3  UNL d   1       1.788  -1.898   0.570  0.00  0.00     0.017 A 
ATOM      5  C4  UNL d   1       0.610  -2.647   0.669  0.00  0.00     0.017 A 
ATOM      6  C5  UNL d   1      -0.556  -2.048   1.155  0.00  0.00     0.034 A 
ATOM      7 Cl   UNL d   1       0.529  -4.311   0.209  0.00  0.00    -0.070 Cl
ATOM      8 Cl1  UNL d   1       3.268  -2.566  -0.020  0.00  0.00    -0.070 Cl
ENDROOT
TORSDOF 0
ENDMDL
