MODEL 1
REMARK minimizedAffinity 1.0013696
REMARK minimizedRMSD -1
REMARK  0 active torsions:
REMARK  status: ('A' for Active; 'I' for Inactive)
ROOT
ATOM      1  C   UNL d   1      -0.807  -2.099   1.298  0.00  0.00     0.020 A 
ATOM      2  C1  UNL d   1      -0.370  -0.796   1.060  0.00  0.00     0.020 A 
ATOM      3  C2  UNL d   1       0.885  -0.574   0.488  0.00  0.00     0.034 A 
ATOM      4  C3  UNL d   1       1.707  -1.656   0.152  0.00  0.00     0.017 A 
ATOM      5  C4  UNL d   1       1.267  -2.963   0.391  0.00  0.00     0.017 A 
ATOM      6  C5  UNL d   1       0.010  -3.180   0.964  0.00  0.00     0.034 A 
ATOM      7 Cl   UNL d   1       2.225  -4.349   0.003  0.00  0.00    -0.070 Cl
ATOM      8 Cl1  UNL d   1       3.245  -1.308  -0.553  0.00  0.00    -0.070 Cl
ENDROOT
TORSDOF 0
ENDMDL
