MODEL 1
REMARK minimizedAffinity -2.6947372
REMARK minimizedRMSD -1
REMARK  0 active torsions:
REMARK  status: ('A' for Active; 'I' for Inactive)
ROOT
ATOM      1  C   UNL d   1      -0.541  -2.167   0.941  0.00  0.00     0.020 A 
ATOM      2  C1  UNL d   1      -0.165  -0.827   1.011  0.00  0.00     0.020 A 
ATOM      3  C2  UNL d   1       1.149  -0.454   0.720  0.00  0.00     0.034 A 
ATOM      4  C3  UNL d   1       2.091  -1.423   0.358  0.00  0.00     0.017 A 
ATOM      5  C4  UNL d   1       1.713  -2.769   0.288  0.00  0.00     0.017 A 
ATOM      6  C5  UNL d   1       0.396  -3.136   0.580  0.00  0.00     0.034 A 
ATOM      7 Cl   UNL d   1       2.820  -4.022  -0.151  0.00  0.00    -0.070 Cl
ATOM      8 Cl1  UNL d   1       3.698  -0.891   0.012  0.00  0.00    -0.070 Cl
ENDROOT
TORSDOF 0
ENDMDL
