MODEL 1
REMARK minimizedAffinity -2.09582829
REMARK minimizedRMSD -1
REMARK  0 active torsions:
REMARK  status: ('A' for Active; 'I' for Inactive)
ROOT
ATOM      1  O1  BZF d   1      -0.903  -0.297   0.020  0.00  0.00    -0.204 OA
ATOM      2  C2  BZF d   1      -0.961   0.899  -0.669  0.00  0.00     0.174 A 
ATOM      3  C3  BZF d   1       0.278   1.364  -0.927  0.00  0.00    -0.012 A 
ATOM      4  C3A BZF d   1       1.167   0.352  -0.444  0.00  0.00    -0.107 A 
ATOM      5  C4  BZF d   1       2.527   0.227  -0.428  0.00  0.00     0.055 A 
ATOM      6  C5  BZF d   1       3.084  -0.851   0.183  0.00  0.00    -0.016 A 
ATOM      7  C6  BZF d   1       2.313  -1.819   0.792  0.00  0.00     0.022 A 
ATOM      8  C7  BZF d   1       0.960  -1.741   0.798  0.00  0.00     0.029 A 
ATOM      9  C7A BZF d   1       0.393  -0.670   0.152  0.00  0.00     0.058 A 
ENDROOT
TORSDOF 0
ENDMDL
