MODEL 1
REMARK minimizedAffinity -3.71524811
REMARK minimizedRMSD -1
REMARK  0 active torsions:
REMARK  status: ('A' for Active; 'I' for Inactive)
ROOT
ATOM      1  O1  BZF d   1      -0.806  -0.315   1.138  0.00  0.00    -0.204 OA
ATOM      2  C2  BZF d   1      -1.337   0.516   0.170  0.00  0.00     0.174 A 
ATOM      3  C3  BZF d   1      -0.406   0.831  -0.754  0.00  0.00    -0.012 A 
ATOM      4  C3A BZF d   1       0.756   0.081  -0.388  0.00  0.00    -0.107 A 
ATOM      5  C4  BZF d   1       2.004  -0.040  -0.929  0.00  0.00     0.055 A 
ATOM      6  C5  BZF d   1       2.932  -0.797  -0.287  0.00  0.00    -0.016 A 
ATOM      7  C6  BZF d   1       2.648  -1.442   0.899  0.00  0.00     0.022 A 
ATOM      8  C7  BZF d   1       1.423  -1.355   1.472  0.00  0.00     0.029 A 
ATOM      9  C7A BZF d   1       0.473  -0.618   0.809  0.00  0.00     0.058 A 
ENDROOT
TORSDOF 0
ENDMDL
