MODEL 1
REMARK minimizedAffinity -1.27937818
REMARK minimizedRMSD -1
REMARK  0 active torsions:
REMARK  status: ('A' for Active; 'I' for Inactive)
ROOT
ATOM      1  O1  BZF d   1       0.569   1.523  -1.046  0.00  0.00    -0.204 OA
ATOM      2  C2  BZF d   1      -0.753   1.815  -0.767  0.00  0.00     0.174 A 
ATOM      3  C3  BZF d   1      -1.241   0.975   0.168  0.00  0.00    -0.012 A 
ATOM      4  C3A BZF d   1      -0.131   0.163   0.561  0.00  0.00    -0.107 A 
ATOM      5  C4  BZF d   1       0.018  -0.847   1.468  0.00  0.00     0.055 A 
ATOM      6  C5  BZF d   1       1.216  -1.482   1.557  0.00  0.00    -0.016 A 
ATOM      7  C6  BZF d   1       2.283  -1.137   0.753  0.00  0.00     0.022 A 
ATOM      8  C7  BZF d   1       2.184  -0.139  -0.157  0.00  0.00     0.029 A 
ATOM      9  C7A BZF d   1       0.985   0.527  -0.227  0.00  0.00     0.058 A 
ENDROOT
TORSDOF 0
ENDMDL
