MODEL 1
REMARK minimizedAffinity -0.91195935
REMARK minimizedRMSD -1
REMARK  0 active torsions:
REMARK  status: ('A' for Active; 'I' for Inactive)
ROOT
ATOM      1  O1  BZF d   1      -1.531  -0.120   0.068  0.00  0.00    -0.204 OA
ATOM      2  C2  BZF d   1      -0.318   0.294   0.584  0.00  0.00     0.174 A 
ATOM      3  C3  BZF d   1       0.296   1.147  -0.261  0.00  0.00    -0.012 A 
ATOM      4  C3A BZF d   1      -0.631   1.347  -1.332  0.00  0.00    -0.107 A 
ATOM      5  C4  BZF d   1      -0.602   2.102  -2.470  0.00  0.00     0.055 A 
ATOM      6  C5  BZF d   1      -1.639   2.018  -3.345  0.00  0.00    -0.016 A 
ATOM      7  C6  BZF d   1      -2.715   1.186  -3.117  0.00  0.00     0.022 A 
ATOM      8  C7  BZF d   1      -2.791   0.422  -2.001  0.00  0.00     0.029 A 
ATOM      9  C7A BZF d   1      -1.761   0.529  -1.098  0.00  0.00     0.058 A 
ENDROOT
TORSDOF 0
ENDMDL
