MODEL 1
REMARK minimizedAffinity -2.83042884
REMARK minimizedRMSD -1
REMARK  0 active torsions:
REMARK  status: ('A' for Active; 'I' for Inactive)
ROOT
ATOM      1  O1  BZF d   1      -0.881  -0.467   1.473  0.00  0.00    -0.204 OA
ATOM      2  C2  BZF d   1      -1.458   0.576   0.774  0.00  0.00     0.174 A 
ATOM      3  C3  BZF d   1      -0.534   1.233   0.044  0.00  0.00    -0.012 A 
ATOM      4  C3A BZF d   1       0.682   0.501   0.231  0.00  0.00    -0.107 A 
ATOM      5  C4  BZF d   1       1.951   0.652  -0.250  0.00  0.00     0.055 A 
ATOM      6  C5  BZF d   1       2.926  -0.190   0.183  0.00  0.00    -0.016 A 
ATOM      7  C6  BZF d   1       2.668  -1.189   1.100  0.00  0.00     0.022 A 
ATOM      8  C7  BZF d   1       1.423  -1.380   1.601  0.00  0.00     0.029 A 
ATOM      9  C7A BZF d   1       0.429  -0.552   1.140  0.00  0.00     0.058 A 
ENDROOT
TORSDOF 0
ENDMDL
