MODEL 1
REMARK minimizedAffinity -3.76698995
REMARK minimizedRMSD -1
REMARK  0 active torsions:
REMARK  status: ('A' for Active; 'I' for Inactive)
ROOT
ATOM      1  O1  BZF d   1      -0.370   0.198   0.537  0.00  0.00    -0.204 OA
ATOM      2  C2  BZF d   1       0.710  -0.489   0.016  0.00  0.00     0.174 A 
ATOM      3  C3  BZF d   1       0.647  -0.528  -1.331  0.00  0.00    -0.012 A 
ATOM      4  C3A BZF d   1      -0.498   0.258  -1.677  0.00  0.00    -0.107 A 
ATOM      5  C4  BZF d   1      -1.072   0.607  -2.866  0.00  0.00     0.055 A 
ATOM      6  C5  BZF d   1      -2.226   1.324  -2.856  0.00  0.00    -0.016 A 
ATOM      7  C6  BZF d   1      -2.836   1.704  -1.678  0.00  0.00     0.022 A 
ATOM      8  C7  BZF d   1      -2.301   1.385  -0.474  0.00  0.00     0.029 A 
ATOM      9  C7A BZF d   1      -1.117   0.689  -0.481  0.00  0.00     0.058 A 
ENDROOT
TORSDOF 0
ENDMDL
