MODEL 1
REMARK minimizedAffinity -3.66144514
REMARK minimizedRMSD -1
REMARK  0 active torsions:
REMARK  status: ('A' for Active; 'I' for Inactive)
ROOT
ATOM      1  O1  BZF d   1      -1.375   0.260   0.337  0.00  0.00    -0.204 OA
ATOM      2  C2  BZF d   1      -1.291   1.298  -0.571  0.00  0.00     0.174 A 
ATOM      3  C3  BZF d   1      -0.062   1.350  -1.125  0.00  0.00    -0.012 A 
ATOM      4  C3A BZF d   1       0.638   0.221  -0.595  0.00  0.00    -0.107 A 
ATOM      5  C4  BZF d   1       1.896  -0.276  -0.781  0.00  0.00     0.055 A 
ATOM      6  C5  BZF d   1       2.294  -1.355  -0.056  0.00  0.00    -0.016 A 
ATOM      7  C6  BZF d   1       1.463  -1.957   0.865  0.00  0.00     0.022 A 
ATOM      8  C7  BZF d   1       0.204  -1.504   1.081  0.00  0.00     0.029 A 
ATOM      9  C7A BZF d   1      -0.212  -0.434   0.326  0.00  0.00     0.058 A 
ENDROOT
TORSDOF 0
ENDMDL
