MODEL 1
REMARK minimizedAffinity -4.53388453
REMARK minimizedRMSD -1
REMARK  0 active torsions:
REMARK  status: ('A' for Active; 'I' for Inactive)
ROOT
ATOM      1  O1  BZF d   1      -0.683  -0.794  -1.269  0.00  0.00    -0.204 OA
ATOM      2  C2  BZF d   1       0.198  -0.517  -0.241  0.00  0.00     0.174 A 
ATOM      3  C3  BZF d   1       0.251   0.809  -0.002  0.00  0.00    -0.012 A 
ATOM      4  C3A BZF d   1      -0.721   1.389  -0.876  0.00  0.00    -0.107 A 
ATOM      5  C4  BZF d   1      -1.145   2.669  -1.092  0.00  0.00     0.055 A 
ATOM      6  C5  BZF d   1      -2.059   2.906  -2.069  0.00  0.00    -0.016 A 
ATOM      7  C6  BZF d   1      -2.566   1.890  -2.852  0.00  0.00     0.022 A 
ATOM      8  C7  BZF d   1      -2.179   0.603  -2.672  0.00  0.00     0.029 A 
ATOM      9  C7A BZF d   1      -1.280   0.356  -1.663  0.00  0.00     0.058 A 
ENDROOT
TORSDOF 0
ENDMDL
