MODEL 1
REMARK minimizedAffinity -4.05136061
REMARK minimizedRMSD -1
REMARK  0 active torsions:
REMARK  status: ('A' for Active; 'I' for Inactive)
ROOT
ATOM      1  O1  BZF d   1      -1.131   0.132   0.299  0.00  0.00    -0.204 OA
ATOM      2  C2  BZF d   1      -1.019   1.158  -0.619  0.00  0.00     0.174 A 
ATOM      3  C3  BZF d   1       0.256   1.287  -1.039  0.00  0.00    -0.012 A 
ATOM      4  C3A BZF d   1       0.970   0.218  -0.409  0.00  0.00    -0.107 A 
ATOM      5  C4  BZF d   1       2.272  -0.191  -0.446  0.00  0.00     0.055 A 
ATOM      6  C5  BZF d   1       2.661  -1.227   0.343  0.00  0.00    -0.016 A 
ATOM      7  C6  BZF d   1       1.777  -1.872   1.184  0.00  0.00     0.022 A 
ATOM      8  C7  BZF d   1       0.474  -1.504   1.251  0.00  0.00     0.029 A 
ATOM      9  C7A BZF d   1       0.071  -0.479   0.431  0.00  0.00     0.058 A 
ENDROOT
TORSDOF 0
ENDMDL
