MODEL 1
REMARK minimizedAffinity -4.02701569
REMARK minimizedRMSD -1
REMARK  0 active torsions:
REMARK  status: ('A' for Active; 'I' for Inactive)
ROOT
ATOM      1  O1  BZF d   1      -0.318  -0.483   1.174  0.00  0.00    -0.204 OA
ATOM      2  C2  BZF d   1      -0.858   0.653   0.603  0.00  0.00     0.174 A 
ATOM      3  C3  BZF d   1       0.095   1.373  -0.023  0.00  0.00    -0.012 A 
ATOM      4  C3A BZF d   1       1.290   0.594   0.089  0.00  0.00    -0.107 A 
ATOM      5  C4  BZF d   1       2.571   0.773  -0.348  0.00  0.00     0.055 A 
ATOM      6  C5  BZF d   1       3.518  -0.141  -0.009  0.00  0.00    -0.016 A 
ATOM      7  C6  BZF d   1       3.221  -1.240   0.770  0.00  0.00     0.022 A 
ATOM      8  C7  BZF d   1       1.963  -1.462   1.224  0.00  0.00     0.029 A 
ATOM      9  C7A BZF d   1       0.997  -0.558   0.855  0.00  0.00     0.058 A 
ENDROOT
TORSDOF 0
ENDMDL
