MODEL 1
REMARK minimizedAffinity -1.58532071
REMARK minimizedRMSD -1
REMARK  0 active torsions:
REMARK  status: ('A' for Active; 'I' for Inactive)
ROOT
ATOM      1  O1  BZF d   1       2.745  -1.216   1.168  0.00  0.00    -0.204 OA
ATOM      2  C2  BZF d   1       1.909  -1.993   1.947  0.00  0.00     0.174 A 
ATOM      3  C3  BZF d   1       0.627  -1.597   1.815  0.00  0.00    -0.012 A 
ATOM      4  C3A BZF d   1       0.652  -0.564   0.825  0.00  0.00    -0.107 A 
ATOM      5  C4  BZF d   1      -0.316   0.210   0.251  0.00  0.00     0.055 A 
ATOM      6  C5  BZF d   1       0.049   1.177  -0.631  0.00  0.00    -0.016 A 
ATOM      7  C6  BZF d   1       1.371   1.402  -0.957  0.00  0.00     0.022 A 
ATOM      8  C7  BZF d   1       2.365   0.656  -0.417  0.00  0.00     0.029 A 
ATOM      9  C7A BZF d   1       1.997  -0.345   0.449  0.00  0.00     0.058 A 
ENDROOT
TORSDOF 0
ENDMDL
