MODEL 1
REMARK minimizedAffinity -1.33382106
REMARK minimizedRMSD -1
REMARK  0 active torsions:
REMARK  status: ('A' for Active; 'I' for Inactive)
ROOT
ATOM      1  O1  BZF d   1       0.248   1.443  -0.787  0.00  0.00    -0.204 OA
ATOM      2  C2  BZF d   1       0.429   0.589   0.284  0.00  0.00     0.174 A 
ATOM      3  C3  BZF d   1      -0.608  -0.266   0.395  0.00  0.00    -0.012 A 
ATOM      4  C3A BZF d   1      -1.448   0.014  -0.729  0.00  0.00    -0.107 A 
ATOM      5  C4  BZF d   1      -2.624  -0.516  -1.177  0.00  0.00     0.055 A 
ATOM      6  C5  BZF d   1      -3.223   0.032  -2.267  0.00  0.00    -0.016 A 
ATOM      7  C6  BZF d   1      -2.678   1.113  -2.928  0.00  0.00     0.022 A 
ATOM      8  C7  BZF d   1      -1.510   1.670  -2.523  0.00  0.00     0.029 A 
ATOM      9  C7A BZF d   1      -0.886   1.098  -1.442  0.00  0.00     0.058 A 
ENDROOT
TORSDOF 0
ENDMDL
