MODEL 1
REMARK minimizedAffinity -2.99095631
REMARK minimizedRMSD -1
REMARK  0 active torsions:
REMARK  status: ('A' for Active; 'I' for Inactive)
ROOT
ATOM      1  O1  BZF d   1      -3.326   0.367  -2.460  0.00  0.00    -0.204 OA
ATOM      2  C2  BZF d   1      -2.627   1.130  -3.375  0.00  0.00     0.174 A 
ATOM      3  C3  BZF d   1      -1.460   1.558  -2.850  0.00  0.00    -0.012 A 
ATOM      4  C3A BZF d   1      -1.386   0.953  -1.555  0.00  0.00    -0.107 A 
ATOM      5  C4  BZF d   1      -0.456   0.984  -0.556  0.00  0.00     0.055 A 
ATOM      6  C5  BZF d   1      -0.719   0.342   0.612  0.00  0.00    -0.016 A 
ATOM      7  C6  BZF d   1      -1.903  -0.335   0.817  0.00  0.00     0.022 A 
ATOM      8  C7  BZF d   1      -2.854  -0.399  -0.146  0.00  0.00     0.029 A 
ATOM      9  C7A BZF d   1      -2.577   0.221  -1.340  0.00  0.00     0.058 A 
ENDROOT
TORSDOF 0
ENDMDL
