MODEL 1
REMARK minimizedAffinity 8.25173664
REMARK minimizedRMSD -1
REMARK  0 active torsions:
REMARK  status: ('A' for Active; 'I' for Inactive)
ROOT
ATOM      1  O1  BZF d   1      -0.593  -3.966  -4.810  0.00  0.00    -0.204 OA
ATOM      2  C2  BZF d   1      -1.352  -5.010  -5.302  0.00  0.00     0.174 A 
ATOM      3  C3  BZF d   1      -0.567  -5.941  -5.881  0.00  0.00    -0.012 A 
ATOM      4  C3A BZF d   1       0.774  -5.492  -5.662  0.00  0.00    -0.107 A 
ATOM      5  C4  BZF d   1       1.999  -5.999  -5.988  0.00  0.00     0.055 A 
ATOM      6  C5  BZF d   1       3.112  -5.278  -5.692  0.00  0.00    -0.016 A 
ATOM      7  C6  BZF d   1       3.037  -4.046  -5.075  0.00  0.00     0.022 A 
ATOM      8  C7  BZF d   1       1.844  -3.504  -4.728  0.00  0.00     0.029 A 
ATOM      9  C7A BZF d   1       0.719  -4.245  -4.996  0.00  0.00     0.058 A 
ENDROOT
TORSDOF 0
ENDMDL
