MODEL 1
REMARK minimizedAffinity -4.79142618
REMARK minimizedRMSD -1
REMARK  0 active torsions:
REMARK  status: ('A' for Active; 'I' for Inactive)
ROOT
ATOM      1  O1  BZF d   1      -1.351   0.070   1.293  0.00  0.00    -0.204 OA
ATOM      2  C2  BZF d   1      -1.276   1.153   0.439  0.00  0.00     0.174 A 
ATOM      3  C3  BZF d   1      -0.109   1.150  -0.237  0.00  0.00    -0.012 A 
ATOM      4  C3A BZF d   1       0.550  -0.058   0.156  0.00  0.00    -0.107 A 
ATOM      5  C4  BZF d   1       1.741  -0.632  -0.187  0.00  0.00     0.055 A 
ATOM      6  C5  BZF d   1       2.123  -1.779   0.433  0.00  0.00    -0.016 A 
ATOM      7  C6  BZF d   1       1.344  -2.376   1.402  0.00  0.00     0.022 A 
ATOM      8  C7  BZF d   1       0.152  -1.846   1.771  0.00  0.00     0.029 A 
ATOM      9  C7A BZF d   1      -0.253  -0.705   1.123  0.00  0.00     0.058 A 
ENDROOT
TORSDOF 0
ENDMDL
