MODEL 1
REMARK minimizedAffinity -1.99458349
REMARK minimizedRMSD -1
REMARK  0 active torsions:
REMARK  status: ('A' for Active; 'I' for Inactive)
ROOT
ATOM      1  C   UNL d   1       1.533  -3.136  -1.005  0.00  0.00     0.023 A 
ATOM      2  C1  UNL d   1       2.109  -2.274  -0.072  0.00  0.00     0.003 A 
ATOM      3  C2  UNL d   1       1.607  -0.982   0.091  0.00  0.00     0.048 A 
ATOM      4  C3  UNL d   1       0.527  -0.557  -0.683  0.00  0.00     0.023 A 
ATOM      5  C4  UNL d   1      -0.053  -1.416  -1.617  0.00  0.00     0.048 A 
ATOM      6  C5  UNL d   1       0.453  -2.707  -1.777  0.00  0.00     0.003 A 
ATOM      7  I   UNL d   1      -0.222   1.367  -0.442  0.00  0.00    -0.146 I 
ENDROOT
TORSDOF 0
ENDMDL
