MODEL 1
REMARK minimizedAffinity -4.96066904
REMARK minimizedRMSD -1
REMARK  0 active torsions:
REMARK  status: ('A' for Active; 'I' for Inactive)
ROOT
ATOM      1  C   UNL d   1       3.258  -1.131   0.481  0.00  0.00     0.023 A 
ATOM      2  C1  UNL d   1       3.040   0.184   0.892  0.00  0.00     0.003 A 
ATOM      3  C2  UNL d   1       1.765   0.745   0.796  0.00  0.00     0.048 A 
ATOM      4  C3  UNL d   1       0.712  -0.016   0.290  0.00  0.00     0.023 A 
ATOM      5  C4  UNL d   1       0.925  -1.333  -0.121  0.00  0.00     0.048 A 
ATOM      6  C5  UNL d   1       2.202  -1.889  -0.025  0.00  0.00     0.003 A 
ATOM      7  I   UNL d   1      -1.188   0.816   0.147  0.00  0.00    -0.146 I 
ENDROOT
TORSDOF 0
ENDMDL
