MODEL 1
REMARK minimizedAffinity -4.9216795
REMARK minimizedRMSD -1
REMARK  0 active torsions:
REMARK  status: ('A' for Active; 'I' for Inactive)
ROOT
ATOM      1  C   UNL d   1       2.411  -1.592  -0.046  0.00  0.00     0.023 A 
ATOM      2  C1  UNL d   1       2.261  -0.471   0.771  0.00  0.00     0.003 A 
ATOM      3  C2  UNL d   1       1.025   0.172   0.856  0.00  0.00     0.048 A 
ATOM      4  C3  UNL d   1      -0.058  -0.311   0.121  0.00  0.00     0.023 A 
ATOM      5  C4  UNL d   1       0.087  -1.432  -0.697  0.00  0.00     0.048 A 
ATOM      6  C5  UNL d   1       1.326  -2.072  -0.779  0.00  0.00     0.003 A 
ATOM      7  I   UNL d   1      -1.899   0.646   0.246  0.00  0.00    -0.146 I 
ENDROOT
TORSDOF 0
ENDMDL
