MODEL 1
REMARK minimizedAffinity -4.22034264
REMARK minimizedRMSD -1
REMARK  0 active torsions:
REMARK  status: ('A' for Active; 'I' for Inactive)
ROOT
ATOM      1  C   UNL d   1       2.407  -1.852  -0.180  0.00  0.00     0.023 A 
ATOM      2  C1  UNL d   1       1.324  -2.129  -1.014  0.00  0.00     0.003 A 
ATOM      3  C2  UNL d   1       0.128  -1.424  -0.863  0.00  0.00     0.048 A 
ATOM      4  C3  UNL d   1       0.022  -0.443   0.122  0.00  0.00     0.023 A 
ATOM      5  C4  UNL d   1       1.104  -0.162   0.958  0.00  0.00     0.048 A 
ATOM      6  C5  UNL d   1       2.298  -0.870   0.805  0.00  0.00     0.003 A 
ATOM      7  I   UNL d   1      -1.757   0.607   0.348  0.00  0.00    -0.146 I 
ENDROOT
TORSDOF 0
ENDMDL
