MODEL 1
REMARK minimizedAffinity -5.12291193
REMARK minimizedRMSD -1
REMARK  0 active torsions:
REMARK  status: ('A' for Active; 'I' for Inactive)
ROOT
ATOM      1  C   UNL d   1       3.209  -0.954   0.690  0.00  0.00     0.023 A 
ATOM      2  C1  UNL d   1       2.269  -1.879   0.239  0.00  0.00     0.003 A 
ATOM      3  C2  UNL d   1       0.942  -1.490   0.044  0.00  0.00     0.048 A 
ATOM      4  C3  UNL d   1       0.563  -0.173   0.302  0.00  0.00     0.023 A 
ATOM      5  C4  UNL d   1       1.501   0.757   0.753  0.00  0.00     0.048 A 
ATOM      6  C5  UNL d   1       2.826   0.362   0.947  0.00  0.00     0.003 A 
ATOM      7  I   UNL d   1      -1.411   0.409   0.013  0.00  0.00    -0.146 I 
ENDROOT
TORSDOF 0
ENDMDL
