MODEL 1
REMARK minimizedAffinity -0.686338723
REMARK minimizedRMSD -1
REMARK  0 active torsions:
REMARK  status: ('A' for Active; 'I' for Inactive)
ROOT
ATOM      1  C   UNL d   1      -3.740   1.797   0.648  0.00  0.00     0.023 A 
ATOM      2  C1  UNL d   1      -3.842   0.416   0.817  0.00  0.00     0.003 A 
ATOM      3  C2  UNL d   1      -2.812  -0.420   0.380  0.00  0.00     0.048 A 
ATOM      4  C3  UNL d   1      -1.683   0.131  -0.224  0.00  0.00     0.023 A 
ATOM      5  C4  UNL d   1      -1.576   1.513  -0.394  0.00  0.00     0.048 A 
ATOM      6  C5  UNL d   1      -2.608   2.345   0.044  0.00  0.00     0.003 A 
ATOM      7  I   UNL d   1      -0.149  -1.111  -0.875  0.00  0.00    -0.146 I 
ENDROOT
TORSDOF 0
ENDMDL
