MODEL 1
REMARK minimizedAffinity -1.9820621
REMARK minimizedRMSD -1
REMARK  0 active torsions:
REMARK  status: ('A' for Active; 'I' for Inactive)
ROOT
ATOM      1  C   UNL d   1       2.701  -1.272   0.389  0.00  0.00     0.023 A 
ATOM      2  C1  UNL d   1       2.506   0.073   0.703  0.00  0.00     0.003 A 
ATOM      3  C2  UNL d   1       1.258   0.665   0.498  0.00  0.00     0.048 A 
ATOM      4  C3  UNL d   1       0.209  -0.093  -0.020  0.00  0.00     0.023 A 
ATOM      5  C4  UNL d   1       0.399  -1.440  -0.335  0.00  0.00     0.048 A 
ATOM      6  C5  UNL d   1       1.649  -2.028  -0.129  0.00  0.00     0.003 A 
ATOM      7  I   UNL d   1      -1.649   0.786  -0.325  0.00  0.00    -0.146 I 
ENDROOT
TORSDOF 0
ENDMDL
