MODEL 1
REMARK minimizedAffinity 12.2772532
REMARK minimizedRMSD -1
REMARK  0 active torsions:
REMARK  status: ('A' for Active; 'I' for Inactive)
ROOT
ATOM      1  N1  IND d   1       1.053  -1.881  -0.693  0.00  0.00    -0.196 N 
ATOM      2  C2  IND d   1       0.593  -3.167  -0.647  0.00  0.00     0.054 A 
ATOM      3  C3  IND d   1       0.494  -3.586   0.635  0.00  0.00    -0.031 A 
ATOM      4  C4  IND d   1       0.937  -2.293   2.816  0.00  0.00     0.051 A 
ATOM      5  C5  IND d   1       1.409  -1.098   3.283  0.00  0.00    -0.031 A 
ATOM      6  C6  IND d   1       1.791  -0.082   2.432  0.00  0.00     0.015 A 
ATOM      7  C7  IND d   1       1.704  -0.219   1.075  0.00  0.00    -0.016 A 
ATOM      8  C8  IND d   1       1.233  -1.433   0.597  0.00  0.00    -0.047 A 
ATOM      9  C9  IND d   1       0.884  -2.484   1.456  0.00  0.00    -0.096 A 
ATOM     10  HN1 IND d   1       1.204  -1.428  -1.408  0.00  0.00     0.298 HD
ENDROOT
TORSDOF 0
ENDMDL
