MODEL 1
REMARK minimizedAffinity 9.02003574
REMARK minimizedRMSD -1
REMARK  0 active torsions:
REMARK  status: ('A' for Active; 'I' for Inactive)
ROOT
ATOM      1  N1  IND d   1       0.241  -4.965   0.838  0.00  0.00    -0.196 N 
ATOM      2  C2  IND d   1       0.771  -4.967  -0.422  0.00  0.00     0.054 A 
ATOM      3  C3  IND d   1       1.502  -3.848  -0.627  0.00  0.00    -0.031 A 
ATOM      4  C4  IND d   1       2.046  -1.929   1.000  0.00  0.00     0.051 A 
ATOM      5  C5  IND d   1       1.758  -1.465   2.253  0.00  0.00    -0.031 A 
ATOM      6  C6  IND d   1       0.935  -2.159   3.117  0.00  0.00     0.015 A 
ATOM      7  C7  IND d   1       0.376  -3.354   2.762  0.00  0.00    -0.016 A 
ATOM      8  C8  IND d   1       0.661  -3.825   1.488  0.00  0.00    -0.047 A 
ATOM      9  C9  IND d   1       1.461  -3.105   0.592  0.00  0.00    -0.096 A 
ATOM     10  HN1 IND d   1      -0.269  -5.573   1.169  0.00  0.00     0.298 HD
ENDROOT
TORSDOF 0
ENDMDL
