MODEL 1
REMARK minimizedAffinity 11.0084467
REMARK minimizedRMSD -1
REMARK  0 active torsions:
REMARK  status: ('A' for Active; 'I' for Inactive)
ROOT
ATOM      1  N1  IND d   1       0.533   0.388   4.503  0.00  0.00    -0.196 N 
ATOM      2  C2  IND d   1       0.683   1.456   3.662  0.00  0.00     0.054 A 
ATOM      3  C3  IND d   1       1.095   1.041   2.444  0.00  0.00    -0.031 A 
ATOM      4  C4  IND d   1       1.488  -1.351   1.577  0.00  0.00     0.051 A 
ATOM      5  C5  IND d   1       1.515  -2.654   1.987  0.00  0.00    -0.031 A 
ATOM      6  C6  IND d   1       1.208  -3.018   3.282  0.00  0.00     0.015 A 
ATOM      7  C7  IND d   1       0.848  -2.088   4.217  0.00  0.00    -0.016 A 
ATOM      8  C8  IND d   1       0.826  -0.763   3.806  0.00  0.00    -0.047 A 
ATOM      9  C9  IND d   1       1.179  -0.384   2.504  0.00  0.00    -0.096 A 
ATOM     10  HN1 IND d   1       0.295   0.429   5.328  0.00  0.00     0.298 HD
ENDROOT
TORSDOF 0
ENDMDL
