MODEL 1
REMARK minimizedAffinity 3.03703237
REMARK minimizedRMSD -1
REMARK  0 active torsions:
REMARK  status: ('A' for Active; 'I' for Inactive)
ROOT
ATOM      1  N1  IND d   1      -2.550   1.986   1.058  0.00  0.00    -0.196 N 
ATOM      2  C2  IND d   1      -1.993   1.985  -0.190  0.00  0.00     0.054 A 
ATOM      3  C3  IND d   1      -2.761   2.693  -1.049  0.00  0.00    -0.031 A 
ATOM      4  C4  IND d   1      -4.920   4.021  -0.598  0.00  0.00     0.051 A 
ATOM      5  C5  IND d   1      -5.835   4.289   0.381  0.00  0.00    -0.031 A 
ATOM      6  C6  IND d   1      -5.698   3.796   1.662  0.00  0.00     0.015 A 
ATOM      7  C7  IND d   1      -4.630   3.021   2.017  0.00  0.00    -0.016 A 
ATOM      8  C8  IND d   1      -3.702   2.741   1.023  0.00  0.00    -0.047 A 
ATOM      9  C9  IND d   1      -3.858   3.204  -0.290  0.00  0.00    -0.096 A 
ATOM     10  HN1 IND d   1      -2.235   1.582   1.748  0.00  0.00     0.298 HD
ENDROOT
TORSDOF 0
ENDMDL
