MODEL 1
REMARK minimizedAffinity 4.86789036
REMARK minimizedRMSD -1
REMARK  0 active torsions:
REMARK  status: ('A' for Active; 'I' for Inactive)
ROOT
ATOM      1  N1  IND d   1       1.938  -2.254   4.347  0.00  0.00    -0.196 N 
ATOM      2  C2  IND d   1       1.726  -2.287   2.997  0.00  0.00     0.054 A 
ATOM      3  C3  IND d   1       2.904  -2.350   2.337  0.00  0.00    -0.031 A 
ATOM      4  C4  IND d   1       5.297  -2.511   3.273  0.00  0.00     0.051 A 
ATOM      5  C5  IND d   1       5.999  -2.479   4.445  0.00  0.00    -0.031 A 
ATOM      6  C6  IND d   1       5.371  -2.370   5.669  0.00  0.00     0.015 A 
ATOM      7  C7  IND d   1       4.011  -2.301   5.767  0.00  0.00    -0.016 A 
ATOM      8  C8  IND d   1       3.294  -2.327   4.579  0.00  0.00    -0.047 A 
ATOM      9  C9  IND d   1       3.928  -2.394   3.332  0.00  0.00    -0.096 A 
ATOM     10  HN1 IND d   1       1.328  -2.196   4.949  0.00  0.00     0.298 HD
ENDROOT
TORSDOF 0
ENDMDL
