MODEL 1
REMARK minimizedAffinity 11.8333454
REMARK minimizedRMSD -1
REMARK  0 active torsions:
REMARK  status: ('A' for Active; 'I' for Inactive)
ROOT
ATOM      1  N1  IND d   1       4.149  -5.324  -2.009  0.00  0.00    -0.196 N 
ATOM      2  C2  IND d   1       2.835  -5.266  -1.634  0.00  0.00     0.054 A 
ATOM      3  C3  IND d   1       2.032  -5.424  -2.710  0.00  0.00    -0.031 A 
ATOM      4  C4  IND d   1       2.656  -5.895  -5.163  0.00  0.00     0.051 A 
ATOM      5  C5  IND d   1       3.732  -5.999  -5.999  0.00  0.00    -0.031 A 
ATOM      6  C6  IND d   1       5.028  -5.884  -5.539  0.00  0.00     0.015 A 
ATOM      7  C7  IND d   1       5.298  -5.670  -4.217  0.00  0.00    -0.016 A 
ATOM      8  C8  IND d   1       4.208  -5.557  -3.365  0.00  0.00    -0.047 A 
ATOM      9  C9  IND d   1       2.889  -5.631  -3.834  0.00  0.00    -0.096 A 
ATOM     10  HN1 IND d   1       4.824  -5.230  -1.486  0.00  0.00     0.298 HD
ENDROOT
TORSDOF 0
ENDMDL
