MODEL 1
REMARK minimizedAffinity 3.34865212
REMARK minimizedRMSD -1
REMARK  0 active torsions:
REMARK  status: ('A' for Active; 'I' for Inactive)
ROOT
ATOM      1  N1  IND d   1       4.924  -2.287   3.551  0.00  0.00    -0.196 N 
ATOM      2  C2  IND d   1       5.329  -2.019   2.273  0.00  0.00     0.054 A 
ATOM      3  C3  IND d   1       4.293  -1.554   1.539  0.00  0.00    -0.031 A 
ATOM      4  C4  IND d   1       1.872  -1.058   2.259  0.00  0.00     0.051 A 
ATOM      5  C5  IND d   1       1.017  -1.176   3.318  0.00  0.00    -0.031 A 
ATOM      6  C6  IND d   1       1.430  -1.679   4.535  0.00  0.00     0.015 A 
ATOM      7  C7  IND d   1       2.722  -2.073   4.742  0.00  0.00    -0.016 A 
ATOM      8  C8  IND d   1       3.591  -1.960   3.666  0.00  0.00    -0.047 A 
ATOM      9  C9  IND d   1       3.167  -1.491   2.416  0.00  0.00    -0.096 A 
ATOM     10  HN1 IND d   1       5.419  -2.606   4.178  0.00  0.00     0.298 HD
ENDROOT
TORSDOF 0
ENDMDL
