MODEL 1
REMARK minimizedAffinity -3.46472239
REMARK minimizedRMSD -1
REMARK  0 active torsions:
REMARK  status: ('A' for Active; 'I' for Inactive)
ROOT
ATOM      1  N1  IND d   1      -3.822  -5.935  -5.187  0.00  0.00    -0.196 N 
ATOM      2  C2  IND d   1      -4.809  -5.451  -6.000  0.00  0.00     0.054 A 
ATOM      3  C3  IND d   1      -5.806  -4.915  -5.261  0.00  0.00    -0.031 A 
ATOM      4  C4  IND d   1      -5.981  -4.635  -2.708  0.00  0.00     0.051 A 
ATOM      5  C5  IND d   1      -5.342  -4.954  -1.543  0.00  0.00    -0.031 A 
ATOM      6  C6  IND d   1      -4.138  -5.629  -1.533  0.00  0.00     0.015 A 
ATOM      7  C7  IND d   1      -3.520  -6.000  -2.693  0.00  0.00    -0.016 A 
ATOM      8  C8  IND d   1      -4.169  -5.683  -3.878  0.00  0.00    -0.047 A 
ATOM      9  C9  IND d   1      -5.412  -5.036  -3.893  0.00  0.00    -0.096 A 
ATOM     10  HN1 IND d   1      -3.105  -6.331  -5.450  0.00  0.00     0.298 HD
ENDROOT
TORSDOF 0
ENDMDL
