MODEL 1
REMARK minimizedAffinity -0.485554278
REMARK minimizedRMSD -1
REMARK  0 active torsions:
REMARK  status: ('A' for Active; 'I' for Inactive)
ROOT
ATOM      1  C   UNL d   1       2.013  -0.729   0.124  0.00  0.00     0.023 A 
ATOM      2  C1  UNL d   1       1.933  -0.710  -1.268  0.00  0.00     0.003 A 
ATOM      3  C2  UNL d   1       0.850  -0.094  -1.899  0.00  0.00     0.048 A 
ATOM      4  C3  UNL d   1      -0.149   0.503  -1.130  0.00  0.00     0.023 A 
ATOM      5  C4  UNL d   1      -0.072   0.488   0.263  0.00  0.00     0.048 A 
ATOM      6  C5  UNL d   1       1.012  -0.131   0.889  0.00  0.00     0.003 A 
ATOM      7  I   UNL d   1      -1.762   1.421  -2.066  0.00  0.00    -0.146 I 
ENDROOT
TORSDOF 0
ENDMDL
