MODEL 1
REMARK minimizedAffinity 0.676960468
REMARK minimizedRMSD -1
REMARK  0 active torsions:
REMARK  status: ('A' for Active; 'I' for Inactive)
ROOT
ATOM      1  C   UNL d   1       2.374  -1.241   1.139  0.00  0.00     0.023 A 
ATOM      2  C1  UNL d   1       1.563  -0.311   1.790  0.00  0.00     0.003 A 
ATOM      3  C2  UNL d   1       0.644   0.447   1.061  0.00  0.00     0.048 A 
ATOM      4  C3  UNL d   1       0.541   0.269  -0.318  0.00  0.00     0.023 A 
ATOM      5  C4  UNL d   1       1.350  -0.661  -0.973  0.00  0.00     0.048 A 
ATOM      6  C5  UNL d   1       2.268  -1.416  -0.240  0.00  0.00     0.003 A 
ATOM      7  I   UNL d   1      -0.826   1.395  -1.406  0.00  0.00    -0.146 I 
ENDROOT
TORSDOF 0
ENDMDL
