MODEL 1
REMARK minimizedAffinity -2.84429002
REMARK minimizedRMSD -1
REMARK  0 active torsions:
REMARK  status: ('A' for Active; 'I' for Inactive)
ROOT
ATOM      1  C   UNL d   1      -0.168   0.128  -1.666  0.00  0.00     0.023 A 
ATOM      2  C1  UNL d   1       1.124  -0.363  -1.474  0.00  0.00     0.003 A 
ATOM      3  C2  UNL d   1       1.581  -0.644  -0.185  0.00  0.00     0.048 A 
ATOM      4  C3  UNL d   1       0.742  -0.433   0.908  0.00  0.00     0.023 A 
ATOM      5  C4  UNL d   1      -0.551   0.058   0.721  0.00  0.00     0.048 A 
ATOM      6  C5  UNL d   1      -1.004   0.339  -0.569  0.00  0.00     0.003 A 
ATOM      7  I   UNL d   1       1.421  -0.850   2.827  0.00  0.00    -0.146 I 
ENDROOT
TORSDOF 0
ENDMDL
