MODEL 1
REMARK minimizedAffinity -2.62455606
REMARK minimizedRMSD -1
REMARK  0 active torsions:
REMARK  status: ('A' for Active; 'I' for Inactive)
ROOT
ATOM      1  C   UNL d   1       1.804  -0.833   0.460  0.00  0.00     0.023 A 
ATOM      2  C1  UNL d   1       0.909   0.101   0.982  0.00  0.00     0.003 A 
ATOM      3  C2  UNL d   1       0.004   0.749   0.138  0.00  0.00     0.048 A 
ATOM      4  C3  UNL d   1      -0.000   0.458  -1.225  0.00  0.00     0.023 A 
ATOM      5  C4  UNL d   1       0.893  -0.477  -1.751  0.00  0.00     0.048 A 
ATOM      6  C5  UNL d   1       1.796  -1.122  -0.904  0.00  0.00     0.003 A 
ATOM      7  I   UNL d   1      -1.346   1.421  -2.483  0.00  0.00    -0.146 I 
ENDROOT
TORSDOF 0
ENDMDL
