MODEL 1
REMARK minimizedAffinity -1.26754296
REMARK minimizedRMSD -1
REMARK  0 active torsions:
REMARK  status: ('A' for Active; 'I' for Inactive)
ROOT
ATOM      1  C   UNL d   1       0.080   0.523  -1.076  0.00  0.00     0.023 A 
ATOM      2  C1  UNL d   1      -1.205   0.156  -0.677  0.00  0.00     0.003 A 
ATOM      3  C2  UNL d   1      -1.384  -0.655   0.446  0.00  0.00     0.048 A 
ATOM      4  C3  UNL d   1      -0.274  -1.095   1.165  0.00  0.00     0.023 A 
ATOM      5  C4  UNL d   1       1.014  -0.730   0.770  0.00  0.00     0.048 A 
ATOM      6  C5  UNL d   1       1.189   0.081  -0.354  0.00  0.00     0.003 A 
ATOM      7  I   UNL d   1      -0.538  -2.302   2.836  0.00  0.00    -0.146 I 
ENDROOT
TORSDOF 0
ENDMDL
