MODEL 1
REMARK minimizedAffinity -2.16636515
REMARK minimizedRMSD -1
REMARK  0 active torsions:
REMARK  status: ('A' for Active; 'I' for Inactive)
ROOT
ATOM      1  C   UNL d   1      -0.669  -0.822   2.589  0.00  0.00     0.023 A 
ATOM      2  C1  UNL d   1       0.588  -0.658   2.007  0.00  0.00     0.003 A 
ATOM      3  C2  UNL d   1       0.697  -0.179   0.700  0.00  0.00     0.048 A 
ATOM      4  C3  UNL d   1      -0.456   0.137  -0.019  0.00  0.00     0.023 A 
ATOM      5  C4  UNL d   1      -1.716  -0.024   0.560  0.00  0.00     0.048 A 
ATOM      6  C5  UNL d   1      -1.819  -0.505   1.867  0.00  0.00     0.003 A 
ATOM      7  I   UNL d   1      -0.297   0.851  -1.964  0.00  0.00    -0.146 I 
ENDROOT
TORSDOF 0
ENDMDL
