MODEL 1
REMARK minimizedAffinity -3.85937452
REMARK minimizedRMSD -1
REMARK  0 active torsions:
REMARK  status: ('A' for Active; 'I' for Inactive)
ROOT
ATOM      1  C   UNL d   1       1.420   1.185  -1.622  0.00  0.00     0.023 A 
ATOM      2  C1  UNL d   1       1.032   2.201  -2.495  0.00  0.00     0.003 A 
ATOM      3  C2  UNL d   1      -0.319   2.529  -2.631  0.00  0.00     0.048 A 
ATOM      4  C3  UNL d   1      -1.276   1.839  -1.888  0.00  0.00     0.023 A 
ATOM      5  C4  UNL d   1      -0.892   0.822  -1.012  0.00  0.00     0.048 A 
ATOM      6  C5  UNL d   1       0.459   0.497  -0.881  0.00  0.00     0.003 A 
ATOM      7  I   UNL d   1      -3.287   2.325  -2.087  0.00  0.00    -0.146 I 
ENDROOT
TORSDOF 0
ENDMDL
