MODEL 1
REMARK minimizedAffinity 2.13861299
REMARK minimizedRMSD -1
REMARK  0 active torsions:
REMARK  status: ('A' for Active; 'I' for Inactive)
ROOT
ATOM      1  C   UNL d   1       1.666  -1.289   2.865  0.00  0.00     0.023 A 
ATOM      2  C1  UNL d   1       0.393  -1.336   2.297  0.00  0.00     0.003 A 
ATOM      3  C2  UNL d   1       0.243  -1.279   0.910  0.00  0.00     0.048 A 
ATOM      4  C3  UNL d   1       1.371  -1.177   0.097  0.00  0.00     0.023 A 
ATOM      5  C4  UNL d   1       2.647  -1.131   0.660  0.00  0.00     0.048 A 
ATOM      6  C5  UNL d   1       2.792  -1.187   2.048  0.00  0.00     0.003 A 
ATOM      7  I   UNL d   1       1.151  -1.092  -1.968  0.00  0.00    -0.146 I 
ENDROOT
TORSDOF 0
ENDMDL
