MODEL 1
REMARK minimizedAffinity 7.04801607
REMARK minimizedRMSD -1
REMARK  0 active torsions:
REMARK  status: ('A' for Active; 'I' for Inactive)
ROOT
ATOM      1  C   UNL d   1       1.046  -3.650   0.427  0.00  0.00     0.020 A 
ATOM      2  C1  UNL d   1      -0.113  -3.646  -0.347  0.00  0.00     0.020 A 
ATOM      3  C2  UNL d   1      -0.464  -2.506  -1.073  0.00  0.00     0.034 A 
ATOM      4  C3  UNL d   1       0.345  -1.365  -1.027  0.00  0.00     0.017 A 
ATOM      5  C4  UNL d   1       1.509  -1.370  -0.250  0.00  0.00     0.017 A 
ATOM      6  C5  UNL d   1       1.856  -2.514   0.476  0.00  0.00     0.034 A 
ATOM      7 Cl   UNL d   1       2.559  -0.001  -0.143  0.00  0.00    -0.070 Cl
ATOM      8 Cl1  UNL d   1      -0.149   0.009  -1.950  0.00  0.00    -0.070 Cl
ENDROOT
TORSDOF 0
ENDMDL
