MODEL 1
REMARK minimizedAffinity 7.95610523
REMARK minimizedRMSD -1
REMARK  0 active torsions:
REMARK  status: ('A' for Active; 'I' for Inactive)
ROOT
ATOM      1  C   UNL d   1       2.495  -2.086   0.955  0.00  0.00     0.020 A 
ATOM      2  C1  UNL d   1       3.081  -1.187   0.065  0.00  0.00     0.020 A 
ATOM      3  C2  UNL d   1       2.503  -0.968  -1.187  0.00  0.00     0.034 A 
ATOM      4  C3  UNL d   1       1.336  -1.648  -1.553  0.00  0.00     0.017 A 
ATOM      5  C4  UNL d   1       0.748  -2.550  -0.659  0.00  0.00     0.017 A 
ATOM      6  C5  UNL d   1       1.331  -2.766   0.594  0.00  0.00     0.034 A 
ATOM      7 Cl   UNL d   1      -0.692  -3.427  -1.038  0.00  0.00    -0.070 Cl
ATOM      8 Cl1  UNL d   1       0.675  -1.328  -3.117  0.00  0.00    -0.070 Cl
ENDROOT
TORSDOF 0
ENDMDL
