MODEL 1
REMARK minimizedAffinity 1.96748495
REMARK minimizedRMSD -1
REMARK  0 active torsions:
REMARK  status: ('A' for Active; 'I' for Inactive)
ROOT
ATOM      1  C   UNL d   1       3.153  -2.634   1.683  0.00  0.00     0.020 A 
ATOM      2  C1  UNL d   1       3.402  -1.444   1.001  0.00  0.00     0.020 A 
ATOM      3  C2  UNL d   1       2.573  -1.058  -0.055  0.00  0.00     0.034 A 
ATOM      4  C3  UNL d   1       1.492  -1.864  -0.432  0.00  0.00     0.017 A 
ATOM      5  C4  UNL d   1       1.243  -3.058   0.254  0.00  0.00     0.017 A 
ATOM      6  C5  UNL d   1       2.076  -3.439   1.311  0.00  0.00     0.034 A 
ATOM      7 Cl   UNL d   1      -0.071  -4.104  -0.153  0.00  0.00    -0.070 Cl
ATOM      8 Cl1  UNL d   1       0.509  -1.325  -1.746  0.00  0.00    -0.070 Cl
ENDROOT
TORSDOF 0
ENDMDL
