MODEL 1
REMARK minimizedAffinity 10.4365044
REMARK minimizedRMSD -1
REMARK  0 active torsions:
REMARK  status: ('A' for Active; 'I' for Inactive)
ROOT
ATOM      1  C   UNL d   1      -0.285   2.148   0.334  0.00  0.00     0.020 A 
ATOM      2  C1  UNL d   1      -1.165   1.958   1.398  0.00  0.00     0.020 A 
ATOM      3  C2  UNL d   1      -0.866   1.026   2.394  0.00  0.00     0.034 A 
ATOM      4  C3  UNL d   1       0.316   0.280   2.328  0.00  0.00     0.017 A 
ATOM      5  C4  UNL d   1       1.199   0.471   1.259  0.00  0.00     0.017 A 
ATOM      6  C5  UNL d   1       0.895   1.406   0.265  0.00  0.00     0.034 A 
ATOM      7 Cl   UNL d   1       2.677  -0.413   1.109  0.00  0.00    -0.070 Cl
ATOM      8 Cl1  UNL d   1       0.622  -0.855   3.594  0.00  0.00    -0.070 Cl
ENDROOT
TORSDOF 0
ENDMDL
