MODEL 1
REMARK minimizedAffinity 7.31546307
REMARK minimizedRMSD -1
REMARK  0 active torsions:
REMARK  status: ('A' for Active; 'I' for Inactive)
ROOT
ATOM      1  C   UNL d   1       1.083   3.119   0.295  0.00  0.00     0.020 A 
ATOM      2  C1  UNL d   1       1.231   1.734   0.225  0.00  0.00     0.020 A 
ATOM      3  C2  UNL d   1       0.567   0.914   1.140  0.00  0.00     0.034 A 
ATOM      4  C3  UNL d   1      -0.247   1.478   2.129  0.00  0.00     0.017 A 
ATOM      5  C4  UNL d   1      -0.395   2.868   2.198  0.00  0.00     0.017 A 
ATOM      6  C5  UNL d   1       0.272   3.684   1.279  0.00  0.00     0.034 A 
ATOM      7 Cl   UNL d   1      -1.382   3.637   3.390  0.00  0.00    -0.070 Cl
ATOM      8 Cl1  UNL d   1      -1.038   0.404   3.228  0.00  0.00    -0.070 Cl
ENDROOT
TORSDOF 0
ENDMDL
