MODEL 1
REMARK minimizedAffinity 9.55985928
REMARK minimizedRMSD -1
REMARK  0 active torsions:
REMARK  status: ('A' for Active; 'I' for Inactive)
ROOT
ATOM      1  C   UNL d   1       2.037   0.982   0.721  0.00  0.00     0.020 A 
ATOM      2  C1  UNL d   1       0.824   1.624   0.469  0.00  0.00     0.020 A 
ATOM      3  C2  UNL d   1       0.075   1.284  -0.659  0.00  0.00     0.034 A 
ATOM      4  C3  UNL d   1       0.538   0.300  -1.541  0.00  0.00     0.017 A 
ATOM      5  C4  UNL d   1       1.755  -0.343  -1.288  0.00  0.00     0.017 A 
ATOM      6  C5  UNL d   1       2.501   0.001  -0.156  0.00  0.00     0.034 A 
ATOM      7 Cl   UNL d   1       2.391  -1.567  -2.330  0.00  0.00    -0.070 Cl
ATOM      8 Cl1  UNL d   1      -0.440  -0.070  -2.916  0.00  0.00    -0.070 Cl
ENDROOT
TORSDOF 0
ENDMDL
