MODEL 1
REMARK minimizedAffinity 6.5493989
REMARK minimizedRMSD -1
REMARK  0 active torsions:
REMARK  status: ('A' for Active; 'I' for Inactive)
ROOT
ATOM      1  C   UNL d   1       1.733   2.283   0.589  0.00  0.00     0.020 A 
ATOM      2  C1  UNL d   1       0.711   1.712  -0.168  0.00  0.00     0.020 A 
ATOM      3  C2  UNL d   1       0.768   0.359  -0.510  0.00  0.00     0.034 A 
ATOM      4  C3  UNL d   1       1.850  -0.427  -0.095  0.00  0.00     0.017 A 
ATOM      5  C4  UNL d   1       2.875   0.148   0.665  0.00  0.00     0.017 A 
ATOM      6  C5  UNL d   1       2.812   1.503   1.005  0.00  0.00     0.034 A 
ATOM      7 Cl   UNL d   1       4.241  -0.757   1.214  0.00  0.00    -0.070 Cl
ATOM      8 Cl1  UNL d   1       1.855  -2.092  -0.554  0.00  0.00    -0.070 Cl
ENDROOT
TORSDOF 0
ENDMDL
