MODEL 1
REMARK minimizedAffinity 3.12357688
REMARK minimizedRMSD -1
REMARK  0 active torsions:
REMARK  status: ('A' for Active; 'I' for Inactive)
ROOT
ATOM      1  C   UNL d   1       2.006  -2.355  -0.727  0.00  0.00     0.020 A 
ATOM      2  C1  UNL d   1       3.015  -1.623  -0.104  0.00  0.00     0.020 A 
ATOM      3  C2  UNL d   1       2.845  -0.256   0.128  0.00  0.00     0.034 A 
ATOM      4  C3  UNL d   1       1.663   0.383  -0.264  0.00  0.00     0.017 A 
ATOM      5  C4  UNL d   1       0.650  -0.353  -0.890  0.00  0.00     0.017 A 
ATOM      6  C5  UNL d   1       0.826  -1.721  -1.119  0.00  0.00     0.034 A 
ATOM      7 Cl   UNL d   1      -0.836   0.365  -1.402  0.00  0.00    -0.070 Cl
ATOM      8 Cl1  UNL d   1       1.521   2.075   0.054  0.00  0.00    -0.070 Cl
ENDROOT
TORSDOF 0
ENDMDL
