MODEL 1
REMARK minimizedAffinity -2.79438376
REMARK minimizedRMSD -1
REMARK  0 active torsions:
REMARK  status: ('A' for Active; 'I' for Inactive)
ROOT
ATOM      1  C1  BNZ d   1      -0.610  -0.061   1.215  0.00  0.00     0.000 A 
ATOM      2  C2  BNZ d   1       0.709  -0.365   1.011  0.00  0.00     0.000 A 
ATOM      3  C3  BNZ d   1       1.113  -0.997  -0.132  0.00  0.00     0.000 A 
ATOM      4  C4  BNZ d   1       0.194  -1.359  -1.049  0.00  0.00     0.000 A 
ATOM      5  C5  BNZ d   1      -1.142  -1.068  -0.854  0.00  0.00     0.000 A 
ATOM      6  C6  BNZ d   1      -1.540  -0.397   0.280  0.00  0.00     0.000 A 
ENDROOT
TORSDOF 0
ENDMDL
