MODEL 1
REMARK minimizedAffinity -4.10551214
REMARK minimizedRMSD -1
REMARK  0 active torsions:
REMARK  status: ('A' for Active; 'I' for Inactive)
ROOT
ATOM      1  C1  BNZ d   1       0.368  -0.562   1.898  0.00  0.00     0.000 A 
ATOM      2  C2  BNZ d   1       0.879  -0.831   3.140  0.00  0.00     0.000 A 
ATOM      3  C3  BNZ d   1       0.402  -0.188   4.248  0.00  0.00     0.000 A 
ATOM      4  C4  BNZ d   1      -0.556   0.751   4.108  0.00  0.00     0.000 A 
ATOM      5  C5  BNZ d   1      -1.075   1.041   2.862  0.00  0.00     0.000 A 
ATOM      6  C6  BNZ d   1      -0.620   0.364   1.754  0.00  0.00     0.000 A 
ENDROOT
TORSDOF 0
ENDMDL
