MODEL 1
REMARK minimizedAffinity 1.56448138
REMARK minimizedRMSD -1
REMARK  0 active torsions:
REMARK  status: ('A' for Active; 'I' for Inactive)
ROOT
ATOM      1  C1  BNZ d   1      -0.829   5.999  -0.657  0.00  0.00     0.000 A 
ATOM      2  C2  BNZ d   1       0.057   5.967   0.386  0.00  0.00     0.000 A 
ATOM      3  C3  BNZ d   1      -0.384   5.917   1.679  0.00  0.00     0.000 A 
ATOM      4  C4  BNZ d   1      -1.709   5.940   1.928  0.00  0.00     0.000 A 
ATOM      5  C5  BNZ d   1      -2.616   5.982   0.888  0.00  0.00     0.000 A 
ATOM      6  C6  BNZ d   1      -2.168   5.993  -0.413  0.00  0.00     0.000 A 
ENDROOT
TORSDOF 0
ENDMDL
