MODEL 1
REMARK minimizedAffinity 3.64197588
REMARK minimizedRMSD -1
REMARK  0 active torsions:
REMARK  status: ('A' for Active; 'I' for Inactive)
ROOT
ATOM      1  C1  BNZ d   1       2.227   0.274   1.603  0.00  0.00     0.000 A 
ATOM      2  C2  BNZ d   1       3.171   1.266   1.589  0.00  0.00     0.000 A 
ATOM      3  C3  BNZ d   1       3.658   1.752   0.408  0.00  0.00     0.000 A 
ATOM      4  C4  BNZ d   1       3.231   1.219  -0.755  0.00  0.00     0.000 A 
ATOM      5  C5  BNZ d   1       2.286   0.212  -0.757  0.00  0.00     0.000 A 
ATOM      6  C6  BNZ d   1       1.770  -0.248   0.432  0.00  0.00     0.000 A 
ENDROOT
TORSDOF 0
ENDMDL
