MODEL 1
REMARK minimizedAffinity 0.786091626
REMARK minimizedRMSD -1
REMARK  0 active torsions:
REMARK  status: ('A' for Active; 'I' for Inactive)
ROOT
ATOM      1  C1  BNZ d   1      -1.035  -0.560  -0.058  0.00  0.00     0.000 A 
ATOM      2  C2  BNZ d   1      -1.513   0.097   1.044  0.00  0.00     0.000 A 
ATOM      3  C3  BNZ d   1      -0.694   0.378   2.101  0.00  0.00     0.000 A 
ATOM      4  C4  BNZ d   1       0.591  -0.033   2.072  0.00  0.00     0.000 A 
ATOM      5  C5  BNZ d   1       1.085  -0.705   0.972  0.00  0.00     0.000 A 
ATOM      6  C6  BNZ d   1       0.267  -0.952  -0.106  0.00  0.00     0.000 A 
ENDROOT
TORSDOF 0
ENDMDL
