MODEL 1
REMARK minimizedAffinity 6.23676777
REMARK minimizedRMSD -1
REMARK  0 active torsions:
REMARK  status: ('A' for Active; 'I' for Inactive)
ROOT
ATOM      1  C1  BNZ d   1       0.733   0.188   1.058  0.00  0.00     0.000 A 
ATOM      2  C2  BNZ d   1      -0.518   0.586   1.446  0.00  0.00     0.000 A 
ATOM      3  C3  BNZ d   1      -1.614   0.293   0.683  0.00  0.00     0.000 A 
ATOM      4  C4  BNZ d   1      -1.453  -0.363  -0.484  0.00  0.00     0.000 A 
ATOM      5  C5  BNZ d   1      -0.196  -0.763  -0.894  0.00  0.00     0.000 A 
ATOM      6  C6  BNZ d   1       0.900  -0.500  -0.104  0.00  0.00     0.000 A 
ENDROOT
TORSDOF 0
ENDMDL
