MODEL 1
REMARK minimizedAffinity -0.575214684
REMARK minimizedRMSD -1
REMARK  0 active torsions:
REMARK  status: ('A' for Active; 'I' for Inactive)
ROOT
ATOM      1  C1  BNZ d   1      -1.957   0.012   0.601  0.00  0.00     0.000 A 
ATOM      2  C2  BNZ d   1      -1.926   0.607   1.834  0.00  0.00     0.000 A 
ATOM      3  C3  BNZ d   1      -0.743   0.793   2.492  0.00  0.00     0.000 A 
ATOM      4  C4  BNZ d   1       0.402   0.348   1.935  0.00  0.00     0.000 A 
ATOM      5  C5  BNZ d   1       0.386  -0.262   0.696  0.00  0.00     0.000 A 
ATOM      6  C6  BNZ d   1      -0.802  -0.412   0.020  0.00  0.00     0.000 A 
ENDROOT
TORSDOF 0
ENDMDL
