MODEL 1
REMARK minimizedAffinity -3.15955424
REMARK minimizedRMSD -1
REMARK  0 active torsions:
REMARK  status: ('A' for Active; 'I' for Inactive)
ROOT
ATOM      1  C1  BNZ d   1      -1.791  -0.779  -0.264  0.00  0.00     0.000 A 
ATOM      2  C2  BNZ d   1      -1.911  -0.148   0.946  0.00  0.00     0.000 A 
ATOM      3  C3  BNZ d   1      -0.827   0.015   1.762  0.00  0.00     0.000 A 
ATOM      4  C4  BNZ d   1       0.367  -0.488   1.387  0.00  0.00     0.000 A 
ATOM      5  C5  BNZ d   1       0.503  -1.135   0.175  0.00  0.00     0.000 A 
ATOM      6  C6  BNZ d   1      -0.583  -1.263  -0.662  0.00  0.00     0.000 A 
ENDROOT
TORSDOF 0
ENDMDL
