MODEL 1
REMARK minimizedAffinity -1.23441684
REMARK minimizedRMSD -1
REMARK  0 active torsions:
REMARK  status: ('A' for Active; 'I' for Inactive)
ROOT
ATOM      1  C1  BNZ d   1      -0.026   2.378   2.921  0.00  0.00     0.000 A 
ATOM      2  C2  BNZ d   1      -1.132   1.594   2.722  0.00  0.00     0.000 A 
ATOM      3  C3  BNZ d   1      -1.004   0.272   2.401  0.00  0.00     0.000 A 
ATOM      4  C4  BNZ d   1       0.227  -0.255   2.240  0.00  0.00     0.000 A 
ATOM      5  C5  BNZ d   1       1.351   0.524   2.427  0.00  0.00     0.000 A 
ATOM      6  C6  BNZ d   1       1.219   1.845   2.789  0.00  0.00     0.000 A 
ENDROOT
TORSDOF 0
ENDMDL
