MODEL 1
REMARK minimizedAffinity 2.04108167
REMARK minimizedRMSD -1
REMARK  0 active torsions:
REMARK  status: ('A' for Active; 'I' for Inactive)
ROOT
ATOM      1  C1  BNZ d   1       3.419   5.987   1.483  0.00  0.00     0.000 A 
ATOM      2  C2  BNZ d   1       3.384   5.981   0.114  0.00  0.00     0.000 A 
ATOM      3  C3  BNZ d   1       2.192   5.999  -0.555  0.00  0.00     0.000 A 
ATOM      4  C4  BNZ d   1       1.039   5.982   0.144  0.00  0.00     0.000 A 
ATOM      5  C5  BNZ d   1       1.058   5.978   1.524  0.00  0.00     0.000 A 
ATOM      6  C6  BNZ d   1       2.259   6.000   2.195  0.00  0.00     0.000 A 
ENDROOT
TORSDOF 0
ENDMDL
