MODEL 1
REMARK minimizedAffinity 5.67611599
REMARK minimizedRMSD -1
REMARK  0 active torsions:
REMARK  status: ('A' for Active; 'I' for Inactive)
ROOT
ATOM      1  C1  BNZ d   1       0.037   0.938   1.487  0.00  0.00     0.000 A 
ATOM      2  C2  BNZ d   1      -1.277   0.980   1.105  0.00  0.00     0.000 A 
ATOM      3  C3  BNZ d   1      -1.832  -0.045   0.391  0.00  0.00     0.000 A 
ATOM      4  C4  BNZ d   1      -1.062  -1.091   0.026  0.00  0.00     0.000 A 
ATOM      5  C5  BNZ d   1       0.267  -1.144   0.396  0.00  0.00     0.000 A 
ATOM      6  C6  BNZ d   1       0.812  -0.128   1.147  0.00  0.00     0.000 A 
ENDROOT
TORSDOF 0
ENDMDL
