MODEL 1
REMARK minimizedAffinity 2.69580698
REMARK minimizedRMSD -1
REMARK  0 active torsions:
REMARK  status: ('A' for Active; 'I' for Inactive)
ROOT
ATOM      1  C1  BNZ d   1      -1.538   0.009   0.408  0.00  0.00     0.000 A 
ATOM      2  C2  BNZ d   1      -0.550   0.534   1.198  0.00  0.00     0.000 A 
ATOM      3  C3  BNZ d   1       0.745   0.118   1.068  0.00  0.00     0.000 A 
ATOM      4  C4  BNZ d   1       1.045  -0.849   0.177  0.00  0.00     0.000 A 
ATOM      5  C5  BNZ d   1       0.059  -1.395  -0.620  0.00  0.00     0.000 A 
ATOM      6  C6  BNZ d   1      -1.237  -0.947  -0.514  0.00  0.00     0.000 A 
ENDROOT
TORSDOF 0
ENDMDL
