MODEL 1
REMARK minimizedAffinity 0.0076374379
REMARK minimizedRMSD -1
REMARK  0 active torsions:
REMARK  status: ('A' for Active; 'I' for Inactive)
ROOT
ATOM      1  C1  BNZ d   1       1.465   0.161  -4.889  0.00  0.00     0.000 A 
ATOM      2  C2  BNZ d   1       0.978  -0.753  -5.785  0.00  0.00     0.000 A 
ATOM      3  C3  BNZ d   1      -0.291  -1.245  -5.662  0.00  0.00     0.000 A 
ATOM      4  C4  BNZ d   1      -1.056  -0.854  -4.623  0.00  0.00     0.000 A 
ATOM      5  C5  BNZ d   1      -0.577   0.060  -3.707  0.00  0.00     0.000 A 
ATOM      6  C6  BNZ d   1       0.688   0.583  -3.855  0.00  0.00     0.000 A 
ENDROOT
TORSDOF 0
ENDMDL
