MODEL 1
REMARK minimizedAffinity 19.9641438
REMARK minimizedRMSD -1
REMARK  0 active torsions:
REMARK  status: ('A' for Active; 'I' for Inactive)
ROOT
ATOM      1  C   UNL d   1       4.207   4.380   2.618  0.00  0.00     0.124 A 
ATOM      2  C1  UNL d   1       4.654   4.984   3.786  0.00  0.00     0.062 A 
ATOM      3  C2  UNL d   1       3.742   5.401   4.751  0.00  0.00     0.162 A 
ATOM      4  C3  UNL d   1       2.374   5.216   4.553  0.00  0.00    -0.034 A 
ATOM      5  C4  UNL d   1       1.932   4.609   3.376  0.00  0.00     0.162 A 
ATOM      6  C5  UNL d   1       2.848   4.193   2.415  0.00  0.00     0.062 A 
ATOM      7  F   UNL d   1       2.414   3.610   1.287  0.00  0.00    -0.097 F 
ATOM      8  F1  UNL d   1       0.624   4.415   3.154  0.00  0.00    -0.096 F 
ATOM      9  I   UNL d   1       1.007   5.839   5.994  0.00  0.00    -0.060 I 
ATOM     10  F2  UNL d   1       4.201   5.982   5.869  0.00  0.00    -0.096 F 
ATOM     11  F3  UNL d   1       5.967   5.167   3.985  0.00  0.00    -0.097 F 
ATOM     12  F4  UNL d   1       5.087   3.980   1.691  0.00  0.00    -0.092 F 
ENDROOT
TORSDOF 0
ENDMDL
