MODEL 1
REMARK minimizedAffinity 13.9342384
REMARK minimizedRMSD -1
REMARK  0 active torsions:
REMARK  status: ('A' for Active; 'I' for Inactive)
ROOT
ATOM      1  C   UNL d   1       1.645   5.271   4.926  0.00  0.00     0.124 A 
ATOM      2  C1  UNL d   1       0.818   4.900   3.875  0.00  0.00     0.062 A 
ATOM      3  C2  UNL d   1       1.322   4.144   2.821  0.00  0.00     0.162 A 
ATOM      4  C3  UNL d   1       2.661   3.752   2.813  0.00  0.00    -0.034 A 
ATOM      5  C4  UNL d   1       3.487   4.130   3.874  0.00  0.00     0.162 A 
ATOM      6  C5  UNL d   1       2.978   4.886   4.925  0.00  0.00     0.062 A 
ATOM      7  F   UNL d   1       3.778   5.243   5.940  0.00  0.00    -0.097 F 
ATOM      8  F1  UNL d   1       4.779   3.770   3.899  0.00  0.00    -0.096 F 
ATOM      9  I   UNL d   1       3.420   2.621   1.240  0.00  0.00    -0.060 I 
ATOM     10  F2  UNL d   1       0.501   3.799   1.818  0.00  0.00    -0.096 F 
ATOM     11  F3  UNL d   1      -0.470   5.272   3.873  0.00  0.00    -0.097 F 
ATOM     12  F4  UNL d   1       1.157   6.000   5.938  0.00  0.00    -0.092 F 
ENDROOT
TORSDOF 0
ENDMDL
