MODEL 1
REMARK minimizedAffinity 3.71323919
REMARK minimizedRMSD -1
REMARK  0 active torsions:
REMARK  status: ('A' for Active; 'I' for Inactive)
ROOT
ATOM      1  C   UNL d   1       3.460   3.028   2.621  0.00  0.00     0.124 A 
ATOM      2  C1  UNL d   1       4.197   4.108   3.088  0.00  0.00     0.062 A 
ATOM      3  C2  UNL d   1       3.660   4.957   4.051  0.00  0.00     0.162 A 
ATOM      4  C3  UNL d   1       2.380   4.729   4.556  0.00  0.00    -0.034 A 
ATOM      5  C4  UNL d   1       1.645   3.641   4.082  0.00  0.00     0.162 A 
ATOM      6  C5  UNL d   1       2.186   2.795   3.119  0.00  0.00     0.062 A 
ATOM      7  F   UNL d   1       1.473   1.752   2.669  0.00  0.00    -0.097 F 
ATOM      8  F1  UNL d   1       0.412   3.393   4.546  0.00  0.00    -0.096 F 
ATOM      9  I   UNL d   1       1.575   5.996   5.997  0.00  0.00    -0.060 I 
ATOM     10  F2  UNL d   1       4.395   5.993   4.484  0.00  0.00    -0.096 F 
ATOM     11  F3  UNL d   1       5.428   4.335   2.608  0.00  0.00    -0.097 F 
ATOM     12  F4  UNL d   1       3.979   2.213   1.693  0.00  0.00    -0.092 F 
ENDROOT
TORSDOF 0
ENDMDL
