MODEL 1
REMARK minimizedAffinity 13.9461155
REMARK minimizedRMSD -1
REMARK  0 active torsions:
REMARK  status: ('A' for Active; 'I' for Inactive)
ROOT
ATOM      1  C   UNL d   1       2.403   0.471   0.536  0.00  0.00     0.124 A 
ATOM      2  C1  UNL d   1       1.779  -0.752   0.739  0.00  0.00     0.062 A 
ATOM      3  C2  UNL d   1       2.414  -1.932   0.363  0.00  0.00     0.162 A 
ATOM      4  C3  UNL d   1       3.682  -1.896  -0.218  0.00  0.00    -0.034 A 
ATOM      5  C4  UNL d   1       4.303  -0.662  -0.419  0.00  0.00     0.162 A 
ATOM      6  C5  UNL d   1       3.664   0.515  -0.042  0.00  0.00     0.062 A 
ATOM      7  F   UNL d   1       4.269   1.696  -0.238  0.00  0.00    -0.097 F 
ATOM      8  F1  UNL d   1       5.521  -0.590  -0.975  0.00  0.00    -0.096 F 
ATOM      9  I   UNL d   1       4.634  -3.659  -0.780  0.00  0.00    -0.060 I 
ATOM     10  F2  UNL d   1       1.787  -3.100   0.571  0.00  0.00    -0.096 F 
ATOM     11  F3  UNL d   1       0.561  -0.797   1.296  0.00  0.00    -0.097 F 
ATOM     12  F4  UNL d   1       1.790   1.606   0.897  0.00  0.00    -0.092 F 
ENDROOT
TORSDOF 0
ENDMDL
