MODEL 1
REMARK minimizedAffinity 25.1940613
REMARK minimizedRMSD -1
REMARK  0 active torsions:
REMARK  status: ('A' for Active; 'I' for Inactive)
ROOT
ATOM      1  C   UNL d   1       2.122   4.346   2.774  0.00  0.00     0.124 A 
ATOM      2  C1  UNL d   1       3.480   4.216   2.520  0.00  0.00     0.062 A 
ATOM      3  C2  UNL d   1       4.413   4.687   3.439  0.00  0.00     0.162 A 
ATOM      4  C3  UNL d   1       3.991   5.293   4.622  0.00  0.00    -0.034 A 
ATOM      5  C4  UNL d   1       2.623   5.422   4.870  0.00  0.00     0.162 A 
ATOM      6  C5  UNL d   1       1.695   4.949   3.949  0.00  0.00     0.062 A 
ATOM      7  F   UNL d   1       0.383   5.076   4.196  0.00  0.00    -0.097 F 
ATOM      8  F1  UNL d   1       2.183   6.000   5.998  0.00  0.00    -0.096 F 
ATOM      9  I   UNL d   1       5.383   6.000   5.999  0.00  0.00    -0.060 I 
ATOM     10  F2  UNL d   1       5.719   4.548   3.167  0.00  0.00    -0.096 F 
ATOM     11  F3  UNL d   1       3.895   3.634   1.385  0.00  0.00    -0.097 F 
ATOM     12  F4  UNL d   1       1.227   3.893   1.888  0.00  0.00    -0.092 F 
ENDROOT
TORSDOF 0
ENDMDL
