MODEL 1
REMARK minimizedAffinity 22.9730206
REMARK minimizedRMSD -1
REMARK  0 active torsions:
REMARK  status: ('A' for Active; 'I' for Inactive)
ROOT
ATOM      1  C   UNL d   1       1.911   4.118   2.830  0.00  0.00     0.124 A 
ATOM      2  C1  UNL d   1       3.274   3.972   2.615  0.00  0.00     0.062 A 
ATOM      3  C2  UNL d   1       4.187   4.508   3.518  0.00  0.00     0.162 A 
ATOM      4  C3  UNL d   1       3.739   5.196   4.646  0.00  0.00    -0.034 A 
ATOM      5  C4  UNL d   1       2.367   5.340   4.855  0.00  0.00     0.162 A 
ATOM      6  C5  UNL d   1       1.458   4.802   3.949  0.00  0.00     0.062 A 
ATOM      7  F   UNL d   1       0.142   4.945   4.159  0.00  0.00    -0.097 F 
ATOM      8  F1  UNL d   1       1.902   5.995   5.929  0.00  0.00    -0.096 F 
ATOM      9  I   UNL d   1       5.101   6.000   6.000  0.00  0.00    -0.060 I 
ATOM     10  F2  UNL d   1       5.499   4.351   3.285  0.00  0.00    -0.096 F 
ATOM     11  F3  UNL d   1       3.714   3.312   1.533  0.00  0.00    -0.097 F 
ATOM     12  F4  UNL d   1       1.035   3.602   1.958  0.00  0.00    -0.092 F 
ENDROOT
TORSDOF 0
ENDMDL
