MODEL 1
REMARK minimizedAffinity 11.5653906
REMARK minimizedRMSD -1
REMARK  0 active torsions:
REMARK  status: ('A' for Active; 'I' for Inactive)
ROOT
ATOM      1  C   UNL d   1       3.075   3.552   3.340  0.00  0.00     0.124 A 
ATOM      2  C1  UNL d   1       3.428   4.444   4.343  0.00  0.00     0.062 A 
ATOM      3  C2  UNL d   1       2.444   5.144   5.035  0.00  0.00     0.162 A 
ATOM      4  C3  UNL d   1       1.096   4.954   4.727  0.00  0.00    -0.034 A 
ATOM      5  C4  UNL d   1       0.749   4.056   3.716  0.00  0.00     0.162 A 
ATOM      6  C5  UNL d   1       1.736   3.359   3.028  0.00  0.00     0.062 A 
ATOM      7  F   UNL d   1       1.394   2.497   2.059  0.00  0.00    -0.097 F 
ATOM      8  F1  UNL d   1      -0.536   3.849   3.395  0.00  0.00    -0.096 F 
ATOM      9  I   UNL d   1      -0.378   5.999   5.760  0.00  0.00    -0.060 I 
ATOM     10  F2  UNL d   1       2.813   6.000   6.000  0.00  0.00    -0.096 F 
ATOM     11  F3  UNL d   1       4.720   4.633   4.646  0.00  0.00    -0.097 F 
ATOM     12  F4  UNL d   1       4.024   2.880   2.675  0.00  0.00    -0.092 F 
ENDROOT
TORSDOF 0
ENDMDL
