MODEL 1
REMARK minimizedAffinity -0.64670068
REMARK minimizedRMSD -1
REMARK  0 active torsions:
REMARK  status: ('A' for Active; 'I' for Inactive)
ROOT
ATOM      1  C4' PXY d   1      -5.999  -3.586  -5.999  0.00  0.00     0.077 C 
ATOM      2  C1' PXY d   1      -4.635  -5.979  -0.917  0.00  0.00     0.077 C 
ATOM      3  C1  PXY d   1      -5.002  -5.344  -2.244  0.00  0.00    -0.082 A 
ATOM      4  C2  PXY d   1      -4.768  -5.999  -3.369  0.00  0.00     0.003 A 
ATOM      5  C3  PXY d   1      -5.064  -5.426  -4.580  0.00  0.00     0.003 A 
ATOM      6  C4  PXY d   1      -5.654  -4.192  -4.636  0.00  0.00    -0.082 A 
ATOM      7  C5  PXY d   1      -5.905  -3.521  -3.492  0.00  0.00     0.003 A 
ATOM      8  C6  PXY d   1      -5.559  -4.103  -2.275  0.00  0.00     0.003 A 
ENDROOT
TORSDOF 0
ENDMDL
