MODEL 1
REMARK minimizedAffinity 10.2080116
REMARK minimizedRMSD -1
REMARK  0 active torsions:
REMARK  status: ('A' for Active; 'I' for Inactive)
ROOT
ATOM      1  C4' PXY d   1       2.274   0.817   1.494  0.00  0.00     0.077 C 
ATOM      2  C1' PXY d   1       0.671  -4.550   2.921  0.00  0.00     0.077 C 
ATOM      3  C1  PXY d   1       1.091  -3.146   2.534  0.00  0.00    -0.082 A 
ATOM      4  C2  PXY d   1       1.721  -2.385   3.415  0.00  0.00     0.003 A 
ATOM      5  C3  PXY d   1       2.080  -1.102   3.093  0.00  0.00     0.003 A 
ATOM      6  C4  PXY d   1       1.839  -0.610   1.838  0.00  0.00    -0.082 A 
ATOM      7  C5  PXY d   1       1.207  -1.383   0.930  0.00  0.00     0.003 A 
ATOM      8  C6  PXY d   1       0.814  -2.669   1.290  0.00  0.00     0.003 A 
ENDROOT
TORSDOF 0
ENDMDL
