MODEL 1
REMARK minimizedAffinity -0.0980394557
REMARK minimizedRMSD -1
REMARK  0 active torsions:
REMARK  status: ('A' for Active; 'I' for Inactive)
ROOT
ATOM      1  C4' PXY d   1      -5.465  -5.995  -0.860  0.00  0.00     0.077 C 
ATOM      2  C1' PXY d   1      -5.987  -3.401  -5.999  0.00  0.00     0.077 C 
ATOM      3  C1  PXY d   1      -5.847  -4.070  -4.646  0.00  0.00    -0.082 A 
ATOM      4  C2  PXY d   1      -5.586  -5.365  -4.581  0.00  0.00     0.003 A 
ATOM      5  C3  PXY d   1      -5.488  -5.992  -3.365  0.00  0.00     0.003 A 
ATOM      6  C4  PXY d   1      -5.606  -5.276  -2.205  0.00  0.00    -0.082 A 
ATOM      7  C5  PXY d   1      -5.861  -3.952  -2.263  0.00  0.00     0.003 A 
ATOM      8  C6  PXY d   1      -5.998  -3.342  -3.506  0.00  0.00     0.003 A 
ENDROOT
TORSDOF 0
ENDMDL
