MODEL 1
REMARK minimizedAffinity -3.33912945
REMARK minimizedRMSD -1
REMARK  0 active torsions:
REMARK  status: ('A' for Active; 'I' for Inactive)
ROOT
ATOM      1  C4' PXY d   1       5.056   5.320  -5.988  0.00  0.00     0.077 C 
ATOM      2  C1' PXY d   1       4.697  -0.387  -5.140  0.00  0.00     0.077 C 
ATOM      3  C1  PXY d   1       4.778   1.110  -5.364  0.00  0.00    -0.082 A 
ATOM      4  C2  PXY d   1       5.899   1.643  -5.822  0.00  0.00     0.003 A 
ATOM      5  C3  PXY d   1       6.000   2.999  -6.000  0.00  0.00     0.003 A 
ATOM      6  C4  PXY d   1       4.925   3.812  -5.756  0.00  0.00    -0.082 A 
ATOM      7  C5  PXY d   1       3.775   3.274  -5.298  0.00  0.00     0.003 A 
ATOM      8  C6  PXY d   1       3.706   1.901  -5.085  0.00  0.00     0.003 A 
ENDROOT
TORSDOF 0
ENDMDL
