MODEL 1
REMARK minimizedAffinity -0.0071679214
REMARK minimizedRMSD -1
REMARK  0 active torsions:
REMARK  status: ('A' for Active; 'I' for Inactive)
ROOT
ATOM      1  C4' PXY d   1      -4.101  -6.000  -1.088  0.00  0.00     0.077 C 
ATOM      2  C1' PXY d   1      -5.999  -3.615  -6.000  0.00  0.00     0.077 C 
ATOM      3  C1  PXY d   1      -5.504  -4.229  -4.705  0.00  0.00    -0.082 A 
ATOM      4  C2  PXY d   1      -4.640  -5.230  -4.745  0.00  0.00     0.003 A 
ATOM      5  C3  PXY d   1      -4.206  -5.819  -3.585  0.00  0.00     0.003 A 
ATOM      6  C4  PXY d   1      -4.621  -5.342  -2.370  0.00  0.00    -0.082 A 
ATOM      7  C5  PXY d   1      -5.494  -4.314  -2.321  0.00  0.00     0.003 A 
ATOM      8  C6  PXY d   1      -5.954  -3.758  -3.511  0.00  0.00     0.003 A 
ENDROOT
TORSDOF 0
ENDMDL
