MODEL 1
REMARK minimizedAffinity 12.814888
REMARK minimizedRMSD -1
REMARK  0 active torsions:
REMARK  status: ('A' for Active; 'I' for Inactive)
ROOT
ATOM      1  C4' PXY d   1      -5.614  -5.599  -5.567  0.00  0.00     0.077 C 
ATOM      2  C1' PXY d   1      -3.544  -5.676  -0.170  0.00  0.00     0.077 C 
ATOM      3  C1  PXY d   1      -4.075  -5.653  -1.590  0.00  0.00    -0.082 A 
ATOM      4  C2  PXY d   1      -5.354  -5.393  -1.806  0.00  0.00     0.003 A 
ATOM      5  C3  PXY d   1      -5.857  -5.400  -3.081  0.00  0.00     0.003 A 
ATOM      6  C4  PXY d   1      -5.032  -5.623  -4.150  0.00  0.00    -0.082 A 
ATOM      7  C5  PXY d   1      -3.724  -5.879  -3.939  0.00  0.00     0.003 A 
ATOM      8  C6  PXY d   1      -3.241  -5.908  -2.634  0.00  0.00     0.003 A 
ENDROOT
TORSDOF 0
ENDMDL
