MODEL 1
REMARK minimizedAffinity -2.52806211
REMARK minimizedRMSD -1
REMARK  0 active torsions:
REMARK  status: ('A' for Active; 'I' for Inactive)
ROOT
ATOM      1  C4' PXY d   1      -5.386  -3.171  -6.000  0.00  0.00     0.077 C 
ATOM      2  C1' PXY d   1      -5.950  -5.999  -0.991  0.00  0.00     0.077 C 
ATOM      3  C1  PXY d   1      -5.794  -5.267  -2.309  0.00  0.00    -0.082 A 
ATOM      4  C2  PXY d   1      -5.999  -3.961  -2.359  0.00  0.00     0.003 A 
ATOM      5  C3  PXY d   1      -5.893  -3.288  -3.549  0.00  0.00     0.003 A 
ATOM      6  C4  PXY d   1      -5.523  -3.950  -4.689  0.00  0.00    -0.082 A 
ATOM      7  C5  PXY d   1      -5.302  -5.281  -4.643  0.00  0.00     0.003 A 
ATOM      8  C6  PXY d   1      -5.455  -5.953  -3.434  0.00  0.00     0.003 A 
ENDROOT
TORSDOF 0
ENDMDL
