MODEL 1
REMARK minimizedAffinity 3.97823
REMARK minimizedRMSD -1
REMARK  0 active torsions:
REMARK  status: ('A' for Active; 'I' for Inactive)
ROOT
ATOM      1  C4' PXY d   1       1.139   0.019   1.208  0.00  0.00     0.077 C 
ATOM      2  C1' PXY d   1       2.207  -4.640   4.458  0.00  0.00     0.077 C 
ATOM      3  C1  PXY d   1       1.916  -3.424   3.601  0.00  0.00    -0.082 A 
ATOM      4  C2  PXY d   1       2.904  -2.611   3.261  0.00  0.00     0.003 A 
ATOM      5  C3  PXY d   1       2.654  -1.490   2.513  0.00  0.00     0.003 A 
ATOM      6  C4  PXY d   1       1.388  -1.225   2.064  0.00  0.00    -0.082 A 
ATOM      7  C5  PXY d   1       0.376  -2.055   2.397  0.00  0.00     0.003 A 
ATOM      8  C6  PXY d   1       0.645  -3.166   3.192  0.00  0.00     0.003 A 
ENDROOT
TORSDOF 0
ENDMDL
