MODEL 1
REMARK minimizedAffinity 5.1648283
REMARK minimizedRMSD -1
REMARK  1 active torsions:
REMARK  status: ('A' for Active; 'I' for Inactive)
REMARK    1  A    between atoms: C1_2  and  C2_3 
ROOT
ATOM      1  C2  UNL d   1      -0.175  -1.064   4.163  0.00  0.00    -0.073 A 
ATOM      2  C3  UNL d   1       0.895  -1.158   3.266  0.00  0.00    -0.002 A 
ATOM      3  C4  UNL d   1       0.778  -1.928   2.108  0.00  0.00     0.004 A 
ATOM      4  C5  UNL d   1      -0.410  -2.605   1.831  0.00  0.00    -0.004 A 
ATOM      5  C6  UNL d   1      -1.494  -2.514   2.710  0.00  0.00    -0.075 A 
ATOM      6  C7  UNL d   1      -2.778  -3.238   2.428  0.00  0.00     0.076 C 
ATOM      7  C8  UNL d   1      -1.368  -1.741   3.872  0.00  0.00     0.001 A 
ENDROOT
BRANCH   1   8
ATOM      8  C1  UNL d   1      -0.056  -0.229   5.411  0.00  0.00     0.053 C 
ATOM      9  C   UNL d   1       1.365  -0.211   5.952  0.00  0.00     0.018 C 
ENDBRANCH   1   8
TORSDOF 1
ENDMDL
