MODEL 1
REMARK minimizedAffinity 10.0576229
REMARK minimizedRMSD -1
REMARK  1 active torsions:
REMARK  status: ('A' for Active; 'I' for Inactive)
REMARK    1  A    between atoms: C1_2  and  C2_3 
ROOT
ATOM      1  C2  UNL d   1       0.218  -1.120   4.233  0.00  0.00    -0.073 A 
ATOM      2  C3  UNL d   1      -0.482  -2.218   3.721  0.00  0.00    -0.002 A 
ATOM      3  C4  UNL d   1      -0.271  -2.637   2.406  0.00  0.00     0.004 A 
ATOM      4  C5  UNL d   1       0.646  -1.970   1.595  0.00  0.00    -0.004 A 
ATOM      5  C6  UNL d   1       1.365  -0.878   2.093  0.00  0.00    -0.075 A 
ATOM      6  C7  UNL d   1       2.354  -0.148   1.233  0.00  0.00     0.076 C 
ATOM      7  C8  UNL d   1       1.145  -0.461   3.413  0.00  0.00     0.001 A 
ENDROOT
BRANCH   1   8
ATOM      8  C1  UNL d   1      -0.002  -0.668   5.654  0.00  0.00     0.053 C 
ATOM      9  C   UNL d   1      -1.480  -0.569   5.998  0.00  0.00     0.018 C 
ENDBRANCH   1   8
TORSDOF 1
ENDMDL
