MODEL 1
REMARK minimizedAffinity 13.8145323
REMARK minimizedRMSD -1
REMARK  1 active torsions:
REMARK  status: ('A' for Active; 'I' for Inactive)
REMARK    1  A    between atoms: C1_2  and  C2_3 
ROOT
ATOM      1  C2  UNL d   1      -1.381  -2.111   3.121  0.00  0.00    -0.073 A 
ATOM      2  C3  UNL d   1      -1.243  -1.002   3.964  0.00  0.00    -0.002 A 
ATOM      3  C4  UNL d   1      -0.161  -0.134   3.815  0.00  0.00     0.004 A 
ATOM      4  C5  UNL d   1       0.790  -0.361   2.820  0.00  0.00    -0.004 A 
ATOM      5  C6  UNL d   1       0.664  -1.457   1.961  0.00  0.00    -0.075 A 
ATOM      6  C7  UNL d   1       1.679  -1.717   0.887  0.00  0.00     0.076 C 
ATOM      7  C8  UNL d   1      -0.425  -2.326   2.118  0.00  0.00     0.001 A 
ENDROOT
BRANCH   1   8
ATOM      8  C1  UNL d   1      -2.551  -3.048   3.274  0.00  0.00     0.053 C 
ATOM      9  C   UNL d   1      -3.074  -3.529   1.930  0.00  0.00     0.018 C 
ENDBRANCH   1   8
TORSDOF 1
ENDMDL
