MODEL 1
REMARK minimizedAffinity 6.9582324
REMARK minimizedRMSD -1
REMARK  1 active torsions:
REMARK  status: ('A' for Active; 'I' for Inactive)
REMARK    1  A    between atoms: C1_2  and  C2_3 
ROOT
ATOM      1  C2  UNL d   1      -2.491   2.453  -1.684  0.00  0.00    -0.073 A 
ATOM      2  C3  UNL d   1      -1.252   2.166  -1.101  0.00  0.00    -0.002 A 
ATOM      3  C4  UNL d   1      -0.084   2.732  -1.613  0.00  0.00     0.004 A 
ATOM      4  C5  UNL d   1      -0.144   3.595  -2.707  0.00  0.00    -0.004 A 
ATOM      5  C6  UNL d   1      -1.374   3.904  -3.296  0.00  0.00    -0.075 A 
ATOM      6  C7  UNL d   1      -1.455   4.828  -4.475  0.00  0.00     0.076 C 
ATOM      7  C8  UNL d   1      -2.542   3.329  -2.778  0.00  0.00     0.001 A 
ENDROOT
BRANCH   1   8
ATOM      8  C1  UNL d   1      -3.756   1.848  -1.130  0.00  0.00     0.053 C 
ATOM      9  C   UNL d   1      -4.979   2.240  -1.945  0.00  0.00     0.018 C 
ENDBRANCH   1   8
TORSDOF 1
ENDMDL
