MODEL 1
REMARK minimizedAffinity 13.0913153
REMARK minimizedRMSD -1
REMARK  1 active torsions:
REMARK  status: ('A' for Active; 'I' for Inactive)
REMARK    1  A    between atoms: C1_2  and  C2_3 
ROOT
ATOM      1  C2  UNL d   1      -4.518  -4.868   0.515  0.00  0.00    -0.073 A 
ATOM      2  C3  UNL d   1      -5.805  -4.465   0.888  0.00  0.00    -0.002 A 
ATOM      3  C4  UNL d   1      -6.000  -3.721   2.053  0.00  0.00     0.004 A 
ATOM      4  C5  UNL d   1      -4.912  -3.367   2.850  0.00  0.00    -0.004 A 
ATOM      5  C6  UNL d   1      -3.617  -3.750   2.487  0.00  0.00    -0.075 A 
ATOM      6  C7  UNL d   1      -2.436  -3.380   3.335  0.00  0.00     0.076 C 
ATOM      7  C8  UNL d   1      -3.429  -4.500   1.318  0.00  0.00     0.001 A 
ENDROOT
BRANCH   1   8
ATOM      8  C1  UNL d   1      -4.302  -5.666  -0.745  0.00  0.00     0.053 C 
ATOM      9  C   UNL d   1      -5.612  -5.999  -1.441  0.00  0.00     0.018 C 
ENDBRANCH   1   8
TORSDOF 1
ENDMDL
