MODEL 1
REMARK minimizedAffinity 14.3224096
REMARK minimizedRMSD -1
REMARK  1 active torsions:
REMARK  status: ('A' for Active; 'I' for Inactive)
REMARK    1  A    between atoms: C1_2  and  C2_3 
ROOT
ATOM      1  C2  UNL d   1       0.265  -0.476   4.178  0.00  0.00    -0.073 A 
ATOM      2  C3  UNL d   1       0.146  -1.354   3.095  0.00  0.00    -0.002 A 
ATOM      3  C4  UNL d   1       1.179  -1.469   2.164  0.00  0.00     0.004 A 
ATOM      4  C5  UNL d   1       2.342  -0.714   2.310  0.00  0.00    -0.004 A 
ATOM      5  C6  UNL d   1       2.485   0.161   3.392  0.00  0.00    -0.075 A 
ATOM      6  C7  UNL d   1       3.729   0.982   3.562  0.00  0.00     0.076 C 
ATOM      7  C8  UNL d   1       1.442   0.272   4.321  0.00  0.00     0.001 A 
ENDROOT
BRANCH   1   8
ATOM      8  C1  UNL d   1      -0.846  -0.354   5.190  0.00  0.00     0.053 C 
ATOM      9  C   UNL d   1      -1.888  -1.448   5.027  0.00  0.00     0.018 C 
ENDBRANCH   1   8
TORSDOF 1
ENDMDL
