MODEL 1
REMARK minimizedAffinity 16.1542282
REMARK minimizedRMSD -1
REMARK  1 active torsions:
REMARK  status: ('A' for Active; 'I' for Inactive)
REMARK    1  A    between atoms: C1_2  and  C2_3 
ROOT
ATOM      1  C2  UNL d   1       0.674  -1.440   1.632  0.00  0.00    -0.073 A 
ATOM      2  C3  UNL d   1       0.930  -2.486   0.739  0.00  0.00    -0.002 A 
ATOM      3  C4  UNL d   1       2.240  -2.788   0.365  0.00  0.00     0.004 A 
ATOM      4  C5  UNL d   1       3.306  -2.053   0.884  0.00  0.00    -0.004 A 
ATOM      5  C6  UNL d   1       3.071  -1.011   1.786  0.00  0.00    -0.075 A 
ATOM      6  C7  UNL d   1       4.206  -0.209   2.352  0.00  0.00     0.076 C 
ATOM      7  C8  UNL d   1       1.752  -0.712   2.155  0.00  0.00     0.001 A 
ENDROOT
BRANCH   1   8
ATOM      8  C1  UNL d   1      -0.738  -1.114   2.045  0.00  0.00     0.053 C 
ATOM      9  C   UNL d   1      -1.723  -2.185   1.602  0.00  0.00     0.018 C 
ENDBRANCH   1   8
TORSDOF 1
ENDMDL
