MODEL 1
REMARK minimizedAffinity 6.24384069
REMARK minimizedRMSD -1
REMARK  1 active torsions:
REMARK  status: ('A' for Active; 'I' for Inactive)
REMARK    1  A    between atoms: C1_2  and  C2_3 
ROOT
ATOM      1  C2  UNL d   1      -4.816  -5.337   1.089  0.00  0.00    -0.073 A 
ATOM      2  C3  UNL d   1      -3.873  -6.000   1.883  0.00  0.00    -0.002 A 
ATOM      3  C4  UNL d   1      -3.353  -5.384   3.023  0.00  0.00     0.004 A 
ATOM      4  C5  UNL d   1      -3.776  -4.105   3.384  0.00  0.00    -0.004 A 
ATOM      5  C6  UNL d   1      -4.726  -3.431   2.610  0.00  0.00    -0.075 A 
ATOM      6  C7  UNL d   1      -5.189  -2.054   2.984  0.00  0.00     0.076 C 
ATOM      7  C8  UNL d   1      -5.241  -4.055   1.466  0.00  0.00     0.001 A 
ENDROOT
BRANCH   1   8
ATOM      8  C1  UNL d   1      -5.385  -6.000  -0.138  0.00  0.00     0.053 C 
ATOM      9  C   UNL d   1      -4.530  -5.747  -1.370  0.00  0.00     0.018 C 
ENDBRANCH   1   8
TORSDOF 1
ENDMDL
