MODEL 1
REMARK minimizedAffinity 9.96690369
REMARK minimizedRMSD -1
REMARK  1 active torsions:
REMARK  status: ('A' for Active; 'I' for Inactive)
REMARK    1  A    between atoms: C1_2  and  C2_3 
ROOT
ATOM      1  C2  UNL d   1       1.495  -1.402   1.841  0.00  0.00    -0.073 A 
ATOM      2  C3  UNL d   1       0.162  -1.070   1.569  0.00  0.00    -0.002 A 
ATOM      3  C4  UNL d   1      -0.802  -2.072   1.447  0.00  0.00     0.004 A 
ATOM      4  C5  UNL d   1      -0.447  -3.411   1.602  0.00  0.00    -0.004 A 
ATOM      5  C6  UNL d   1       0.877  -3.762   1.886  0.00  0.00    -0.075 A 
ATOM      6  C7  UNL d   1       1.276  -5.199   2.054  0.00  0.00     0.076 C 
ATOM      7  C8  UNL d   1       1.840  -2.751   2.004  0.00  0.00     0.001 A 
ENDROOT
BRANCH   1   8
ATOM      8  C1  UNL d   1       2.538  -0.324   1.980  0.00  0.00     0.053 C 
ATOM      9  C   UNL d   1       3.892  -0.769   1.449  0.00  0.00     0.018 C 
ENDBRANCH   1   8
TORSDOF 1
ENDMDL
