MODEL 1
REMARK minimizedAffinity 7.67637587
REMARK minimizedRMSD -1
REMARK  1 active torsions:
REMARK  status: ('A' for Active; 'I' for Inactive)
REMARK    1  A    between atoms: C1_2  and  C2_3 
ROOT
ATOM      1  C2  UNL d   1      -4.172  -4.208   1.611  0.00  0.00    -0.073 A 
ATOM      2  C3  UNL d   1      -4.856  -5.337   1.148  0.00  0.00    -0.002 A 
ATOM      3  C4  UNL d   1      -4.485  -5.943  -0.053  0.00  0.00     0.004 A 
ATOM      4  C5  UNL d   1      -3.422  -5.432  -0.798  0.00  0.00    -0.004 A 
ATOM      5  C6  UNL d   1      -2.718  -4.311  -0.345  0.00  0.00    -0.075 A 
ATOM      6  C7  UNL d   1      -1.573  -3.748  -1.135  0.00  0.00     0.076 C 
ATOM      7  C8  UNL d   1      -3.099  -3.707   0.861  0.00  0.00     0.001 A 
ENDROOT
BRANCH   1   8
ATOM      8  C1  UNL d   1      -4.565  -3.554   2.911  0.00  0.00     0.053 C 
ATOM      9  C   UNL d   1      -3.479  -3.683   3.966  0.00  0.00     0.018 C 
ENDBRANCH   1   8
TORSDOF 1
ENDMDL
