MODEL 1
REMARK minimizedAffinity 14.7204313
REMARK minimizedRMSD -1
REMARK  1 active torsions:
REMARK  status: ('A' for Active; 'I' for Inactive)
REMARK    1  A    between atoms: C1_2  and  C2_3 
ROOT
ATOM      1  C2  UNL d   1      -4.565   2.253  -4.904  0.00  0.00    -0.073 A 
ATOM      2  C3  UNL d   1      -4.177   3.031  -6.000  0.00  0.00    -0.002 A 
ATOM      3  C4  UNL d   1      -2.942   3.682  -6.000  0.00  0.00     0.004 A 
ATOM      4  C5  UNL d   1      -2.082   3.556  -4.910  0.00  0.00    -0.004 A 
ATOM      5  C6  UNL d   1      -2.446   2.772  -3.810  0.00  0.00    -0.075 A 
ATOM      6  C7  UNL d   1      -1.533   2.628  -2.629  0.00  0.00     0.076 C 
ATOM      7  C8  UNL d   1      -3.689   2.124  -3.816  0.00  0.00     0.001 A 
ENDROOT
BRANCH   1   8
ATOM      8  C1  UNL d   1      -5.894   1.543  -4.901  0.00  0.00     0.053 C 
ATOM      9  C   UNL d   1      -5.999   0.533  -3.770  0.00  0.00     0.018 C 
ENDBRANCH   1   8
TORSDOF 1
ENDMDL
