MODEL 1
REMARK minimizedAffinity 16.7212219
REMARK minimizedRMSD -1
REMARK  1 active torsions:
REMARK  status: ('A' for Active; 'I' for Inactive)
REMARK    1  A    between atoms: C1_2  and  C2_3 
ROOT
ATOM      1  C2  UNL d   1      -4.240  -4.882   0.472  0.00  0.00    -0.073 A 
ATOM      2  C3  UNL d   1      -5.423  -4.134   0.465  0.00  0.00    -0.002 A 
ATOM      3  C4  UNL d   1      -5.637  -3.145   1.426  0.00  0.00     0.004 A 
ATOM      4  C5  UNL d   1      -4.671  -2.890   2.398  0.00  0.00    -0.004 A 
ATOM      5  C6  UNL d   1      -3.477  -3.619   2.415  0.00  0.00    -0.075 A 
ATOM      6  C7  UNL d   1      -2.428  -3.357   3.455  0.00  0.00     0.076 C 
ATOM      7  C8  UNL d   1      -3.270  -4.612   1.448  0.00  0.00     0.001 A 
ENDROOT
BRANCH   1   8
ATOM      8  C1  UNL d   1      -4.002  -5.947  -0.567  0.00  0.00     0.053 C 
ATOM      9  C   UNL d   1      -5.115  -5.994  -1.601  0.00  0.00     0.018 C 
ENDBRANCH   1   8
TORSDOF 1
ENDMDL
