MODEL 1
REMARK minimizedAffinity 19.5617352
REMARK minimizedRMSD -1
REMARK  1 active torsions:
REMARK  status: ('A' for Active; 'I' for Inactive)
REMARK    1  A    between atoms: C1_2  and  C2_3 
ROOT
ATOM      1  C2  UNL d   1      -1.925   3.029  -2.602  0.00  0.00    -0.073 A 
ATOM      2  C3  UNL d   1      -2.276   4.340  -2.260  0.00  0.00    -0.002 A 
ATOM      3  C4  UNL d   1      -3.615   4.684  -2.069  0.00  0.00     0.004 A 
ATOM      4  C5  UNL d   1      -4.615   3.721  -2.211  0.00  0.00    -0.004 A 
ATOM      5  C6  UNL d   1      -4.283   2.403  -2.540  0.00  0.00    -0.075 A 
ATOM      6  C7  UNL d   1      -5.346   1.356  -2.699  0.00  0.00     0.076 C 
ATOM      7  C8  UNL d   1      -2.936   2.066  -2.733  0.00  0.00     0.001 A 
ENDROOT
BRANCH   1   8
ATOM      8  C1  UNL d   1      -0.480   2.651  -2.802  0.00  0.00     0.053 C 
ATOM      9  C   UNL d   1       0.351   2.891  -1.552  0.00  0.00     0.018 C 
ENDBRANCH   1   8
TORSDOF 1
ENDMDL
