MODEL 1
REMARK minimizedAffinity 4.49430656
REMARK minimizedRMSD -1
REMARK  2 active torsions:
REMARK  status: ('A' for Active; 'I' for Inactive)
REMARK    1  A    between atoms: C1_2  and  C2_3 
REMARK    2  A    between atoms: C2_3  and  C3_4 
ROOT
ATOM      1  C3  UNL d   1       3.628  -2.644   0.899  0.00  0.00    -0.075 A 
ATOM      2  C4  UNL d   1       2.915  -1.436   0.912  0.00  0.00     0.002 A 
ATOM      3  C5  UNL d   1       1.535  -1.427   0.710  0.00  0.00     0.002 A 
ATOM      4  C6  UNL d   1       0.853  -2.620   0.483  0.00  0.00    -0.004 A 
ATOM      5  C7  UNL d   1       1.553  -3.824   0.452  0.00  0.00     0.002 A 
ATOM      6  C8  UNL d   1       2.934  -3.837   0.658  0.00  0.00     0.002 A 
ENDROOT
BRANCH   1   7
ATOM      7  C2  UNL d   1       5.118  -2.664   1.147  0.00  0.00     0.056 C 
BRANCH   7   8
ATOM      8  C1  UNL d   1       5.956  -2.922  -0.110  0.00  0.00     0.007 C 
ATOM      9  C   UNL d   1       5.999  -4.390  -0.512  0.00  0.00     0.009 C 
ENDBRANCH   7   8
ENDBRANCH   1   7
TORSDOF 2
ENDMDL
