MODEL 1
REMARK minimizedAffinity 11.852541
REMARK minimizedRMSD -1
REMARK  2 active torsions:
REMARK  status: ('A' for Active; 'I' for Inactive)
REMARK    1  A    between atoms: C1_2  and  C2_3 
REMARK    2  A    between atoms: C2_3  and  C3_4 
ROOT
ATOM      1  C3  UNL d   1      -2.753   2.909  -3.401  0.00  0.00    -0.075 A 
ATOM      2  C4  UNL d   1      -2.647   1.965  -2.369  0.00  0.00     0.002 A 
ATOM      3  C5  UNL d   1      -1.401   1.466  -1.990  0.00  0.00     0.002 A 
ATOM      4  C6  UNL d   1      -0.248   1.895  -2.643  0.00  0.00    -0.004 A 
ATOM      5  C7  UNL d   1      -0.342   2.820  -3.681  0.00  0.00     0.002 A 
ATOM      6  C8  UNL d   1      -1.588   3.324  -4.059  0.00  0.00     0.002 A 
ENDROOT
BRANCH   1   7
ATOM      7  C2  UNL d   1      -4.096   3.475  -3.796  0.00  0.00     0.056 C 
BRANCH   7   8
ATOM      8  C1  UNL d   1      -4.382   4.864  -3.216  0.00  0.00     0.007 C 
ATOM      9  C   UNL d   1      -4.001   5.998  -4.158  0.00  0.00     0.009 C 
ENDBRANCH   7   8
ENDBRANCH   1   7
TORSDOF 2
ENDMDL
