MODEL 1
REMARK minimizedAffinity 10.0819645
REMARK minimizedRMSD -1
REMARK  2 active torsions:
REMARK  status: ('A' for Active; 'I' for Inactive)
REMARK    1  A    between atoms: C1_2  and  C2_3 
REMARK    2  A    between atoms: C2_3  and  C3_4 
ROOT
ATOM      1  C3  UNL d   1       0.920  -1.881   0.179  0.00  0.00    -0.075 A 
ATOM      2  C4  UNL d   1       1.473  -1.041   1.156  0.00  0.00     0.002 A 
ATOM      3  C5  UNL d   1       2.762  -1.269   1.640  0.00  0.00     0.002 A 
ATOM      4  C6  UNL d   1       3.508  -2.344   1.162  0.00  0.00    -0.004 A 
ATOM      5  C7  UNL d   1       2.962  -3.195   0.203  0.00  0.00     0.002 A 
ATOM      6  C8  UNL d   1       1.674  -2.966  -0.286  0.00  0.00     0.002 A 
ENDROOT
BRANCH   1   7
ATOM      7  C2  UNL d   1      -0.463  -1.621  -0.371  0.00  0.00     0.056 C 
BRANCH   7   8
ATOM      8  C1  UNL d   1      -0.477  -1.161  -1.832  0.00  0.00     0.007 C 
ATOM      9  C   UNL d   1      -1.169   0.181  -2.032  0.00  0.00     0.009 C 
ENDBRANCH   7   8
ENDBRANCH   1   7
TORSDOF 2
ENDMDL
