MODEL 1
REMARK minimizedAffinity 6.87208366
REMARK minimizedRMSD -1
REMARK  0 active torsions:
REMARK  status: ('A' for Active; 'I' for Inactive)
ROOT
ATOM      1  C   UNL d   1       2.281  -5.982   2.008  0.00  0.00     0.124 A 
ATOM      2  C1  UNL d   1       3.619  -5.979   1.641  0.00  0.00     0.062 A 
ATOM      3  C2  UNL d   1       4.613  -5.981   2.615  0.00  0.00     0.162 A 
ATOM      4  C3  UNL d   1       4.272  -5.987   3.968  0.00  0.00    -0.034 A 
ATOM      5  C4  UNL d   1       2.924  -5.989   4.330  0.00  0.00     0.162 A 
ATOM      6  C5  UNL d   1       1.935  -5.987   3.352  0.00  0.00     0.062 A 
ATOM      7  F   UNL d   1       0.642  -5.989   3.710  0.00  0.00    -0.097 F 
ATOM      8  F1  UNL d   1       2.561  -5.994   5.621  0.00  0.00    -0.096 F 
ATOM      9  I   UNL d   1       5.755  -5.990   5.428  0.00  0.00    -0.060 I 
ATOM     10  F2  UNL d   1       5.898  -5.979   2.231  0.00  0.00    -0.096 F 
ATOM     11  F3  UNL d   1       3.956  -5.974   0.343  0.00  0.00    -0.097 F 
ATOM     12  F4  UNL d   1       1.327  -5.979   1.069  0.00  0.00    -0.092 F 
ENDROOT
TORSDOF 0
ENDMDL
