MODEL 1
REMARK minimizedAffinity 30.7317829
REMARK minimizedRMSD -1
REMARK  0 active torsions:
REMARK  status: ('A' for Active; 'I' for Inactive)
ROOT
ATOM      1  C   UNL d   1       2.630  -0.330  -3.799  0.00  0.00     0.124 A 
ATOM      2  C1  UNL d   1       2.346   0.629  -2.837  0.00  0.00     0.062 A 
ATOM      3  C2  UNL d   1       2.897   1.904  -2.934  0.00  0.00     0.162 A 
ATOM      4  C3  UNL d   1       3.738   2.227  -3.999  0.00  0.00    -0.034 A 
ATOM      5  C4  UNL d   1       4.020   1.257  -4.962  0.00  0.00     0.162 A 
ATOM      6  C5  UNL d   1       3.467  -0.015  -4.860  0.00  0.00     0.062 A 
ATOM      7  F   UNL d   1       3.743  -0.940  -5.791  0.00  0.00    -0.097 F 
ATOM      8  F1  UNL d   1       4.825   1.535  -5.999  0.00  0.00    -0.096 F 
ATOM      9  I   UNL d   1       4.564   4.132  -4.148  0.00  0.00    -0.060 I 
ATOM     10  F2  UNL d   1       2.604   2.810  -1.990  0.00  0.00    -0.096 F 
ATOM     11  F3  UNL d   1       1.538   0.327  -1.810  0.00  0.00    -0.097 F 
ATOM     12  F4  UNL d   1       2.099  -1.556  -3.702  0.00  0.00    -0.092 F 
ENDROOT
TORSDOF 0
ENDMDL
