MODEL 1
REMARK minimizedAffinity 16.4356518
REMARK minimizedRMSD -1
REMARK  0 active torsions:
REMARK  status: ('A' for Active; 'I' for Inactive)
ROOT
ATOM      1  C   UNL d   1       5.873  -0.899   3.196  0.00  0.00     0.124 A 
ATOM      2  C1  UNL d   1       5.836  -1.386   4.495  0.00  0.00     0.062 A 
ATOM      3  C2  UNL d   1       5.799  -2.758   4.728  0.00  0.00     0.162 A 
ATOM      4  C3  UNL d   1       5.800  -3.654   3.658  0.00  0.00    -0.034 A 
ATOM      5  C4  UNL d   1       5.836  -3.156   2.354  0.00  0.00     0.162 A 
ATOM      6  C5  UNL d   1       5.872  -1.784   2.127  0.00  0.00     0.062 A 
ATOM      7  F   UNL d   1       5.908  -1.315   0.871  0.00  0.00    -0.097 F 
ATOM      8  F1  UNL d   1       5.837  -3.989   1.302  0.00  0.00    -0.096 F 
ATOM      9  I   UNL d   1       5.745  -5.706   4.001  0.00  0.00    -0.060 I 
ATOM     10  F2  UNL d   1       5.764  -3.201   5.993  0.00  0.00    -0.096 F 
ATOM     11  F3  UNL d   1       5.835  -0.534   5.530  0.00  0.00    -0.097 F 
ATOM     12  F4  UNL d   1       5.907   0.421   2.975  0.00  0.00    -0.092 F 
ENDROOT
TORSDOF 0
ENDMDL
