MODEL 1
REMARK minimizedAffinity 2.92376351
REMARK minimizedRMSD -1
REMARK  0 active torsions:
REMARK  status: ('A' for Active; 'I' for Inactive)
ROOT
ATOM      1  C   UNL d   1       2.391  -5.971   2.330  0.00  0.00     0.124 A 
ATOM      2  C1  UNL d   1       3.743  -5.975   2.015  0.00  0.00     0.062 A 
ATOM      3  C2  UNL d   1       4.698  -5.982   3.028  0.00  0.00     0.162 A 
ATOM      4  C3  UNL d   1       4.304  -5.987   4.366  0.00  0.00    -0.034 A 
ATOM      5  C4  UNL d   1       2.943  -5.982   4.675  0.00  0.00     0.162 A 
ATOM      6  C5  UNL d   1       1.992  -5.974   3.659  0.00  0.00     0.062 A 
ATOM      7  F   UNL d   1       0.687  -5.971   3.966  0.00  0.00    -0.097 F 
ATOM      8  F1  UNL d   1       2.529  -5.986   5.951  0.00  0.00    -0.096 F 
ATOM      9  I   UNL d   1       5.728  -5.998   5.884  0.00  0.00    -0.060 I 
ATOM     10  F2  UNL d   1       5.997  -5.986   2.695  0.00  0.00    -0.096 F 
ATOM     11  F3  UNL d   1       4.131  -5.971   0.732  0.00  0.00    -0.097 F 
ATOM     12  F4  UNL d   1       1.475  -5.963   1.354  0.00  0.00    -0.092 F 
ENDROOT
TORSDOF 0
ENDMDL
