MODEL 1
REMARK minimizedAffinity 7.00633764
REMARK minimizedRMSD -1
REMARK  0 active torsions:
REMARK  status: ('A' for Active; 'I' for Inactive)
ROOT
ATOM      1  C   UNL d   1      -4.761  -2.248   1.151  0.00  0.00     0.124 A 
ATOM      2  C1  UNL d   1      -4.601  -1.042   1.819  0.00  0.00     0.062 A 
ATOM      3  C2  UNL d   1      -4.459  -1.021   3.203  0.00  0.00     0.162 A 
ATOM      4  C3  UNL d   1      -4.474  -2.212   3.930  0.00  0.00    -0.034 A 
ATOM      5  C4  UNL d   1      -4.635  -3.421   3.252  0.00  0.00     0.162 A 
ATOM      6  C5  UNL d   1      -4.777  -3.436   1.868  0.00  0.00     0.062 A 
ATOM      7  F   UNL d   1      -4.931  -4.603   1.225  0.00  0.00    -0.097 F 
ATOM      8  F1  UNL d   1      -4.654  -4.584   3.919  0.00  0.00    -0.096 F 
ATOM      9  I   UNL d   1      -4.261  -2.185   6.000  0.00  0.00    -0.060 I 
ATOM     10  F2  UNL d   1      -4.306   0.159   3.822  0.00  0.00    -0.096 F 
ATOM     11  F3  UNL d   1      -4.586   0.108   1.129  0.00  0.00    -0.097 F 
ATOM     12  F4  UNL d   1      -4.899  -2.265  -0.181  0.00  0.00    -0.092 F 
ENDROOT
TORSDOF 0
ENDMDL
