MODEL 1
REMARK minimizedAffinity 9.37775135
REMARK minimizedRMSD -1
REMARK  0 active torsions:
REMARK  status: ('A' for Active; 'I' for Inactive)
ROOT
ATOM      1  C   UNL d   1       2.212  -5.992   2.380  0.00  0.00     0.124 A 
ATOM      2  C1  UNL d   1       3.553  -5.992   2.023  0.00  0.00     0.062 A 
ATOM      3  C2  UNL d   1       4.539  -5.993   3.006  0.00  0.00     0.162 A 
ATOM      4  C3  UNL d   1       4.187  -5.997   4.356  0.00  0.00    -0.034 A 
ATOM      5  C4  UNL d   1       2.836  -5.996   4.707  0.00  0.00     0.162 A 
ATOM      6  C5  UNL d   1       1.855  -5.994   3.721  0.00  0.00     0.062 A 
ATOM      7  F   UNL d   1       0.559  -5.994   4.068  0.00  0.00    -0.097 F 
ATOM      8  F1  UNL d   1       2.463  -5.999   5.995  0.00  0.00    -0.096 F 
ATOM      9  I   UNL d   1       5.658  -6.000   5.828  0.00  0.00    -0.060 I 
ATOM     10  F2  UNL d   1       5.827  -5.993   2.632  0.00  0.00    -0.096 F 
ATOM     11  F3  UNL d   1       3.901  -5.988   0.728  0.00  0.00    -0.097 F 
ATOM     12  F4  UNL d   1       1.265  -5.989   1.432  0.00  0.00    -0.092 F 
ENDROOT
TORSDOF 0
ENDMDL
