MODEL 1
REMARK minimizedAffinity 3.55088544
REMARK minimizedRMSD -1
REMARK  0 active torsions:
REMARK  status: ('A' for Active; 'I' for Inactive)
ROOT
ATOM      1  C   UNL d   1       0.062   2.452   2.059  0.00  0.00     0.124 A 
ATOM      2  C1  UNL d   1      -0.957   1.681   1.516  0.00  0.00     0.062 A 
ATOM      3  C2  UNL d   1      -2.287   2.051   1.696  0.00  0.00     0.162 A 
ATOM      4  C3  UNL d   1      -2.606   3.199   2.422  0.00  0.00    -0.034 A 
ATOM      5  C4  UNL d   1      -1.576   3.969   2.966  0.00  0.00     0.162 A 
ATOM      6  C5  UNL d   1      -0.248   3.595   2.783  0.00  0.00     0.062 A 
ATOM      7  F   UNL d   1       0.735   4.340   3.308  0.00  0.00    -0.097 F 
ATOM      8  F1  UNL d   1      -1.847   5.078   3.669  0.00  0.00    -0.096 F 
ATOM      9  I   UNL d   1      -4.593   3.756   2.694  0.00  0.00    -0.060 I 
ATOM     10  F2  UNL d   1      -3.251   1.288   1.161  0.00  0.00    -0.096 F 
ATOM     11  F3  UNL d   1      -0.660   0.576   0.817  0.00  0.00    -0.097 F 
ATOM     12  F4  UNL d   1       1.340   2.093   1.885  0.00  0.00    -0.092 F 
ENDROOT
TORSDOF 0
ENDMDL
