MODEL 1
REMARK minimizedAffinity 6.52456188
REMARK minimizedRMSD -1
REMARK  0 active torsions:
REMARK  status: ('A' for Active; 'I' for Inactive)
ROOT
ATOM      1  C   UNL d   1       2.473  -5.735   2.872  0.00  0.00     0.124 A 
ATOM      2  C1  UNL d   1       2.392  -5.477   1.511  0.00  0.00     0.062 A 
ATOM      3  C2  UNL d   1       1.157  -5.233   0.917  0.00  0.00     0.162 A 
ATOM      4  C3  UNL d   1      -0.008  -5.245   1.685  0.00  0.00    -0.034 A 
ATOM      5  C4  UNL d   1       0.082  -5.506   3.053  0.00  0.00     0.162 A 
ATOM      6  C5  UNL d   1       1.319  -5.750   3.642  0.00  0.00     0.062 A 
ATOM      7  F   UNL d   1       1.395  -5.999   4.957  0.00  0.00    -0.097 F 
ATOM      8  F1  UNL d   1      -1.018  -5.526   3.821  0.00  0.00    -0.096 F 
ATOM      9  I   UNL d   1      -1.856  -4.881   0.801  0.00  0.00    -0.060 I 
ATOM     10  F2  UNL d   1       1.108  -4.986  -0.400  0.00  0.00    -0.096 F 
ATOM     11  F3  UNL d   1       3.506  -5.463   0.765  0.00  0.00    -0.097 F 
ATOM     12  F4  UNL d   1       3.663  -5.970   3.440  0.00  0.00    -0.092 F 
ENDROOT
TORSDOF 0
ENDMDL
