MODEL 1
REMARK minimizedAffinity 11.810689
REMARK minimizedRMSD -1
REMARK  0 active torsions:
REMARK  status: ('A' for Active; 'I' for Inactive)
ROOT
ATOM      1  C   UNL d   1      -0.421   0.017   0.634  0.00  0.00     0.124 A 
ATOM      2  C1  UNL d   1       0.668  -0.076   1.489  0.00  0.00     0.062 A 
ATOM      3  C2  UNL d   1       1.773   0.752   1.309  0.00  0.00     0.162 A 
ATOM      4  C3  UNL d   1       1.793   1.682   0.269  0.00  0.00    -0.034 A 
ATOM      5  C4  UNL d   1       0.694   1.768  -0.588  0.00  0.00     0.162 A 
ATOM      6  C5  UNL d   1      -0.407   0.938  -0.403  0.00  0.00     0.062 A 
ATOM      7  F   UNL d   1      -1.458   1.029  -1.231  0.00  0.00    -0.097 F 
ATOM      8  F1  UNL d   1       0.681   2.650  -1.598  0.00  0.00    -0.096 F 
ATOM      9  I   UNL d   1       3.442   2.921  -0.004  0.00  0.00    -0.060 I 
ATOM     10  F2  UNL d   1       2.811   0.641   2.151  0.00  0.00    -0.096 F 
ATOM     11  F3  UNL d   1       0.658  -0.966   2.492  0.00  0.00    -0.097 F 
ATOM     12  F4  UNL d   1      -1.481  -0.782   0.809  0.00  0.00    -0.092 F 
ENDROOT
TORSDOF 0
ENDMDL
