MODEL 1
REMARK minimizedAffinity 15.2115355
REMARK minimizedRMSD -1
REMARK  0 active torsions:
REMARK  status: ('A' for Active; 'I' for Inactive)
ROOT
ATOM      1  C   UNL d   1      -2.772   0.936   1.215  0.00  0.00     0.124 A 
ATOM      2  C1  UNL d   1      -1.473   0.721   0.775  0.00  0.00     0.062 A 
ATOM      3  C2  UNL d   1      -0.399   1.274   1.467  0.00  0.00     0.162 A 
ATOM      4  C3  UNL d   1      -0.619   2.047   2.607  0.00  0.00    -0.034 A 
ATOM      5  C4  UNL d   1      -1.928   2.260   3.043  0.00  0.00     0.162 A 
ATOM      6  C5  UNL d   1      -2.998   1.705   2.348  0.00  0.00     0.062 A 
ATOM      7  F   UNL d   1      -4.252   1.914   2.775  0.00  0.00    -0.097 F 
ATOM      8  F1  UNL d   1      -2.176   2.998   4.135  0.00  0.00    -0.096 F 
ATOM      9  I   UNL d   1       0.984   2.876   3.643  0.00  0.00    -0.060 I 
ATOM     10  F2  UNL d   1       0.845   1.050   1.019  0.00  0.00    -0.096 F 
ATOM     11  F3  UNL d   1      -1.252  -0.021  -0.319  0.00  0.00    -0.097 F 
ATOM     12  F4  UNL d   1      -3.803   0.403   0.548  0.00  0.00    -0.092 F 
ENDROOT
TORSDOF 0
ENDMDL
