MODEL 1
REMARK minimizedAffinity 16.8332977
REMARK minimizedRMSD -1
REMARK  0 active torsions:
REMARK  status: ('A' for Active; 'I' for Inactive)
ROOT
ATOM      1  C   UNL d   1      -3.181  -3.231   0.378  0.00  0.00     0.124 A 
ATOM      2  C1  UNL d   1      -2.732  -4.512   0.668  0.00  0.00     0.062 A 
ATOM      3  C2  UNL d   1      -1.375  -4.749   0.871  0.00  0.00     0.162 A 
ATOM      4  C3  UNL d   1      -0.458  -3.702   0.784  0.00  0.00    -0.034 A 
ATOM      5  C4  UNL d   1      -0.917  -2.417   0.491  0.00  0.00     0.162 A 
ATOM      6  C5  UNL d   1      -2.274  -2.185   0.289  0.00  0.00     0.062 A 
ATOM      7  F   UNL d   1      -2.706  -0.947   0.009  0.00  0.00    -0.097 F 
ATOM      8  F1  UNL d   1      -0.062  -1.387   0.400  0.00  0.00    -0.096 F 
ATOM      9  I   UNL d   1       1.572  -4.052   1.086  0.00  0.00    -0.060 I 
ATOM     10  F2  UNL d   1      -0.969  -5.996   1.150  0.00  0.00    -0.096 F 
ATOM     11  F3  UNL d   1      -3.607  -5.525   0.753  0.00  0.00    -0.097 F 
ATOM     12  F4  UNL d   1      -4.487  -3.007   0.182  0.00  0.00    -0.092 F 
ENDROOT
TORSDOF 0
ENDMDL
