MODEL 1
REMARK minimizedAffinity 19.7375202
REMARK minimizedRMSD -1
REMARK  0 active torsions:
REMARK  status: ('A' for Active; 'I' for Inactive)
ROOT
ATOM      1  C   UNL d   1      -5.721  -1.144   2.388  0.00  0.00     0.124 A 
ATOM      2  C1  UNL d   1      -5.713   0.200   2.039  0.00  0.00     0.062 A 
ATOM      3  C2  UNL d   1      -5.790   1.179   3.025  0.00  0.00     0.162 A 
ATOM      4  C3  UNL d   1      -5.875   0.819   4.370  0.00  0.00    -0.034 A 
ATOM      5  C4  UNL d   1      -5.884  -0.534   4.713  0.00  0.00     0.162 A 
ATOM      6  C5  UNL d   1      -5.807  -1.509   3.724  0.00  0.00     0.062 A 
ATOM      7  F   UNL d   1      -5.815  -2.807   4.062  0.00  0.00    -0.097 F 
ATOM      8  F1  UNL d   1      -5.965  -0.916   5.996  0.00  0.00    -0.096 F 
ATOM      9  I   UNL d   1      -5.990   2.281   5.847  0.00  0.00    -0.060 I 
ATOM     10  F2  UNL d   1      -5.780   2.470   2.659  0.00  0.00    -0.096 F 
ATOM     11  F3  UNL d   1      -5.631   0.556   0.749  0.00  0.00    -0.097 F 
ATOM     12  F4  UNL d   1      -5.648  -2.084   1.437  0.00  0.00    -0.092 F 
ENDROOT
TORSDOF 0
ENDMDL
