MODEL 1
REMARK minimizedAffinity 21.6327038
REMARK minimizedRMSD -1
REMARK  0 active torsions:
REMARK  status: ('A' for Active; 'I' for Inactive)
ROOT
ATOM      1  C   UNL d   1      -2.273   2.250   2.567  0.00  0.00     0.124 A 
ATOM      2  C1  UNL d   1      -1.190   2.956   3.072  0.00  0.00     0.062 A 
ATOM      3  C2  UNL d   1       0.098   2.677   2.625  0.00  0.00     0.162 A 
ATOM      4  C3  UNL d   1       0.310   1.686   1.666  0.00  0.00    -0.034 A 
ATOM      5  C4  UNL d   1      -0.783   0.979   1.164  0.00  0.00     0.162 A 
ATOM      6  C5  UNL d   1      -2.069   1.262   1.614  0.00  0.00     0.062 A 
ATOM      7  F   UNL d   1      -3.114   0.579   1.125  0.00  0.00    -0.097 F 
ATOM      8  F1  UNL d   1      -0.615   0.020   0.241  0.00  0.00    -0.096 F 
ATOM      9  I   UNL d   1       2.235   1.265   0.995  0.00  0.00    -0.060 I 
ATOM     10  F2  UNL d   1       1.126   3.375   3.130  0.00  0.00    -0.096 F 
ATOM     11  F3  UNL d   1      -1.385   3.910   3.994  0.00  0.00    -0.097 F 
ATOM     12  F4  UNL d   1      -3.511   2.520   3.000  0.00  0.00    -0.092 F 
ENDROOT
TORSDOF 0
ENDMDL
