MODEL 1
REMARK minimizedAffinity 18.2683487
REMARK minimizedRMSD -1
REMARK  0 active torsions:
REMARK  status: ('A' for Active; 'I' for Inactive)
ROOT
ATOM      1  C   UNL d   1      -2.072  -0.471   0.581  0.00  0.00     0.124 A 
ATOM      2  C1  UNL d   1      -3.293  -1.129   0.526  0.00  0.00     0.062 A 
ATOM      3  C2  UNL d   1      -4.415  -0.572   1.131  0.00  0.00     0.162 A 
ATOM      4  C3  UNL d   1      -4.323   0.650   1.797  0.00  0.00    -0.034 A 
ATOM      5  C4  UNL d   1      -3.091   1.305   1.849  0.00  0.00     0.162 A 
ATOM      6  C5  UNL d   1      -1.972   0.745   1.242  0.00  0.00     0.062 A 
ATOM      7  F   UNL d   1      -0.793   1.381   1.296  0.00  0.00    -0.097 F 
ATOM      8  F1  UNL d   1      -2.967   2.482   2.480  0.00  0.00    -0.096 F 
ATOM      9  I   UNL d   1      -5.999   1.486   2.704  0.00  0.00    -0.060 I 
ATOM     10  F2  UNL d   1      -5.583  -1.230   1.063  0.00  0.00    -0.096 F 
ATOM     11  F3  UNL d   1      -3.391  -2.305  -0.112  0.00  0.00    -0.097 F 
ATOM     12  F4  UNL d   1      -0.993  -1.010  -0.002  0.00  0.00    -0.092 F 
ENDROOT
TORSDOF 0
ENDMDL
