MODEL 1
REMARK minimizedAffinity 15.7198334
REMARK minimizedRMSD -1
REMARK  0 active torsions:
REMARK  status: ('A' for Active; 'I' for Inactive)
ROOT
ATOM      1  C   UNL d   1      -3.214  -0.909   0.325  0.00  0.00     0.124 A 
ATOM      2  C1  UNL d   1      -2.949   0.402   0.697  0.00  0.00     0.062 A 
ATOM      3  C2  UNL d   1      -1.690   0.752   1.177  0.00  0.00     0.162 A 
ATOM      4  C3  UNL d   1      -0.687  -0.210   1.288  0.00  0.00    -0.034 A 
ATOM      5  C4  UNL d   1      -0.962  -1.527   0.913  0.00  0.00     0.162 A 
ATOM      6  C5  UNL d   1      -2.221  -1.872   0.434  0.00  0.00     0.062 A 
ATOM      7  F   UNL d   1      -2.476  -3.138   0.075  0.00  0.00    -0.097 F 
ATOM      8  F1  UNL d   1      -0.020  -2.477   1.007  0.00  0.00    -0.096 F 
ATOM      9  I   UNL d   1       1.197   0.309   2.006  0.00  0.00    -0.060 I 
ATOM     10  F2  UNL d   1      -1.462   2.026   1.529  0.00  0.00    -0.096 F 
ATOM     11  F3  UNL d   1      -3.907   1.334   0.594  0.00  0.00    -0.097 F 
ATOM     12  F4  UNL d   1      -4.427  -1.243  -0.136  0.00  0.00    -0.092 F 
ENDROOT
TORSDOF 0
ENDMDL
