MODEL 1
REMARK minimizedAffinity 19.8180141
REMARK minimizedRMSD -1
REMARK  0 active torsions:
REMARK  status: ('A' for Active; 'I' for Inactive)
ROOT
ATOM      1  C   UNL d   1       2.427   0.953   1.499  0.00  0.00     0.124 A 
ATOM      2  C1  UNL d   1       1.940   2.069   0.834  0.00  0.00     0.062 A 
ATOM      3  C2  UNL d   1       2.820   2.991   0.275  0.00  0.00     0.162 A 
ATOM      4  C3  UNL d   1       4.198   2.800   0.378  0.00  0.00    -0.034 A 
ATOM      5  C4  UNL d   1       4.681   1.675   1.049  0.00  0.00     0.162 A 
ATOM      6  C5  UNL d   1       3.797   0.757   1.606  0.00  0.00     0.062 A 
ATOM      7  F   UNL d   1       4.270  -0.321   2.248  0.00  0.00    -0.097 F 
ATOM      8  F1  UNL d   1       6.000   1.461   1.166  0.00  0.00    -0.096 F 
ATOM      9  I   UNL d   1       5.518   4.176  -0.457  0.00  0.00    -0.060 I 
ATOM     10  F2  UNL d   1       2.321   4.060  -0.362  0.00  0.00    -0.096 F 
ATOM     11  F3  UNL d   1       0.617   2.261   0.730  0.00  0.00    -0.097 F 
ATOM     12  F4  UNL d   1       1.578   0.068   2.036  0.00  0.00    -0.092 F 
ENDROOT
TORSDOF 0
ENDMDL
