MODEL 1
REMARK minimizedAffinity 28.9948902
REMARK minimizedRMSD -1
REMARK  0 active torsions:
REMARK  status: ('A' for Active; 'I' for Inactive)
ROOT
ATOM      1  C   UNL d   1       4.116  -2.564   1.231  0.00  0.00     0.124 A 
ATOM      2  C1  UNL d   1       4.990  -1.955   2.121  0.00  0.00     0.062 A 
ATOM      3  C2  UNL d   1       5.148  -0.572   2.112  0.00  0.00     0.162 A 
ATOM      4  C3  UNL d   1       4.430   0.212   1.209  0.00  0.00    -0.034 A 
ATOM      5  C4  UNL d   1       3.553  -0.408   0.317  0.00  0.00     0.162 A 
ATOM      6  C5  UNL d   1       3.399  -1.790   0.330  0.00  0.00     0.062 A 
ATOM      7  F   UNL d   1       2.554  -2.377  -0.530  0.00  0.00    -0.097 F 
ATOM      8  F1  UNL d   1       2.847   0.316  -0.564  0.00  0.00    -0.096 F 
ATOM      9  I   UNL d   1       4.663   2.280   1.191  0.00  0.00    -0.060 I 
ATOM     10  F2  UNL d   1       6.000  -0.011   2.983  0.00  0.00    -0.096 F 
ATOM     11  F3  UNL d   1       5.685  -2.701   2.993  0.00  0.00    -0.097 F 
ATOM     12  F4  UNL d   1       3.967  -3.895   1.242  0.00  0.00    -0.092 F 
ENDROOT
TORSDOF 0
ENDMDL
