MODEL 1
REMARK minimizedAffinity -5.44085836
REMARK minimizedRMSD -1
REMARK  0 active torsions:
REMARK  status: ('A' for Active; 'I' for Inactive)
ROOT
ATOM      1  C2' OXE d   1       1.107  -0.516   0.763  0.00  0.00     0.078 C 
ATOM      2  C1' OXE d   1      -0.550   0.420  -1.300  0.00  0.00     0.078 C 
ATOM      3  C1  OXE d   1      -1.125  -0.592  -0.342  0.00  0.00    -0.078 A 
ATOM      4  C2  OXE d   1      -0.292  -1.080   0.637  0.00  0.00    -0.078 A 
ATOM      5  C3  OXE d   1      -0.788  -1.975   1.580  0.00  0.00     0.003 A 
ATOM      6  C4  OXE d   1      -2.080  -2.499   1.450  0.00  0.00    -0.002 A 
ATOM      7  C5  OXE d   1      -2.931  -2.046   0.437  0.00  0.00    -0.002 A 
ATOM      8  C6  OXE d   1      -2.484  -1.063  -0.439  0.00  0.00     0.003 A 
ENDROOT
TORSDOF 0
ENDMDL
