MODEL 1
REMARK minimizedAffinity -5.99444485
REMARK minimizedRMSD -1
REMARK  0 active torsions:
REMARK  status: ('A' for Active; 'I' for Inactive)
ROOT
ATOM      1  C2' OXE d   1      -3.973  -2.457   1.016  0.00  0.00     0.078 C 
ATOM      2  C1' OXE d   1      -1.416  -3.411   1.675  0.00  0.00     0.078 C 
ATOM      3  C1  OXE d   1      -1.506  -2.176   0.814  0.00  0.00    -0.078 A 
ATOM      4  C2  OXE d   1      -2.760  -1.743   0.458  0.00  0.00    -0.078 A 
ATOM      5  C3  OXE d   1      -2.901  -0.577  -0.290  0.00  0.00     0.003 A 
ATOM      6  C4  OXE d   1      -1.774   0.071  -0.810  0.00  0.00    -0.002 A 
ATOM      7  C5  OXE d   1      -0.488  -0.376  -0.492  0.00  0.00    -0.002 A 
ATOM      8  C6  OXE d   1      -0.336  -1.471   0.352  0.00  0.00     0.003 A 
ENDROOT
TORSDOF 0
ENDMDL
