MODEL 1
REMARK minimizedAffinity -2.43097949
REMARK minimizedRMSD -1
REMARK  0 active torsions:
REMARK  status: ('A' for Active; 'I' for Inactive)
ROOT
ATOM      1  C2' OXE d   1      -0.834  -0.293   0.943  0.00  0.00     0.078 C 
ATOM      2  C1' OXE d   1       0.478  -0.388  -1.537  0.00  0.00     0.078 C 
ATOM      3  C1  OXE d   1       1.237   0.174  -0.361  0.00  0.00    -0.078 A 
ATOM      4  C2  OXE d   1       0.571   0.260   0.838  0.00  0.00    -0.078 A 
ATOM      5  C3  OXE d   1       1.243   0.719   1.967  0.00  0.00     0.003 A 
ATOM      6  C4  OXE d   1       2.539   1.238   1.860  0.00  0.00    -0.002 A 
ATOM      7  C5  OXE d   1       3.221   1.196   0.639  0.00  0.00    -0.002 A 
ATOM      8  C6  OXE d   1       2.601   0.630  -0.469  0.00  0.00     0.003 A 
ENDROOT
TORSDOF 0
ENDMDL
