MODEL 1
REMARK minimizedAffinity -3.42007661
REMARK minimizedRMSD -1
REMARK  0 active torsions:
REMARK  status: ('A' for Active; 'I' for Inactive)
ROOT
ATOM      1  C2' OXE d   1       0.508  -0.072  -1.877  0.00  0.00     0.078 C 
ATOM      2  C1' OXE d   1       0.944   0.563   0.823  0.00  0.00     0.078 C 
ATOM      3  C1  OXE d   1      -0.467   0.250   0.393  0.00  0.00    -0.078 A 
ATOM      4  C2  OXE d   1      -0.679  -0.014  -0.939  0.00  0.00    -0.078 A 
ATOM      5  C3  OXE d   1      -1.953  -0.364  -1.379  0.00  0.00     0.003 A 
ATOM      6  C4  OXE d   1      -3.046  -0.298  -0.507  0.00  0.00    -0.002 A 
ATOM      7  C5  OXE d   1      -2.859   0.008   0.845  0.00  0.00    -0.002 A 
ATOM      8  C6  OXE d   1      -1.573   0.242   1.319  0.00  0.00     0.003 A 
ENDROOT
TORSDOF 0
ENDMDL
