MODEL 1
REMARK minimizedAffinity -5.80506611
REMARK minimizedRMSD -1
REMARK  0 active torsions:
REMARK  status: ('A' for Active; 'I' for Inactive)
ROOT
ATOM      1  C2' OXE d   1      -0.774   0.796  -1.448  0.00  0.00     0.078 C 
ATOM      2  C1' OXE d   1      -2.939  -0.152   0.067  0.00  0.00     0.078 C 
ATOM      3  C1  OXE d   1      -1.553  -0.592   0.468  0.00  0.00    -0.078 A 
ATOM      4  C2  OXE d   1      -0.503  -0.161  -0.307  0.00  0.00    -0.078 A 
ATOM      5  C3  OXE d   1       0.800  -0.493   0.051  0.00  0.00     0.003 A 
ATOM      6  C4  OXE d   1       1.041  -1.386   1.102  0.00  0.00    -0.002 A 
ATOM      7  C5  OXE d   1      -0.017  -1.869   1.880  0.00  0.00    -0.002 A 
ATOM      8  C6  OXE d   1      -1.313  -1.449   1.603  0.00  0.00     0.003 A 
ENDROOT
TORSDOF 0
ENDMDL
