MODEL 1
REMARK minimizedAffinity -6.09103298
REMARK minimizedRMSD -1
REMARK  0 active torsions:
REMARK  status: ('A' for Active; 'I' for Inactive)
ROOT
ATOM      1  C2' OXE d   1      -0.520  -1.569   2.356  0.00  0.00     0.078 C 
ATOM      2  C1' OXE d   1       1.416  -0.833   0.461  0.00  0.00     0.078 C 
ATOM      3  C1  OXE d   1      -0.032  -0.572   0.126  0.00  0.00    -0.078 A 
ATOM      4  C2  OXE d   1      -0.975  -0.977   1.039  0.00  0.00    -0.078 A 
ATOM      5  C3  OXE d   1      -2.321  -0.711   0.805  0.00  0.00     0.003 A 
ATOM      6  C4  OXE d   1      -2.734  -0.172  -0.420  0.00  0.00    -0.002 A 
ATOM      7  C5  OXE d   1      -1.792   0.212  -1.380  0.00  0.00    -0.002 A 
ATOM      8  C6  OXE d   1      -0.438   0.059  -1.106  0.00  0.00     0.003 A 
ENDROOT
TORSDOF 0
ENDMDL
