MODEL 1
REMARK minimizedAffinity -4.01901817
REMARK minimizedRMSD -1
REMARK  0 active torsions:
REMARK  status: ('A' for Active; 'I' for Inactive)
ROOT
ATOM      1  C2' OXE d   1       0.876   0.847   0.419  0.00  0.00     0.078 C 
ATOM      2  C1' OXE d   1       0.143   0.406  -2.254  0.00  0.00     0.078 C 
ATOM      3  C1  OXE d   1      -0.786  -0.098  -1.178  0.00  0.00    -0.078 A 
ATOM      4  C2  OXE d   1      -0.396   0.081   0.128  0.00  0.00    -0.078 A 
ATOM      5  C3  OXE d   1      -1.241  -0.316   1.160  0.00  0.00     0.003 A 
ATOM      6  C4  OXE d   1      -2.411  -1.033   0.882  0.00  0.00    -0.002 A 
ATOM      7  C5  OXE d   1      -2.807  -1.261  -0.440  0.00  0.00    -0.002 A 
ATOM      8  C6  OXE d   1      -2.029  -0.764  -1.480  0.00  0.00     0.003 A 
ENDROOT
TORSDOF 0
ENDMDL
