MODEL 1
REMARK minimizedAffinity -4.31881571
REMARK minimizedRMSD -1
REMARK  0 active torsions:
REMARK  status: ('A' for Active; 'I' for Inactive)
ROOT
ATOM      1  C2' OXE d   1      -0.909  -1.620   2.134  0.00  0.00     0.078 C 
ATOM      2  C1' OXE d   1      -2.751  -0.777   0.191  0.00  0.00     0.078 C 
ATOM      3  C1  OXE d   1      -1.285  -0.567  -0.092  0.00  0.00    -0.078 A 
ATOM      4  C2  OXE d   1      -0.393  -0.940   0.885  0.00  0.00    -0.078 A 
ATOM      5  C3  OXE d   1       0.974  -0.819   0.653  0.00  0.00     0.003 A 
ATOM      6  C4  OXE d   1       1.443  -0.180  -0.502  0.00  0.00    -0.002 A 
ATOM      7  C5  OXE d   1       0.550   0.244  -1.491  0.00  0.00    -0.002 A 
ATOM      8  C6  OXE d   1      -0.812   0.020  -1.321  0.00  0.00     0.003 A 
ENDROOT
TORSDOF 0
ENDMDL
