MODEL 1
REMARK minimizedAffinity -3.3566494
REMARK minimizedRMSD -1
REMARK  0 active torsions:
REMARK  status: ('A' for Active; 'I' for Inactive)
ROOT
ATOM      1  C2' OXE d   1       0.087   0.035  -2.236  0.00  0.00     0.078 C 
ATOM      2  C1' OXE d   1       0.977   0.732   0.333  0.00  0.00     0.078 C 
ATOM      3  C1  OXE d   1      -0.400   0.128   0.205  0.00  0.00    -0.078 A 
ATOM      4  C2  OXE d   1      -0.845  -0.167  -1.061  0.00  0.00    -0.078 A 
ATOM      5  C3  OXE d   1      -2.085  -0.776  -1.231  0.00  0.00     0.003 A 
ATOM      6  C4  OXE d   1      -2.945  -0.950  -0.139  0.00  0.00    -0.002 A 
ATOM      7  C5  OXE d   1      -2.527  -0.619   1.154  0.00  0.00    -0.002 A 
ATOM      8  C6  OXE d   1      -1.243  -0.120   1.348  0.00  0.00     0.003 A 
ENDROOT
TORSDOF 0
ENDMDL
