MODEL 1
REMARK minimizedAffinity -6.1510663
REMARK minimizedRMSD -1
REMARK  0 active torsions:
REMARK  status: ('A' for Active; 'I' for Inactive)
ROOT
ATOM      1  C2' OXE d   1      -1.312  -1.589   1.747  0.00  0.00     0.078 C 
ATOM      2  C1' OXE d   1      -3.472  -0.819   0.128  0.00  0.00     0.078 C 
ATOM      3  C1  OXE d   1      -2.087  -0.410  -0.306  0.00  0.00    -0.078 A 
ATOM      4  C2  OXE d   1      -1.040  -0.751   0.516  0.00  0.00    -0.078 A 
ATOM      5  C3  OXE d   1       0.263  -0.445   0.136  0.00  0.00     0.003 A 
ATOM      6  C4  OXE d   1       0.505   0.339  -0.999  0.00  0.00    -0.002 A 
ATOM      7  C5  OXE d   1      -0.550   0.731  -1.829  0.00  0.00    -0.002 A 
ATOM      8  C6  OXE d   1      -1.845   0.329  -1.521  0.00  0.00     0.003 A 
ENDROOT
TORSDOF 0
ENDMDL
