MODEL 1
REMARK minimizedAffinity -4.69604111
REMARK minimizedRMSD -1
REMARK  0 active torsions:
REMARK  status: ('A' for Active; 'I' for Inactive)
ROOT
ATOM      1  C2' OXE d   1      -0.387   0.677  -1.809  0.00  0.00     0.078 C 
ATOM      2  C1' OXE d   1       0.917   0.197   0.630  0.00  0.00     0.078 C 
ATOM      3  C1  OXE d   1      -0.400  -0.497   0.388  0.00  0.00    -0.078 A 
ATOM      4  C2  OXE d   1      -1.054  -0.220  -0.788  0.00  0.00    -0.078 A 
ATOM      5  C3  OXE d   1      -2.245  -0.876  -1.086  0.00  0.00     0.003 A 
ATOM      6  C4  OXE d   1      -2.860  -1.696  -0.132  0.00  0.00    -0.002 A 
ATOM      7  C5  OXE d   1      -2.230  -1.961   1.089  0.00  0.00    -0.002 A 
ATOM      8  C6  OXE d   1      -0.982  -1.404   1.346  0.00  0.00     0.003 A 
ENDROOT
TORSDOF 0
ENDMDL
