MODEL 1
REMARK minimizedAffinity -3.17995906
REMARK minimizedRMSD -1
REMARK  0 active torsions:
REMARK  status: ('A' for Active; 'I' for Inactive)
ROOT
ATOM      1  C2' OXE d   1      -2.691  -1.497  -1.094  0.00  0.00     0.078 C 
ATOM      2  C1' OXE d   1      -1.613  -3.027   0.998  0.00  0.00     0.078 C 
ATOM      3  C1  OXE d   1      -0.783  -1.890   0.458  0.00  0.00    -0.078 A 
ATOM      4  C2  OXE d   1      -1.298  -1.175  -0.596  0.00  0.00    -0.078 A 
ATOM      5  C3  OXE d   1      -0.598  -0.081  -1.096  0.00  0.00     0.003 A 
ATOM      6  C4  OXE d   1       0.694   0.203  -0.637  0.00  0.00    -0.002 A 
ATOM      7  C5  OXE d   1       1.254  -0.536   0.410  0.00  0.00    -0.002 A 
ATOM      8  C6  OXE d   1       0.513  -1.557   0.996  0.00  0.00     0.003 A 
ENDROOT
TORSDOF 0
ENDMDL
