MODEL 1
REMARK minimizedAffinity -5.55097866
REMARK minimizedRMSD -1
REMARK  0 active torsions:
REMARK  status: ('A' for Active; 'I' for Inactive)
ROOT
ATOM      1  C2' OXE d   1       1.199  -0.214   0.154  0.00  0.00     0.078 C 
ATOM      2  C1' OXE d   1       0.221  -2.256   1.813  0.00  0.00     0.078 C 
ATOM      3  C1  OXE d   1      -0.689  -1.734   0.730  0.00  0.00    -0.078 A 
ATOM      4  C2  OXE d   1      -0.219  -0.703  -0.048  0.00  0.00    -0.078 A 
ATOM      5  C3  OXE d   1      -0.996  -0.221  -1.097  0.00  0.00     0.003 A 
ATOM      6  C4  OXE d   1      -2.310  -0.671  -1.270  0.00  0.00    -0.002 A 
ATOM      7  C5  OXE d   1      -2.823  -1.693  -0.465  0.00  0.00    -0.002 A 
ATOM      8  C6  OXE d   1      -2.012  -2.264   0.510  0.00  0.00     0.003 A 
ENDROOT
TORSDOF 0
ENDMDL
