MODEL 1
REMARK minimizedAffinity -4.99772549
REMARK minimizedRMSD -1
REMARK  0 active torsions:
REMARK  status: ('A' for Active; 'I' for Inactive)
ROOT
ATOM      1  C2' OXE d   1       0.362   0.138   0.774  0.00  0.00     0.078 C 
ATOM      2  C1' OXE d   1       0.003  -2.209   2.272  0.00  0.00     0.078 C 
ATOM      3  C1  OXE d   1      -1.148  -1.735   1.420  0.00  0.00    -0.078 A 
ATOM      4  C2  OXE d   1      -0.980  -0.560   0.727  0.00  0.00    -0.078 A 
ATOM      5  C3  OXE d   1      -1.990  -0.107  -0.116  0.00  0.00     0.003 A 
ATOM      6  C4  OXE d   1      -3.232  -0.753  -0.146  0.00  0.00    -0.002 A 
ATOM      7  C5  OXE d   1      -3.438  -1.929   0.583  0.00  0.00    -0.002 A 
ATOM      8  C6  OXE d   1      -2.394  -2.455   1.336  0.00  0.00     0.003 A 
ENDROOT
TORSDOF 0
ENDMDL
