MODEL 1
REMARK minimizedAffinity -2.20967889
REMARK minimizedRMSD -1
REMARK  0 active torsions:
REMARK  status: ('A' for Active; 'I' for Inactive)
ROOT
ATOM      1  C2' OXE d   1       4.232   4.961  -1.155  0.00  0.00     0.078 C 
ATOM      2  C1' OXE d   1       4.779   2.319  -1.931  0.00  0.00     0.078 C 
ATOM      3  C1  OXE d   1       3.753   2.536  -0.847  0.00  0.00    -0.078 A 
ATOM      4  C2  OXE d   1       3.526   3.829  -0.441  0.00  0.00    -0.078 A 
ATOM      5  C3  OXE d   1       2.550   4.090   0.517  0.00  0.00     0.003 A 
ATOM      6  C4  OXE d   1       1.908   3.037   1.180  0.00  0.00    -0.002 A 
ATOM      7  C5  OXE d   1       2.154   1.710   0.809  0.00  0.00    -0.002 A 
ATOM      8  C6  OXE d   1       3.040   1.446  -0.229  0.00  0.00     0.003 A 
ENDROOT
TORSDOF 0
ENDMDL
