MODEL 1
REMARK minimizedAffinity -3.54565334
REMARK minimizedRMSD -1
REMARK  0 active torsions:
REMARK  status: ('A' for Active; 'I' for Inactive)
ROOT
ATOM      1  C2' OXE d   1       1.789   1.322   0.084  0.00  0.00     0.078 C 
ATOM      2  C1' OXE d   1       2.233   3.814   1.296  0.00  0.00     0.078 C 
ATOM      3  C1  OXE d   1       2.827   3.581  -0.071  0.00  0.00    -0.078 A 
ATOM      4  C2  OXE d   1       2.644   2.342  -0.636  0.00  0.00    -0.078 A 
ATOM      5  C3  OXE d   1       3.125   2.091  -1.918  0.00  0.00     0.003 A 
ATOM      6  C4  OXE d   1       3.924   3.036  -2.573  0.00  0.00    -0.002 A 
ATOM      7  C5  OXE d   1       4.156   4.290  -1.998  0.00  0.00    -0.002 A 
ATOM      8  C6  OXE d   1       3.581   4.593  -0.769  0.00  0.00     0.003 A 
ENDROOT
TORSDOF 0
ENDMDL
