MODEL 1
REMARK minimizedAffinity -4.35938168
REMARK minimizedRMSD -1
REMARK  0 active torsions:
REMARK  status: ('A' for Active; 'I' for Inactive)
ROOT
ATOM      1  C2' OXE d   1       1.562  -1.459   0.751  0.00  0.00     0.078 C 
ATOM      2  C1' OXE d   1      -0.764  -2.972   1.176  0.00  0.00     0.078 C 
ATOM      3  C1  OXE d   1      -0.783  -1.948   0.068  0.00  0.00    -0.078 A 
ATOM      4  C2  OXE d   1       0.343  -1.180  -0.102  0.00  0.00    -0.078 A 
ATOM      5  C3  OXE d   1       0.398  -0.259  -1.144  0.00  0.00     0.003 A 
ATOM      6  C4  OXE d   1      -0.737  -0.001  -1.923  0.00  0.00    -0.002 A 
ATOM      7  C5  OXE d   1      -1.907  -0.744  -1.740  0.00  0.00    -0.002 A 
ATOM      8  C6  OXE d   1      -1.933  -1.749  -0.779  0.00  0.00     0.003 A 
ENDROOT
TORSDOF 0
ENDMDL
