MODEL 1
REMARK minimizedAffinity -3.69005752
REMARK minimizedRMSD -1
REMARK  0 active torsions:
REMARK  status: ('A' for Active; 'I' for Inactive)
ROOT
ATOM      1  C2' OXE d   1       1.722   0.156   0.545  0.00  0.00     0.078 C 
ATOM      2  C1' OXE d   1       0.302  -1.927   1.780  0.00  0.00     0.078 C 
ATOM      3  C1  OXE d   1      -0.265  -1.346   0.509  0.00  0.00    -0.078 A 
ATOM      4  C2  OXE d   1       0.412  -0.296  -0.063  0.00  0.00    -0.078 A 
ATOM      5  C3  OXE d   1      -0.038   0.241  -1.266  0.00  0.00     0.003 A 
ATOM      6  C4  OXE d   1      -1.256  -0.176  -1.816  0.00  0.00    -0.002 A 
ATOM      7  C5  OXE d   1      -1.982  -1.217  -1.228  0.00  0.00    -0.002 A 
ATOM      8  C6  OXE d   1      -1.480  -1.840  -0.091  0.00  0.00     0.003 A 
ENDROOT
TORSDOF 0
ENDMDL
