MODEL 1
REMARK minimizedAffinity -3.86640429
REMARK minimizedRMSD -1
REMARK  0 active torsions:
REMARK  status: ('A' for Active; 'I' for Inactive)
ROOT
ATOM      1  C2' OXE d   1       2.241   3.342   1.839  0.00  0.00     0.078 C 
ATOM      2  C1' OXE d   1       1.773   1.179   0.112  0.00  0.00     0.078 C 
ATOM      3  C1  OXE d   1       2.519   2.370  -0.437  0.00  0.00    -0.078 A 
ATOM      4  C2  OXE d   1       2.703   3.443   0.401  0.00  0.00    -0.078 A 
ATOM      5  C3  OXE d   1       3.432   4.544  -0.038  0.00  0.00     0.003 A 
ATOM      6  C4  OXE d   1       3.846   4.633  -1.372  0.00  0.00    -0.002 A 
ATOM      7  C5  OXE d   1       3.635   3.568  -2.254  0.00  0.00    -0.002 A 
ATOM      8  C6  OXE d   1       3.012   2.414  -1.792  0.00  0.00     0.003 A 
ENDROOT
TORSDOF 0
ENDMDL
