MODEL 1
REMARK minimizedAffinity -4.5609889
REMARK minimizedRMSD -1
REMARK  0 active torsions:
REMARK  status: ('A' for Active; 'I' for Inactive)
ROOT
ATOM      1  N1  IND d   1      -1.491   1.389  -2.952  0.00  0.00    -0.196 N 
ATOM      2  C2  IND d   1      -1.907   2.164  -3.998  0.00  0.00     0.054 A 
ATOM      3  C3  IND d   1      -3.223   2.449  -3.878  0.00  0.00    -0.031 A 
ATOM      4  C4  IND d   1      -4.864   1.833  -1.992  0.00  0.00     0.051 A 
ATOM      5  C5  IND d   1      -4.956   1.103  -0.841  0.00  0.00    -0.031 A 
ATOM      6  C6  IND d   1      -3.876   0.420  -0.322  0.00  0.00     0.015 A 
ATOM      7  C7  IND d   1      -2.654   0.450  -0.932  0.00  0.00    -0.016 A 
ATOM      8  C8  IND d   1      -2.558   1.184  -2.106  0.00  0.00    -0.047 A 
ATOM      9  C9  IND d   1      -3.662   1.845  -2.660  0.00  0.00    -0.096 A 
ATOM     10  HN1 IND d   1      -0.696   1.080  -2.842  0.00  0.00     0.298 HD
ENDROOT
TORSDOF 0
ENDMDL
