MODEL 1
REMARK minimizedAffinity -0.282055855
REMARK minimizedRMSD -1
REMARK  0 active torsions:
REMARK  status: ('A' for Active; 'I' for Inactive)
ROOT
ATOM      1  N1  IND d   1       0.540   0.612   1.203  0.00  0.00    -0.196 N 
ATOM      2  C2  IND d   1      -0.133   0.327   0.047  0.00  0.00     0.054 A 
ATOM      3  C3  IND d   1      -0.016  -0.986  -0.254  0.00  0.00    -0.031 A 
ATOM      4  C4  IND d   1       1.148  -2.868   1.061  0.00  0.00     0.051 A 
ATOM      5  C5  IND d   1       1.931  -3.090   2.159  0.00  0.00    -0.031 A 
ATOM      6  C6  IND d   1       2.295  -2.069   3.013  0.00  0.00     0.015 A 
ATOM      7  C7  IND d   1       1.879  -0.784   2.807  0.00  0.00    -0.016 A 
ATOM      8  C8  IND d   1       1.089  -0.554   1.689  0.00  0.00    -0.047 A 
ATOM      9  C9  IND d   1       0.752  -1.579   0.795  0.00  0.00    -0.096 A 
ATOM     10  HN1 IND d   1       0.608   1.388   1.565  0.00  0.00     0.298 HD
ENDROOT
TORSDOF 0
ENDMDL
