MODEL 1
REMARK minimizedAffinity -0.543129623
REMARK minimizedRMSD -1
REMARK  0 active torsions:
REMARK  status: ('A' for Active; 'I' for Inactive)
ROOT
ATOM      1  N1  IND d   1       4.400  -0.293   2.068  0.00  0.00    -0.196 N 
ATOM      2  C2  IND d   1       4.525  -0.919   3.277  0.00  0.00     0.054 A 
ATOM      3  C3  IND d   1       3.336  -1.428   3.668  0.00  0.00    -0.031 A 
ATOM      4  C4  IND d   1       1.076  -1.440   2.435  0.00  0.00     0.051 A 
ATOM      5  C5  IND d   1       0.457  -0.960   1.315  0.00  0.00    -0.031 A 
ATOM      6  C6  IND d   1       1.136  -0.220   0.369  0.00  0.00     0.015 A 
ATOM      7  C7  IND d   1       2.467   0.059   0.502  0.00  0.00    -0.016 A 
ATOM      8  C8  IND d   1       3.096  -0.422   1.641  0.00  0.00    -0.047 A 
ATOM      9  C9  IND d   1       2.403  -1.137   2.626  0.00  0.00    -0.096 A 
ATOM     10  HN1 IND d   1       5.029   0.113   1.645  0.00  0.00     0.298 HD
ENDROOT
TORSDOF 0
ENDMDL
