MODEL 1
REMARK minimizedAffinity 1.67558753
REMARK minimizedRMSD -1
REMARK  0 active torsions:
REMARK  status: ('A' for Active; 'I' for Inactive)
ROOT
ATOM      1  N1  IND d   1       3.605  -1.166   2.017  0.00  0.00    -0.196 N 
ATOM      2  C2  IND d   1       3.041  -1.915   3.012  0.00  0.00     0.054 A 
ATOM      3  C3  IND d   1       1.693  -1.828   2.959  0.00  0.00    -0.031 A 
ATOM      4  C4  IND d   1       0.198  -0.596   1.263  0.00  0.00     0.051 A 
ATOM      5  C5  IND d   1       0.256   0.255   0.195  0.00  0.00    -0.031 A 
ATOM      6  C6  IND d   1       1.457   0.682  -0.332  0.00  0.00     0.015 A 
ATOM      7  C7  IND d   1       2.651   0.263   0.184  0.00  0.00    -0.016 A 
ATOM      8  C8  IND d   1       2.596  -0.595   1.273  0.00  0.00    -0.047 A 
ATOM      9  C9  IND d   1       1.380  -0.998   1.839  0.00  0.00    -0.096 A 
ATOM     10  HN1 IND d   1       4.448  -1.068   1.880  0.00  0.00     0.298 HD
ENDROOT
TORSDOF 0
ENDMDL
