MODEL 1
REMARK minimizedAffinity -2.42634487
REMARK minimizedRMSD -1
REMARK  0 active torsions:
REMARK  status: ('A' for Active; 'I' for Inactive)
ROOT
ATOM      1  N1  IND d   1      -0.096   0.288   1.740  0.00  0.00    -0.196 N 
ATOM      2  C2  IND d   1       0.089   0.474   0.398  0.00  0.00     0.054 A 
ATOM      3  C3  IND d   1       0.933  -0.461  -0.094  0.00  0.00    -0.031 A 
ATOM      4  C4  IND d   1       2.047  -2.450   1.102  0.00  0.00     0.051 A 
ATOM      5  C5  IND d   1       2.207  -3.012   2.337  0.00  0.00    -0.031 A 
ATOM      6  C6  IND d   1       1.593  -2.493   3.459  0.00  0.00     0.015 A 
ATOM      7  C7  IND d   1       0.783  -1.396   3.385  0.00  0.00    -0.016 A 
ATOM      8  C8  IND d   1       0.624  -0.818   2.133  0.00  0.00    -0.047 A 
ATOM      9  C9  IND d   1       1.279  -1.314   0.998  0.00  0.00    -0.096 A 
ATOM     10  HN1 IND d   1      -0.581   0.780   2.252  0.00  0.00     0.298 HD
ENDROOT
TORSDOF 0
ENDMDL
