MODEL 1
REMARK minimizedAffinity 2.56236601
REMARK minimizedRMSD -1
REMARK  0 active torsions:
REMARK  status: ('A' for Active; 'I' for Inactive)
ROOT
ATOM      1  N1  IND d   1       3.734   5.247   1.489  0.00  0.00    -0.196 N 
ATOM      2  C2  IND d   1       4.468   4.421   0.685  0.00  0.00     0.054 A 
ATOM      3  C3  IND d   1       3.664   3.787  -0.198  0.00  0.00    -0.031 A 
ATOM      4  C4  IND d   1       1.128   4.030  -0.567  0.00  0.00     0.051 A 
ATOM      5  C5  IND d   1       0.018   4.638  -0.052  0.00  0.00    -0.031 A 
ATOM      6  C6  IND d   1       0.091   5.500   1.024  0.00  0.00     0.015 A 
ATOM      7  C7  IND d   1       1.285   5.796   1.619  0.00  0.00    -0.016 A 
ATOM      8  C8  IND d   1       2.413   5.175   1.103  0.00  0.00    -0.047 A 
ATOM      9  C9  IND d   1       2.339   4.267   0.039  0.00  0.00    -0.096 A 
ATOM     10  HN1 IND d   1       4.044   5.731   2.129  0.00  0.00     0.298 HD
ENDROOT
TORSDOF 0
ENDMDL
