MODEL 1
REMARK minimizedAffinity 3.58217192
REMARK minimizedRMSD -1
REMARK  0 active torsions:
REMARK  status: ('A' for Active; 'I' for Inactive)
ROOT
ATOM      1  N1  IND d   1       0.257  -0.451   1.291  0.00  0.00    -0.196 N 
ATOM      2  C2  IND d   1       0.413  -0.060  -0.010  0.00  0.00     0.054 A 
ATOM      3  C3  IND d   1       1.726   0.038  -0.317  0.00  0.00    -0.031 A 
ATOM      4  C4  IND d   1       3.788  -0.495   1.130  0.00  0.00     0.051 A 
ATOM      5  C5  IND d   1       4.151  -0.851   2.398  0.00  0.00    -0.031 A 
ATOM      6  C6  IND d   1       3.216  -1.100   3.382  0.00  0.00     0.015 A 
ATOM      7  C7  IND d   1       1.876  -1.012   3.129  0.00  0.00    -0.016 A 
ATOM      8  C8  IND d   1       1.504  -0.644   1.844  0.00  0.00    -0.047 A 
ATOM      9  C9  IND d   1       2.449  -0.349   0.853  0.00  0.00    -0.096 A 
ATOM     10  HN1 IND d   1      -0.494  -0.558   1.696  0.00  0.00     0.298 HD
ENDROOT
TORSDOF 0
ENDMDL
