MODEL 1
REMARK minimizedAffinity 4.31573343
REMARK minimizedRMSD -1
REMARK  0 active torsions:
REMARK  status: ('A' for Active; 'I' for Inactive)
ROOT
ATOM      1  N1  IND d   1      -1.883   3.965  -3.982  0.00  0.00    -0.196 N 
ATOM      2  C2  IND d   1      -0.532   3.862  -4.166  0.00  0.00     0.054 A 
ATOM      3  C3  IND d   1      -0.060   2.745  -3.567  0.00  0.00    -0.031 A 
ATOM      4  C4  IND d   1      -1.339   0.893  -2.318  0.00  0.00     0.051 A 
ATOM      5  C5  IND d   1      -2.585   0.564  -1.862  0.00  0.00    -0.031 A 
ATOM      6  C6  IND d   1      -3.683   1.366  -2.096  0.00  0.00     0.015 A 
ATOM      7  C7  IND d   1      -3.577   2.527  -2.808  0.00  0.00    -0.016 A 
ATOM      8  C8  IND d   1      -2.313   2.868  -3.267  0.00  0.00    -0.047 A 
ATOM      9  C9  IND d   1      -1.187   2.079  -2.996  0.00  0.00    -0.096 A 
ATOM     10  HN1 IND d   1      -2.380   4.606  -4.265  0.00  0.00     0.298 HD
ENDROOT
TORSDOF 0
ENDMDL
