MODEL 1
REMARK minimizedAffinity -3.06241655
REMARK minimizedRMSD -1
REMARK  0 active torsions:
REMARK  status: ('A' for Active; 'I' for Inactive)
ROOT
ATOM      1  N1  IND d   1      -3.730   0.668  -2.634  0.00  0.00    -0.196 N 
ATOM      2  C2  IND d   1      -4.674   1.635  -2.838  0.00  0.00     0.054 A 
ATOM      3  C3  IND d   1      -5.629   1.569  -1.884  0.00  0.00    -0.031 A 
ATOM      4  C4  IND d   1      -5.790   0.019   0.165  0.00  0.00     0.051 A 
ATOM      5  C5  IND d   1      -5.180  -1.053   0.756  0.00  0.00    -0.031 A 
ATOM      6  C6  IND d   1      -4.032  -1.615   0.237  0.00  0.00     0.015 A 
ATOM      7  C7  IND d   1      -3.441  -1.117  -0.889  0.00  0.00    -0.016 A 
ATOM      8  C8  IND d   1      -4.060  -0.034  -1.495  0.00  0.00    -0.047 A 
ATOM      9  C9  IND d   1      -5.250   0.515  -0.998  0.00  0.00    -0.096 A 
ATOM     10  HN1 IND d   1      -3.045   0.522  -3.132  0.00  0.00     0.298 HD
ENDROOT
TORSDOF 0
ENDMDL
