MODEL 1
REMARK minimizedAffinity -1.53953743
REMARK minimizedRMSD -1
REMARK  0 active torsions:
REMARK  status: ('A' for Active; 'I' for Inactive)
ROOT
ATOM      1  N1  IND d   1       0.673   1.248   0.400  0.00  0.00    -0.196 N 
ATOM      2  C2  IND d   1       0.825  -0.082   0.125  0.00  0.00     0.054 A 
ATOM      3  C3  IND d   1       2.050  -0.318  -0.396  0.00  0.00    -0.031 A 
ATOM      4  C4  IND d   1       4.001   1.315  -0.791  0.00  0.00     0.051 A 
ATOM      5  C5  IND d   1       4.325   2.641  -0.729  0.00  0.00    -0.031 A 
ATOM      6  C6  IND d   1       3.431   3.589  -0.276  0.00  0.00     0.015 A 
ATOM      7  C7  IND d   1       2.178   3.244   0.144  0.00  0.00    -0.016 A 
ATOM      8  C8  IND d   1       1.843   1.899   0.076  0.00  0.00    -0.047 A 
ATOM      9  C9  IND d   1       2.731   0.937  -0.422  0.00  0.00    -0.096 A 
ATOM     10  HN1 IND d   1      -0.035   1.617   0.720  0.00  0.00     0.298 HD
ENDROOT
TORSDOF 0
ENDMDL
