MODEL 1
REMARK minimizedAffinity 6.36300468
REMARK minimizedRMSD -1
REMARK  0 active torsions:
REMARK  status: ('A' for Active; 'I' for Inactive)
ROOT
ATOM      1  N1  IND d   1      -1.044  -3.967  -0.354  0.00  0.00    -0.196 N 
ATOM      2  C2  IND d   1      -2.157  -3.857   0.432  0.00  0.00     0.054 A 
ATOM      3  C3  IND d   1      -2.131  -2.697   1.125  0.00  0.00    -0.031 A 
ATOM      4  C4  IND d   1      -0.409  -0.784   1.047  0.00  0.00     0.051 A 
ATOM      5  C5  IND d   1       0.799  -0.443   0.506  0.00  0.00    -0.031 A 
ATOM      6  C6  IND d   1       1.466  -1.275  -0.369  0.00  0.00     0.015 A 
ATOM      7  C7  IND d   1       0.943  -2.480  -0.747  0.00  0.00    -0.016 A 
ATOM      8  C8  IND d   1      -0.280  -2.832  -0.194  0.00  0.00    -0.047 A 
ATOM      9  C9  IND d   1      -0.942  -2.011   0.728  0.00  0.00    -0.096 A 
ATOM     10  HN1 IND d   1      -0.853  -4.633  -0.863  0.00  0.00     0.298 HD
ENDROOT
TORSDOF 0
ENDMDL
