MODEL 1
REMARK minimizedAffinity 7.61678743
REMARK minimizedRMSD -1
REMARK  0 active torsions:
REMARK  status: ('A' for Active; 'I' for Inactive)
ROOT
ATOM      1  N1  IND d   1       2.043  -1.171   3.002  0.00  0.00    -0.196 N 
ATOM      2  C2  IND d   1       3.354  -1.553   2.936  0.00  0.00     0.054 A 
ATOM      3  C3  IND d   1       3.841  -1.353   1.691  0.00  0.00    -0.031 A 
ATOM      4  C4  IND d   1       2.693  -0.313  -0.365  0.00  0.00     0.051 A 
ATOM      5  C5  IND d   1       1.486   0.156  -0.803  0.00  0.00    -0.031 A 
ATOM      6  C6  IND d   1       0.382   0.210   0.022  0.00  0.00     0.015 A 
ATOM      7  C7  IND d   1       0.447  -0.194   1.326  0.00  0.00    -0.016 A 
ATOM      8  C8  IND d   1       1.668  -0.677   1.772  0.00  0.00    -0.047 A 
ATOM      9  C9  IND d   1       2.781  -0.774   0.927  0.00  0.00    -0.096 A 
ATOM     10  HN1 IND d   1       1.538  -1.228   3.696  0.00  0.00     0.298 HD
ENDROOT
TORSDOF 0
ENDMDL
