MODEL 1
REMARK minimizedAffinity 10.3952236
REMARK minimizedRMSD -1
REMARK  0 active torsions:
REMARK  status: ('A' for Active; 'I' for Inactive)
ROOT
ATOM      1  N1  IND d   1      -0.727  -3.719   0.548  0.00  0.00    -0.196 N 
ATOM      2  C2  IND d   1      -2.087  -3.693   0.681  0.00  0.00     0.054 A 
ATOM      3  C3  IND d   1      -2.518  -2.425   0.865  0.00  0.00    -0.031 A 
ATOM      4  C4  IND d   1      -1.175  -0.228   0.882  0.00  0.00     0.051 A 
ATOM      5  C5  IND d   1       0.103   0.253   0.836  0.00  0.00    -0.031 A 
ATOM      6  C6  IND d   1       1.192  -0.582   0.687  0.00  0.00     0.015 A 
ATOM      7  C7  IND d   1       1.041  -1.934   0.565  0.00  0.00    -0.016 A 
ATOM      8  C8  IND d   1      -0.255  -2.427   0.618  0.00  0.00    -0.047 A 
ATOM      9  C9  IND d   1      -1.360  -1.589   0.812  0.00  0.00    -0.096 A 
ATOM     10  HN1 IND d   1      -0.247  -4.424   0.439  0.00  0.00     0.298 HD
ENDROOT
TORSDOF 0
ENDMDL
