MODEL 1
REMARK minimizedAffinity 3.08785939
REMARK minimizedRMSD -1
REMARK  0 active torsions:
REMARK  status: ('A' for Active; 'I' for Inactive)
ROOT
ATOM      1  N1  IND d   1       0.449  -5.253  -3.895  0.00  0.00    -0.196 N 
ATOM      2  C2  IND d   1       1.138  -5.600  -5.023  0.00  0.00     0.054 A 
ATOM      3  C3  IND d   1       0.282  -5.976  -6.000  0.00  0.00    -0.031 A 
ATOM      4  C4  IND d   1      -2.293  -6.000  -5.998  0.00  0.00     0.051 A 
ATOM      5  C5  IND d   1      -3.371  -5.802  -5.182  0.00  0.00    -0.031 A 
ATOM      6  C6  IND d   1      -3.228  -5.401  -3.870  0.00  0.00     0.015 A 
ATOM      7  C7  IND d   1      -1.997  -5.170  -3.325  0.00  0.00    -0.016 A 
ATOM      8  C8  IND d   1      -0.899  -5.376  -4.148  0.00  0.00    -0.047 A 
ATOM      9  C9  IND d   1      -1.036  -5.825  -5.469  0.00  0.00    -0.096 A 
ATOM     10  HN1 IND d   1       0.799  -5.000  -3.151  0.00  0.00     0.298 HD
ENDROOT
TORSDOF 0
ENDMDL
