MODEL 1
REMARK minimizedAffinity 6.26801062
REMARK minimizedRMSD -1
REMARK  0 active torsions:
REMARK  status: ('A' for Active; 'I' for Inactive)
ROOT
ATOM      1  N1  IND d   1      -0.401  -5.937  -5.998  0.00  0.00    -0.196 N 
ATOM      2  C2  IND d   1      -1.491  -5.801  -5.184  0.00  0.00     0.054 A 
ATOM      3  C3  IND d   1      -1.154  -5.141  -4.053  0.00  0.00    -0.031 A 
ATOM      4  C4  IND d   1       1.104  -4.107  -3.374  0.00  0.00     0.051 A 
ATOM      5  C5  IND d   1       2.406  -4.005  -3.775  0.00  0.00    -0.031 A 
ATOM      6  C6  IND d   1       2.848  -4.551  -4.963  0.00  0.00     0.015 A 
ATOM      7  C7  IND d   1       1.997  -5.212  -5.803  0.00  0.00    -0.016 A 
ATOM      8  C8  IND d   1       0.675  -5.323  -5.396  0.00  0.00    -0.047 A 
ATOM      9  C9  IND d   1       0.230  -4.808  -4.171  0.00  0.00    -0.096 A 
ATOM     10  HN1 IND d   1      -0.389  -6.339  -6.758  0.00  0.00     0.298 HD
ENDROOT
TORSDOF 0
ENDMDL
