MODEL 1
REMARK minimizedAffinity 3.30357838
REMARK minimizedRMSD -1
REMARK  0 active torsions:
REMARK  status: ('A' for Active; 'I' for Inactive)
ROOT
ATOM      1  N1  IND d   1       0.256  -0.058   1.066  0.00  0.00    -0.196 N 
ATOM      2  C2  IND d   1       0.408   0.321  -0.239  0.00  0.00     0.054 A 
ATOM      3  C3  IND d   1       1.697   0.181  -0.622  0.00  0.00    -0.031 A 
ATOM      4  C4  IND d   1       3.704  -0.746   0.697  0.00  0.00     0.051 A 
ATOM      5  C5  IND d   1       4.066  -1.185   1.939  0.00  0.00    -0.031 A 
ATOM      6  C6  IND d   1       3.158  -1.276   2.974  0.00  0.00     0.015 A 
ATOM      7  C7  IND d   1       1.845  -0.940   2.801  0.00  0.00    -0.016 A 
ATOM      8  C8  IND d   1       1.475  -0.486   1.543  0.00  0.00    -0.047 A 
ATOM      9  C9  IND d   1       2.402  -0.352   0.501  0.00  0.00    -0.096 A 
ATOM     10  HN1 IND d   1      -0.478  -0.033   1.513  0.00  0.00     0.298 HD
ENDROOT
TORSDOF 0
ENDMDL
