MODEL 1
REMARK minimizedAffinity -4.65487432
REMARK minimizedRMSD -1
REMARK  1 active torsions:
REMARK  status: ('A' for Active; 'I' for Inactive)
REMARK    1  A    between atoms: C3_4  and  O_7 
ROOT
ATOM      1  C   UNL d   1       0.577   0.259  -0.544  0.00  0.00    -0.033 A 
ATOM      2  C1  UNL d   1       1.830  -0.257  -0.211  0.00  0.00     0.039 A 
ATOM      3  C2  UNL d   1       1.929  -1.369   0.628  0.00  0.00    -0.080 A 
ATOM      4  C3  UNL d   1       0.768  -1.956   1.125  0.00  0.00     0.150 A 
ATOM      5  C4  UNL d   1      -0.484  -1.449   0.794  0.00  0.00    -0.007 A 
ATOM      6  C5  UNL d   1      -0.581  -0.338  -0.042  0.00  0.00     0.039 A 
ENDROOT
BRANCH   4   7
ATOM      7  O   UNL d   1       0.815  -3.039   1.951  0.00  0.00    -0.526 OA
ATOM      8  H5  UNL d   1       1.746  -3.261   2.115  0.00  0.00     0.418 HD
ENDBRANCH   4   7
TORSDOF 1
ENDMDL
