MODEL 1
REMARK minimizedAffinity -4.04202938
REMARK minimizedRMSD -1
REMARK  1 active torsions:
REMARK  status: ('A' for Active; 'I' for Inactive)
REMARK    1  A    between atoms: C3_4  and  O_7 
ROOT
ATOM      1  C   UNL d   1      -0.071   0.467  -0.316  0.00  0.00    -0.033 A 
ATOM      2  C1  UNL d   1       0.250  -0.377  -1.380  0.00  0.00     0.039 A 
ATOM      3  C2  UNL d   1      -0.304  -0.155  -2.642  0.00  0.00    -0.080 A 
ATOM      4  C3  UNL d   1      -1.177   0.914  -2.827  0.00  0.00     0.150 A 
ATOM      5  C4  UNL d   1      -1.498   1.762  -1.772  0.00  0.00    -0.007 A 
ATOM      6  C5  UNL d   1      -0.944   1.538  -0.512  0.00  0.00     0.039 A 
ENDROOT
BRANCH   4   7
ATOM      7  O   UNL d   1      -1.746   1.168  -4.039  0.00  0.00    -0.526 OA
ATOM      8  H5  UNL d   1      -1.455   0.484  -4.665  0.00  0.00     0.418 HD
ENDBRANCH   4   7
TORSDOF 1
ENDMDL
