MODEL 1
REMARK minimizedAffinity -4.08917189
REMARK minimizedRMSD -1
REMARK  1 active torsions:
REMARK  status: ('A' for Active; 'I' for Inactive)
REMARK    1  A    between atoms: C3_4  and  O_7 
ROOT
ATOM      1  C   UNL d   1      -2.138   1.770  -1.793  0.00  0.00    -0.033 A 
ATOM      2  C1  UNL d   1      -1.755   2.162  -0.508  0.00  0.00     0.039 A 
ATOM      3  C2  UNL d   1      -0.856   1.383   0.223  0.00  0.00    -0.080 A 
ATOM      4  C3  UNL d   1      -0.348   0.216  -0.341  0.00  0.00     0.150 A 
ATOM      5  C4  UNL d   1      -0.722  -0.179  -1.621  0.00  0.00    -0.007 A 
ATOM      6  C5  UNL d   1      -1.620   0.600  -2.349  0.00  0.00     0.039 A 
ENDROOT
BRANCH   4   7
ATOM      7  O   UNL d   1       0.528  -0.580   0.337  0.00  0.00    -0.526 OA
ATOM      8  H5  UNL d   1       0.673  -0.197   1.218  0.00  0.00     0.418 HD
ENDBRANCH   4   7
TORSDOF 1
ENDMDL
