MODEL 1
REMARK minimizedAffinity -5.36680365
REMARK minimizedRMSD -1
REMARK  1 active torsions:
REMARK  status: ('A' for Active; 'I' for Inactive)
REMARK    1  A    between atoms: C3_4  and  O_7 
ROOT
ATOM      1  C   UNL d   1       0.668  -3.385   1.714  0.00  0.00    -0.033 A 
ATOM      2  C1  UNL d   1      -0.007  -2.467   2.521  0.00  0.00     0.039 A 
ATOM      3  C2  UNL d   1      -0.337  -1.206   2.020  0.00  0.00    -0.080 A 
ATOM      4  C3  UNL d   1       0.011  -0.877   0.713  0.00  0.00     0.150 A 
ATOM      5  C4  UNL d   1       0.679  -1.788  -0.097  0.00  0.00    -0.007 A 
ATOM      6  C5  UNL d   1       1.010  -3.046   0.404  0.00  0.00     0.039 A 
ENDROOT
BRANCH   4   7
ATOM      7  O   UNL d   1      -0.286   0.344   0.183  0.00  0.00    -0.526 OA
ATOM      8  H5  UNL d   1      -0.723   0.879   0.867  0.00  0.00     0.418 HD
ENDBRANCH   4   7
TORSDOF 1
ENDMDL
