MODEL 1
REMARK minimizedAffinity -2.92558932
REMARK minimizedRMSD -1
REMARK  1 active torsions:
REMARK  status: ('A' for Active; 'I' for Inactive)
REMARK    1  A    between atoms: C3_4  and  O_7 
ROOT
ATOM      1  C   UNL d   1      -0.382   0.745  -0.656  0.00  0.00    -0.033 A 
ATOM      2  C1  UNL d   1      -0.686   0.181   0.585  0.00  0.00     0.039 A 
ATOM      3  C2  UNL d   1       0.202  -0.715   1.183  0.00  0.00    -0.080 A 
ATOM      4  C3  UNL d   1       1.389  -1.038   0.532  0.00  0.00     0.150 A 
ATOM      5  C4  UNL d   1       1.700  -0.478  -0.703  0.00  0.00    -0.007 A 
ATOM      6  C5  UNL d   1       0.812   0.416  -1.299  0.00  0.00     0.039 A 
ENDROOT
BRANCH   4   7
ATOM      7  O   UNL d   1       2.284  -1.911   1.074  0.00  0.00    -0.526 OA
ATOM      8  H5  UNL d   1       1.923  -2.240   1.914  0.00  0.00     0.418 HD
ENDBRANCH   4   7
TORSDOF 1
ENDMDL
