MODEL 1
REMARK minimizedAffinity -5.07158804
REMARK minimizedRMSD -1
REMARK  1 active torsions:
REMARK  status: ('A' for Active; 'I' for Inactive)
REMARK    1  A    between atoms: C3_4  and  O_7 
ROOT
ATOM      1  C   UNL d   1       0.521  -0.119  -0.256  0.00  0.00    -0.033 A 
ATOM      2  C1  UNL d   1       1.658  -0.247   0.545  0.00  0.00     0.039 A 
ATOM      3  C2  UNL d   1       1.996  -1.488   1.088  0.00  0.00    -0.080 A 
ATOM      4  C3  UNL d   1       1.190  -2.592   0.823  0.00  0.00     0.150 A 
ATOM      5  C4  UNL d   1       0.058  -2.473   0.023  0.00  0.00    -0.007 A 
ATOM      6  C5  UNL d   1      -0.278  -1.233  -0.518  0.00  0.00     0.039 A 
ENDROOT
BRANCH   4   7
ATOM      7  O   UNL d   1       1.477  -3.823   1.335  0.00  0.00    -0.526 OA
ATOM      8  H5  UNL d   1       2.270  -3.748   1.890  0.00  0.00     0.418 HD
ENDBRANCH   4   7
TORSDOF 1
ENDMDL
