MODEL 1
REMARK minimizedAffinity -4.64806175
REMARK minimizedRMSD -1
REMARK  1 active torsions:
REMARK  status: ('A' for Active; 'I' for Inactive)
REMARK    1  A    between atoms: C3_4  and  O_7 
ROOT
ATOM      1  C   UNL d   1      -0.211   0.236  -0.238  0.00  0.00    -0.033 A 
ATOM      2  C1  UNL d   1       0.738  -0.041  -1.224  0.00  0.00     0.039 A 
ATOM      3  C2  UNL d   1       1.511  -1.201  -1.146  0.00  0.00    -0.080 A 
ATOM      4  C3  UNL d   1       1.325  -2.075  -0.079  0.00  0.00     0.150 A 
ATOM      5  C4  UNL d   1       0.378  -1.808   0.905  0.00  0.00    -0.007 A 
ATOM      6  C5  UNL d   1      -0.392  -0.648   0.825  0.00  0.00     0.039 A 
ENDROOT
BRANCH   4   7
ATOM      7  O   UNL d   1       2.058  -3.218   0.043  0.00  0.00    -0.526 OA
ATOM      8  H5  UNL d   1       2.692  -3.257  -0.692  0.00  0.00     0.418 HD
ENDBRANCH   4   7
TORSDOF 1
ENDMDL
