MODEL 1
REMARK minimizedAffinity -4.37512445
REMARK minimizedRMSD -1
REMARK  1 active torsions:
REMARK  status: ('A' for Active; 'I' for Inactive)
REMARK    1  A    between atoms: C3_4  and  O_7 
ROOT
ATOM      1  C   UNL d   1       0.303   0.711   0.067  0.00  0.00    -0.033 A 
ATOM      2  C1  UNL d   1      -0.548  -0.109   0.810  0.00  0.00     0.039 A 
ATOM      3  C2  UNL d   1      -0.136  -1.389   1.184  0.00  0.00    -0.080 A 
ATOM      4  C3  UNL d   1       1.128  -1.837   0.809  0.00  0.00     0.150 A 
ATOM      5  C4  UNL d   1       1.982  -1.024   0.072  0.00  0.00    -0.007 A 
ATOM      6  C5  UNL d   1       1.569   0.254  -0.301  0.00  0.00     0.039 A 
ENDROOT
BRANCH   4   7
ATOM      7  O   UNL d   1       1.572  -3.081   1.146  0.00  0.00    -0.526 OA
ATOM      8  H5  UNL d   1       0.865  -3.540   1.630  0.00  0.00     0.418 HD
ENDBRANCH   4   7
TORSDOF 1
ENDMDL
