MODEL 1
REMARK minimizedAffinity -4.26576567
REMARK minimizedRMSD -1
REMARK  1 active torsions:
REMARK  status: ('A' for Active; 'I' for Inactive)
REMARK    1  A    between atoms: C3_4  and  O_7 
ROOT
ATOM      1  C   UNL d   1       0.054   0.239  -0.464  0.00  0.00    -0.033 A 
ATOM      2  C1  UNL d   1      -0.800  -0.610   0.241  0.00  0.00     0.039 A 
ATOM      3  C2  UNL d   1      -0.297  -1.763   0.848  0.00  0.00    -0.080 A 
ATOM      4  C3  UNL d   1       1.061  -2.053   0.743  0.00  0.00     0.150 A 
ATOM      5  C4  UNL d   1       1.919  -1.208   0.045  0.00  0.00    -0.007 A 
ATOM      6  C5  UNL d   1       1.414  -0.059  -0.561  0.00  0.00     0.039 A 
ENDROOT
BRANCH   4   7
ATOM      7  O   UNL d   1       1.597  -3.168   1.314  0.00  0.00    -0.526 OA
ATOM      8  H5  UNL d   1       0.882  -3.671   1.738  0.00  0.00     0.418 HD
ENDBRANCH   4   7
TORSDOF 1
ENDMDL
