MODEL 1
REMARK minimizedAffinity -1.98663795
REMARK minimizedRMSD -1
REMARK  1 active torsions:
REMARK  status: ('A' for Active; 'I' for Inactive)
REMARK    1  A    between atoms: C3_4  and  O_7 
ROOT
ATOM      1  C   UNL d   1       0.185  -0.302  -0.050  0.00  0.00    -0.033 A 
ATOM      2  C1  UNL d   1       0.299   1.068  -0.296  0.00  0.00     0.039 A 
ATOM      3  C2  UNL d   1      -0.555   1.689  -1.209  0.00  0.00    -0.080 A 
ATOM      4  C3  UNL d   1      -1.519   0.930  -1.868  0.00  0.00     0.150 A 
ATOM      5  C4  UNL d   1      -1.642  -0.434  -1.625  0.00  0.00    -0.007 A 
ATOM      6  C5  UNL d   1      -0.787  -1.052  -0.713  0.00  0.00     0.039 A 
ENDROOT
BRANCH   4   7
ATOM      7  O   UNL d   1      -2.373   1.491  -2.771  0.00  0.00    -0.526 OA
ATOM      8  H5  UNL d   1      -2.152   2.434  -2.858  0.00  0.00     0.418 HD
ENDBRANCH   4   7
TORSDOF 1
ENDMDL
