MODEL 1
REMARK minimizedAffinity -0.288004071
REMARK minimizedRMSD -1
REMARK  1 active torsions:
REMARK  status: ('A' for Active; 'I' for Inactive)
REMARK    1  A    between atoms: C3_4  and  O_7 
ROOT
ATOM      1  C   UNL d   1      -0.871   1.639  -0.530  0.00  0.00    -0.033 A 
ATOM      2  C1  UNL d   1       0.435   2.054  -0.260  0.00  0.00     0.039 A 
ATOM      3  C2  UNL d   1       1.392   1.126   0.153  0.00  0.00    -0.080 A 
ATOM      4  C3  UNL d   1       1.033  -0.212   0.291  0.00  0.00     0.150 A 
ATOM      5  C4  UNL d   1      -0.265  -0.633   0.020  0.00  0.00    -0.007 A 
ATOM      6  C5  UNL d   1      -1.220   0.295  -0.391  0.00  0.00     0.039 A 
ENDROOT
BRANCH   4   7
ATOM      7  O   UNL d   1       1.931  -1.154   0.697  0.00  0.00    -0.526 OA
ATOM      8  H5  UNL d   1       2.779  -0.713   0.875  0.00  0.00     0.418 HD
ENDBRANCH   4   7
TORSDOF 1
ENDMDL
