MODEL 1
REMARK minimizedAffinity -3.10578442
REMARK minimizedRMSD -1
REMARK  1 active torsions:
REMARK  status: ('A' for Active; 'I' for Inactive)
REMARK    1  A    between atoms: C3_4  and  O_7 
ROOT
ATOM      1  C   UNL d   1      -1.147   0.478  -0.903  0.00  0.00    -0.033 A 
ATOM      2  C1  UNL d   1      -0.382  -0.304  -1.771  0.00  0.00     0.039 A 
ATOM      3  C2  UNL d   1       0.743  -0.981  -1.295  0.00  0.00    -0.080 A 
ATOM      4  C3  UNL d   1       1.090  -0.869   0.048  0.00  0.00     0.150 A 
ATOM      5  C4  UNL d   1       0.330  -0.095   0.919  0.00  0.00    -0.007 A 
ATOM      6  C5  UNL d   1      -0.792   0.581   0.442  0.00  0.00     0.039 A 
ENDROOT
BRANCH   4   7
ATOM      7  O   UNL d   1       2.182  -1.507   0.558  0.00  0.00    -0.526 OA
ATOM      8  H5  UNL d   1       2.627  -1.980  -0.165  0.00  0.00     0.418 HD
ENDBRANCH   4   7
TORSDOF 1
ENDMDL
