MODEL 1
REMARK minimizedAffinity -3.21673417
REMARK minimizedRMSD -1
REMARK  0 active torsions:
REMARK  status: ('A' for Active; 'I' for Inactive)
ROOT
ATOM      1  C   UNL d   1       5.427  -1.108   6.000  0.00  0.00     0.078 C 
ATOM      2  C1  UNL d   1       5.435   0.049   5.047  0.00  0.00    -0.077 A 
ATOM      3  C2  UNL d   1       4.878   1.283   5.405  0.00  0.00    -0.001 A 
ATOM      4  C3  UNL d   1       4.884   2.349   4.505  0.00  0.00     0.003 A 
ATOM      5  C4  UNL d   1       5.445   2.192   3.239  0.00  0.00    -0.005 A 
ATOM      6  C5  UNL d   1       6.000   0.968   2.872  0.00  0.00     0.003 A 
ATOM      7  C6  UNL d   1       5.995  -0.100   3.771  0.00  0.00    -0.001 A 
ENDROOT
TORSDOF 0
ENDMDL
