MODEL 1
REMARK minimizedAffinity -3.69716907
REMARK minimizedRMSD -1
REMARK  0 active torsions:
REMARK  status: ('A' for Active; 'I' for Inactive)
ROOT
ATOM      1  C   UNL d   1       5.943  -1.578   4.873  0.00  0.00     0.078 C 
ATOM      2  C1  UNL d   1       5.907  -0.080   4.815  0.00  0.00    -0.077 A 
ATOM      3  C2  UNL d   1       5.868   0.594   3.588  0.00  0.00    -0.001 A 
ATOM      4  C3  UNL d   1       5.844   1.989   3.548  0.00  0.00     0.003 A 
ATOM      5  C4  UNL d   1       5.861   2.723   4.733  0.00  0.00    -0.005 A 
ATOM      6  C5  UNL d   1       5.902   2.061   5.959  0.00  0.00     0.003 A 
ATOM      7  C6  UNL d   1       5.926   0.666   6.000  0.00  0.00    -0.001 A 
ENDROOT
TORSDOF 0
ENDMDL
