MODEL 1
REMARK minimizedAffinity -2.7547698
REMARK minimizedRMSD -1
REMARK  0 active torsions:
REMARK  status: ('A' for Active; 'I' for Inactive)
ROOT
ATOM      1  C   UNL d   1       6.000   3.506   3.929  0.00  0.00     0.078 C 
ATOM      2  C1  UNL d   1       5.972   2.055   4.305  0.00  0.00    -0.077 A 
ATOM      3  C2  UNL d   1       5.938   1.659   5.648  0.00  0.00    -0.001 A 
ATOM      4  C3  UNL d   1       5.922   0.304   5.984  0.00  0.00     0.003 A 
ATOM      5  C4  UNL d   1       5.942  -0.665   4.983  0.00  0.00    -0.005 A 
ATOM      6  C5  UNL d   1       5.979  -0.281   3.644  0.00  0.00     0.003 A 
ATOM      7  C6  UNL d   1       5.995   1.073   3.306  0.00  0.00    -0.001 A 
ENDROOT
TORSDOF 0
ENDMDL
