MODEL 1
REMARK minimizedAffinity -2.5288105
REMARK minimizedRMSD -1
REMARK  0 active torsions:
REMARK  status: ('A' for Active; 'I' for Inactive)
ROOT
ATOM      1  C   UNL d   1       6.000   4.227   4.121  0.00  0.00     0.078 C 
ATOM      2  C1  UNL d   1       5.718   2.754   4.110  0.00  0.00    -0.077 A 
ATOM      3  C2  UNL d   1       5.164   2.134   2.983  0.00  0.00    -0.001 A 
ATOM      4  C3  UNL d   1       4.898   0.764   2.990  0.00  0.00     0.003 A 
ATOM      5  C4  UNL d   1       5.182   0.002   4.123  0.00  0.00    -0.005 A 
ATOM      6  C5  UNL d   1       5.730   0.611   5.249  0.00  0.00     0.003 A 
ATOM      7  C6  UNL d   1       5.997   1.981   5.244  0.00  0.00    -0.001 A 
ENDROOT
TORSDOF 0
ENDMDL
