MODEL 1
REMARK minimizedAffinity -3.81536508
REMARK minimizedRMSD -1
REMARK  0 active torsions:
REMARK  status: ('A' for Active; 'I' for Inactive)
ROOT
ATOM      1  C   UNL d   1       5.605   3.175   4.471  0.00  0.00     0.078 C 
ATOM      2  C1  UNL d   1       5.531   1.685   4.319  0.00  0.00    -0.077 A 
ATOM      3  C2  UNL d   1       5.448   1.092   3.054  0.00  0.00    -0.001 A 
ATOM      4  C3  UNL d   1       5.370  -0.296   2.928  0.00  0.00     0.003 A 
ATOM      5  C4  UNL d   1       5.373  -1.103   4.064  0.00  0.00    -0.005 A 
ATOM      6  C5  UNL d   1       5.453  -0.522   5.328  0.00  0.00     0.003 A 
ATOM      7  C6  UNL d   1       5.532   0.866   5.456  0.00  0.00    -0.001 A 
ENDROOT
TORSDOF 0
ENDMDL
