MODEL 1
REMARK minimizedAffinity 3.9417057
REMARK minimizedRMSD -1
REMARK  0 active torsions:
REMARK  status: ('A' for Active; 'I' for Inactive)
ROOT
ATOM      1  C   UNL d   1       5.990   4.712   5.087  0.00  0.00     0.078 C 
ATOM      2  C1  UNL d   1       5.743   3.429   4.351  0.00  0.00    -0.077 A 
ATOM      3  C2  UNL d   1       6.000   3.323   2.979  0.00  0.00    -0.001 A 
ATOM      4  C3  UNL d   1       5.756   2.126   2.305  0.00  0.00     0.003 A 
ATOM      5  C4  UNL d   1       5.253   1.024   2.995  0.00  0.00    -0.005 A 
ATOM      6  C5  UNL d   1       4.992   1.120   4.360  0.00  0.00     0.003 A 
ATOM      7  C6  UNL d   1       5.235   2.317   5.036  0.00  0.00    -0.001 A 
ENDROOT
TORSDOF 0
ENDMDL
