MODEL 1
REMARK minimizedAffinity -2.11559105
REMARK minimizedRMSD -1
REMARK  0 active torsions:
REMARK  status: ('A' for Active; 'I' for Inactive)
ROOT
ATOM      1  C   UNL d   1       5.953   2.892   3.249  0.00  0.00     0.078 C 
ATOM      2  C1  UNL d   1       5.937   1.570   3.957  0.00  0.00    -0.077 A 
ATOM      3  C2  UNL d   1       5.872   1.501   5.354  0.00  0.00    -0.001 A 
ATOM      4  C3  UNL d   1       5.868   0.263   6.000  0.00  0.00     0.003 A 
ATOM      5  C4  UNL d   1       5.929  -0.914   5.257  0.00  0.00    -0.005 A 
ATOM      6  C5  UNL d   1       5.995  -0.855   3.866  0.00  0.00     0.003 A 
ATOM      7  C6  UNL d   1       6.000   0.381   3.219  0.00  0.00    -0.001 A 
ENDROOT
TORSDOF 0
ENDMDL
