MODEL 1
REMARK minimizedAffinity -3.03521895
REMARK minimizedRMSD -1
REMARK  0 active torsions:
REMARK  status: ('A' for Active; 'I' for Inactive)
ROOT
ATOM      1  C   UNL d   1       5.624  -1.740   5.216  0.00  0.00     0.078 C 
ATOM      2  C1  UNL d   1       5.635  -0.259   4.980  0.00  0.00    -0.077 A 
ATOM      3  C2  UNL d   1       6.000   0.630   5.999  0.00  0.00    -0.001 A 
ATOM      4  C3  UNL d   1       5.996   2.007   5.768  0.00  0.00     0.003 A 
ATOM      5  C4  UNL d   1       5.629   2.506   4.520  0.00  0.00    -0.005 A 
ATOM      6  C5  UNL d   1       5.263   1.629   3.502  0.00  0.00     0.003 A 
ATOM      7  C6  UNL d   1       5.265   0.252   3.730  0.00  0.00    -0.001 A 
ENDROOT
TORSDOF 0
ENDMDL
