MODEL 1
REMARK minimizedAffinity -3.08739138
REMARK minimizedRMSD -1
REMARK  0 active torsions:
REMARK  status: ('A' for Active; 'I' for Inactive)
ROOT
ATOM      1  C   UNL d   1       5.259  -1.394   4.899  0.00  0.00     0.078 C 
ATOM      2  C1  UNL d   1       5.373   0.101   4.882  0.00  0.00    -0.077 A 
ATOM      3  C2  UNL d   1       4.991   0.841   3.757  0.00  0.00    -0.001 A 
ATOM      4  C3  UNL d   1       5.111   2.232   3.752  0.00  0.00     0.003 A 
ATOM      5  C4  UNL d   1       5.615   2.894   4.870  0.00  0.00    -0.005 A 
ATOM      6  C5  UNL d   1       6.000   2.166   5.993  0.00  0.00     0.003 A 
ATOM      7  C6  UNL d   1       5.880   0.776   6.000  0.00  0.00    -0.001 A 
ENDROOT
TORSDOF 0
ENDMDL
