MODEL 1
REMARK minimizedAffinity -0.406994671
REMARK minimizedRMSD -1
REMARK  0 active torsions:
REMARK  status: ('A' for Active; 'I' for Inactive)
ROOT
ATOM      1  C   UNL d   1       5.989   2.187   3.903  0.00  0.00     0.078 C 
ATOM      2  C1  UNL d   1       5.982   0.740   4.297  0.00  0.00    -0.077 A 
ATOM      3  C2  UNL d   1       5.997   0.359   5.644  0.00  0.00    -0.001 A 
ATOM      4  C3  UNL d   1       6.000  -0.992   5.995  0.00  0.00     0.003 A 
ATOM      5  C4  UNL d   1       5.989  -1.972   5.006  0.00  0.00    -0.005 A 
ATOM      6  C5  UNL d   1       5.977  -1.603   3.662  0.00  0.00     0.003 A 
ATOM      7  C6  UNL d   1       5.974  -0.253   3.309  0.00  0.00    -0.001 A 
ENDROOT
TORSDOF 0
ENDMDL
