MODEL 1
REMARK minimizedAffinity -2.81788516
REMARK minimizedRMSD -1
REMARK  0 active torsions:
REMARK  status: ('A' for Active; 'I' for Inactive)
ROOT
ATOM      1  C   UNL d   1       6.000   3.616   4.110  0.00  0.00     0.078 C 
ATOM      2  C1  UNL d   1       5.989   2.147   4.412  0.00  0.00    -0.077 A 
ATOM      3  C2  UNL d   1       5.998   1.682   5.733  0.00  0.00    -0.001 A 
ATOM      4  C3  UNL d   1       5.997   0.312   5.999  0.00  0.00     0.003 A 
ATOM      5  C4  UNL d   1       5.989  -0.605   4.950  0.00  0.00    -0.005 A 
ATOM      6  C5  UNL d   1       5.982  -0.152   3.632  0.00  0.00     0.003 A 
ATOM      7  C6  UNL d   1       5.983   1.218   3.364  0.00  0.00    -0.001 A 
ENDROOT
TORSDOF 0
ENDMDL
