MODEL 1
REMARK minimizedAffinity -2.06853342
REMARK minimizedRMSD -1
REMARK  0 active torsions:
REMARK  status: ('A' for Active; 'I' for Inactive)
ROOT
ATOM      1  C   UNL d   1       5.924  -1.884   4.488  0.00  0.00     0.078 C 
ATOM      2  C1  UNL d   1       5.957  -0.419   4.169  0.00  0.00    -0.077 A 
ATOM      3  C2  UNL d   1       5.955   0.541   5.188  0.00  0.00    -0.001 A 
ATOM      4  C3  UNL d   1       5.977   1.902   4.877  0.00  0.00     0.003 A 
ATOM      5  C4  UNL d   1       5.998   2.314   3.546  0.00  0.00    -0.005 A 
ATOM      6  C5  UNL d   1       5.998   1.366   2.525  0.00  0.00     0.003 A 
ATOM      7  C6  UNL d   1       5.976   0.006   2.834  0.00  0.00    -0.001 A 
ENDROOT
TORSDOF 0
ENDMDL
