MODEL 1
REMARK minimizedAffinity -4.08959961
REMARK minimizedRMSD -1
REMARK  0 active torsions:
REMARK  status: ('A' for Active; 'I' for Inactive)
ROOT
ATOM      1  C   UNL d   1       5.590   3.373   4.007  0.00  0.00     0.078 C 
ATOM      2  C1  UNL d   1       5.423   1.920   4.338  0.00  0.00    -0.077 A 
ATOM      3  C2  UNL d   1       5.328   1.490   5.667  0.00  0.00    -0.001 A 
ATOM      4  C3  UNL d   1       5.182   0.133   5.960  0.00  0.00     0.003 A 
ATOM      5  C4  UNL d   1       5.132  -0.804   4.930  0.00  0.00    -0.005 A 
ATOM      6  C5  UNL d   1       5.229  -0.386   3.605  0.00  0.00     0.003 A 
ATOM      7  C6  UNL d   1       5.374   0.971   3.309  0.00  0.00    -0.001 A 
ENDROOT
TORSDOF 0
ENDMDL
