MODEL 1
REMARK minimizedAffinity -6.74375057
REMARK minimizedRMSD -1
REMARK  0 active torsions:
REMARK  status: ('A' for Active; 'I' for Inactive)
ROOT
ATOM      1  C1  DEN d   1       0.429   0.475  -0.852  0.00  0.00     0.130 A 
ATOM      2  C2  DEN d   1       0.674  -0.523   0.185  0.00  0.00    -0.031 A 
ATOM      3  C3  DEN d   1       0.213   0.034   1.472  0.00  0.00     0.027 A 
ATOM      4  C4  DEN d   1      -0.857   2.331   1.957  0.00  0.00     0.027 A 
ATOM      5  C5  DEN d   1      -1.256   3.524   1.396  0.00  0.00    -0.003 A 
ATOM      6  C6  DEN d   1      -1.091   3.796   0.064  0.00  0.00     0.001 A 
ATOM      7  C7  DEN d   1      -0.554   2.844  -0.762  0.00  0.00     0.017 A 
ATOM      8  C8  DEN d   1      -0.142   1.641  -0.203  0.00  0.00    -0.094 A 
ATOM      9  C9  DEN d   1      -0.328   1.381   1.144  0.00  0.00    -0.072 A 
ENDROOT
TORSDOF 0
ENDMDL
