MODEL 1
REMARK minimizedAffinity -2.88894343
REMARK minimizedRMSD -1
REMARK  0 active torsions:
REMARK  status: ('A' for Active; 'I' for Inactive)
ROOT
ATOM      1  C1  DEN d   1      -0.798   0.206  -2.583  0.00  0.00     0.130 A 
ATOM      2  C2  DEN d   1       0.027   0.691  -1.480  0.00  0.00    -0.031 A 
ATOM      3  C3  DEN d   1       0.315  -0.450  -0.589  0.00  0.00     0.027 A 
ATOM      4  C4  DEN d   1      -0.428  -2.910  -0.812  0.00  0.00     0.027 A 
ATOM      5  C5  DEN d   1      -1.149  -3.800  -1.577  0.00  0.00    -0.003 A 
ATOM      6  C6  DEN d   1      -1.827  -3.413  -2.702  0.00  0.00     0.001 A 
ATOM      7  C7  DEN d   1      -1.760  -2.111  -3.121  0.00  0.00     0.017 A 
ATOM      8  C8  DEN d   1      -1.041  -1.206  -2.351  0.00  0.00    -0.094 A 
ATOM      9  C9  DEN d   1      -0.352  -1.619  -1.223  0.00  0.00    -0.072 A 
ENDROOT
TORSDOF 0
ENDMDL
