MODEL 1
REMARK minimizedAffinity -4.22340393
REMARK minimizedRMSD -1
REMARK  0 active torsions:
REMARK  status: ('A' for Active; 'I' for Inactive)
ROOT
ATOM      1  C1  DEN d   1      -0.122  -0.224  -0.815  0.00  0.00     0.130 A 
ATOM      2  C2  DEN d   1       0.963  -0.772  -0.005  0.00  0.00    -0.031 A 
ATOM      3  C3  DEN d   1       1.046   0.017   1.241  0.00  0.00     0.027 A 
ATOM      4  C4  DEN d   1      -0.397   2.018   1.993  0.00  0.00     0.027 A 
ATOM      5  C5  DEN d   1      -1.434   2.851   1.637  0.00  0.00    -0.003 A 
ATOM      6  C6  DEN d   1      -2.079   2.740   0.433  0.00  0.00     0.001 A 
ATOM      7  C7  DEN d   1      -1.723   1.746  -0.439  0.00  0.00     0.017 A 
ATOM      8  C8  DEN d   1      -0.673   0.906  -0.089  0.00  0.00    -0.094 A 
ATOM      9  C9  DEN d   1      -0.042   1.027   1.137  0.00  0.00    -0.072 A 
ENDROOT
TORSDOF 0
ENDMDL
