MODEL 1
REMARK minimizedAffinity 0.4680143
REMARK minimizedRMSD -1
REMARK  0 active torsions:
REMARK  status: ('A' for Active; 'I' for Inactive)
ROOT
ATOM      1  C1  DEN d   1       3.031  -0.042   1.927  0.00  0.00     0.130 A 
ATOM      2  C2  DEN d   1       3.430  -1.066   0.966  0.00  0.00    -0.031 A 
ATOM      3  C3  DEN d   1       2.355  -1.193  -0.039  0.00  0.00     0.027 A 
ATOM      4  C4  DEN d   1       0.127   0.096  -0.202  0.00  0.00     0.027 A 
ATOM      5  C5  DEN d   1      -0.660   1.057   0.393  0.00  0.00    -0.003 A 
ATOM      6  C6  DEN d   1      -0.291   1.690   1.550  0.00  0.00     0.001 A 
ATOM      7  C7  DEN d   1       0.919   1.401   2.125  0.00  0.00     0.017 A 
ATOM      8  C8  DEN d   1       1.714   0.428   1.535  0.00  0.00    -0.094 A 
ATOM      9  C9  DEN d   1       1.329  -0.192   0.359  0.00  0.00    -0.072 A 
ENDROOT
TORSDOF 0
ENDMDL
