MODEL 1
REMARK minimizedAffinity -2.39981365
REMARK minimizedRMSD -1
REMARK  0 active torsions:
REMARK  status: ('A' for Active; 'I' for Inactive)
ROOT
ATOM      1  C1  DEN d   1      -1.860   2.586   0.769  0.00  0.00     0.130 A 
ATOM      2  C2  DEN d   1      -1.215   3.156   1.949  0.00  0.00    -0.031 A 
ATOM      3  C3  DEN d   1      -0.097   2.270   2.330  0.00  0.00     0.027 A 
ATOM      4  C4  DEN d   1       0.695   0.084   1.213  0.00  0.00     0.027 A 
ATOM      5  C5  DEN d   1       0.452  -0.805   0.190  0.00  0.00    -0.003 A 
ATOM      6  C6  DEN d   1      -0.590  -0.646  -0.684  0.00  0.00     0.001 A 
ATOM      7  C7  DEN d   1      -1.403   0.452  -0.579  0.00  0.00     0.017 A 
ATOM      8  C8  DEN d   1      -1.169   1.349   0.455  0.00  0.00    -0.094 A 
ATOM      9  C9  DEN d   1      -0.102   1.177   1.320  0.00  0.00    -0.072 A 
ENDROOT
TORSDOF 0
ENDMDL
