MODEL 1
REMARK minimizedAffinity -2.36854196
REMARK minimizedRMSD -1
REMARK  0 active torsions:
REMARK  status: ('A' for Active; 'I' for Inactive)
ROOT
ATOM      1  C1  DEN d   1       0.605  -1.676  -0.470  0.00  0.00     0.130 A 
ATOM      2  C2  DEN d   1       1.966  -1.485   0.025  0.00  0.00    -0.031 A 
ATOM      3  C3  DEN d   1       2.597  -2.814   0.150  0.00  0.00     0.027 A 
ATOM      4  C4  DEN d   1       1.605  -5.137  -0.376  0.00  0.00     0.027 A 
ATOM      5  C5  DEN d   1       0.482  -5.806  -0.810  0.00  0.00    -0.003 A 
ATOM      6  C6  DEN d   1      -0.679  -5.153  -1.127  0.00  0.00     0.001 A 
ATOM      7  C7  DEN d   1      -0.731  -3.786  -1.057  0.00  0.00     0.017 A 
ATOM      8  C8  DEN d   1       0.395  -3.105  -0.613  0.00  0.00    -0.094 A 
ATOM      9  C9  DEN d   1       1.564  -3.782  -0.309  0.00  0.00    -0.072 A 
ENDROOT
TORSDOF 0
ENDMDL
