MODEL 1
REMARK minimizedAffinity -2.47388101
REMARK minimizedRMSD -1
REMARK  0 active torsions:
REMARK  status: ('A' for Active; 'I' for Inactive)
ROOT
ATOM      1  C1  DEN d   1      -0.683   3.068   1.128  0.00  0.00     0.130 A 
ATOM      2  C2  DEN d   1      -0.403   2.327   2.355  0.00  0.00    -0.031 A 
ATOM      3  C3  DEN d   1       0.001   0.957   1.979  0.00  0.00     0.027 A 
ATOM      4  C4  DEN d   1       0.223  -0.082  -0.371  0.00  0.00     0.027 A 
ATOM      5  C5  DEN d   1       0.081   0.154  -1.720  0.00  0.00    -0.003 A 
ATOM      6  C6  DEN d   1      -0.355   1.357  -2.209  0.00  0.00     0.001 A 
ATOM      7  C7  DEN d   1      -0.621   2.385  -1.344  0.00  0.00     0.017 A 
ATOM      8  C8  DEN d   1      -0.487   2.153   0.018  0.00  0.00    -0.094 A 
ATOM      9  C9  DEN d   1      -0.033   0.934   0.492  0.00  0.00    -0.072 A 
ENDROOT
TORSDOF 0
ENDMDL
