MODEL 1
REMARK minimizedAffinity -5.7847724
REMARK minimizedRMSD -1
REMARK  0 active torsions:
REMARK  status: ('A' for Active; 'I' for Inactive)
ROOT
ATOM      1  C1  DEN d   1       1.083   0.411   2.907  0.00  0.00     0.130 A 
ATOM      2  C2  DEN d   1       2.166  -0.318   2.254  0.00  0.00    -0.031 A 
ATOM      3  C3  DEN d   1       2.040  -0.114   0.797  0.00  0.00     0.027 A 
ATOM      4  C4  DEN d   1       0.284   1.256  -0.504  0.00  0.00     0.027 A 
ATOM      5  C5  DEN d   1      -0.841   2.042  -0.383  0.00  0.00    -0.003 A 
ATOM      6  C6  DEN d   1      -1.418   2.310   0.829  0.00  0.00     0.001 A 
ATOM      7  C7  DEN d   1      -0.846   1.824   1.975  0.00  0.00     0.017 A 
ATOM      8  C8  DEN d   1       0.284   1.024   1.861  0.00  0.00    -0.094 A 
ATOM      9  C9  DEN d   1       0.859   0.775   0.627  0.00  0.00    -0.072 A 
ENDROOT
TORSDOF 0
ENDMDL
