MODEL 1
REMARK minimizedAffinity -1.32536268
REMARK minimizedRMSD -1
REMARK  0 active torsions:
REMARK  status: ('A' for Active; 'I' for Inactive)
ROOT
ATOM      1  C1  DEN d   1      -0.729   2.102  -1.475  0.00  0.00     0.130 A 
ATOM      2  C2  DEN d   1      -0.042   0.925  -2.001  0.00  0.00    -0.031 A 
ATOM      3  C3  DEN d   1       0.499   0.163  -0.857  0.00  0.00     0.027 A 
ATOM      4  C4  DEN d   1       0.336   0.686   1.663  0.00  0.00     0.027 A 
ATOM      5  C5  DEN d   1      -0.140   1.582   2.595  0.00  0.00    -0.003 A 
ATOM      6  C6  DEN d   1      -0.810   2.721   2.237  0.00  0.00     0.001 A 
ATOM      7  C7  DEN d   1      -1.063   2.973   0.915  0.00  0.00     0.017 A 
ATOM      8  C8  DEN d   1      -0.580   2.078  -0.031  0.00  0.00    -0.094 A 
ATOM      9  C9  DEN d   1       0.085   0.926   0.351  0.00  0.00    -0.072 A 
ENDROOT
TORSDOF 0
ENDMDL
