MODEL 1
REMARK minimizedAffinity 12.9554138
REMARK minimizedRMSD -1
REMARK  0 active torsions:
REMARK  status: ('A' for Active; 'I' for Inactive)
ROOT
ATOM      1  C   UNL d   1      -3.141  -2.565  -1.933  0.00  0.00     0.172 C 
ATOM      2  N   UNL d   1      -2.400  -2.482  -0.696  0.00  0.00    -0.070 N 
ATOM      3  C1  UNL d   1      -1.228  -3.134  -0.422  0.00  0.00    -0.004 A 
ATOM      4  C2  UNL d   1      -0.844  -2.794   0.857  0.00  0.00    -0.047 A 
ATOM      5  C3  UNL d   1      -1.821  -1.908   1.370  0.00  0.00    -0.047 A 
ATOM      6  C4  UNL d   1      -2.773  -1.732   0.388  0.00  0.00    -0.004 A 
ENDROOT
TORSDOF 0
ENDMDL
