MODEL 1
REMARK minimizedAffinity 12.4763565
REMARK minimizedRMSD -1
REMARK  0 active torsions:
REMARK  status: ('A' for Active; 'I' for Inactive)
ROOT
ATOM      1  C   UNL d   1      -0.715  -1.859   0.751  0.00  0.00     0.172 C 
ATOM      2  N   UNL d   1      -0.062  -0.643   1.176  0.00  0.00    -0.070 N 
ATOM      3  C1  UNL d   1       0.939   0.003   0.502  0.00  0.00    -0.004 A 
ATOM      4  C2  UNL d   1       1.289   1.118   1.233  0.00  0.00    -0.047 A 
ATOM      5  C3  UNL d   1       0.470   1.143   2.386  0.00  0.00    -0.047 A 
ATOM      6  C4  UNL d   1      -0.358   0.041   2.326  0.00  0.00    -0.004 A 
ENDROOT
TORSDOF 0
ENDMDL
