MODEL 1
REMARK minimizedAffinity 2.28843164
REMARK minimizedRMSD -1
REMARK  0 active torsions:
REMARK  status: ('A' for Active; 'I' for Inactive)
ROOT
ATOM      1  C   UNL d   1       3.349   1.383  -2.371  0.00  0.00     0.172 C 
ATOM      2  N   UNL d   1       2.881   1.161  -1.023  0.00  0.00    -0.070 N 
ATOM      3  C1  UNL d   1       3.217   0.100  -0.226  0.00  0.00    -0.004 A 
ATOM      4  C2  UNL d   1       2.566   0.254   0.979  0.00  0.00    -0.047 A 
ATOM      5  C3  UNL d   1       1.812   1.450   0.903  0.00  0.00    -0.047 A 
ATOM      6  C4  UNL d   1       2.025   1.991  -0.347  0.00  0.00    -0.004 A 
ENDROOT
TORSDOF 0
ENDMDL
