MODEL 1
REMARK minimizedAffinity 7.67105246
REMARK minimizedRMSD -1
REMARK  0 active torsions:
REMARK  status: ('A' for Active; 'I' for Inactive)
ROOT
ATOM      1  C   UNL d   1       3.036   1.512  -2.206  0.00  0.00     0.172 C 
ATOM      2  N   UNL d   1       4.174   1.852  -3.028  0.00  0.00    -0.070 N 
ATOM      3  C1  UNL d   1       4.567   3.120  -3.363  0.00  0.00    -0.004 A 
ATOM      4  C2  UNL d   1       5.691   3.019  -4.154  0.00  0.00    -0.047 A 
ATOM      5  C3  UNL d   1       5.983   1.642  -4.300  0.00  0.00    -0.047 A 
ATOM      6  C4  UNL d   1       5.029   0.942  -3.593  0.00  0.00    -0.004 A 
ENDROOT
TORSDOF 0
ENDMDL
