MODEL 1
REMARK minimizedAffinity 10.3171253
REMARK minimizedRMSD -1
REMARK  0 active torsions:
REMARK  status: ('A' for Active; 'I' for Inactive)
ROOT
ATOM      1  C   UNL d   1      -5.998   0.255   6.000  0.00  0.00     0.172 C 
ATOM      2  N   UNL d   1      -5.191   0.746   4.908  0.00  0.00    -0.070 N 
ATOM      3  C1  UNL d   1      -4.165   1.646   5.015  0.00  0.00    -0.004 A 
ATOM      4  C2  UNL d   1      -3.652   1.854   3.753  0.00  0.00    -0.047 A 
ATOM      5  C3  UNL d   1      -4.396   1.051   2.856  0.00  0.00    -0.047 A 
ATOM      6  C4  UNL d   1      -5.342   0.376   3.597  0.00  0.00    -0.004 A 
ENDROOT
TORSDOF 0
ENDMDL
