MODEL 1
REMARK minimizedAffinity 5.75046349
REMARK minimizedRMSD -1
REMARK  0 active torsions:
REMARK  status: ('A' for Active; 'I' for Inactive)
ROOT
ATOM      1  C   UNL d   1      -2.887  -2.986  -2.168  0.00  0.00     0.172 C 
ATOM      2  N   UNL d   1      -2.438  -2.655  -0.836  0.00  0.00    -0.070 N 
ATOM      3  C1  UNL d   1      -1.132  -2.552  -0.436  0.00  0.00    -0.004 A 
ATOM      4  C2  UNL d   1      -1.126  -2.219   0.901  0.00  0.00    -0.047 A 
ATOM      5  C3  UNL d   1      -2.474  -2.120   1.320  0.00  0.00    -0.047 A 
ATOM      6  C4  UNL d   1      -3.265  -2.394   0.225  0.00  0.00    -0.004 A 
ENDROOT
TORSDOF 0
ENDMDL
