MODEL 1
REMARK minimizedAffinity 4.63747501
REMARK minimizedRMSD -1
REMARK  0 active torsions:
REMARK  status: ('A' for Active; 'I' for Inactive)
ROOT
ATOM      1  C   UNL d   1       3.685   1.469  -1.996  0.00  0.00     0.172 C 
ATOM      2  N   UNL d   1       3.001   1.194  -0.754  0.00  0.00    -0.070 N 
ATOM      3  C1  UNL d   1       2.231   2.082  -0.053  0.00  0.00    -0.004 A 
ATOM      4  C2  UNL d   1       1.758   1.437   1.069  0.00  0.00    -0.047 A 
ATOM      5  C3  UNL d   1       2.262   0.115   1.041  0.00  0.00    -0.047 A 
ATOM      6  C4  UNL d   1       3.028  -0.009  -0.098  0.00  0.00    -0.004 A 
ENDROOT
TORSDOF 0
ENDMDL
