MODEL 1
REMARK minimizedAffinity 7.11859226
REMARK minimizedRMSD -1
REMARK  0 active torsions:
REMARK  status: ('A' for Active; 'I' for Inactive)
ROOT
ATOM      1  C   UNL d   1       4.280  -0.424   0.267  0.00  0.00     0.172 C 
ATOM      2  N   UNL d   1       3.138   0.460   0.308  0.00  0.00    -0.070 N 
ATOM      3  C1  UNL d   1       1.845   0.082   0.554  0.00  0.00    -0.004 A 
ATOM      4  C2  UNL d   1       1.059   1.213   0.507  0.00  0.00    -0.047 A 
ATOM      5  C3  UNL d   1       1.909   2.308   0.222  0.00  0.00    -0.047 A 
ATOM      6  C4  UNL d   1       3.191   1.813   0.103  0.00  0.00    -0.004 A 
ENDROOT
TORSDOF 0
ENDMDL
