MODEL 1
REMARK minimizedAffinity 7.42156506
REMARK minimizedRMSD -1
REMARK  0 active torsions:
REMARK  status: ('A' for Active; 'I' for Inactive)
ROOT
ATOM      1  C   UNL d   1       4.587  -0.070   1.762  0.00  0.00     0.172 C 
ATOM      2  N   UNL d   1       3.507   0.522   1.008  0.00  0.00    -0.070 N 
ATOM      3  C1  UNL d   1       2.459   1.228   1.534  0.00  0.00    -0.004 A 
ATOM      4  C2  UNL d   1       1.649   1.622   0.491  0.00  0.00    -0.047 A 
ATOM      5  C3  UNL d   1       2.230   1.135  -0.704  0.00  0.00    -0.047 A 
ATOM      6  C4  UNL d   1       3.380   0.458  -0.355  0.00  0.00    -0.004 A 
ENDROOT
TORSDOF 0
ENDMDL
