MODEL 1
REMARK minimizedAffinity 6.703197
REMARK minimizedRMSD -1
REMARK  0 active torsions:
REMARK  status: ('A' for Active; 'I' for Inactive)
ROOT
ATOM      1  C   UNL d   1       2.448  -0.001   1.129  0.00  0.00     0.172 C 
ATOM      2  N   UNL d   1       3.885  -0.141   1.102  0.00  0.00    -0.070 N 
ATOM      3  C1  UNL d   1       4.642  -0.401  -0.009  0.00  0.00    -0.004 A 
ATOM      4  C2  UNL d   1       5.962  -0.458   0.383  0.00  0.00    -0.047 A 
ATOM      5  C3  UNL d   1       6.000  -0.223   1.778  0.00  0.00    -0.047 A 
ATOM      6  C4  UNL d   1       4.701  -0.030   2.198  0.00  0.00    -0.004 A 
ENDROOT
TORSDOF 0
ENDMDL
