MODEL 1
REMARK minimizedAffinity 11.4357853
REMARK minimizedRMSD -1
REMARK  0 active torsions:
REMARK  status: ('A' for Active; 'I' for Inactive)
ROOT
ATOM      1  C   UNL d   1      -3.474  -3.020  -2.270  0.00  0.00     0.172 C 
ATOM      2  N   UNL d   1      -2.724  -2.837  -1.050  0.00  0.00    -0.070 N 
ATOM      3  C1  UNL d   1      -2.827  -1.766  -0.202  0.00  0.00    -0.004 A 
ATOM      4  C2  UNL d   1      -1.950  -1.969   0.841  0.00  0.00    -0.047 A 
ATOM      5  C3  UNL d   1      -1.297  -3.204   0.613  0.00  0.00    -0.047 A 
ATOM      6  C4  UNL d   1      -1.796  -3.720  -0.564  0.00  0.00    -0.004 A 
ENDROOT
TORSDOF 0
ENDMDL
