MODEL 1
REMARK minimizedAffinity 10.3523474
REMARK minimizedRMSD -1
REMARK  0 active torsions:
REMARK  status: ('A' for Active; 'I' for Inactive)
ROOT
ATOM      1  C   UNL d   1      -2.531  -2.486  -5.214  0.00  0.00     0.172 C 
ATOM      2  N   UNL d   1      -2.774  -3.273  -4.027  0.00  0.00    -0.070 N 
ATOM      3  C1  UNL d   1      -3.628  -2.940  -3.009  0.00  0.00    -0.004 A 
ATOM      4  C2  UNL d   1      -3.576  -3.946  -2.069  0.00  0.00    -0.047 A 
ATOM      5  C3  UNL d   1      -2.659  -4.916  -2.537  0.00  0.00    -0.047 A 
ATOM      6  C4  UNL d   1      -2.177  -4.475  -3.751  0.00  0.00    -0.004 A 
ENDROOT
TORSDOF 0
ENDMDL
