MODEL 1
REMARK minimizedAffinity 7.29882812
REMARK minimizedRMSD -1
REMARK  0 active torsions:
REMARK  status: ('A' for Active; 'I' for Inactive)
ROOT
ATOM      1  C   UNL d   1      -3.800  -5.701   1.992  0.00  0.00     0.172 C 
ATOM      2  N   UNL d   1      -2.780  -4.682   2.073  0.00  0.00    -0.070 N 
ATOM      3  C1  UNL d   1      -1.526  -4.847   2.597  0.00  0.00    -0.004 A 
ATOM      4  C2  UNL d   1      -0.861  -3.646   2.488  0.00  0.00    -0.047 A 
ATOM      5  C3  UNL d   1      -1.746  -2.726   1.877  0.00  0.00    -0.047 A 
ATOM      6  C4  UNL d   1      -2.927  -3.394   1.631  0.00  0.00    -0.004 A 
ENDROOT
TORSDOF 0
ENDMDL
