MODEL 1
REMARK minimizedAffinity 6.60780191
REMARK minimizedRMSD -1
REMARK  0 active torsions:
REMARK  status: ('A' for Active; 'I' for Inactive)
ROOT
ATOM      1  C   UNL d   1      -3.373   3.504   4.401  0.00  0.00     0.172 C 
ATOM      2  N   UNL d   1      -4.351   4.507   4.749  0.00  0.00    -0.070 N 
ATOM      3  C1  UNL d   1      -4.544   5.035   5.997  0.00  0.00    -0.004 A 
ATOM      4  C2  UNL d   1      -5.565   5.958   5.912  0.00  0.00    -0.047 A 
ATOM      5  C3  UNL d   1      -6.000   5.985   4.566  0.00  0.00    -0.047 A 
ATOM      6  C4  UNL d   1      -5.232   5.077   3.867  0.00  0.00    -0.004 A 
ENDROOT
TORSDOF 0
ENDMDL
