MODEL 1
REMARK minimizedAffinity 7.12870455
REMARK minimizedRMSD -1
REMARK  0 active torsions:
REMARK  status: ('A' for Active; 'I' for Inactive)
ROOT
ATOM      1  C   UNL d   1      -3.357   2.744   4.455  0.00  0.00     0.172 C 
ATOM      2  N   UNL d   1      -4.274   3.786   4.850  0.00  0.00    -0.070 N 
ATOM      3  C1  UNL d   1      -4.183   4.540   5.990  0.00  0.00    -0.004 A 
ATOM      4  C2  UNL d   1      -5.243   5.421   5.999  0.00  0.00    -0.047 A 
ATOM      5  C3  UNL d   1      -5.998   5.187   4.826  0.00  0.00    -0.047 A 
ATOM      6  C4  UNL d   1      -5.376   4.170   4.132  0.00  0.00    -0.004 A 
ENDROOT
TORSDOF 0
ENDMDL
