MODEL 1
REMARK minimizedAffinity 3.23711777
REMARK minimizedRMSD -1
REMARK  0 active torsions:
REMARK  status: ('A' for Active; 'I' for Inactive)
ROOT
ATOM      1  C   UNL d   1      -3.404   3.344   4.629  0.00  0.00     0.172 C 
ATOM      2  N   UNL d   1      -4.380   4.390   4.826  0.00  0.00    -0.070 N 
ATOM      3  C1  UNL d   1      -4.611   5.056   6.000  0.00  0.00    -0.004 A 
ATOM      4  C2  UNL d   1      -5.614   5.974   5.774  0.00  0.00    -0.047 A 
ATOM      5  C3  UNL d   1      -6.000   5.855   4.418  0.00  0.00    -0.047 A 
ATOM      6  C4  UNL d   1      -5.220   4.867   3.854  0.00  0.00    -0.004 A 
ENDROOT
TORSDOF 0
ENDMDL
