MODEL 1
REMARK minimizedAffinity 9.68014717
REMARK minimizedRMSD -1
REMARK  0 active torsions:
REMARK  status: ('A' for Active; 'I' for Inactive)
ROOT
ATOM      1  C   UNL d   1       0.455   0.290   2.771  0.00  0.00     0.172 C 
ATOM      2  N   UNL d   1       1.116   0.704   1.556  0.00  0.00    -0.070 N 
ATOM      3  C1  UNL d   1       0.981   1.925   0.950  0.00  0.00    -0.004 A 
ATOM      4  C2  UNL d   1       1.772   1.925  -0.179  0.00  0.00    -0.047 A 
ATOM      5  C3  UNL d   1       2.403   0.661  -0.254  0.00  0.00    -0.047 A 
ATOM      6  C4  UNL d   1       1.980  -0.075   0.832  0.00  0.00    -0.004 A 
ENDROOT
TORSDOF 0
ENDMDL
