MODEL 1
REMARK minimizedAffinity 7.26031685
REMARK minimizedRMSD -1
REMARK  0 active torsions:
REMARK  status: ('A' for Active; 'I' for Inactive)
ROOT
ATOM      1  C   UNL d   1       4.382   1.307  -2.520  0.00  0.00     0.172 C 
ATOM      2  N   UNL d   1       3.689   0.929  -1.310  0.00  0.00    -0.070 N 
ATOM      3  C1  UNL d   1       3.872  -0.237  -0.617  0.00  0.00    -0.004 A 
ATOM      4  C2  UNL d   1       3.029  -0.218   0.473  0.00  0.00    -0.047 A 
ATOM      5  C3  UNL d   1       2.313   1.003   0.432  0.00  0.00    -0.047 A 
ATOM      6  C4  UNL d   1       2.741   1.693  -0.682  0.00  0.00    -0.004 A 
ENDROOT
TORSDOF 0
ENDMDL
