MODEL 1
REMARK minimizedAffinity 6.46529913
REMARK minimizedRMSD -1
REMARK  0 active torsions:
REMARK  status: ('A' for Active; 'I' for Inactive)
ROOT
ATOM      1  C   UNL d   1       5.786   2.524  -4.150  0.00  0.00     0.077 C 
ATOM      2  C1  UNL d   1       5.189   3.742  -4.789  0.00  0.00    -0.074 A 
ATOM      3  C2  UNL d   1       5.988   4.839  -5.130  0.00  0.00    -0.005 A 
ATOM      4  C3  UNL d   1       5.420   5.961  -5.733  0.00  0.00     0.006 A 
ATOM      5  C4  UNL d   1       4.051   5.999  -6.000  0.00  0.00    -0.005 A 
ATOM      6  C5  UNL d   1       3.237   4.911  -5.666  0.00  0.00    -0.074 A 
ATOM      7  C6  UNL d   1       1.765   4.931  -5.955  0.00  0.00     0.077 C 
ATOM      8  C7  UNL d   1       3.816   3.784  -5.067  0.00  0.00    -0.001 A 
ENDROOT
TORSDOF 0
ENDMDL
