MODEL 1
REMARK minimizedAffinity -2.86259103
REMARK minimizedRMSD -1
REMARK  0 active torsions:
REMARK  status: ('A' for Active; 'I' for Inactive)
ROOT
ATOM      1  C   UNL d   1      -4.879   5.998  -4.707  0.00  0.00     0.077 C 
ATOM      2  C1  UNL d   1      -3.435   6.000  -4.303  0.00  0.00    -0.074 A 
ATOM      3  C2  UNL d   1      -3.066   6.000  -2.954  0.00  0.00    -0.005 A 
ATOM      4  C3  UNL d   1      -1.719   5.991  -2.593  0.00  0.00     0.006 A 
ATOM      5  C4  UNL d   1      -0.728   5.983  -3.576  0.00  0.00    -0.005 A 
ATOM      6  C5  UNL d   1      -1.078   5.982  -4.930  0.00  0.00    -0.074 A 
ATOM      7  C6  UNL d   1      -0.026   5.963  -5.999  0.00  0.00     0.077 C 
ATOM      8  C7  UNL d   1      -2.434   5.983  -5.284  0.00  0.00    -0.001 A 
ENDROOT
TORSDOF 0
ENDMDL
