MODEL 1
REMARK minimizedAffinity 3.87047005
REMARK minimizedRMSD -1
REMARK  0 active torsions:
REMARK  status: ('A' for Active; 'I' for Inactive)
ROOT
ATOM      1  C   UNL d   1       1.408   3.621  -0.373  0.00  0.00     0.077 C 
ATOM      2  C1  UNL d   1       1.123   2.157  -0.217  0.00  0.00    -0.074 A 
ATOM      3  C2  UNL d   1       0.532   1.660   0.950  0.00  0.00    -0.005 A 
ATOM      4  C3  UNL d   1       0.264   0.297   1.077  0.00  0.00     0.006 A 
ATOM      5  C4  UNL d   1       0.583  -0.582   0.041  0.00  0.00    -0.005 A 
ATOM      6  C5  UNL d   1       1.173  -0.103  -1.133  0.00  0.00    -0.074 A 
ATOM      7  C6  UNL d   1       1.513  -1.032  -2.261  0.00  0.00     0.077 C 
ATOM      8  C7  UNL d   1       1.433   1.269  -1.257  0.00  0.00    -0.001 A 
ENDROOT
TORSDOF 0
ENDMDL
