MODEL 1
REMARK minimizedAffinity -0.265123487
REMARK minimizedRMSD -1
REMARK  0 active torsions:
REMARK  status: ('A' for Active; 'I' for Inactive)
ROOT
ATOM      1  C   UNL d   1       3.835   5.889  -4.931  0.00  0.00     0.077 C 
ATOM      2  C1  UNL d   1       2.338   5.904  -4.846  0.00  0.00    -0.074 A 
ATOM      3  C2  UNL d   1       1.553   5.997  -6.000  0.00  0.00    -0.005 A 
ATOM      4  C3  UNL d   1       0.162   5.999  -5.906  0.00  0.00     0.006 A 
ATOM      5  C4  UNL d   1      -0.458   5.909  -4.659  0.00  0.00    -0.005 A 
ATOM      6  C5  UNL d   1       0.310   5.815  -3.494  0.00  0.00    -0.074 A 
ATOM      7  C6  UNL d   1      -0.340   5.707  -2.147  0.00  0.00     0.077 C 
ATOM      8  C7  UNL d   1       1.708   5.805  -3.598  0.00  0.00    -0.001 A 
ENDROOT
TORSDOF 0
ENDMDL
