MODEL 1
REMARK minimizedAffinity -3.88330746
REMARK minimizedRMSD -1
REMARK  0 active torsions:
REMARK  status: ('A' for Active; 'I' for Inactive)
ROOT
ATOM      1  C   UNL d   1      -1.263   5.971  -2.268  0.00  0.00     0.077 C 
ATOM      2  C1  UNL d   1      -0.526   5.975  -3.574  0.00  0.00    -0.074 A 
ATOM      3  C2  UNL d   1      -1.217   5.986  -4.790  0.00  0.00    -0.005 A 
ATOM      4  C3  UNL d   1      -0.518   5.999  -5.996  0.00  0.00     0.006 A 
ATOM      5  C4  UNL d   1       0.877   6.000  -6.000  0.00  0.00    -0.005 A 
ATOM      6  C5  UNL d   1       1.586   5.989  -4.794  0.00  0.00    -0.074 A 
ATOM      7  C6  UNL d   1       3.086   6.000  -4.780  0.00  0.00     0.077 C 
ATOM      8  C7  UNL d   1       0.876   5.984  -3.586  0.00  0.00    -0.001 A 
ENDROOT
TORSDOF 0
ENDMDL
