MODEL 1
REMARK minimizedAffinity 2.179564
REMARK minimizedRMSD -1
REMARK  0 active torsions:
REMARK  status: ('A' for Active; 'I' for Inactive)
ROOT
ATOM      1  C   UNL d   1       0.049   5.954  -2.275  0.00  0.00     0.077 C 
ATOM      2  C1  UNL d   1       0.796   5.955  -3.576  0.00  0.00    -0.074 A 
ATOM      3  C2  UNL d   1       0.113   5.955  -4.797  0.00  0.00    -0.005 A 
ATOM      4  C3  UNL d   1       0.821   5.966  -5.998  0.00  0.00     0.006 A 
ATOM      5  C4  UNL d   1       2.217   5.976  -5.992  0.00  0.00    -0.005 A 
ATOM      6  C5  UNL d   1       2.916   5.977  -4.781  0.00  0.00    -0.074 A 
ATOM      7  C6  UNL d   1       4.416   5.998  -4.756  0.00  0.00     0.077 C 
ATOM      8  C7  UNL d   1       2.198   5.973  -3.578  0.00  0.00    -0.001 A 
ENDROOT
TORSDOF 0
ENDMDL
