MODEL 1
REMARK minimizedAffinity -1.22840941
REMARK minimizedRMSD -1
REMARK  0 active torsions:
REMARK  status: ('A' for Active; 'I' for Inactive)
ROOT
ATOM      1  C   UNL d   1      -2.527   5.996  -5.385  0.00  0.00     0.077 C 
ATOM      2  C1  UNL d   1      -1.163   5.999  -4.762  0.00  0.00    -0.074 A 
ATOM      3  C2  UNL d   1      -1.007   5.995  -3.372  0.00  0.00    -0.005 A 
ATOM      4  C3  UNL d   1       0.268   5.987  -2.807  0.00  0.00     0.006 A 
ATOM      5  C4  UNL d   1       1.399   5.984  -3.625  0.00  0.00    -0.005 A 
ATOM      6  C5  UNL d   1       1.263   5.987  -5.017  0.00  0.00    -0.074 A 
ATOM      7  C6  UNL d   1       2.468   5.973  -5.910  0.00  0.00     0.077 C 
ATOM      8  C7  UNL d   1      -0.022   5.987  -5.577  0.00  0.00    -0.001 A 
ENDROOT
TORSDOF 0
ENDMDL
