MODEL 1
REMARK minimizedAffinity -1.61369526
REMARK minimizedRMSD -1
REMARK  0 active torsions:
REMARK  status: ('A' for Active; 'I' for Inactive)
ROOT
ATOM      1  C   UNL d   1       0.313   5.915  -5.999  0.00  0.00     0.077 C 
ATOM      2  C1  UNL d   1      -0.267   5.882  -4.616  0.00  0.00    -0.074 A 
ATOM      3  C2  UNL d   1       0.561   5.802  -3.492  0.00  0.00    -0.005 A 
ATOM      4  C3  UNL d   1       0.009   5.781  -2.212  0.00  0.00     0.006 A 
ATOM      5  C4  UNL d   1      -1.375   5.841  -2.043  0.00  0.00    -0.005 A 
ATOM      6  C5  UNL d   1      -2.219   5.923  -3.155  0.00  0.00    -0.074 A 
ATOM      7  C6  UNL d   1      -3.708   5.998  -2.991  0.00  0.00     0.077 C 
ATOM      8  C7  UNL d   1      -1.656   5.949  -4.438  0.00  0.00    -0.001 A 
ENDROOT
TORSDOF 0
ENDMDL
