MODEL 1
REMARK minimizedAffinity 1.76587439
REMARK minimizedRMSD -1
REMARK  0 active torsions:
REMARK  status: ('A' for Active; 'I' for Inactive)
ROOT
ATOM      1  C   UNL d   1      -0.261  -1.399   0.903  0.00  0.00     0.077 C 
ATOM      2  C1  UNL d   1       0.403  -0.272   0.169  0.00  0.00    -0.074 A 
ATOM      3  C2  UNL d   1       0.566  -0.315  -1.219  0.00  0.00    -0.005 A 
ATOM      4  C3  UNL d   1       1.177   0.745  -1.888  0.00  0.00     0.006 A 
ATOM      5  C4  UNL d   1       1.631   1.857  -1.178  0.00  0.00    -0.005 A 
ATOM      6  C5  UNL d   1       1.475   1.918   0.211  0.00  0.00    -0.074 A 
ATOM      7  C6  UNL d   1       1.948   3.110   0.989  0.00  0.00     0.077 C 
ATOM      8  C7  UNL d   1       0.854   0.852   0.875  0.00  0.00    -0.001 A 
ENDROOT
TORSDOF 0
ENDMDL
