MODEL 1
REMARK minimizedAffinity 6.08244371
REMARK minimizedRMSD -1
REMARK  0 active torsions:
REMARK  status: ('A' for Active; 'I' for Inactive)
ROOT
ATOM      1  C   UNL d   1       1.102   0.113  -1.263  0.00  0.00     0.077 C 
ATOM      2  C1  UNL d   1       0.993   1.032  -0.082  0.00  0.00    -0.074 A 
ATOM      3  C2  UNL d   1       1.508   2.331  -0.132  0.00  0.00    -0.005 A 
ATOM      4  C3  UNL d   1       1.391   3.177   0.971  0.00  0.00     0.006 A 
ATOM      5  C4  UNL d   1       0.759   2.732   2.134  0.00  0.00    -0.005 A 
ATOM      6  C5  UNL d   1       0.238   1.436   2.202  0.00  0.00    -0.074 A 
ATOM      7  C6  UNL d   1      -0.453   0.946   3.439  0.00  0.00     0.077 C 
ATOM      8  C7  UNL d   1       0.353   0.595   1.087  0.00  0.00    -0.001 A 
ENDROOT
TORSDOF 0
ENDMDL
