MODEL 1
REMARK minimizedAffinity 4.12660456
REMARK minimizedRMSD -1
REMARK  0 active torsions:
REMARK  status: ('A' for Active; 'I' for Inactive)
ROOT
ATOM      1  C   UNL d   1       1.510   3.316   0.090  0.00  0.00     0.077 C 
ATOM      2  C1  UNL d   1       0.931   2.044   0.634  0.00  0.00    -0.074 A 
ATOM      3  C2  UNL d   1       0.955   0.864  -0.117  0.00  0.00    -0.005 A 
ATOM      4  C3  UNL d   1       0.422  -0.314   0.406  0.00  0.00     0.006 A 
ATOM      5  C4  UNL d   1      -0.141  -0.324   1.683  0.00  0.00    -0.005 A 
ATOM      6  C5  UNL d   1      -0.174   0.846   2.449  0.00  0.00    -0.074 A 
ATOM      7  C6  UNL d   1      -0.766   0.850   3.827  0.00  0.00     0.077 C 
ATOM      8  C7  UNL d   1       0.371   2.024   1.919  0.00  0.00    -0.001 A 
ENDROOT
TORSDOF 0
ENDMDL
