MODEL 1
REMARK minimizedAffinity 5.01944113
REMARK minimizedRMSD -1
REMARK  0 active torsions:
REMARK  status: ('A' for Active; 'I' for Inactive)
ROOT
ATOM      1  C   UNL d   1       5.030   2.996  -3.746  0.00  0.00     0.077 C 
ATOM      2  C1  UNL d   1       4.307   4.051  -4.529  0.00  0.00    -0.074 A 
ATOM      3  C2  UNL d   1       5.011   5.031  -5.237  0.00  0.00    -0.005 A 
ATOM      4  C3  UNL d   1       4.325   6.000  -5.969  0.00  0.00     0.006 A 
ATOM      5  C4  UNL d   1       2.930   6.000  -6.000  0.00  0.00    -0.005 A 
ATOM      6  C5  UNL d   1       2.209   5.028  -5.299  0.00  0.00    -0.074 A 
ATOM      7  C6  UNL d   1       0.709   5.008  -5.330  0.00  0.00     0.077 C 
ATOM      8  C7  UNL d   1       2.906   4.053  -4.572  0.00  0.00    -0.001 A 
ENDROOT
TORSDOF 0
ENDMDL
