MODEL 1
REMARK minimizedAffinity -2.32644892
REMARK minimizedRMSD -1
REMARK  0 active torsions:
REMARK  status: ('A' for Active; 'I' for Inactive)
ROOT
ATOM      1  C   UNL d   1       0.551   5.984  -4.936  0.00  0.00     0.077 C 
ATOM      2  C1  UNL d   1      -0.603   5.980  -3.978  0.00  0.00    -0.074 A 
ATOM      3  C2  UNL d   1      -0.389   5.985  -2.596  0.00  0.00    -0.005 A 
ATOM      4  C3  UNL d   1      -1.472   5.991  -1.717  0.00  0.00     0.006 A 
ATOM      5  C4  UNL d   1      -2.777   5.992  -2.210  0.00  0.00    -0.005 A 
ATOM      6  C5  UNL d   1      -3.011   5.989  -3.589  0.00  0.00    -0.074 A 
ATOM      7  C6  UNL d   1      -4.407   6.000  -4.136  0.00  0.00     0.077 C 
ATOM      8  C7  UNL d   1      -1.917   5.990  -4.466  0.00  0.00    -0.001 A 
ENDROOT
TORSDOF 0
ENDMDL
