MODEL 1
REMARK minimizedAffinity -1.24366307
REMARK minimizedRMSD -1
REMARK  0 active torsions:
REMARK  status: ('A' for Active; 'I' for Inactive)
ROOT
ATOM      1  C   UNL d   1       0.054   1.457   3.113  0.00  0.00     0.077 C 
ATOM      2  C1  UNL d   1       0.574   1.609   1.714  0.00  0.00    -0.074 A 
ATOM      3  C2  UNL d   1       0.982   2.856   1.230  0.00  0.00    -0.005 A 
ATOM      4  C3  UNL d   1       1.472   2.979  -0.070  0.00  0.00     0.006 A 
ATOM      5  C4  UNL d   1       1.559   1.859  -0.897  0.00  0.00    -0.005 A 
ATOM      6  C5  UNL d   1       1.157   0.604  -0.430  0.00  0.00    -0.074 A 
ATOM      7  C6  UNL d   1       1.254  -0.612  -1.303  0.00  0.00     0.077 C 
ATOM      8  C7  UNL d   1       0.672   0.486   0.880  0.00  0.00    -0.001 A 
ENDROOT
TORSDOF 0
ENDMDL
