MODEL 1
REMARK minimizedAffinity 0.082162261
REMARK minimizedRMSD -1
REMARK  0 active torsions:
REMARK  status: ('A' for Active; 'I' for Inactive)
ROOT
ATOM      1  C   UNL d   1      -0.632   0.990   3.945  0.00  0.00     0.077 C 
ATOM      2  C1  UNL d   1      -0.163   1.022   2.520  0.00  0.00    -0.074 A 
ATOM      3  C2  UNL d   1      -0.030  -0.157   1.781  0.00  0.00    -0.005 A 
ATOM      4  C3  UNL d   1       0.398  -0.111   0.454  0.00  0.00     0.006 A 
ATOM      5  C4  UNL d   1       0.697   1.113  -0.145  0.00  0.00    -0.005 A 
ATOM      6  C5  UNL d   1       0.569   2.303   0.578  0.00  0.00    -0.074 A 
ATOM      7  C6  UNL d   1       0.876   3.628  -0.054  0.00  0.00     0.077 C 
ATOM      8  C7  UNL d   1       0.132   2.249   1.909  0.00  0.00    -0.001 A 
ENDROOT
TORSDOF 0
ENDMDL
