MODEL 1
REMARK minimizedAffinity -1.87165093
REMARK minimizedRMSD -1
REMARK  0 active torsions:
REMARK  status: ('A' for Active; 'I' for Inactive)
ROOT
ATOM      1  C   UNL d   1       0.387   5.281  -4.287  0.00  0.00     0.077 C 
ATOM      2  C1  UNL d   1      -0.991   5.538  -3.753  0.00  0.00    -0.074 A 
ATOM      3  C2  UNL d   1      -2.081   5.681  -4.617  0.00  0.00    -0.005 A 
ATOM      4  C3  UNL d   1      -3.359   5.910  -4.106  0.00  0.00     0.006 A 
ATOM      5  C4  UNL d   1      -3.558   6.000  -2.728  0.00  0.00    -0.005 A 
ATOM      6  C5  UNL d   1      -2.480   5.859  -1.848  0.00  0.00    -0.074 A 
ATOM      7  C6  UNL d   1      -2.678   5.943  -0.364  0.00  0.00     0.077 C 
ATOM      8  C7  UNL d   1      -1.201   5.622  -2.370  0.00  0.00    -0.001 A 
ENDROOT
TORSDOF 0
ENDMDL
