MODEL 1
REMARK minimizedAffinity 9.04681396
REMARK minimizedRMSD -1
REMARK  0 active torsions:
REMARK  status: ('A' for Active; 'I' for Inactive)
ROOT
ATOM      1  C   UNL d   1      -4.550  -2.731  -0.544  0.00  0.00     0.077 C 
ATOM      2  C1  UNL d   1      -3.588  -1.810  -1.234  0.00  0.00    -0.074 A 
ATOM      3  C2  UNL d   1      -2.992  -0.747  -0.548  0.00  0.00    -0.005 A 
ATOM      4  C3  UNL d   1      -2.093   0.095  -1.201  0.00  0.00     0.006 A 
ATOM      5  C4  UNL d   1      -1.781  -0.116  -2.545  0.00  0.00    -0.005 A 
ATOM      6  C5  UNL d   1      -2.367  -1.174  -3.247  0.00  0.00    -0.074 A 
ATOM      7  C6  UNL d   1      -2.036  -1.420  -4.689  0.00  0.00     0.077 C 
ATOM      8  C7  UNL d   1      -3.264  -2.020  -2.582  0.00  0.00    -0.001 A 
ENDROOT
TORSDOF 0
ENDMDL
