MODEL 1
REMARK minimizedAffinity 4.72621679
REMARK minimizedRMSD -1
REMARK  0 active torsions:
REMARK  status: ('A' for Active; 'I' for Inactive)
ROOT
ATOM      1  C   UNL d   1      -0.263  -1.279   1.006  0.00  0.00     0.077 C 
ATOM      2  C1  UNL d   1       0.285   0.096   0.763  0.00  0.00    -0.074 A 
ATOM      3  C2  UNL d   1       0.565   0.957   1.829  0.00  0.00    -0.005 A 
ATOM      4  C3  UNL d   1       1.084   2.229   1.588  0.00  0.00     0.006 A 
ATOM      5  C4  UNL d   1       1.327   2.652   0.281  0.00  0.00    -0.005 A 
ATOM      6  C5  UNL d   1       1.054   1.805  -0.797  0.00  0.00    -0.074 A 
ATOM      7  C6  UNL d   1       1.320   2.240  -2.208  0.00  0.00     0.077 C 
ATOM      8  C7  UNL d   1       0.540   0.525  -0.547  0.00  0.00    -0.001 A 
ENDROOT
TORSDOF 0
ENDMDL
