MODEL 1
REMARK minimizedAffinity -2.13146377
REMARK minimizedRMSD -1
REMARK  1 active torsions:
REMARK  status: ('A' for Active; 'I' for Inactive)
REMARK    1  A    between atoms: C1_2  and  C2_3 
ROOT
ATOM      1  C2  UNL d   1      -0.537  -0.743  -4.929  0.00  0.00    -0.077 A 
ATOM      2  C3  UNL d   1      -0.452  -1.448  -3.720  0.00  0.00     0.002 A 
ATOM      3  C4  UNL d   1       0.426  -1.030  -2.718  0.00  0.00     0.002 A 
ATOM      4  C5  UNL d   1       1.222   0.096  -2.914  0.00  0.00    -0.004 A 
ATOM      5  C6  UNL d   1       1.147   0.803  -4.113  0.00  0.00     0.002 A 
ATOM      6  C7  UNL d   1       0.271   0.386  -5.116  0.00  0.00     0.002 A 
ENDROOT
BRANCH   1   7
ATOM      7  C1  UNL d   1      -1.519  -1.164  -5.991  0.00  0.00     0.055 C 
ATOM      8  C   UNL d   1      -1.920  -2.623  -5.828  0.00  0.00     0.019 C 
ENDBRANCH   1   7
TORSDOF 1
ENDMDL
