MODEL 1
REMARK minimizedAffinity -5.14447641
REMARK minimizedRMSD -1
REMARK  1 active torsions:
REMARK  status: ('A' for Active; 'I' for Inactive)
REMARK    1  A    between atoms: C1_2  and  C2_3 
ROOT
ATOM      1  C2  UNL d   1      -0.364   0.078  -0.123  0.00  0.00    -0.077 A 
ATOM      2  C3  UNL d   1       0.683   0.600   0.648  0.00  0.00     0.002 A 
ATOM      3  C4  UNL d   1       0.437   1.100   1.928  0.00  0.00     0.002 A 
ATOM      4  C5  UNL d   1      -0.855   1.078   2.449  0.00  0.00    -0.004 A 
ATOM      5  C6  UNL d   1      -1.904   0.563   1.689  0.00  0.00     0.002 A 
ATOM      6  C7  UNL d   1      -1.660   0.064   0.409  0.00  0.00     0.002 A 
ENDROOT
BRANCH   1   7
ATOM      7  C1  UNL d   1      -0.092  -0.507  -1.485  0.00  0.00     0.055 C 
ATOM      8  C   UNL d   1       0.561   0.514  -2.405  0.00  0.00     0.019 C 
ENDBRANCH   1   7
TORSDOF 1
ENDMDL
