MODEL 1
REMARK minimizedAffinity -4.83621645
REMARK minimizedRMSD -1
REMARK  1 active torsions:
REMARK  status: ('A' for Active; 'I' for Inactive)
REMARK    1  A    between atoms: C1_2  and  C2_3 
ROOT
ATOM      1  C2  UNL d   1       0.718  -0.581  -0.707  0.00  0.00    -0.077 A 
ATOM      2  C3  UNL d   1      -0.091   0.239   0.092  0.00  0.00     0.002 A 
ATOM      3  C4  UNL d   1       0.269   0.516   1.412  0.00  0.00     0.002 A 
ATOM      4  C5  UNL d   1       1.440  -0.019   1.944  0.00  0.00    -0.004 A 
ATOM      5  C6  UNL d   1       2.251  -0.838   1.158  0.00  0.00     0.002 A 
ATOM      6  C7  UNL d   1       1.891  -1.117  -0.161  0.00  0.00     0.002 A 
ENDROOT
BRANCH   1   7
ATOM      7  C1  UNL d   1       0.357  -0.841  -2.146  0.00  0.00     0.055 C 
ATOM      8  C   UNL d   1       1.252  -0.054  -3.092  0.00  0.00     0.019 C 
ENDBRANCH   1   7
TORSDOF 1
ENDMDL
