MODEL 1
REMARK minimizedAffinity -5.05861855
REMARK minimizedRMSD -1
REMARK  1 active torsions:
REMARK  status: ('A' for Active; 'I' for Inactive)
REMARK    1  A    between atoms: C1_2  and  C2_3 
ROOT
ATOM      1  C2  UNL d   1      -0.286   0.405   0.981  0.00  0.00    -0.077 A 
ATOM      2  C3  UNL d   1       0.969   0.288   1.596  0.00  0.00     0.002 A 
ATOM      3  C4  UNL d   1       1.079   0.326   2.987  0.00  0.00     0.002 A 
ATOM      4  C5  UNL d   1      -0.060   0.475   3.775  0.00  0.00    -0.004 A 
ATOM      5  C6  UNL d   1      -1.312   0.593   3.172  0.00  0.00     0.002 A 
ATOM      6  C7  UNL d   1      -1.425   0.557   1.782  0.00  0.00     0.002 A 
ENDROOT
BRANCH   1   7
ATOM      7  C1  UNL d   1      -0.413   0.316  -0.518  0.00  0.00     0.055 C 
ATOM      8  C   UNL d   1       0.423  -0.826  -1.077  0.00  0.00     0.019 C 
ENDBRANCH   1   7
TORSDOF 1
ENDMDL
