MODEL 1
REMARK minimizedAffinity -5.03271151
REMARK minimizedRMSD -1
REMARK  1 active torsions:
REMARK  status: ('A' for Active; 'I' for Inactive)
REMARK    1  A    between atoms: C1_2  and  C2_3 
ROOT
ATOM      1  C2  UNL d   1      -0.473   0.211   1.125  0.00  0.00    -0.077 A 
ATOM      2  C3  UNL d   1      -1.122  -0.159  -0.061  0.00  0.00     0.002 A 
ATOM      3  C4  UNL d   1      -0.433  -0.856  -1.056  0.00  0.00     0.002 A 
ATOM      4  C5  UNL d   1       0.907  -1.191  -0.873  0.00  0.00    -0.004 A 
ATOM      5  C6  UNL d   1       1.562  -0.825   0.302  0.00  0.00     0.002 A 
ATOM      6  C7  UNL d   1       0.875  -0.128   1.297  0.00  0.00     0.002 A 
ENDROOT
BRANCH   1   7
ATOM      7  C1  UNL d   1      -1.228   0.920   2.219  0.00  0.00     0.055 C 
ATOM      8  C   UNL d   1      -0.327   1.881   2.980  0.00  0.00     0.019 C 
ENDBRANCH   1   7
TORSDOF 1
ENDMDL
