MODEL 1
REMARK minimizedAffinity -5.97918129
REMARK minimizedRMSD -1
REMARK  1 active torsions:
REMARK  status: ('A' for Active; 'I' for Inactive)
REMARK    1  A    between atoms: C1_2  and  C2_3 
ROOT
ATOM      1  C2  UNL d   1      -0.383   0.061   0.280  0.00  0.00    -0.077 A 
ATOM      2  C3  UNL d   1       0.601   0.592   1.125  0.00  0.00     0.002 A 
ATOM      3  C4  UNL d   1       0.241   1.253   2.301  0.00  0.00     0.002 A 
ATOM      4  C5  UNL d   1      -1.103   1.386   2.643  0.00  0.00    -0.004 A 
ATOM      5  C6  UNL d   1      -2.090   0.863   1.808  0.00  0.00     0.002 A 
ATOM      6  C7  UNL d   1      -1.731   0.203   0.632  0.00  0.00     0.002 A 
ENDROOT
BRANCH   1   7
ATOM      7  C1  UNL d   1       0.006  -0.696  -0.963  0.00  0.00     0.055 C 
ATOM      8  C   UNL d   1       0.644   0.223  -1.994  0.00  0.00     0.019 C 
ENDBRANCH   1   7
TORSDOF 1
ENDMDL
