MODEL 1
REMARK minimizedAffinity -4.9227109
REMARK minimizedRMSD -1
REMARK  1 active torsions:
REMARK  status: ('A' for Active; 'I' for Inactive)
REMARK    1  A    between atoms: C1_2  and  C2_3 
ROOT
ATOM      1  C2  UNL d   1      -0.354   0.333   1.292  0.00  0.00    -0.077 A 
ATOM      2  C3  UNL d   1       0.971  -0.080   1.095  0.00  0.00     0.002 A 
ATOM      3  C4  UNL d   1       1.309  -0.866  -0.009  0.00  0.00     0.002 A 
ATOM      4  C5  UNL d   1       0.329  -1.240  -0.926  0.00  0.00    -0.004 A 
ATOM      5  C6  UNL d   1      -0.992  -0.836  -0.738  0.00  0.00     0.002 A 
ATOM      6  C7  UNL d   1      -1.332  -0.052   0.366  0.00  0.00     0.002 A 
ENDROOT
BRANCH   1   7
ATOM      7  C1  UNL d   1      -0.712   1.221   2.455  0.00  0.00     0.055 C 
ATOM      8  C   UNL d   1      -0.428   0.534   3.783  0.00  0.00     0.019 C 
ENDBRANCH   1   7
TORSDOF 1
ENDMDL
