MODEL 1
REMARK minimizedAffinity -2.4638021
REMARK minimizedRMSD -1
REMARK  1 active torsions:
REMARK  status: ('A' for Active; 'I' for Inactive)
REMARK    1  A    between atoms: C1_2  and  C2_3 
ROOT
ATOM      1  C2  UNL d   1       0.680  -0.326   0.668  0.00  0.00    -0.077 A 
ATOM      2  C3  UNL d   1       0.117   0.295   1.792  0.00  0.00     0.002 A 
ATOM      3  C4  UNL d   1      -1.251   0.569   1.837  0.00  0.00     0.002 A 
ATOM      4  C5  UNL d   1      -2.068   0.221   0.763  0.00  0.00    -0.004 A 
ATOM      5  C6  UNL d   1      -1.518  -0.396  -0.360  0.00  0.00     0.002 A 
ATOM      6  C7  UNL d   1      -0.151  -0.669  -0.407  0.00  0.00     0.002 A 
ENDROOT
BRANCH   1   7
ATOM      7  C1  UNL d   1       2.147  -0.666   0.638  0.00  0.00     0.055 C 
ATOM      8  C   UNL d   1       2.805  -0.400   1.984  0.00  0.00     0.019 C 
ENDBRANCH   1   7
TORSDOF 1
ENDMDL
