MODEL 1
REMARK minimizedAffinity 15.4964857
REMARK minimizedRMSD -1
REMARK  0 active torsions:
REMARK  status: ('A' for Active; 'I' for Inactive)
ROOT
ATOM      1  C   UNL d   1       5.012   4.107   2.262  0.00  0.00     0.124 A 
ATOM      2  C1  UNL d   1       3.988   4.679   1.521  0.00  0.00     0.062 A 
ATOM      3  C2  UNL d   1       2.962   3.886   1.016  0.00  0.00     0.162 A 
ATOM      4  C3  UNL d   1       2.954   2.511   1.251  0.00  0.00    -0.034 A 
ATOM      5  C4  UNL d   1       3.988   1.943   1.997  0.00  0.00     0.162 A 
ATOM      6  C5  UNL d   1       5.011   2.740   2.500  0.00  0.00     0.062 A 
ATOM      7  F   UNL d   1       6.000   2.185   3.216  0.00  0.00    -0.097 F 
ATOM      8  F1  UNL d   1       4.011   0.624   2.242  0.00  0.00    -0.096 F 
ATOM      9  I   UNL d   1       1.421   1.322   0.498  0.00  0.00    -0.060 I 
ATOM     10  F2  UNL d   1       1.985   4.466   0.303  0.00  0.00    -0.096 F 
ATOM     11  F3  UNL d   1       3.987   6.000   1.289  0.00  0.00    -0.097 F 
ATOM     12  F4  UNL d   1       5.999   4.872   2.746  0.00  0.00    -0.092 F 
ENDROOT
TORSDOF 0
ENDMDL
