MODEL 1
REMARK minimizedAffinity 20.8753185
REMARK minimizedRMSD -1
REMARK  0 active torsions:
REMARK  status: ('A' for Active; 'I' for Inactive)
ROOT
ATOM      1  C   UNL d   1       1.720  -3.382   0.781  0.00  0.00     0.124 A 
ATOM      2  C1  UNL d   1       0.738  -4.330   1.035  0.00  0.00     0.062 A 
ATOM      3  C2  UNL d   1       0.200  -5.078  -0.008  0.00  0.00     0.162 A 
ATOM      4  C3  UNL d   1       0.643  -4.882  -1.316  0.00  0.00    -0.034 A 
ATOM      5  C4  UNL d   1       1.630  -3.926  -1.564  0.00  0.00     0.162 A 
ATOM      6  C5  UNL d   1       2.164  -3.181  -0.518  0.00  0.00     0.062 A 
ATOM      7  F   UNL d   1       3.112  -2.265  -0.766  0.00  0.00    -0.097 F 
ATOM      8  F1  UNL d   1       2.078  -3.712  -2.810  0.00  0.00    -0.096 F 
ATOM      9  I   UNL d   1      -0.159  -5.999  -2.879  0.00  0.00    -0.060 I 
ATOM     10  F2  UNL d   1      -0.747  -5.988   0.267  0.00  0.00    -0.096 F 
ATOM     11  F3  UNL d   1       0.306  -4.526   2.289  0.00  0.00    -0.097 F 
ATOM     12  F4  UNL d   1       2.235  -2.663   1.786  0.00  0.00    -0.092 F 
ENDROOT
TORSDOF 0
ENDMDL
