MODEL 1
REMARK minimizedAffinity 25.323225
REMARK minimizedRMSD -1
REMARK  0 active torsions:
REMARK  status: ('A' for Active; 'I' for Inactive)
ROOT
ATOM      1  C   UNL d   1       2.239   1.238   0.235  0.00  0.00     0.124 A 
ATOM      2  C1  UNL d   1       1.825   2.048   1.284  0.00  0.00     0.062 A 
ATOM      3  C2  UNL d   1       2.529   3.208   1.592  0.00  0.00     0.162 A 
ATOM      4  C3  UNL d   1       3.654   3.567   0.850  0.00  0.00    -0.034 A 
ATOM      5  C4  UNL d   1       4.065   2.748  -0.203  0.00  0.00     0.162 A 
ATOM      6  C5  UNL d   1       3.358   1.589  -0.507  0.00  0.00     0.062 A 
ATOM      7  F   UNL d   1       3.759   0.808  -1.521  0.00  0.00    -0.097 F 
ATOM      8  F1  UNL d   1       5.142   3.063  -0.937  0.00  0.00    -0.096 F 
ATOM      9  I   UNL d   1       4.709   5.302   1.308  0.00  0.00    -0.060 I 
ATOM     10  F2  UNL d   1       2.106   3.972   2.611  0.00  0.00    -0.096 F 
ATOM     11  F3  UNL d   1       0.745   1.711   2.003  0.00  0.00    -0.097 F 
ATOM     12  F4  UNL d   1       1.560   0.122  -0.059  0.00  0.00    -0.092 F 
ENDROOT
TORSDOF 0
ENDMDL
