MODEL 1
REMARK minimizedAffinity 26.7848396
REMARK minimizedRMSD -1
REMARK  0 active torsions:
REMARK  status: ('A' for Active; 'I' for Inactive)
ROOT
ATOM      1  C   UNL d   1       1.475   1.066  -4.365  0.00  0.00     0.124 A 
ATOM      2  C1  UNL d   1       2.329   0.347  -3.539  0.00  0.00     0.062 A 
ATOM      3  C2  UNL d   1       2.192   0.423  -2.156  0.00  0.00     0.162 A 
ATOM      4  C3  UNL d   1       1.198   1.220  -1.590  0.00  0.00    -0.034 A 
ATOM      5  C4  UNL d   1       0.344   1.941  -2.427  0.00  0.00     0.162 A 
ATOM      6  C5  UNL d   1       0.484   1.861  -3.808  0.00  0.00     0.062 A 
ATOM      7  F   UNL d   1      -0.341   2.556  -4.605  0.00  0.00    -0.097 F 
ATOM      8  F1  UNL d   1      -0.623   2.716  -1.915  0.00  0.00    -0.096 F 
ATOM      9  I   UNL d   1       0.991   1.336   0.478  0.00  0.00    -0.060 I 
ATOM     10  F2  UNL d   1       3.031  -0.282  -1.382  0.00  0.00    -0.096 F 
ATOM     11  F3  UNL d   1       3.288  -0.422  -4.075  0.00  0.00    -0.097 F 
ATOM     12  F4  UNL d   1       1.609   0.992  -5.696  0.00  0.00    -0.092 F 
ENDROOT
TORSDOF 0
ENDMDL
