MODEL 1
REMARK minimizedAffinity 26.2892723
REMARK minimizedRMSD -1
REMARK  0 active torsions:
REMARK  status: ('A' for Active; 'I' for Inactive)
ROOT
ATOM      1  C   UNL d   1       1.230   1.928   1.931  0.00  0.00     0.124 A 
ATOM      2  C1  UNL d   1       2.327   1.712   1.109  0.00  0.00     0.062 A 
ATOM      3  C2  UNL d   1       3.321   2.680   0.999  0.00  0.00     0.162 A 
ATOM      4  C3  UNL d   1       3.223   3.873   1.715  0.00  0.00    -0.034 A 
ATOM      5  C4  UNL d   1       2.117   4.084   2.539  0.00  0.00     0.162 A 
ATOM      6  C5  UNL d   1       1.126   3.113   2.645  0.00  0.00     0.062 A 
ATOM      7  F   UNL d   1       0.067   3.324   3.440  0.00  0.00    -0.097 F 
ATOM      8  F1  UNL d   1       1.991   5.220   3.241  0.00  0.00    -0.096 F 
ATOM      9  I   UNL d   1       4.708   5.323   1.553  0.00  0.00    -0.060 I 
ATOM     10  F2  UNL d   1       4.370   2.444   0.197  0.00  0.00    -0.096 F 
ATOM     11  F3  UNL d   1       2.430   0.568   0.418  0.00  0.00    -0.097 F 
ATOM     12  F4  UNL d   1       0.275   0.995   2.035  0.00  0.00    -0.092 F 
ENDROOT
TORSDOF 0
ENDMDL
