MODEL 1
REMARK minimizedAffinity 25.5494194
REMARK minimizedRMSD -1
REMARK  0 active torsions:
REMARK  status: ('A' for Active; 'I' for Inactive)
ROOT
ATOM      1  C   UNL d   1      -4.064   3.078  -5.998  0.00  0.00     0.124 A 
ATOM      2  C1  UNL d   1      -3.747   1.726  -5.997  0.00  0.00     0.062 A 
ATOM      3  C2  UNL d   1      -2.416   1.320  -5.997  0.00  0.00     0.162 A 
ATOM      4  C3  UNL d   1      -1.391   2.266  -5.996  0.00  0.00    -0.034 A 
ATOM      5  C4  UNL d   1      -1.718   3.623  -5.998  0.00  0.00     0.162 A 
ATOM      6  C5  UNL d   1      -3.050   4.025  -5.999  0.00  0.00     0.062 A 
ATOM      7  F   UNL d   1      -3.354   5.330  -6.000  0.00  0.00    -0.097 F 
ATOM      8  F1  UNL d   1      -0.758   4.560  -5.997  0.00  0.00    -0.096 F 
ATOM      9  I   UNL d   1       0.601   1.662  -5.995  0.00  0.00    -0.060 I 
ATOM     10  F2  UNL d   1      -2.139   0.007  -5.996  0.00  0.00    -0.096 F 
ATOM     11  F3  UNL d   1      -4.725   0.809  -5.998  0.00  0.00    -0.097 F 
ATOM     12  F4  UNL d   1      -5.346   3.466  -6.000  0.00  0.00    -0.092 F 
ENDROOT
TORSDOF 0
ENDMDL
