MODEL 1
REMARK minimizedAffinity 10.2307091
REMARK minimizedRMSD -1
REMARK  0 active torsions:
REMARK  status: ('A' for Active; 'I' for Inactive)
ROOT
ATOM      1  C   UNL d   1      -2.393   2.083  -5.964  0.00  0.00     0.124 A 
ATOM      2  C1  UNL d   1      -3.747   1.773  -5.953  0.00  0.00     0.062 A 
ATOM      3  C2  UNL d   1      -4.697   2.790  -5.957  0.00  0.00     0.162 A 
ATOM      4  C3  UNL d   1      -4.298   4.127  -5.973  0.00  0.00    -0.034 A 
ATOM      5  C4  UNL d   1      -2.935   4.430  -5.984  0.00  0.00     0.162 A 
ATOM      6  C5  UNL d   1      -1.989   3.410  -5.980  0.00  0.00     0.062 A 
ATOM      7  F   UNL d   1      -0.682   3.711  -5.991  0.00  0.00    -0.097 F 
ATOM      8  F1  UNL d   1      -2.517   5.704  -6.000  0.00  0.00    -0.096 F 
ATOM      9  I   UNL d   1      -5.716   5.650  -5.979  0.00  0.00    -0.060 I 
ATOM     10  F2  UNL d   1      -5.998   2.462  -5.945  0.00  0.00    -0.096 F 
ATOM     11  F3  UNL d   1      -4.140   0.492  -5.937  0.00  0.00    -0.097 F 
ATOM     12  F4  UNL d   1      -1.481   1.102  -5.959  0.00  0.00    -0.092 F 
ENDROOT
TORSDOF 0
ENDMDL
