MODEL 1
REMARK minimizedAffinity 25.9257278
REMARK minimizedRMSD -1
REMARK  0 active torsions:
REMARK  status: ('A' for Active; 'I' for Inactive)
ROOT
ATOM      1  C   UNL d   1       0.091   2.081  -3.781  0.00  0.00     0.124 A 
ATOM      2  C1  UNL d   1       0.706   1.246  -4.703  0.00  0.00     0.062 A 
ATOM      3  C2  UNL d   1       1.671   0.334  -4.287  0.00  0.00     0.162 A 
ATOM      4  C3  UNL d   1       2.026   0.251  -2.940  0.00  0.00    -0.034 A 
ATOM      5  C4  UNL d   1       1.404   1.095  -2.019  0.00  0.00     0.162 A 
ATOM      6  C5  UNL d   1       0.440   2.005  -2.440  0.00  0.00     0.062 A 
ATOM      7  F   UNL d   1      -0.153   2.811  -1.547  0.00  0.00    -0.097 F 
ATOM      8  F1  UNL d   1       1.722   1.041  -0.717  0.00  0.00    -0.096 F 
ATOM      9  I   UNL d   1       3.469  -1.112  -2.314  0.00  0.00    -0.060 I 
ATOM     10  F2  UNL d   1       2.249  -0.461  -5.200  0.00  0.00    -0.096 F 
ATOM     11  F3  UNL d   1       0.370   1.318  -5.999  0.00  0.00    -0.097 F 
ATOM     12  F4  UNL d   1      -0.837   2.959  -4.184  0.00  0.00    -0.092 F 
ENDROOT
TORSDOF 0
ENDMDL
