MODEL 1
REMARK minimizedAffinity 6.47582197
REMARK minimizedRMSD -1
REMARK  0 active torsions:
REMARK  status: ('A' for Active; 'I' for Inactive)
ROOT
ATOM      1  C   UNL d   1       3.008   2.974   0.371  0.00  0.00     0.124 A 
ATOM      2  C1  UNL d   1       3.748   4.148   0.347  0.00  0.00     0.062 A 
ATOM      3  C2  UNL d   1       3.956   4.868   1.519  0.00  0.00     0.162 A 
ATOM      4  C3  UNL d   1       3.423   4.417   2.727  0.00  0.00    -0.034 A 
ATOM      5  C4  UNL d   1       2.678   3.236   2.743  0.00  0.00     0.162 A 
ATOM      6  C5  UNL d   1       2.474   2.519   1.568  0.00  0.00     0.062 A 
ATOM      7  F   UNL d   1       1.758   1.385   1.593  0.00  0.00    -0.097 F 
ATOM      8  F1  UNL d   1       2.151   2.773   3.886  0.00  0.00    -0.096 F 
ATOM      9  I   UNL d   1       3.731   5.491   4.482  0.00  0.00    -0.060 I 
ATOM     10  F2  UNL d   1       4.675   5.999   1.467  0.00  0.00    -0.096 F 
ATOM     11  F3  UNL d   1       4.264   4.590  -0.809  0.00  0.00    -0.097 F 
ATOM     12  F4  UNL d   1       2.809   2.283  -0.759  0.00  0.00    -0.092 F 
ENDROOT
TORSDOF 0
ENDMDL
