MODEL 1
REMARK minimizedAffinity 7.73381567
REMARK minimizedRMSD -1
REMARK  0 active torsions:
REMARK  status: ('A' for Active; 'I' for Inactive)
ROOT
ATOM      1  C   UNL d   1      -2.294   2.324  -5.999  0.00  0.00     0.124 A 
ATOM      2  C1  UNL d   1      -3.645   2.005  -5.999  0.00  0.00     0.062 A 
ATOM      3  C2  UNL d   1      -4.602   3.016  -5.999  0.00  0.00     0.162 A 
ATOM      4  C3  UNL d   1      -4.213   4.355  -5.999  0.00  0.00    -0.034 A 
ATOM      5  C4  UNL d   1      -2.852   4.668  -5.998  0.00  0.00     0.162 A 
ATOM      6  C5  UNL d   1      -1.899   3.654  -5.998  0.00  0.00     0.062 A 
ATOM      7  F   UNL d   1      -0.594   3.964  -5.998  0.00  0.00    -0.097 F 
ATOM      8  F1  UNL d   1      -2.442   5.945  -5.998  0.00  0.00    -0.096 F 
ATOM      9  I   UNL d   1      -5.641   5.868  -5.997  0.00  0.00    -0.060 I 
ATOM     10  F2  UNL d   1      -5.901   2.679  -5.999  0.00  0.00    -0.096 F 
ATOM     11  F3  UNL d   1      -4.029   0.721  -5.999  0.00  0.00    -0.097 F 
ATOM     12  F4  UNL d   1      -1.375   1.350  -5.999  0.00  0.00    -0.092 F 
ENDROOT
TORSDOF 0
ENDMDL
