MODEL 1
REMARK minimizedAffinity 7.74399662
REMARK minimizedRMSD -1
REMARK  0 active torsions:
REMARK  status: ('A' for Active; 'I' for Inactive)
ROOT
ATOM      1  C   UNL d   1      -4.255   2.973  -5.964  0.00  0.00     0.124 A 
ATOM      2  C1  UNL d   1      -3.899   4.314  -5.958  0.00  0.00     0.062 A 
ATOM      3  C2  UNL d   1      -2.557   4.682  -5.966  0.00  0.00     0.162 A 
ATOM      4  C3  UNL d   1      -1.559   3.707  -5.981  0.00  0.00    -0.034 A 
ATOM      5  C4  UNL d   1      -1.925   2.360  -5.985  0.00  0.00     0.162 A 
ATOM      6  C5  UNL d   1      -3.268   1.997  -5.978  0.00  0.00     0.062 A 
ATOM      7  F   UNL d   1      -3.609   0.700  -5.983  0.00  0.00    -0.097 F 
ATOM      8  F1  UNL d   1      -0.992   1.397  -6.000  0.00  0.00    -0.096 F 
ATOM      9  I   UNL d   1       0.449   4.254  -5.992  0.00  0.00    -0.060 I 
ATOM     10  F2  UNL d   1      -2.242   5.986  -5.960  0.00  0.00    -0.096 F 
ATOM     11  F3  UNL d   1      -4.850   5.259  -5.944  0.00  0.00    -0.097 F 
ATOM     12  F4  UNL d   1      -5.547   2.621  -5.956  0.00  0.00    -0.092 F 
ENDROOT
TORSDOF 0
ENDMDL
