MODEL 1
REMARK minimizedAffinity 12.0075674
REMARK minimizedRMSD -1
REMARK  0 active torsions:
REMARK  status: ('A' for Active; 'I' for Inactive)
ROOT
ATOM      1  C   UNL d   1      -0.915   2.392  -5.552  0.00  0.00     0.124 A 
ATOM      2  C1  UNL d   1      -0.509   3.713  -5.684  0.00  0.00     0.062 A 
ATOM      3  C2  UNL d   1      -1.455   4.727  -5.807  0.00  0.00     0.162 A 
ATOM      4  C3  UNL d   1      -2.816   4.424  -5.800  0.00  0.00    -0.034 A 
ATOM      5  C4  UNL d   1      -3.217   3.093  -5.668  0.00  0.00     0.162 A 
ATOM      6  C5  UNL d   1      -2.268   2.084  -5.545  0.00  0.00     0.062 A 
ATOM      7  F   UNL d   1      -2.662   0.808  -5.418  0.00  0.00    -0.097 F 
ATOM      8  F1  UNL d   1      -4.518   2.767  -5.657  0.00  0.00    -0.096 F 
ATOM      9  I   UNL d   1      -4.233   5.937  -5.985  0.00  0.00    -0.060 I 
ATOM     10  F2  UNL d   1      -1.034   5.995  -5.933  0.00  0.00    -0.096 F 
ATOM     11  F3  UNL d   1       0.797   4.014  -5.692  0.00  0.00    -0.097 F 
ATOM     12  F4  UNL d   1      -0.003   1.419  -5.434  0.00  0.00    -0.092 F 
ENDROOT
TORSDOF 0
ENDMDL
