MODEL 1
REMARK minimizedAffinity 5.78912973
REMARK minimizedRMSD -1
REMARK  0 active torsions:
REMARK  status: ('A' for Active; 'I' for Inactive)
ROOT
ATOM      1  C   UNL d   1       1.705   1.981   0.397  0.00  0.00     0.124 A 
ATOM      2  C1  UNL d   1       2.664   1.069  -0.022  0.00  0.00     0.062 A 
ATOM      3  C2  UNL d   1       2.825   0.796  -1.378  0.00  0.00     0.162 A 
ATOM      4  C3  UNL d   1       2.026   1.438  -2.324  0.00  0.00    -0.034 A 
ATOM      5  C4  UNL d   1       1.064   2.353  -1.895  0.00  0.00     0.162 A 
ATOM      6  C5  UNL d   1       0.906   2.622  -0.539  0.00  0.00     0.062 A 
ATOM      7  F   UNL d   1      -0.020   3.503  -0.135  0.00  0.00    -0.097 F 
ATOM      8  F1  UNL d   1       0.279   2.988  -2.778  0.00  0.00    -0.096 F 
ATOM      9  I   UNL d   1       2.264   1.033  -4.352  0.00  0.00    -0.060 I 
ATOM     10  F2  UNL d   1       3.759  -0.090  -1.754  0.00  0.00    -0.096 F 
ATOM     11  F3  UNL d   1       3.436   0.447   0.880  0.00  0.00    -0.097 F 
ATOM     12  F4  UNL d   1       1.552   2.240   1.702  0.00  0.00    -0.092 F 
ENDROOT
TORSDOF 0
ENDMDL
