MODEL 1
REMARK minimizedAffinity 0.628038824
REMARK minimizedRMSD -1
REMARK  0 active torsions:
REMARK  status: ('A' for Active; 'I' for Inactive)
ROOT
ATOM      1  C   UNL d   1      -2.923   3.652  -5.782  0.00  0.00     0.124 A 
ATOM      2  C1  UNL d   1      -2.165   4.809  -5.893  0.00  0.00     0.062 A 
ATOM      3  C2  UNL d   1      -0.775   4.738  -5.892  0.00  0.00     0.162 A 
ATOM      4  C3  UNL d   1      -0.133   3.505  -5.781  0.00  0.00    -0.034 A 
ATOM      5  C4  UNL d   1      -0.902   2.345  -5.669  0.00  0.00     0.162 A 
ATOM      6  C5  UNL d   1      -2.291   2.421  -5.670  0.00  0.00     0.062 A 
ATOM      7  F   UNL d   1      -3.022   1.302  -5.563  0.00  0.00    -0.097 F 
ATOM      8  F1  UNL d   1      -0.317   1.143  -5.561  0.00  0.00    -0.096 F 
ATOM      9  I   UNL d   1       1.945   3.394  -5.779  0.00  0.00    -0.060 I 
ATOM     10  F2  UNL d   1      -0.067   5.873  -6.000  0.00  0.00    -0.096 F 
ATOM     11  F3  UNL d   1      -2.773   5.999  -6.000  0.00  0.00    -0.097 F 
ATOM     12  F4  UNL d   1      -4.260   3.723  -5.782  0.00  0.00    -0.092 F 
ENDROOT
TORSDOF 0
ENDMDL
