MODEL 1
REMARK minimizedAffinity 3.97720075
REMARK minimizedRMSD -1
REMARK  0 active torsions:
REMARK  status: ('A' for Active; 'I' for Inactive)
ROOT
ATOM      1  C   UNL d   1      -0.752   2.434  -5.363  0.00  0.00     0.124 A 
ATOM      2  C1  UNL d   1      -2.105   2.128  -5.315  0.00  0.00     0.062 A 
ATOM      3  C2  UNL d   1      -3.055   3.129  -5.496  0.00  0.00     0.162 A 
ATOM      4  C3  UNL d   1      -2.656   4.445  -5.728  0.00  0.00    -0.034 A 
ATOM      5  C4  UNL d   1      -1.293   4.745  -5.775  0.00  0.00     0.162 A 
ATOM      6  C5  UNL d   1      -0.347   3.741  -5.593  0.00  0.00     0.062 A 
ATOM      7  F   UNL d   1       0.960   4.038  -5.640  0.00  0.00    -0.097 F 
ATOM      8  F1  UNL d   1      -0.874   6.000  -5.996  0.00  0.00    -0.096 F 
ATOM      9  I   UNL d   1      -4.074   5.945  -6.000  0.00  0.00    -0.060 I 
ATOM     10  F2  UNL d   1      -4.356   2.806  -5.444  0.00  0.00    -0.096 F 
ATOM     11  F3  UNL d   1      -2.499   0.866  -5.092  0.00  0.00    -0.097 F 
ATOM     12  F4  UNL d   1       0.160   1.469  -5.188  0.00  0.00    -0.092 F 
ENDROOT
TORSDOF 0
ENDMDL
