MODEL 1
REMARK minimizedAffinity 7.87347126
REMARK minimizedRMSD -1
REMARK  0 active torsions:
REMARK  status: ('A' for Active; 'I' for Inactive)
ROOT
ATOM      1  C   UNL d   1      -2.759   3.651  -5.910  0.00  0.00     0.124 A 
ATOM      2  C1  UNL d   1      -2.285   2.347  -5.866  0.00  0.00     0.062 A 
ATOM      3  C2  UNL d   1      -0.916   2.099  -5.868  0.00  0.00     0.162 A 
ATOM      4  C3  UNL d   1      -0.009   3.158  -5.912  0.00  0.00    -0.034 A 
ATOM      5  C4  UNL d   1      -0.493   4.467  -5.957  0.00  0.00     0.162 A 
ATOM      6  C5  UNL d   1      -1.863   4.710  -5.955  0.00  0.00     0.062 A 
ATOM      7  F   UNL d   1      -2.318   5.970  -5.997  0.00  0.00    -0.097 F 
ATOM      8  F1  UNL d   1       0.351   5.509  -6.000  0.00  0.00    -0.096 F 
ATOM      9  I   UNL d   1       2.040   2.792  -5.915  0.00  0.00    -0.060 I 
ATOM     10  F2  UNL d   1      -0.487   0.829  -5.826  0.00  0.00    -0.096 F 
ATOM     11  F3  UNL d   1      -3.149   1.323  -5.824  0.00  0.00    -0.097 F 
ATOM     12  F4  UNL d   1      -4.077   3.887  -5.909  0.00  0.00    -0.092 F 
ENDROOT
TORSDOF 0
ENDMDL
