MODEL 1
REMARK minimizedAffinity 9.86062622
REMARK minimizedRMSD -1
REMARK  0 active torsions:
REMARK  status: ('A' for Active; 'I' for Inactive)
ROOT
ATOM      1  C   UNL d   1      -0.455   3.536  -5.673  0.00  0.00     0.124 A 
ATOM      2  C1  UNL d   1      -1.193   2.361  -5.650  0.00  0.00     0.062 A 
ATOM      3  C2  UNL d   1      -2.581   2.404  -5.742  0.00  0.00     0.162 A 
ATOM      4  C3  UNL d   1      -3.241   3.627  -5.860  0.00  0.00    -0.034 A 
ATOM      5  C4  UNL d   1      -2.492   4.805  -5.881  0.00  0.00     0.162 A 
ATOM      6  C5  UNL d   1      -1.105   4.757  -5.789  0.00  0.00     0.062 A 
ATOM      7  F   UNL d   1      -0.393   5.893  -5.811  0.00  0.00    -0.097 F 
ATOM      8  F1  UNL d   1      -3.094   5.998  -5.993  0.00  0.00    -0.096 F 
ATOM      9  I   UNL d   1      -5.316   3.696  -5.998  0.00  0.00    -0.060 I 
ATOM     10  F2  UNL d   1      -3.269   1.253  -5.717  0.00  0.00    -0.096 F 
ATOM     11  F3  UNL d   1      -0.568   1.180  -5.537  0.00  0.00    -0.097 F 
ATOM     12  F4  UNL d   1       0.880   3.492  -5.583  0.00  0.00    -0.092 F 
ENDROOT
TORSDOF 0
ENDMDL
