MODEL 1
REMARK minimizedAffinity -2.54827881
REMARK minimizedRMSD -1
REMARK  0 active torsions:
REMARK  status: ('A' for Active; 'I' for Inactive)
ROOT
ATOM      1  C   UNL d   1       0.258   3.474  -5.958  0.00  0.00     0.124 A 
ATOM      2  C1  UNL d   1      -0.376   4.709  -5.979  0.00  0.00     0.062 A 
ATOM      3  C2  UNL d   1      -1.765   4.783  -5.979  0.00  0.00     0.162 A 
ATOM      4  C3  UNL d   1      -2.532   3.618  -5.958  0.00  0.00    -0.034 A 
ATOM      5  C4  UNL d   1      -1.888   2.380  -5.938  0.00  0.00     0.162 A 
ATOM      6  C5  UNL d   1      -0.499   2.311  -5.938  0.00  0.00     0.062 A 
ATOM      7  F   UNL d   1       0.111   1.117  -5.918  0.00  0.00    -0.097 F 
ATOM      8  F1  UNL d   1      -2.595   1.240  -5.917  0.00  0.00    -0.096 F 
ATOM      9  I   UNL d   1      -4.611   3.725  -5.958  0.00  0.00    -0.060 I 
ATOM     10  F2  UNL d   1      -2.351   5.990  -6.000  0.00  0.00    -0.096 F 
ATOM     11  F3  UNL d   1       0.353   5.834  -6.000  0.00  0.00    -0.097 F 
ATOM     12  F4  UNL d   1       1.595   3.406  -5.959  0.00  0.00    -0.092 F 
ENDROOT
TORSDOF 0
ENDMDL
