MODEL 1
REMARK minimizedAffinity 11.3144464
REMARK minimizedRMSD -1
REMARK  0 active torsions:
REMARK  status: ('A' for Active; 'I' for Inactive)
ROOT
ATOM      1  C   UNL d   1      -1.418   2.232   0.718  0.00  0.00     0.077 C 
ATOM      2  C1  UNL d   1      -0.249   1.375   1.105  0.00  0.00    -0.074 A 
ATOM      3  C2  UNL d   1       0.838   1.913   1.801  0.00  0.00    -0.005 A 
ATOM      4  C3  UNL d   1       1.914   1.102   2.162  0.00  0.00     0.006 A 
ATOM      5  C4  UNL d   1       1.913  -0.254   1.832  0.00  0.00    -0.005 A 
ATOM      6  C5  UNL d   1       0.834  -0.810   1.137  0.00  0.00    -0.074 A 
ATOM      7  C6  UNL d   1       0.813  -2.267   0.782  0.00  0.00     0.077 C 
ATOM      8  C7  UNL d   1      -0.246   0.010   0.783  0.00  0.00    -0.001 A 
ENDROOT
TORSDOF 0
ENDMDL
