MODEL 1
REMARK minimizedAffinity 5.94564724
REMARK minimizedRMSD -1
REMARK  0 active torsions:
REMARK  status: ('A' for Active; 'I' for Inactive)
ROOT
ATOM      1  C   UNL d   1       1.678  -2.112   2.771  0.00  0.00     0.077 C 
ATOM      2  C1  UNL d   1       2.097  -0.800   2.177  0.00  0.00    -0.074 A 
ATOM      3  C2  UNL d   1       2.083  -0.600   0.792  0.00  0.00    -0.005 A 
ATOM      4  C3  UNL d   1       2.466   0.628   0.255  0.00  0.00     0.006 A 
ATOM      5  C4  UNL d   1       2.866   1.669   1.095  0.00  0.00    -0.005 A 
ATOM      6  C5  UNL d   1       2.885   1.488   2.481  0.00  0.00    -0.074 A 
ATOM      7  C6  UNL d   1       3.303   2.599   3.399  0.00  0.00     0.077 C 
ATOM      8  C7  UNL d   1       2.492   0.253   3.014  0.00  0.00    -0.001 A 
ENDROOT
TORSDOF 0
ENDMDL
