MODEL 1
REMARK minimizedAffinity 15.5649681
REMARK minimizedRMSD -1
REMARK  0 active torsions:
REMARK  status: ('A' for Active; 'I' for Inactive)
ROOT
ATOM      1  C   UNL d   1       3.273   1.457  -5.999  0.00  0.00     0.077 C 
ATOM      2  C1  UNL d   1       4.037   0.285  -5.458  0.00  0.00    -0.074 A 
ATOM      3  C2  UNL d   1       5.274  -0.078  -5.998  0.00  0.00    -0.005 A 
ATOM      4  C3  UNL d   1       5.978  -1.164  -5.478  0.00  0.00     0.006 A 
ATOM      5  C4  UNL d   1       5.451  -1.897  -4.414  0.00  0.00    -0.005 A 
ATOM      6  C5  UNL d   1       4.216  -1.549  -3.860  0.00  0.00    -0.074 A 
ATOM      7  C6  UNL d   1       3.640  -2.320  -2.709  0.00  0.00     0.077 C 
ATOM      8  C7  UNL d   1       3.518  -0.451  -4.383  0.00  0.00    -0.001 A 
ENDROOT
TORSDOF 0
ENDMDL
