MODEL 1
REMARK minimizedAffinity 6.66937828
REMARK minimizedRMSD -1
REMARK  0 active torsions:
REMARK  status: ('A' for Active; 'I' for Inactive)
ROOT
ATOM      1  C   UNL d   1      -4.689   2.892  -5.230  0.00  0.00     0.077 C 
ATOM      2  C1  UNL d   1      -4.033   2.270  -4.033  0.00  0.00    -0.074 A 
ATOM      3  C2  UNL d   1      -3.545   0.961  -4.081  0.00  0.00    -0.005 A 
ATOM      4  C3  UNL d   1      -2.929   0.399  -2.963  0.00  0.00     0.006 A 
ATOM      5  C4  UNL d   1      -2.795   1.140  -1.788  0.00  0.00    -0.005 A 
ATOM      6  C5  UNL d   1      -3.276   2.451  -1.722  0.00  0.00    -0.074 A 
ATOM      7  C6  UNL d   1      -3.132   3.264  -0.470  0.00  0.00     0.077 C 
ATOM      8  C7  UNL d   1      -3.888   3.011  -2.852  0.00  0.00    -0.001 A 
ENDROOT
TORSDOF 0
ENDMDL
