MODEL 1
REMARK minimizedAffinity 11.3804007
REMARK minimizedRMSD -1
REMARK  0 active torsions:
REMARK  status: ('A' for Active; 'I' for Inactive)
ROOT
ATOM      1  C   UNL d   1      -5.560   4.425   1.526  0.00  0.00     0.077 C 
ATOM      2  C1  UNL d   1      -4.320   3.666   1.162  0.00  0.00    -0.074 A 
ATOM      3  C2  UNL d   1      -3.363   3.345   2.130  0.00  0.00    -0.005 A 
ATOM      4  C3  UNL d   1      -2.218   2.630   1.778  0.00  0.00     0.006 A 
ATOM      5  C4  UNL d   1      -2.019   2.229   0.456  0.00  0.00    -0.005 A 
ATOM      6  C5  UNL d   1      -2.965   2.540  -0.526  0.00  0.00    -0.074 A 
ATOM      7  C6  UNL d   1      -2.771   2.108  -1.949  0.00  0.00     0.077 C 
ATOM      8  C7  UNL d   1      -4.116   3.253  -0.163  0.00  0.00    -0.001 A 
ENDROOT
TORSDOF 0
ENDMDL
