MODEL 1
REMARK minimizedAffinity 12.1056519
REMARK minimizedRMSD -1
REMARK  0 active torsions:
REMARK  status: ('A' for Active; 'I' for Inactive)
ROOT
ATOM      1  C   UNL d   1       3.015   4.577  -2.125  0.00  0.00     0.077 C 
ATOM      2  C1  UNL d   1       2.279   3.959  -0.974  0.00  0.00    -0.074 A 
ATOM      3  C2  UNL d   1       1.157   4.584  -0.419  0.00  0.00    -0.005 A 
ATOM      4  C3  UNL d   1       0.476   3.992   0.645  0.00  0.00     0.006 A 
ATOM      5  C4  UNL d   1       0.910   2.772   1.164  0.00  0.00    -0.005 A 
ATOM      6  C5  UNL d   1       2.029   2.132   0.622  0.00  0.00    -0.074 A 
ATOM      7  C6  UNL d   1       2.502   0.815   1.162  0.00  0.00     0.077 C 
ATOM      8  C7  UNL d   1       2.703   2.729  -0.451  0.00  0.00    -0.001 A 
ENDROOT
TORSDOF 0
ENDMDL
