MODEL 1
REMARK minimizedAffinity 3.85796523
REMARK minimizedRMSD -1
REMARK  0 active torsions:
REMARK  status: ('A' for Active; 'I' for Inactive)
ROOT
ATOM      1  C   UNL d   1       3.341  -3.596  -3.377  0.00  0.00     0.077 C 
ATOM      2  C1  UNL d   1       3.406  -2.288  -4.108  0.00  0.00    -0.074 A 
ATOM      3  C2  UNL d   1       2.283  -1.460  -4.201  0.00  0.00    -0.005 A 
ATOM      4  C3  UNL d   1       2.362  -0.242  -4.875  0.00  0.00     0.006 A 
ATOM      5  C4  UNL d   1       3.563   0.160  -5.463  0.00  0.00    -0.005 A 
ATOM      6  C5  UNL d   1       4.696  -0.655  -5.380  0.00  0.00    -0.074 A 
ATOM      7  C6  UNL d   1       5.996  -0.234  -5.997  0.00  0.00     0.077 C 
ATOM      8  C7  UNL d   1       4.611  -1.875  -4.694  0.00  0.00    -0.001 A 
ENDROOT
TORSDOF 0
ENDMDL
