MODEL 1
REMARK minimizedAffinity 12.5047054
REMARK minimizedRMSD -1
REMARK  0 active torsions:
REMARK  status: ('A' for Active; 'I' for Inactive)
ROOT
ATOM      1  C   UNL d   1       2.236   1.491   1.491  0.00  0.00     0.077 C 
ATOM      2  C1  UNL d   1       1.793   0.077   1.724  0.00  0.00    -0.074 A 
ATOM      3  C2  UNL d   1       1.391  -0.735   0.659  0.00  0.00    -0.005 A 
ATOM      4  C3  UNL d   1       0.992  -2.051   0.890  0.00  0.00     0.006 A 
ATOM      5  C4  UNL d   1       0.990  -2.567   2.187  0.00  0.00    -0.005 A 
ATOM      6  C5  UNL d   1       1.390  -1.770   3.264  0.00  0.00    -0.074 A 
ATOM      7  C6  UNL d   1       1.403  -2.313   4.662  0.00  0.00     0.077 C 
ATOM      8  C7  UNL d   1       1.797  -0.451   3.023  0.00  0.00    -0.001 A 
ENDROOT
TORSDOF 0
ENDMDL
