MODEL 1
REMARK minimizedAffinity 11.6787834
REMARK minimizedRMSD -1
REMARK  0 active torsions:
REMARK  status: ('A' for Active; 'I' for Inactive)
ROOT
ATOM      1  C   UNL d   1       2.498   1.596   1.147  0.00  0.00     0.077 C 
ATOM      2  C1  UNL d   1       1.888   0.313   1.629  0.00  0.00    -0.074 A 
ATOM      3  C2  UNL d   1       0.684  -0.156   1.094  0.00  0.00    -0.005 A 
ATOM      4  C3  UNL d   1       0.134  -1.355   1.545  0.00  0.00     0.006 A 
ATOM      5  C4  UNL d   1       0.781  -2.097   2.534  0.00  0.00    -0.005 A 
ATOM      6  C5  UNL d   1       1.986  -1.644   3.080  0.00  0.00    -0.074 A 
ATOM      7  C6  UNL d   1       2.700  -2.434   4.137  0.00  0.00     0.077 C 
ATOM      8  C7  UNL d   1       2.536  -0.442   2.616  0.00  0.00    -0.001 A 
ENDROOT
TORSDOF 0
ENDMDL
