MODEL 1
REMARK minimizedAffinity 2.98534417
REMARK minimizedRMSD -1
REMARK  0 active torsions:
REMARK  status: ('A' for Active; 'I' for Inactive)
ROOT
ATOM      1  C   UNL d   1       3.357  -0.406  -3.885  0.00  0.00     0.077 C 
ATOM      2  C1  UNL d   1       4.277  -1.469  -4.409  0.00  0.00    -0.074 A 
ATOM      3  C2  UNL d   1       5.080  -1.236  -5.530  0.00  0.00    -0.005 A 
ATOM      4  C3  UNL d   1       5.937  -2.231  -6.000  0.00  0.00     0.006 A 
ATOM      5  C4  UNL d   1       6.000  -3.467  -5.354  0.00  0.00    -0.005 A 
ATOM      6  C5  UNL d   1       5.205  -3.717  -4.231  0.00  0.00    -0.074 A 
ATOM      7  C6  UNL d   1       5.268  -5.036  -3.520  0.00  0.00     0.077 C 
ATOM      8  C7  UNL d   1       4.351  -2.710  -3.761  0.00  0.00    -0.001 A 
ENDROOT
TORSDOF 0
ENDMDL
