MODEL 1
REMARK minimizedAffinity 3.7532382
REMARK minimizedRMSD -1
REMARK  1 active torsions:
REMARK  status: ('A' for Active; 'I' for Inactive)
REMARK    1  A    between atoms: N_2  and  C1_3 
ROOT
ATOM      1  C1  UNL d   1      -4.345   5.997   3.499  0.00  0.00     0.143 A 
ATOM      2  C2  UNL d   1      -4.997   5.998   4.737  0.00  0.00    -0.057 A 
ATOM      3  C3  UNL d   1      -4.275   5.988   5.937  0.00  0.00     0.033 A 
ATOM      4  C4  UNL d   1      -2.885   5.947   5.919  0.00  0.00    -0.042 A 
ATOM      5  C5  UNL d   1      -2.217   5.920   4.700  0.00  0.00     0.033 A 
ATOM      6  C6  UNL d   1      -2.943   5.938   3.505  0.00  0.00    -0.057 A 
ENDROOT
BRANCH   1   7
ATOM      7  N   UNL d   1      -5.007   5.907   2.272  0.00  0.00    -0.732 N 
ATOM      8  C   UNL d   1      -5.674   4.684   1.882  0.00  0.00     0.284 C 
ATOM      9  H3  UNL d   1      -5.526   6.753   2.047  0.00  0.00     0.395 HD
ENDBRANCH   1   7
TORSDOF 1
ENDMDL
