MODEL 1
REMARK minimizedAffinity -2.99570179
REMARK minimizedRMSD -1
REMARK  1 active torsions:
REMARK  status: ('A' for Active; 'I' for Inactive)
REMARK    1  A    between atoms: N_2  and  C1_3 
ROOT
ATOM      1  C1  UNL d   1       4.572  -2.282   5.696  0.00  0.00     0.143 A 
ATOM      2  C2  UNL d   1       3.491  -3.138   5.458  0.00  0.00    -0.057 A 
ATOM      3  C3  UNL d   1       3.640  -4.529   5.515  0.00  0.00     0.033 A 
ATOM      4  C4  UNL d   1       4.884  -5.091   5.783  0.00  0.00    -0.042 A 
ATOM      5  C5  UNL d   1       5.978  -4.260   5.998  0.00  0.00     0.033 A 
ATOM      6  C6  UNL d   1       5.821  -2.871   5.947  0.00  0.00    -0.057 A 
ENDROOT
BRANCH   1   7
ATOM      7  N   UNL d   1       4.510  -0.894   5.557  0.00  0.00    -0.732 N 
ATOM      8  C   UNL d   1       5.624  -0.158   4.997  0.00  0.00     0.284 C 
ATOM      9  H3  UNL d   1       3.598  -0.576   5.235  0.00  0.00     0.395 HD
ENDBRANCH   1   7
TORSDOF 1
ENDMDL
