MODEL 1
REMARK minimizedAffinity -2.92824125
REMARK minimizedRMSD -1
REMARK  1 active torsions:
REMARK  status: ('A' for Active; 'I' for Inactive)
REMARK    1  A    between atoms: N_2  and  C1_3 
ROOT
ATOM      1  C1  UNL d   1       4.149  -3.210   5.495  0.00  0.00     0.143 A 
ATOM      2  C2  UNL d   1       5.402  -2.846   6.000  0.00  0.00    -0.057 A 
ATOM      3  C3  UNL d   1       5.999  -1.628   5.652  0.00  0.00     0.033 A 
ATOM      4  C4  UNL d   1       5.365  -0.763   4.768  0.00  0.00    -0.042 A 
ATOM      5  C5  UNL d   1       4.130  -1.115   4.233  0.00  0.00     0.033 A 
ATOM      6  C6  UNL d   1       3.536  -2.329   4.589  0.00  0.00    -0.057 A 
ENDROOT
BRANCH   1   7
ATOM      7  N   UNL d   1       3.548  -4.450   5.724  0.00  0.00    -0.732 N 
ATOM      8  C   UNL d   1       4.354  -5.624   5.979  0.00  0.00     0.284 C 
ATOM      9  H3  UNL d   1       2.721  -4.377   6.313  0.00  0.00     0.395 HD
ENDBRANCH   1   7
TORSDOF 1
ENDMDL
