MODEL 1
REMARK minimizedAffinity 1.8361845
REMARK minimizedRMSD -1
REMARK  1 active torsions:
REMARK  status: ('A' for Active; 'I' for Inactive)
REMARK    1  A    between atoms: N_2  and  C1_3 
ROOT
ATOM      1  C1  UNL d   1      -4.814   5.972   3.621  0.00  0.00     0.143 A 
ATOM      2  C2  UNL d   1      -4.972   5.985   5.011  0.00  0.00    -0.057 A 
ATOM      3  C3  UNL d   1      -3.865   5.997   5.868  0.00  0.00     0.033 A 
ATOM      4  C4  UNL d   1      -2.576   5.967   5.348  0.00  0.00    -0.042 A 
ATOM      5  C5  UNL d   1      -2.394   5.928   3.970  0.00  0.00     0.033 A 
ATOM      6  C6  UNL d   1      -3.504   5.923   3.120  0.00  0.00    -0.057 A 
ENDROOT
BRANCH   1   7
ATOM      7  N   UNL d   1      -5.874   5.859   2.718  0.00  0.00    -0.732 N 
ATOM      8  C   UNL d   1      -5.996   4.697   1.865  0.00  0.00     0.284 C 
ATOM      9  H3  UNL d   1      -6.756   6.179   3.113  0.00  0.00     0.395 HD
ENDBRANCH   1   7
TORSDOF 1
ENDMDL
