MODEL 1
REMARK minimizedAffinity 1.56248021
REMARK minimizedRMSD -1
REMARK  1 active torsions:
REMARK  status: ('A' for Active; 'I' for Inactive)
REMARK    1  A    between atoms: N_2  and  C1_3 
ROOT
ATOM      1  C1  UNL d   1      -3.713   5.906   3.555  0.00  0.00     0.143 A 
ATOM      2  C2  UNL d   1      -2.317   5.990   3.562  0.00  0.00    -0.057 A 
ATOM      3  C3  UNL d   1      -1.595   5.999   4.762  0.00  0.00     0.033 A 
ATOM      4  C4  UNL d   1      -2.262   5.953   5.981  0.00  0.00    -0.042 A 
ATOM      5  C5  UNL d   1      -3.651   5.895   6.000  0.00  0.00     0.033 A 
ATOM      6  C6  UNL d   1      -4.365   5.880   4.798  0.00  0.00    -0.057 A 
ENDROOT
BRANCH   1   7
ATOM      7  N   UNL d   1      -4.492   5.993   2.399  0.00  0.00    -0.732 N 
ATOM      8  C   UNL d   1      -5.937   5.945   2.478  0.00  0.00     0.284 C 
ATOM      9  H3  UNL d   1      -4.135   6.681   1.740  0.00  0.00     0.395 HD
ENDBRANCH   1   7
TORSDOF 1
ENDMDL
