MODEL 1
REMARK minimizedAffinity 0.107361242
REMARK minimizedRMSD -1
REMARK  1 active torsions:
REMARK  status: ('A' for Active; 'I' for Inactive)
REMARK    1  A    between atoms: N_2  and  C1_3 
ROOT
ATOM      1  C1  UNL d   1       3.090   1.491  -4.148  0.00  0.00     0.143 A 
ATOM      2  C2  UNL d   1       3.009   0.423  -3.248  0.00  0.00    -0.057 A 
ATOM      3  C3  UNL d   1       2.030   0.389  -2.248  0.00  0.00     0.033 A 
ATOM      4  C4  UNL d   1       1.129   1.440  -2.112  0.00  0.00    -0.042 A 
ATOM      5  C5  UNL d   1       1.206   2.523  -2.980  0.00  0.00     0.033 A 
ATOM      6  C6  UNL d   1       2.182   2.548  -3.981  0.00  0.00    -0.057 A 
ENDROOT
BRANCH   1   7
ATOM      7  N   UNL d   1       4.102   1.630  -5.101  0.00  0.00    -0.732 N 
ATOM      8  C   UNL d   1       4.119   2.766  -5.998  0.00  0.00     0.284 C 
ATOM      9  H3  UNL d   1       5.017   1.375  -4.736  0.00  0.00     0.395 HD
ENDBRANCH   1   7
TORSDOF 1
ENDMDL
