MODEL 1
REMARK minimizedAffinity 0.212746993
REMARK minimizedRMSD -1
REMARK  1 active torsions:
REMARK  status: ('A' for Active; 'I' for Inactive)
REMARK    1  A    between atoms: N_2  and  C1_3 
ROOT
ATOM      1  C1  UNL d   1      -3.669   5.796   3.556  0.00  0.00     0.143 A 
ATOM      2  C2  UNL d   1      -2.275   5.906   3.533  0.00  0.00    -0.057 A 
ATOM      3  C3  UNL d   1      -1.533   5.991   4.717  0.00  0.00     0.033 A 
ATOM      4  C4  UNL d   1      -2.179   5.998   5.950  0.00  0.00    -0.042 A 
ATOM      5  C5  UNL d   1      -3.566   5.915   5.996  0.00  0.00     0.033 A 
ATOM      6  C6  UNL d   1      -4.300   5.823   4.809  0.00  0.00    -0.057 A 
ENDROOT
BRANCH   1   7
ATOM      7  N   UNL d   1      -4.469   5.806   2.410  0.00  0.00    -0.732 N 
ATOM      8  C   UNL d   1      -5.900   5.996   2.513  0.00  0.00     0.284 C 
ATOM      9  H3  UNL d   1      -4.037   6.310   1.639  0.00  0.00     0.395 HD
ENDBRANCH   1   7
TORSDOF 1
ENDMDL
