MODEL 1
REMARK minimizedAffinity 5.5067873
REMARK minimizedRMSD -1
REMARK  1 active torsions:
REMARK  status: ('A' for Active; 'I' for Inactive)
REMARK    1  A    between atoms: N_2  and  C1_3 
ROOT
ATOM      1  C1  UNL d   1      -3.906   5.618   4.379  0.00  0.00     0.143 A 
ATOM      2  C2  UNL d   1      -3.135   5.783   3.224  0.00  0.00    -0.057 A 
ATOM      3  C3  UNL d   1      -3.566   5.289   1.987  0.00  0.00     0.033 A 
ATOM      4  C4  UNL d   1      -4.767   4.593   1.889  0.00  0.00    -0.042 A 
ATOM      5  C5  UNL d   1      -5.537   4.395   3.029  0.00  0.00     0.033 A 
ATOM      6  C6  UNL d   1      -5.105   4.897   4.260  0.00  0.00    -0.057 A 
ENDROOT
BRANCH   1   7
ATOM      7  N   UNL d   1      -3.486   6.000   5.656  0.00  0.00    -0.732 N 
ATOM      8  C   UNL d   1      -2.080   6.000   6.000  0.00  0.00     0.284 C 
ATOM      9  H3  UNL d   1      -4.001   6.803   6.010  0.00  0.00     0.395 HD
ENDBRANCH   1   7
TORSDOF 1
ENDMDL
