MODEL 1
REMARK minimizedAffinity -0.529046714
REMARK minimizedRMSD -1
REMARK  1 active torsions:
REMARK  status: ('A' for Active; 'I' for Inactive)
REMARK    1  A    between atoms: N_2  and  C1_3 
ROOT
ATOM      1  C1  UNL d   1       1.640   0.383  -1.591  0.00  0.00     0.143 A 
ATOM      2  C2  UNL d   1       1.957   0.392  -2.953  0.00  0.00    -0.057 A 
ATOM      3  C3  UNL d   1       2.083   1.594  -3.661  0.00  0.00     0.033 A 
ATOM      4  C4  UNL d   1       1.864   2.810  -3.022  0.00  0.00    -0.042 A 
ATOM      5  C5  UNL d   1       1.523   2.824  -1.675  0.00  0.00     0.033 A 
ATOM      6  C6  UNL d   1       1.406   1.621  -0.972  0.00  0.00    -0.057 A 
ENDROOT
BRANCH   1   7
ATOM      7  N   UNL d   1       1.404  -0.782  -0.855  0.00  0.00    -0.732 N 
ATOM      8  C   UNL d   1       2.173  -1.981  -1.108  0.00  0.00     0.284 C 
ATOM      9  H3  UNL d   1       1.242  -0.592   0.131  0.00  0.00     0.395 HD
ENDBRANCH   1   7
TORSDOF 1
ENDMDL
