MODEL 1
REMARK minimizedAffinity 0.920307517
REMARK minimizedRMSD -1
REMARK  1 active torsions:
REMARK  status: ('A' for Active; 'I' for Inactive)
REMARK    1  A    between atoms: N_2  and  C1_3 
ROOT
ATOM      1  C1  UNL d   1       4.876  -3.768   5.772  0.00  0.00     0.143 A 
ATOM      2  C2  UNL d   1       5.999  -2.964   5.995  0.00  0.00    -0.057 A 
ATOM      3  C3  UNL d   1       6.000  -1.606   5.653  0.00  0.00     0.033 A 
ATOM      4  C4  UNL d   1       4.882  -1.033   5.054  0.00  0.00    -0.042 A 
ATOM      5  C5  UNL d   1       3.764  -1.819   4.801  0.00  0.00     0.033 A 
ATOM      6  C6  UNL d   1       3.767  -3.173   5.151  0.00  0.00    -0.057 A 
ENDROOT
BRANCH   1   7
ATOM      7  N   UNL d   1       4.849  -5.146   5.999  0.00  0.00    -0.732 N 
ATOM      8  C   UNL d   1       5.921  -5.993   5.522  0.00  0.00     0.284 C 
ATOM      9  H3  UNL d   1       4.519  -5.379   6.933  0.00  0.00     0.395 HD
ENDBRANCH   1   7
TORSDOF 1
ENDMDL
