MODEL 1
REMARK minimizedAffinity -1.14958906
REMARK minimizedRMSD -1
REMARK  1 active torsions:
REMARK  status: ('A' for Active; 'I' for Inactive)
REMARK    1  A    between atoms: N_2  and  C1_3 
ROOT
ATOM      1  C1  UNL d   1       4.807  -2.712   5.663  0.00  0.00     0.143 A 
ATOM      2  C2  UNL d   1       3.612  -3.440   5.637  0.00  0.00    -0.057 A 
ATOM      3  C3  UNL d   1       3.603  -4.829   5.816  0.00  0.00     0.033 A 
ATOM      4  C4  UNL d   1       4.797  -5.520   5.995  0.00  0.00    -0.042 A 
ATOM      5  C5  UNL d   1       5.999  -4.821   6.000  0.00  0.00     0.033 A 
ATOM      6  C6  UNL d   1       6.000  -3.433   5.828  0.00  0.00    -0.057 A 
ENDROOT
BRANCH   1   7
ATOM      7  N   UNL d   1       4.890  -1.344   5.394  0.00  0.00    -0.732 N 
ATOM      8  C   UNL d   1       5.376  -0.873   4.115  0.00  0.00     0.284 C 
ATOM      9  H3  UNL d   1       4.088  -0.829   5.750  0.00  0.00     0.395 HD
ENDBRANCH   1   7
TORSDOF 1
ENDMDL
