MODEL 1
REMARK minimizedAffinity 3.77912641
REMARK minimizedRMSD -1
REMARK  1 active torsions:
REMARK  status: ('A' for Active; 'I' for Inactive)
REMARK    1  A    between atoms: N_2  and  C1_3 
ROOT
ATOM      1  C1  UNL d   1       4.625   0.922   4.452  0.00  0.00     0.143 A 
ATOM      2  C2  UNL d   1       3.411   1.451   4.001  0.00  0.00    -0.057 A 
ATOM      3  C3  UNL d   1       3.373   2.583   3.179  0.00  0.00     0.033 A 
ATOM      4  C4  UNL d   1       4.551   3.226   2.815  0.00  0.00    -0.042 A 
ATOM      5  C5  UNL d   1       5.768   2.734   3.272  0.00  0.00     0.033 A 
ATOM      6  C6  UNL d   1       5.800   1.598   4.088  0.00  0.00    -0.057 A 
ENDROOT
BRANCH   1   7
ATOM      7  N   UNL d   1       4.724  -0.142   5.352  0.00  0.00    -0.732 N 
ATOM      8  C   UNL d   1       5.986  -0.821   5.555  0.00  0.00     0.284 C 
ATOM      9  H3  UNL d   1       4.198   0.022   6.207  0.00  0.00     0.395 HD
ENDBRANCH   1   7
TORSDOF 1
ENDMDL
