MODEL 1
REMARK minimizedAffinity -2.99209309
REMARK minimizedRMSD -1
REMARK  1 active torsions:
REMARK  status: ('A' for Active; 'I' for Inactive)
REMARK    1  A    between atoms: N_2  and  C1_3 
ROOT
ATOM      1  C1  UNL d   1       4.877  -2.953   5.466  0.00  0.00     0.143 A 
ATOM      2  C2  UNL d   1       5.999  -3.776   5.616  0.00  0.00    -0.057 A 
ATOM      3  C3  UNL d   1       5.865  -5.147   5.866  0.00  0.00     0.033 A 
ATOM      4  C4  UNL d   1       4.603  -5.716   6.000  0.00  0.00    -0.042 A 
ATOM      5  C5  UNL d   1       3.475  -4.913   5.880  0.00  0.00     0.033 A 
ATOM      6  C6  UNL d   1       3.614  -3.546   5.624  0.00  0.00    -0.057 A 
ENDROOT
BRANCH   1   7
ATOM      7  N   UNL d   1       4.945  -1.566   5.315  0.00  0.00    -0.732 N 
ATOM      8  C   UNL d   1       5.969  -0.800   5.991  0.00  0.00     0.284 C 
ATOM      9  H3  UNL d   1       4.769  -1.271   4.357  0.00  0.00     0.395 HD
ENDBRANCH   1   7
TORSDOF 1
ENDMDL
