MODEL 1
REMARK minimizedAffinity -0.0454327986
REMARK minimizedRMSD -1
REMARK  1 active torsions:
REMARK  status: ('A' for Active; 'I' for Inactive)
REMARK    1  A    between atoms: N_2  and  C1_3 
ROOT
ATOM      1  C1  UNL d   1      -3.760   5.795   4.609  0.00  0.00     0.143 A 
ATOM      2  C2  UNL d   1      -5.139   5.912   4.404  0.00  0.00    -0.057 A 
ATOM      3  C3  UNL d   1      -5.677   5.998   3.114  0.00  0.00     0.033 A 
ATOM      4  C4  UNL d   1      -4.840   5.997   2.003  0.00  0.00    -0.042 A 
ATOM      5  C5  UNL d   1      -3.464   5.907   2.184  0.00  0.00     0.033 A 
ATOM      6  C6  UNL d   1      -2.934   5.814   3.474  0.00  0.00    -0.057 A 
ENDROOT
BRANCH   1   7
ATOM      7  N   UNL d   1      -3.158   5.804   5.869  0.00  0.00    -0.732 N 
ATOM      8  C   UNL d   1      -1.726   5.970   6.000  0.00  0.00     0.284 C 
ATOM      9  H3  UNL d   1      -3.701   6.323   6.555  0.00  0.00     0.395 HD
ENDBRANCH   1   7
TORSDOF 1
ENDMDL
