MODEL 1
REMARK minimizedAffinity 0.594259083
REMARK minimizedRMSD -1
REMARK  1 active torsions:
REMARK  status: ('A' for Active; 'I' for Inactive)
REMARK    1  A    between atoms: N_2  and  C1_3 
ROOT
ATOM      1  C1  UNL d   1       1.649   3.166  -4.083  0.00  0.00     0.143 A 
ATOM      2  C2  UNL d   1       1.507   2.322  -5.190  0.00  0.00    -0.057 A 
ATOM      3  C3  UNL d   1       1.095   0.993  -5.040  0.00  0.00     0.033 A 
ATOM      4  C4  UNL d   1       0.844   0.474  -3.774  0.00  0.00    -0.042 A 
ATOM      5  C5  UNL d   1       1.003   1.287  -2.658  0.00  0.00     0.033 A 
ATOM      6  C6  UNL d   1       1.408   2.616  -2.814  0.00  0.00    -0.057 A 
ENDROOT
BRANCH   1   7
ATOM      7  N   UNL d   1       2.150   4.468  -4.157  0.00  0.00    -0.732 N 
ATOM      8  C   UNL d   1       3.380   4.824  -3.483  0.00  0.00     0.284 C 
ATOM      9  H3  UNL d   1       2.055   4.869  -5.087  0.00  0.00     0.395 HD
ENDBRANCH   1   7
TORSDOF 1
ENDMDL
