MODEL 1
REMARK minimizedAffinity -1.99636281
REMARK minimizedRMSD -1
REMARK  2 active torsions:
REMARK  status: ('A' for Active; 'I' for Inactive)
REMARK    1  A    between atoms: C2'_3  and  C1'_4 
REMARK    2  A    between atoms: C1'_4  and  C1_5 
ROOT
ATOM      1  C1  I4B d   1      -0.632   0.742   0.909  0.00  0.00    -0.075 A 
ATOM      2  C2  I4B d   1      -1.803   0.670   1.621  0.00  0.00     0.003 A 
ATOM      3  C3  I4B d   1      -2.503   1.853   1.963  0.00  0.00     0.002 A 
ATOM      4  C4  I4B d   1      -1.973   3.080   1.619  0.00  0.00    -0.004 A 
ATOM      5  C5  I4B d   1      -0.798   3.150   0.877  0.00  0.00     0.002 A 
ATOM      6  C6  I4B d   1      -0.129   1.974   0.509  0.00  0.00     0.003 A 
ENDROOT
BRANCH   1   7
ATOM      7  C1' I4B d   1       0.098  -0.524   0.593  0.00  0.00     0.060 C 
BRANCH   7   8
ATOM      8  C2' I4B d   1       0.425  -0.518  -0.887  0.00  0.00    -0.013 C 
ATOM      9  C4' I4B d   1       1.658   0.300  -1.169  0.00  0.00     0.013 C 
ATOM     10  C3' I4B d   1       0.607  -1.940  -1.327  0.00  0.00     0.013 C 
ENDBRANCH   7   8
ENDBRANCH   1   7
TORSDOF 2
ENDMDL
