MODEL 1
REMARK minimizedAffinity -0.466464847
REMARK minimizedRMSD -1
REMARK  2 active torsions:
REMARK  status: ('A' for Active; 'I' for Inactive)
REMARK    1  A    between atoms: C2'_3  and  C1'_4 
REMARK    2  A    between atoms: C1'_4  and  C1_5 
ROOT
ATOM      1  C1  I4B d   1       0.922  -1.544  -0.991  0.00  0.00    -0.075 A 
ATOM      2  C2  I4B d   1       1.259  -2.854  -0.759  0.00  0.00     0.003 A 
ATOM      3  C3  I4B d   1       1.330  -3.773  -1.834  0.00  0.00     0.002 A 
ATOM      4  C4  I4B d   1       1.008  -3.354  -3.108  0.00  0.00    -0.004 A 
ATOM      5  C5  I4B d   1       0.687  -2.020  -3.345  0.00  0.00     0.002 A 
ATOM      6  C6  I4B d   1       0.656  -1.106  -2.282  0.00  0.00     0.003 A 
ENDROOT
BRANCH   1   7
ATOM      7  C1' I4B d   1       0.825  -0.608   0.172  0.00  0.00     0.060 C 
BRANCH   7   8
ATOM      8  C2' I4B d   1      -0.624  -0.189   0.315  0.00  0.00    -0.013 C 
ATOM      9  C4' I4B d   1      -1.466  -1.315   0.855  0.00  0.00     0.013 C 
ATOM     10  C3' I4B d   1      -0.674   1.006   1.220  0.00  0.00     0.013 C 
ENDBRANCH   7   8
ENDBRANCH   1   7
TORSDOF 2
ENDMDL
