MODEL 1
REMARK minimizedAffinity -3.55003333
REMARK minimizedRMSD -1
REMARK  2 active torsions:
REMARK  status: ('A' for Active; 'I' for Inactive)
REMARK    1  A    between atoms: C2'_3  and  C1'_4 
REMARK    2  A    between atoms: C1'_4  and  C1_5 
ROOT
ATOM      1  C1  I4B d   1       0.526  -0.095  -0.045  0.00  0.00    -0.075 A 
ATOM      2  C2  I4B d   1       0.139  -0.768   1.086  0.00  0.00     0.003 A 
ATOM      3  C3  I4B d   1      -0.739  -0.157   2.014  0.00  0.00     0.002 A 
ATOM      4  C4  I4B d   1      -1.163   1.138   1.798  0.00  0.00    -0.004 A 
ATOM      5  C5  I4B d   1      -0.787   1.811   0.638  0.00  0.00     0.002 A 
ATOM      6  C6  I4B d   1       0.053   1.187  -0.295  0.00  0.00     0.003 A 
ENDROOT
BRANCH   1   7
ATOM      7  C1' I4B d   1       1.481  -0.757  -0.988  0.00  0.00     0.060 C 
BRANCH   7   8
ATOM      8  C2' I4B d   1       0.928  -2.127  -1.325  0.00  0.00    -0.013 C 
ATOM      9  C4' I4B d   1       0.618  -2.242  -2.795  0.00  0.00     0.013 C 
ATOM     10  C3' I4B d   1       1.939  -3.151  -0.903  0.00  0.00     0.013 C 
ENDBRANCH   7   8
ENDBRANCH   1   7
TORSDOF 2
ENDMDL
