MODEL 1
REMARK minimizedAffinity -6.29106426
REMARK minimizedRMSD -1
REMARK  2 active torsions:
REMARK  status: ('A' for Active; 'I' for Inactive)
REMARK    1  A    between atoms: C2'_3  and  C1'_4 
REMARK    2  A    between atoms: C1'_4  and  C1_5 
ROOT
ATOM      1  C1  I4B d   1      -0.036  -0.055  -0.002  0.00  0.00    -0.075 A 
ATOM      2  C2  I4B d   1      -0.627   1.131  -0.360  0.00  0.00     0.003 A 
ATOM      3  C3  I4B d   1      -1.551   1.758   0.510  0.00  0.00     0.002 A 
ATOM      4  C4  I4B d   1      -1.891   1.143   1.698  0.00  0.00    -0.004 A 
ATOM      5  C5  I4B d   1      -1.274  -0.048   2.069  0.00  0.00     0.002 A 
ATOM      6  C6  I4B d   1      -0.331  -0.645   1.220  0.00  0.00     0.003 A 
ENDROOT
BRANCH   1   7
ATOM      7  C1' I4B d   1       0.911  -0.707  -0.959  0.00  0.00     0.060 C 
BRANCH   7   8
ATOM      8  C2' I4B d   1       0.304  -2.026  -1.391  0.00  0.00    -0.013 C 
ATOM      9  C4' I4B d   1      -0.488  -1.872  -2.663  0.00  0.00     0.013 C 
ATOM     10  C3' I4B d   1       1.419  -3.014  -1.564  0.00  0.00     0.013 C 
ENDBRANCH   7   8
ENDBRANCH   1   7
TORSDOF 2
ENDMDL
