MODEL 1
REMARK minimizedAffinity -1.79812241
REMARK minimizedRMSD -1
REMARK  2 active torsions:
REMARK  status: ('A' for Active; 'I' for Inactive)
REMARK    1  A    between atoms: C2'_3  and  C1'_4 
REMARK    2  A    between atoms: C1'_4  and  C1_5 
ROOT
ATOM      1  C1  I4B d   1       0.669  -0.611   0.305  0.00  0.00    -0.075 A 
ATOM      2  C2  I4B d   1       0.321   0.702   0.104  0.00  0.00     0.003 A 
ATOM      3  C3  I4B d   1      -0.489   1.378   1.048  0.00  0.00     0.002 A 
ATOM      4  C4  I4B d   1      -0.969   0.693   2.146  0.00  0.00    -0.004 A 
ATOM      5  C5  I4B d   1      -0.597  -0.631   2.360  0.00  0.00     0.002 A 
ATOM      6  C6  I4B d   1       0.237  -1.284   1.441  0.00  0.00     0.003 A 
ENDROOT
BRANCH   1   7
ATOM      7  C1' I4B d   1       1.499  -1.303  -0.728  0.00  0.00     0.060 C 
BRANCH   7   8
ATOM      8  C2' I4B d   1       1.099  -2.764  -0.746  0.00  0.00    -0.013 C 
ATOM      9  C4' I4B d   1       0.397  -3.122  -2.029  0.00  0.00     0.013 C 
ATOM     10  C3' I4B d   1       2.340  -3.586  -0.561  0.00  0.00     0.013 C 
ENDBRANCH   7   8
ENDBRANCH   1   7
TORSDOF 2
ENDMDL
