MODEL 1
REMARK minimizedAffinity -5.48671103
REMARK minimizedRMSD -1
REMARK  2 active torsions:
REMARK  status: ('A' for Active; 'I' for Inactive)
REMARK    1  A    between atoms: C2'_3  and  C1'_4 
REMARK    2  A    between atoms: C1'_4  and  C1_5 
ROOT
ATOM      1  C1  I4B d   1       0.110  -0.015   0.054  0.00  0.00    -0.075 A 
ATOM      2  C2  I4B d   1      -0.366  -0.340   1.300  0.00  0.00     0.003 A 
ATOM      3  C3  I4B d   1      -1.230   0.547   1.986  0.00  0.00     0.002 A 
ATOM      4  C4  I4B d   1      -1.550   1.762   1.415  0.00  0.00    -0.004 A 
ATOM      5  C5  I4B d   1      -1.086   2.079   0.142  0.00  0.00     0.002 A 
ATOM      6  C6  I4B d   1      -0.260   1.180  -0.549  0.00  0.00     0.003 A 
ENDROOT
BRANCH   1   7
ATOM      7  C1' I4B d   1       1.048  -0.961  -0.628  0.00  0.00     0.060 C 
BRANCH   7   8
ATOM      8  C2' I4B d   1       0.221  -1.915  -1.466  0.00  0.00    -0.013 C 
ATOM      9  C4' I4B d   1      -0.061  -1.340  -2.829  0.00  0.00     0.013 C 
ATOM     10  C3' I4B d   1       0.971  -3.209  -1.568  0.00  0.00     0.013 C 
ENDBRANCH   7   8
ENDBRANCH   1   7
TORSDOF 2
ENDMDL
