MODEL 1
REMARK minimizedAffinity -1.09041274
REMARK minimizedRMSD -1
REMARK  2 active torsions:
REMARK  status: ('A' for Active; 'I' for Inactive)
REMARK    1  A    between atoms: C2'_3  and  C1'_4 
REMARK    2  A    between atoms: C1'_4  and  C1_5 
ROOT
ATOM      1  C1  I4B d   1      -1.169   0.547   0.558  0.00  0.00    -0.075 A 
ATOM      2  C2  I4B d   1      -0.674  -0.383   1.438  0.00  0.00     0.003 A 
ATOM      3  C3  I4B d   1       0.511  -1.096   1.129  0.00  0.00     0.002 A 
ATOM      4  C4  I4B d   1       1.135  -0.885  -0.083  0.00  0.00    -0.004 A 
ATOM      5  C5  I4B d   1       0.644   0.075  -0.964  0.00  0.00     0.002 A 
ATOM      6  C6  I4B d   1      -0.509   0.805  -0.636  0.00  0.00     0.003 A 
ENDROOT
BRANCH   1   7
ATOM      7  C1' I4B d   1      -2.440   1.258   0.901  0.00  0.00     0.060 C 
BRANCH   7   8
ATOM      8  C2' I4B d   1      -2.102   2.385   1.856  0.00  0.00    -0.013 C 
ATOM      9  C4' I4B d   1      -0.757   2.169   2.499  0.00  0.00     0.013 C 
ATOM     10  C3' I4B d   1      -2.133   3.670   1.084  0.00  0.00     0.013 C 
ENDBRANCH   7   8
ENDBRANCH   1   7
TORSDOF 2
ENDMDL
