MODEL 1
REMARK minimizedAffinity -5.31990385
REMARK minimizedRMSD -1
REMARK  2 active torsions:
REMARK  status: ('A' for Active; 'I' for Inactive)
REMARK    1  A    between atoms: C2'_3  and  C1'_4 
REMARK    2  A    between atoms: C1'_4  and  C1_5 
ROOT
ATOM      1  C1  I4B d   1      -1.028   1.061  -0.007  0.00  0.00    -0.075 A 
ATOM      2  C2  I4B d   1      -1.836   1.633   0.944  0.00  0.00     0.003 A 
ATOM      3  C3  I4B d   1      -1.919   3.042   1.054  0.00  0.00     0.002 A 
ATOM      4  C4  I4B d   1      -1.145   3.835   0.232  0.00  0.00    -0.004 A 
ATOM      5  C5  I4B d   1      -0.344   3.254  -0.746  0.00  0.00     0.002 A 
ATOM      6  C6  I4B d   1      -0.294   1.859  -0.875  0.00  0.00     0.003 A 
ENDROOT
BRANCH   1   7
ATOM      7  C1' I4B d   1      -0.938  -0.431  -0.074  0.00  0.00     0.060 C 
BRANCH   7   8
ATOM      8  C2' I4B d   1       0.438  -0.793  -0.595  0.00  0.00    -0.013 C 
ATOM      9  C4' I4B d   1       1.446  -0.854   0.522  0.00  0.00     0.013 C 
ATOM     10  C3' I4B d   1       0.333  -2.110  -1.303  0.00  0.00     0.013 C 
ENDBRANCH   7   8
ENDBRANCH   1   7
TORSDOF 2
ENDMDL
