MODEL 1
REMARK minimizedAffinity -5.09680605
REMARK minimizedRMSD -1
REMARK  2 active torsions:
REMARK  status: ('A' for Active; 'I' for Inactive)
REMARK    1  A    between atoms: C2'_3  and  C1'_4 
REMARK    2  A    between atoms: C1'_4  and  C1_5 
ROOT
ATOM      1  C1  I4B d   1       0.232   1.591   0.009  0.00  0.00    -0.075 A 
ATOM      2  C2  I4B d   1       0.210   2.722  -0.767  0.00  0.00     0.003 A 
ATOM      3  C3  I4B d   1      -0.669   3.786  -0.451  0.00  0.00     0.002 A 
ATOM      4  C4  I4B d   1      -1.538   3.657   0.613  0.00  0.00    -0.004 A 
ATOM      5  C5  I4B d   1      -1.498   2.519   1.413  0.00  0.00     0.002 A 
ATOM      6  C6  I4B d   1      -0.599   1.484   1.117  0.00  0.00     0.003 A 
ENDROOT
BRANCH   1   7
ATOM      7  C1' I4B d   1       1.149   0.472  -0.372  0.00  0.00     0.060 C 
BRANCH   7   8
ATOM      8  C2' I4B d   1       0.374  -0.825  -0.262  0.00  0.00    -0.013 C 
ATOM      9  C4' I4B d   1       0.974  -1.895  -1.136  0.00  0.00     0.013 C 
ATOM     10  C3' I4B d   1       0.371  -1.241   1.179  0.00  0.00     0.013 C 
ENDBRANCH   7   8
ENDBRANCH   1   7
TORSDOF 2
ENDMDL
