MODEL 1
REMARK minimizedAffinity -2.75779605
REMARK minimizedRMSD -1
REMARK  2 active torsions:
REMARK  status: ('A' for Active; 'I' for Inactive)
REMARK    1  A    between atoms: C2'_3  and  C1'_4 
REMARK    2  A    between atoms: C1'_4  and  C1_5 
ROOT
ATOM      1  C1  I4B d   1       0.741  -0.819   0.039  0.00  0.00    -0.075 A 
ATOM      2  C2  I4B d   1       0.300   0.476  -0.071  0.00  0.00     0.003 A 
ATOM      3  C3  I4B d   1      -0.447   1.067   0.977  0.00  0.00     0.002 A 
ATOM      4  C4  I4B d   1      -0.770   0.315   2.088  0.00  0.00    -0.004 A 
ATOM      5  C5  I4B d   1      -0.303  -0.990   2.209  0.00  0.00     0.002 A 
ATOM      6  C6  I4B d   1       0.468  -1.557   1.183  0.00  0.00     0.003 A 
ENDROOT
BRANCH   1   7
ATOM      7  C1' I4B d   1       1.499  -1.422  -1.101  0.00  0.00     0.060 C 
BRANCH   7   8
ATOM      8  C2' I4B d   1       0.884  -2.773  -1.407  0.00  0.00    -0.013 C 
ATOM      9  C4' I4B d   1       0.372  -2.830  -2.822  0.00  0.00     0.013 C 
ATOM     10  C3' I4B d   1       1.928  -3.822  -1.166  0.00  0.00     0.013 C 
ENDBRANCH   7   8
ENDBRANCH   1   7
TORSDOF 2
ENDMDL
