MODEL 1
REMARK minimizedAffinity -1.88528645
REMARK minimizedRMSD -1
REMARK  0 active torsions:
REMARK  status: ('A' for Active; 'I' for Inactive)
ROOT
ATOM      1  C2' OXE d   1      -3.766   4.803  -2.300  0.00  0.00     0.078 C 
ATOM      2  C1' OXE d   1      -2.818   3.706  -4.704  0.00  0.00     0.078 C 
ATOM      3  C1  OXE d   1      -2.865   2.810  -3.492  0.00  0.00    -0.078 A 
ATOM      4  C2  OXE d   1      -3.286   3.367  -2.309  0.00  0.00    -0.078 A 
ATOM      5  C3  OXE d   1      -3.399   2.571  -1.173  0.00  0.00     0.003 A 
ATOM      6  C4  OXE d   1      -2.944   1.247  -1.187  0.00  0.00    -0.002 A 
ATOM      7  C5  OXE d   1      -2.474   0.670  -2.373  0.00  0.00    -0.002 A 
ATOM      8  C6  OXE d   1      -2.468   1.424  -3.541  0.00  0.00     0.003 A 
ENDROOT
TORSDOF 0
ENDMDL
