MODEL 1
REMARK minimizedAffinity -2.00442147
REMARK minimizedRMSD -1
REMARK  0 active torsions:
REMARK  status: ('A' for Active; 'I' for Inactive)
ROOT
ATOM      1  C2' OXE d   1      -3.625   4.883  -2.250  0.00  0.00     0.078 C 
ATOM      2  C1' OXE d   1      -1.573   3.016  -2.680  0.00  0.00     0.078 C 
ATOM      3  C1  OXE d   1      -1.808   4.060  -3.743  0.00  0.00    -0.078 A 
ATOM      4  C2  OXE d   1      -2.844   4.940  -3.546  0.00  0.00    -0.078 A 
ATOM      5  C3  OXE d   1      -3.070   5.957  -4.469  0.00  0.00     0.003 A 
ATOM      6  C4  OXE d   1      -2.350   5.997  -5.669  0.00  0.00    -0.002 A 
ATOM      7  C5  OXE d   1      -1.316   5.085  -5.908  0.00  0.00    -0.002 A 
ATOM      8  C6  OXE d   1      -1.005   4.139  -4.938  0.00  0.00     0.003 A 
ENDROOT
TORSDOF 0
ENDMDL
