MODEL 1
REMARK minimizedAffinity 9.62995243
REMARK minimizedRMSD -1
REMARK  0 active torsions:
REMARK  status: ('A' for Active; 'I' for Inactive)
ROOT
ATOM      1  C2' OXE d   1      -3.474  -1.088   1.130  0.00  0.00     0.078 C 
ATOM      2  C1' OXE d   1      -2.260  -2.744  -0.785  0.00  0.00     0.078 C 
ATOM      3  C1  OXE d   1      -1.411  -2.255   0.362  0.00  0.00    -0.078 A 
ATOM      4  C2  OXE d   1      -2.001  -1.407   1.268  0.00  0.00    -0.078 A 
ATOM      5  C3  OXE d   1      -1.278  -0.970   2.375  0.00  0.00     0.003 A 
ATOM      6  C4  OXE d   1       0.087  -1.261   2.490  0.00  0.00    -0.002 A 
ATOM      7  C5  OXE d   1       0.717  -2.090   1.557  0.00  0.00    -0.002 A 
ATOM      8  C6  OXE d   1      -0.026  -2.629   0.512  0.00  0.00     0.003 A 
ENDROOT
TORSDOF 0
ENDMDL
