MODEL 1
REMARK minimizedAffinity 2.81510615
REMARK minimizedRMSD -1
REMARK  0 active torsions:
REMARK  status: ('A' for Active; 'I' for Inactive)
ROOT
ATOM      1  C2' OXE d   1      -3.445   2.495  -1.201  0.00  0.00     0.078 C 
ATOM      2  C1' OXE d   1      -3.445   1.311  -3.746  0.00  0.00     0.078 C 
ATOM      3  C1  OXE d   1      -3.402   2.816  -3.671  0.00  0.00    -0.078 A 
ATOM      4  C2  OXE d   1      -3.450   3.389  -2.422  0.00  0.00    -0.078 A 
ATOM      5  C3  OXE d   1      -3.359   4.772  -2.294  0.00  0.00     0.003 A 
ATOM      6  C4  OXE d   1      -3.374   5.591  -3.429  0.00  0.00    -0.002 A 
ATOM      7  C5  OXE d   1      -3.365   5.030  -4.710  0.00  0.00    -0.002 A 
ATOM      8  C6  OXE d   1      -3.336   3.647  -4.848  0.00  0.00     0.003 A 
ENDROOT
TORSDOF 0
ENDMDL
