MODEL 1
REMARK minimizedAffinity 1.34514523
REMARK minimizedRMSD -1
REMARK  0 active torsions:
REMARK  status: ('A' for Active; 'I' for Inactive)
ROOT
ATOM      1  C2' OXE d   1      -1.518  -1.375   0.147  0.00  0.00     0.078 C 
ATOM      2  C1' OXE d   1       0.422  -1.968   2.088  0.00  0.00     0.078 C 
ATOM      3  C1  OXE d   1      -0.884  -1.376   2.556  0.00  0.00    -0.078 A 
ATOM      4  C2  OXE d   1      -1.809  -1.046   1.595  0.00  0.00    -0.078 A 
ATOM      5  C3  OXE d   1      -3.052  -0.548   1.977  0.00  0.00     0.003 A 
ATOM      6  C4  OXE d   1      -3.310  -0.238   3.317  0.00  0.00    -0.002 A 
ATOM      7  C5  OXE d   1      -2.366  -0.529   4.308  0.00  0.00    -0.002 A 
ATOM      8  C6  OXE d   1      -1.168  -1.137   3.950  0.00  0.00     0.003 A 
ENDROOT
TORSDOF 0
ENDMDL
