MODEL 1
REMARK minimizedAffinity 4.11329985
REMARK minimizedRMSD -1
REMARK  0 active torsions:
REMARK  status: ('A' for Active; 'I' for Inactive)
ROOT
ATOM      1  C2' OXE d   1       0.872  -1.777  -3.201  0.00  0.00     0.078 C 
ATOM      2  C1' OXE d   1      -1.631  -1.016  -2.183  0.00  0.00     0.078 C 
ATOM      3  C1  OXE d   1      -0.547  -1.367  -1.195  0.00  0.00    -0.078 A 
ATOM      4  C2  OXE d   1       0.661  -1.783  -1.702  0.00  0.00    -0.078 A 
ATOM      5  C3  OXE d   1       1.712  -2.066  -0.835  0.00  0.00     0.003 A 
ATOM      6  C4  OXE d   1       1.506  -2.078   0.550  0.00  0.00    -0.002 A 
ATOM      7  C5  OXE d   1       0.272  -1.696   1.087  0.00  0.00    -0.002 A 
ATOM      8  C6  OXE d   1      -0.749  -1.297   0.232  0.00  0.00     0.003 A 
ENDROOT
TORSDOF 0
ENDMDL
