MODEL 1
REMARK minimizedAffinity 5.80486393
REMARK minimizedRMSD -1
REMARK  0 active torsions:
REMARK  status: ('A' for Active; 'I' for Inactive)
ROOT
ATOM      1  C2' OXE d   1      -1.540  -0.234   2.992  0.00  0.00     0.078 C 
ATOM      2  C1' OXE d   1      -1.780  -0.516   0.209  0.00  0.00     0.078 C 
ATOM      3  C1  OXE d   1      -0.601  -1.172   0.884  0.00  0.00    -0.078 A 
ATOM      4  C2  OXE d   1      -0.467  -0.990   2.239  0.00  0.00    -0.078 A 
ATOM      5  C3  OXE d   1       0.572  -1.619   2.919  0.00  0.00     0.003 A 
ATOM      6  C4  OXE d   1       1.567  -2.308   2.214  0.00  0.00    -0.002 A 
ATOM      7  C5  OXE d   1       1.470  -2.472   0.828  0.00  0.00    -0.002 A 
ATOM      8  C6  OXE d   1       0.372  -1.947   0.155  0.00  0.00     0.003 A 
ENDROOT
TORSDOF 0
ENDMDL
