MODEL 1
REMARK minimizedAffinity 5.21303129
REMARK minimizedRMSD -1
REMARK  0 active torsions:
REMARK  status: ('A' for Active; 'I' for Inactive)
ROOT
ATOM      1  C2' OXE d   1      -2.230   6.000  -3.019  0.00  0.00     0.078 C 
ATOM      2  C1' OXE d   1      -2.034   3.941  -4.917  0.00  0.00     0.078 C 
ATOM      3  C1  OXE d   1      -2.505   3.577  -3.531  0.00  0.00    -0.078 A 
ATOM      4  C2  OXE d   1      -2.553   4.583  -2.596  0.00  0.00    -0.078 A 
ATOM      5  C3  OXE d   1      -3.033   4.313  -1.317  0.00  0.00     0.003 A 
ATOM      6  C4  OXE d   1      -3.320   2.998  -0.931  0.00  0.00    -0.002 A 
ATOM      7  C5  OXE d   1      -3.240   1.953  -1.857  0.00  0.00    -0.002 A 
ATOM      8  C6  OXE d   1      -2.876   2.231  -3.169  0.00  0.00     0.003 A 
ENDROOT
TORSDOF 0
ENDMDL
