MODEL 1
REMARK minimizedAffinity -3.66825628
REMARK minimizedRMSD -1
REMARK  0 active torsions:
REMARK  status: ('A' for Active; 'I' for Inactive)
ROOT
ATOM      1  C2' OXE d   1      -2.960   2.505  -0.976  0.00  0.00     0.078 C 
ATOM      2  C1' OXE d   1      -1.970   0.831  -3.000  0.00  0.00     0.078 C 
ATOM      3  C1  OXE d   1      -2.194   2.284  -3.336  0.00  0.00    -0.078 A 
ATOM      4  C2  OXE d   1      -2.723   3.086  -2.354  0.00  0.00    -0.078 A 
ATOM      5  C3  OXE d   1      -2.898   4.446  -2.594  0.00  0.00     0.003 A 
ATOM      6  C4  OXE d   1      -2.686   4.972  -3.874  0.00  0.00    -0.002 A 
ATOM      7  C5  OXE d   1      -2.185   4.164  -4.900  0.00  0.00    -0.002 A 
ATOM      8  C6  OXE d   1      -1.894   2.831  -4.636  0.00  0.00     0.003 A 
ENDROOT
TORSDOF 0
ENDMDL
