MODEL 1
REMARK minimizedAffinity 16.0016403
REMARK minimizedRMSD -1
REMARK  0 active torsions:
REMARK  status: ('A' for Active; 'I' for Inactive)
ROOT
ATOM      1  O1  BZF d   1       1.260  -3.560   0.402  0.00  0.00    -0.204 OA
ATOM      2  C2  BZF d   1       2.516  -3.026   0.186  0.00  0.00     0.174 A 
ATOM      3  C3  BZF d   1       2.663  -1.866   0.858  0.00  0.00    -0.012 A 
ATOM      4  C3A BZF d   1       1.455  -1.709   1.608  0.00  0.00    -0.107 A 
ATOM      5  C4  BZF d   1       1.010  -0.758   2.482  0.00  0.00     0.055 A 
ATOM      6  C5  BZF d   1      -0.248  -0.863   2.986  0.00  0.00    -0.016 A 
ATOM      7  C6  BZF d   1      -1.087  -1.900   2.635  0.00  0.00     0.022 A 
ATOM      8  C7  BZF d   1      -0.688  -2.869   1.776  0.00  0.00     0.029 A 
ATOM      9  C7A BZF d   1       0.594  -2.784   1.290  0.00  0.00     0.058 A 
ENDROOT
TORSDOF 0
ENDMDL
