MODEL 1
REMARK minimizedAffinity 11.3418751
REMARK minimizedRMSD -1
REMARK  0 active torsions:
REMARK  status: ('A' for Active; 'I' for Inactive)
ROOT
ATOM      1  O1  BZF d   1      -5.309   2.231  -4.942  0.00  0.00    -0.204 OA
ATOM      2  C2  BZF d   1      -4.754   3.454  -5.262  0.00  0.00     0.174 A 
ATOM      3  C3  BZF d   1      -3.749   3.760  -4.415  0.00  0.00    -0.012 A 
ATOM      4  C3A BZF d   1      -3.611   2.616  -3.567  0.00  0.00    -0.107 A 
ATOM      5  C4  BZF d   1      -2.771   2.308  -2.535  0.00  0.00     0.055 A 
ATOM      6  C5  BZF d   1      -2.946   1.137  -1.868  0.00  0.00    -0.016 A 
ATOM      7  C6  BZF d   1      -3.952   0.254  -2.202  0.00  0.00     0.022 A 
ATOM      8  C7  BZF d   1      -4.807   0.514  -3.221  0.00  0.00     0.029 A 
ATOM      9  C7A BZF d   1      -4.612   1.681  -3.919  0.00  0.00     0.058 A 
ENDROOT
TORSDOF 0
ENDMDL
