MODEL 1
REMARK minimizedAffinity -0.611480057
REMARK minimizedRMSD -1
REMARK  0 active torsions:
REMARK  status: ('A' for Active; 'I' for Inactive)
ROOT
ATOM      1  O1  BZF d   1      -2.739   5.973   5.879  0.00  0.00    -0.204 OA
ATOM      2  C2  BZF d   1      -1.357   5.979   5.888  0.00  0.00     0.174 A 
ATOM      3  C3  BZF d   1      -0.875   4.723   5.982  0.00  0.00    -0.012 A 
ATOM      4  C3A BZF d   1      -2.026   3.874   5.943  0.00  0.00    -0.107 A 
ATOM      5  C4  BZF d   1      -2.195   2.519   5.983  0.00  0.00     0.055 A 
ATOM      6  C5  BZF d   1      -3.455   2.011   6.000  0.00  0.00    -0.016 A 
ATOM      7  C6  BZF d   1      -4.567   2.827   5.984  0.00  0.00     0.022 A 
ATOM      8  C7  BZF d   1      -4.450   4.176   5.940  0.00  0.00     0.029 A 
ATOM      9  C7A BZF d   1      -3.178   4.692   5.889  0.00  0.00     0.058 A 
ENDROOT
TORSDOF 0
ENDMDL
