MODEL 1
REMARK minimizedAffinity 5.09747219
REMARK minimizedRMSD -1
REMARK  0 active torsions:
REMARK  status: ('A' for Active; 'I' for Inactive)
ROOT
ATOM      1  O1  BZF d   1       1.496  -5.335  -0.097  0.00  0.00    -0.204 OA
ATOM      2  C2  BZF d   1       2.704  -5.996   0.018  0.00  0.00     0.174 A 
ATOM      3  C3  BZF d   1       3.671  -5.155   0.439  0.00  0.00    -0.012 A 
ATOM      4  C3A BZF d   1       3.007  -3.912   0.685  0.00  0.00    -0.107 A 
ATOM      5  C4  BZF d   1       3.431  -2.694   1.135  0.00  0.00     0.055 A 
ATOM      6  C5  BZF d   1       2.544  -1.666   1.194  0.00  0.00    -0.016 A 
ATOM      7  C6  BZF d   1       1.229  -1.819   0.806  0.00  0.00     0.022 A 
ATOM      8  C7  BZF d   1       0.761  -3.009   0.358  0.00  0.00     0.029 A 
ATOM      9  C7A BZF d   1       1.647  -4.058   0.329  0.00  0.00     0.058 A 
ENDROOT
TORSDOF 0
ENDMDL
