MODEL 1
REMARK minimizedAffinity 7.26812696
REMARK minimizedRMSD -1
REMARK  0 active torsions:
REMARK  status: ('A' for Active; 'I' for Inactive)
ROOT
ATOM      1  O1  BZF d   1      -3.261   2.967  -2.888  0.00  0.00    -0.204 OA
ATOM      2  C2  BZF d   1      -2.224   3.112  -3.789  0.00  0.00     0.174 A 
ATOM      3  C3  BZF d   1      -1.464   1.999  -3.828  0.00  0.00    -0.012 A 
ATOM      4  C3A BZF d   1      -2.118   1.067  -2.961  0.00  0.00    -0.107 A 
ATOM      5  C4  BZF d   1      -1.852  -0.222  -2.598  0.00  0.00     0.055 A 
ATOM      6  C5  BZF d   1      -2.647  -0.825  -1.675  0.00  0.00    -0.016 A 
ATOM      7  C6  BZF d   1      -3.711  -0.168  -1.092  0.00  0.00     0.022 A 
ATOM      8  C7  BZF d   1      -4.017   1.110  -1.425  0.00  0.00     0.029 A 
ATOM      9  C7A BZF d   1      -3.235   1.711  -2.382  0.00  0.00     0.058 A 
ENDROOT
TORSDOF 0
ENDMDL
