MODEL 1
REMARK minimizedAffinity 8.75640011
REMARK minimizedRMSD -1
REMARK  0 active torsions:
REMARK  status: ('A' for Active; 'I' for Inactive)
ROOT
ATOM      1  O1  BZF d   1      -0.453  -2.303   2.214  0.00  0.00    -0.204 OA
ATOM      2  C2  BZF d   1       0.151  -1.079   2.424  0.00  0.00     0.174 A 
ATOM      3  C3  BZF d   1       1.378  -1.048   1.864  0.00  0.00    -0.012 A 
ATOM      4  C3A BZF d   1       1.514  -2.302   1.187  0.00  0.00    -0.107 A 
ATOM      5  C4  BZF d   1       2.506  -2.858   0.432  0.00  0.00     0.055 A 
ATOM      6  C5  BZF d   1       2.356  -4.130  -0.023  0.00  0.00    -0.016 A 
ATOM      7  C6  BZF d   1       1.230  -4.875   0.262  0.00  0.00     0.022 A 
ATOM      8  C7  BZF d   1       0.217  -4.364   1.003  0.00  0.00     0.029 A 
ATOM      9  C7A BZF d   1       0.351  -3.067   1.437  0.00  0.00     0.058 A 
ENDROOT
TORSDOF 0
ENDMDL
