MODEL 1
REMARK minimizedAffinity -2.67563176
REMARK minimizedRMSD -1
REMARK  0 active torsions:
REMARK  status: ('A' for Active; 'I' for Inactive)
ROOT
ATOM      1  C1  BNZ d   1       5.336  -0.682   5.997  0.00  0.00     0.000 A 
ATOM      2  C2  BNZ d   1       5.401   0.685   6.000  0.00  0.00     0.000 A 
ATOM      3  C3  BNZ d   1       5.713   1.374   4.861  0.00  0.00     0.000 A 
ATOM      4  C4  BNZ d   1       5.999   0.694   3.733  0.00  0.00     0.000 A 
ATOM      5  C5  BNZ d   1       5.948  -0.685   3.716  0.00  0.00     0.000 A 
ATOM      6  C6  BNZ d   1       5.595  -1.374   4.854  0.00  0.00     0.000 A 
ENDROOT
TORSDOF 0
ENDMDL
