MODEL 1
REMARK minimizedAffinity 0.745443225
REMARK minimizedRMSD -1
REMARK  0 active torsions:
REMARK  status: ('A' for Active; 'I' for Inactive)
ROOT
ATOM      1  C1  BNZ d   1       5.995   3.586   4.335  0.00  0.00     0.000 A 
ATOM      2  C2  BNZ d   1       6.000   4.757   5.044  0.00  0.00     0.000 A 
ATOM      3  C3  BNZ d   1       5.979   5.964   4.402  0.00  0.00     0.000 A 
ATOM      4  C4  BNZ d   1       5.994   5.998   3.054  0.00  0.00     0.000 A 
ATOM      5  C5  BNZ d   1       5.999   4.825   2.325  0.00  0.00     0.000 A 
ATOM      6  C6  BNZ d   1       5.980   3.612   2.975  0.00  0.00     0.000 A 
ENDROOT
TORSDOF 0
ENDMDL
