MODEL 1
REMARK minimizedAffinity -1.84463239
REMARK minimizedRMSD -1
REMARK  0 active torsions:
REMARK  status: ('A' for Active; 'I' for Inactive)
ROOT
ATOM      1  C1  BNZ d   1       5.992   3.639   2.011  0.00  0.00     0.000 A 
ATOM      2  C2  BNZ d   1       5.999   3.588   3.379  0.00  0.00     0.000 A 
ATOM      3  C3  BNZ d   1       5.979   4.735   4.122  0.00  0.00     0.000 A 
ATOM      4  C4  BNZ d   1       5.991   5.930   3.498  0.00  0.00     0.000 A 
ATOM      5  C5  BNZ d   1       5.993   5.998   2.119  0.00  0.00     0.000 A 
ATOM      6  C6  BNZ d   1       5.974   4.841   1.374  0.00  0.00     0.000 A 
ENDROOT
TORSDOF 0
ENDMDL
