MODEL 1
REMARK minimizedAffinity -1.03128231
REMARK minimizedRMSD -1
REMARK  0 active torsions:
REMARK  status: ('A' for Active; 'I' for Inactive)
ROOT
ATOM      1  C1  BNZ d   1       5.899   1.779   5.783  0.00  0.00     0.000 A 
ATOM      2  C2  BNZ d   1       5.890   0.426   5.999  0.00  0.00     0.000 A 
ATOM      3  C3  BNZ d   1       5.960  -0.450   4.953  0.00  0.00     0.000 A 
ATOM      4  C4  BNZ d   1       5.999   0.025   3.691  0.00  0.00     0.000 A 
ATOM      5  C5  BNZ d   1       6.000   1.385   3.456  0.00  0.00     0.000 A 
ATOM      6  C6  BNZ d   1       5.968   2.265   4.514  0.00  0.00     0.000 A 
ENDROOT
TORSDOF 0
ENDMDL
