MODEL 1
REMARK minimizedAffinity 1.15145767
REMARK minimizedRMSD -1
REMARK  0 active torsions:
REMARK  status: ('A' for Active; 'I' for Inactive)
ROOT
ATOM      1  C1  BNZ d   1       5.998  -0.980   5.961  0.00  0.00     0.000 A 
ATOM      2  C2  BNZ d   1       5.991   0.369   5.725  0.00  0.00     0.000 A 
ATOM      3  C3  BNZ d   1       5.964   0.857   4.448  0.00  0.00     0.000 A 
ATOM      4  C4  BNZ d   1       5.984  -0.003   3.410  0.00  0.00     0.000 A 
ATOM      5  C5  BNZ d   1       6.000  -1.366   3.631  0.00  0.00     0.000 A 
ATOM      6  C6  BNZ d   1       5.988  -1.854   4.917  0.00  0.00     0.000 A 
ENDROOT
TORSDOF 0
ENDMDL
