MODEL 1
REMARK minimizedAffinity -2.37296343
REMARK minimizedRMSD -1
REMARK  0 active torsions:
REMARK  status: ('A' for Active; 'I' for Inactive)
ROOT
ATOM      1  C1  BNZ d   1       6.000   1.523   3.663  0.00  0.00     0.000 A 
ATOM      2  C2  BNZ d   1       5.988   0.154   3.680  0.00  0.00     0.000 A 
ATOM      3  C3  BNZ d   1       5.781  -0.531   4.845  0.00  0.00     0.000 A 
ATOM      4  C4  BNZ d   1       5.626   0.153   5.997  0.00  0.00     0.000 A 
ATOM      5  C5  BNZ d   1       5.644   1.534   5.998  0.00  0.00     0.000 A 
ATOM      6  C6  BNZ d   1       5.814   2.220   4.817  0.00  0.00     0.000 A 
ENDROOT
TORSDOF 0
ENDMDL
