MODEL 1
REMARK minimizedAffinity -1.14663815
REMARK minimizedRMSD -1
REMARK  0 active torsions:
REMARK  status: ('A' for Active; 'I' for Inactive)
ROOT
ATOM      1  C1  BNZ d   1       5.995   2.907   4.539  0.00  0.00     0.000 A 
ATOM      2  C2  BNZ d   1       5.999   4.276   4.543  0.00  0.00     0.000 A 
ATOM      3  C3  BNZ d   1       5.977   4.979   3.371  0.00  0.00     0.000 A 
ATOM      4  C4  BNZ d   1       5.992   4.314   2.198  0.00  0.00     0.000 A 
ATOM      5  C5  BNZ d   1       5.999   2.933   2.178  0.00  0.00     0.000 A 
ATOM      6  C6  BNZ d   1       5.981   2.229   3.359  0.00  0.00     0.000 A 
ENDROOT
TORSDOF 0
ENDMDL
