MODEL 1
REMARK minimizedAffinity -1.63682711
REMARK minimizedRMSD -1
REMARK  0 active torsions:
REMARK  status: ('A' for Active; 'I' for Inactive)
ROOT
ATOM      1  C1  BNZ d   1      -0.814   2.918   2.899  0.00  0.00     0.000 A 
ATOM      2  C2  BNZ d   1      -0.954   1.566   2.733  0.00  0.00     0.000 A 
ATOM      3  C3  BNZ d   1      -1.768   0.840   3.557  0.00  0.00     0.000 A 
ATOM      4  C4  BNZ d   1      -2.408   1.459   4.569  0.00  0.00     0.000 A 
ATOM      5  C5  BNZ d   1      -2.270   2.820   4.756  0.00  0.00     0.000 A 
ATOM      6  C6  BNZ d   1      -1.480   3.554   3.901  0.00  0.00     0.000 A 
ENDROOT
TORSDOF 0
ENDMDL
