MODEL 1
REMARK minimizedAffinity -1.70308363
REMARK minimizedRMSD -1
REMARK  0 active torsions:
REMARK  status: ('A' for Active; 'I' for Inactive)
ROOT
ATOM      1  C1  BNZ d   1       5.965  -0.242   5.710  0.00  0.00     0.000 A 
ATOM      2  C2  BNZ d   1       6.000   1.126   5.687  0.00  0.00     0.000 A 
ATOM      3  C3  BNZ d   1       5.813   1.812   4.519  0.00  0.00     0.000 A 
ATOM      4  C4  BNZ d   1       5.631   1.128   3.371  0.00  0.00     0.000 A 
ATOM      5  C5  BNZ d   1       5.603  -0.253   3.377  0.00  0.00     0.000 A 
ATOM      6  C6  BNZ d   1       5.752  -0.938   4.560  0.00  0.00     0.000 A 
ENDROOT
TORSDOF 0
ENDMDL
