MODEL 1
REMARK minimizedAffinity -2.60920238
REMARK minimizedRMSD -1
REMARK  0 active torsions:
REMARK  status: ('A' for Active; 'I' for Inactive)
ROOT
ATOM      1  C1  BNZ d   1       6.000   1.920   4.870  0.00  0.00     0.000 A 
ATOM      2  C2  BNZ d   1       5.819   1.125   5.970  0.00  0.00     0.000 A 
ATOM      3  C3  BNZ d   1       5.645  -0.224   5.837  0.00  0.00     0.000 A 
ATOM      4  C4  BNZ d   1       5.612  -0.770   4.605  0.00  0.00     0.000 A 
ATOM      5  C5  BNZ d   1       5.783   0.020   3.485  0.00  0.00     0.000 A 
ATOM      6  C6  BNZ d   1       5.997   1.372   3.625  0.00  0.00     0.000 A 
ENDROOT
TORSDOF 0
ENDMDL
