MODEL 1
REMARK minimizedAffinity -1.74720442
REMARK minimizedRMSD -1
REMARK  0 active torsions:
REMARK  status: ('A' for Active; 'I' for Inactive)
ROOT
ATOM      1  C1  BNZ d   1       5.974  -0.354   3.375  0.00  0.00     0.000 A 
ATOM      2  C2  BNZ d   1       6.000  -1.287   4.378  0.00  0.00     0.000 A 
ATOM      3  C3  BNZ d   1       5.992  -0.904   5.690  0.00  0.00     0.000 A 
ATOM      4  C4  BNZ d   1       5.999   0.409   5.998  0.00  0.00     0.000 A 
ATOM      5  C5  BNZ d   1       5.983   1.361   4.999  0.00  0.00     0.000 A 
ATOM      6  C6  BNZ d   1       5.951   0.972   3.679  0.00  0.00     0.000 A 
ENDROOT
TORSDOF 0
ENDMDL
