MODEL 1
REMARK minimizedAffinity -2.37128329
REMARK minimizedRMSD -1
REMARK  0 active torsions:
REMARK  status: ('A' for Active; 'I' for Inactive)
ROOT
ATOM      1  C1  BNZ d   1       5.264   2.455   4.859  0.00  0.00     0.000 A 
ATOM      2  C2  BNZ d   1       5.280   1.320   5.625  0.00  0.00     0.000 A 
ATOM      3  C3  BNZ d   1       5.667   0.122   5.093  0.00  0.00     0.000 A 
ATOM      4  C4  BNZ d   1       5.998   0.053   3.787  0.00  0.00     0.000 A 
ATOM      5  C5  BNZ d   1       5.977   1.187   3.000  0.00  0.00     0.000 A 
ATOM      6  C6  BNZ d   1       5.624   2.398   3.549  0.00  0.00     0.000 A 
ENDROOT
TORSDOF 0
ENDMDL
