MODEL 1
REMARK minimizedAffinity -0.115766779
REMARK minimizedRMSD -1
REMARK  0 active torsions:
REMARK  status: ('A' for Active; 'I' for Inactive)
ROOT
ATOM      1  C1  BNZ d   1       0.540  -1.079  -0.831  0.00  0.00     0.000 A 
ATOM      2  C2  BNZ d   1       0.951  -2.256  -1.398  0.00  0.00     0.000 A 
ATOM      3  C3  BNZ d   1       1.554  -2.269  -2.624  0.00  0.00     0.000 A 
ATOM      4  C4  BNZ d   1       1.711  -1.111  -3.299  0.00  0.00     0.000 A 
ATOM      5  C5  BNZ d   1       1.293   0.082  -2.744  0.00  0.00     0.000 A 
ATOM      6  C6  BNZ d   1       0.721   0.096  -1.493  0.00  0.00     0.000 A 
ENDROOT
TORSDOF 0
ENDMDL
