MODEL 1
REMARK minimizedAffinity -3.80055356
REMARK minimizedRMSD -1
REMARK  0 active torsions:
REMARK  status: ('A' for Active; 'I' for Inactive)
ROOT
ATOM      1  C   UNL d   1       0.294   0.908  -0.335  0.00  0.00     0.172 C 
ATOM      2  N   UNL d   1      -0.157  -0.403   0.068  0.00  0.00    -0.070 N 
ATOM      3  C1  UNL d   1      -1.456  -0.759   0.314  0.00  0.00    -0.004 A 
ATOM      4  C2  UNL d   1      -1.469  -2.090   0.671  0.00  0.00    -0.047 A 
ATOM      5  C3  UNL d   1      -0.131  -2.550   0.638  0.00  0.00    -0.047 A 
ATOM      6  C4  UNL d   1       0.660  -1.485   0.261  0.00  0.00    -0.004 A 
ENDROOT
TORSDOF 0
ENDMDL
