MODEL 1
REMARK minimizedAffinity -2.72351789
REMARK minimizedRMSD -1
REMARK  0 active torsions:
REMARK  status: ('A' for Active; 'I' for Inactive)
ROOT
ATOM      1  C   UNL d   1      -2.331  -4.806  -5.535  0.00  0.00     0.172 C 
ATOM      2  N   UNL d   1      -3.557  -4.192  -5.083  0.00  0.00    -0.070 N 
ATOM      3  C1  UNL d   1      -4.108  -3.043  -5.585  0.00  0.00    -0.004 A 
ATOM      4  C2  UNL d   1      -5.270  -2.793  -4.889  0.00  0.00    -0.047 A 
ATOM      5  C3  UNL d   1      -5.423  -3.826  -3.934  0.00  0.00    -0.047 A 
ATOM      6  C4  UNL d   1      -4.348  -4.678  -4.076  0.00  0.00    -0.004 A 
ENDROOT
TORSDOF 0
ENDMDL
