MODEL 1
REMARK minimizedAffinity -2.44897413
REMARK minimizedRMSD -1
REMARK  0 active torsions:
REMARK  status: ('A' for Active; 'I' for Inactive)
ROOT
ATOM      1  C   UNL d   1      -1.884  -5.185  -5.998  0.00  0.00     0.172 C 
ATOM      2  N   UNL d   1      -3.132  -4.714  -5.443  0.00  0.00    -0.070 N 
ATOM      3  C1  UNL d   1      -3.993  -5.452  -4.676  0.00  0.00    -0.004 A 
ATOM      4  C2  UNL d   1      -5.061  -4.645  -4.346  0.00  0.00    -0.047 A 
ATOM      5  C3  UNL d   1      -4.834  -3.379  -4.936  0.00  0.00    -0.047 A 
ATOM      6  C4  UNL d   1      -3.632  -3.450  -5.609  0.00  0.00    -0.004 A 
ENDROOT
TORSDOF 0
ENDMDL
