MODEL 1
REMARK minimizedAffinity -2.88837481
REMARK minimizedRMSD -1
REMARK  0 active torsions:
REMARK  status: ('A' for Active; 'I' for Inactive)
ROOT
ATOM      1  C   UNL d   1      -5.438  -4.628  -3.543  0.00  0.00     0.172 C 
ATOM      2  N   UNL d   1      -4.234  -4.717  -4.336  0.00  0.00    -0.070 N 
ATOM      3  C1  UNL d   1      -3.547  -3.658  -4.866  0.00  0.00    -0.004 A 
ATOM      4  C2  UNL d   1      -2.462  -4.160  -5.551  0.00  0.00    -0.047 A 
ATOM      5  C3  UNL d   1      -2.498  -5.570  -5.428  0.00  0.00    -0.047 A 
ATOM      6  C4  UNL d   1      -3.606  -5.887  -4.671  0.00  0.00    -0.004 A 
ENDROOT
TORSDOF 0
ENDMDL
