MODEL 1
REMARK minimizedAffinity -2.51563382
REMARK minimizedRMSD -1
REMARK  0 active torsions:
REMARK  status: ('A' for Active; 'I' for Inactive)
ROOT
ATOM      1  C   UNL d   1      -2.003  -4.889  -4.151  0.00  0.00     0.172 C 
ATOM      2  N   UNL d   1      -3.252  -4.358  -4.642  0.00  0.00    -0.070 N 
ATOM      3  C1  UNL d   1      -3.672  -4.380  -5.945  0.00  0.00    -0.004 A 
ATOM      4  C2  UNL d   1      -4.911  -3.778  -6.000  0.00  0.00    -0.047 A 
ATOM      5  C3  UNL d   1      -5.246  -3.378  -4.684  0.00  0.00    -0.047 A 
ATOM      6  C4  UNL d   1      -4.202  -3.749  -3.864  0.00  0.00    -0.004 A 
ENDROOT
TORSDOF 0
ENDMDL
