MODEL 1
REMARK minimizedAffinity -2.57012963
REMARK minimizedRMSD -1
REMARK  0 active torsions:
REMARK  status: ('A' for Active; 'I' for Inactive)
ROOT
ATOM      1  C   UNL d   1      -5.587  -5.871  -5.950  0.00  0.00     0.172 C 
ATOM      2  N   UNL d   1      -5.236  -4.908  -4.933  0.00  0.00    -0.070 N 
ATOM      3  C1  UNL d   1      -4.141  -4.976  -4.113  0.00  0.00    -0.004 A 
ATOM      4  C2  UNL d   1      -4.164  -3.874  -3.286  0.00  0.00    -0.047 A 
ATOM      5  C3  UNL d   1      -5.313  -3.118  -3.620  0.00  0.00    -0.047 A 
ATOM      6  C4  UNL d   1      -5.959  -3.781  -4.642  0.00  0.00    -0.004 A 
ENDROOT
TORSDOF 0
ENDMDL
