MODEL 1
REMARK minimizedAffinity -2.84474683
REMARK minimizedRMSD -1
REMARK  0 active torsions:
REMARK  status: ('A' for Active; 'I' for Inactive)
ROOT
ATOM      1  C   UNL d   1      -1.987  -5.259  -5.913  0.00  0.00     0.172 C 
ATOM      2  N   UNL d   1      -3.061  -4.436  -5.409  0.00  0.00    -0.070 N 
ATOM      3  C1  UNL d   1      -4.146  -4.884  -4.703  0.00  0.00    -0.004 A 
ATOM      4  C2  UNL d   1      -4.936  -3.794  -4.408  0.00  0.00    -0.047 A 
ATOM      5  C3  UNL d   1      -4.304  -2.652  -4.956  0.00  0.00    -0.047 A 
ATOM      6  C4  UNL d   1      -3.146  -3.079  -5.570  0.00  0.00    -0.004 A 
ENDROOT
TORSDOF 0
ENDMDL
