MODEL 1
REMARK minimizedAffinity -2.4368
REMARK minimizedRMSD -1
REMARK  0 active torsions:
REMARK  status: ('A' for Active; 'I' for Inactive)
ROOT
ATOM      1  C   UNL d   1      -2.894  -4.024  -5.605  0.00  0.00     0.172 C 
ATOM      2  N   UNL d   1      -4.152  -3.823  -4.925  0.00  0.00    -0.070 N 
ATOM      3  C1  UNL d   1      -4.863  -4.786  -4.260  0.00  0.00    -0.004 A 
ATOM      4  C2  UNL d   1      -6.000  -4.197  -3.752  0.00  0.00    -0.047 A 
ATOM      5  C3  UNL d   1      -5.972  -2.832  -4.125  0.00  0.00    -0.047 A 
ATOM      6  C4  UNL d   1      -4.818  -2.628  -4.851  0.00  0.00    -0.004 A 
ENDROOT
TORSDOF 0
ENDMDL
