MODEL 1
REMARK minimizedAffinity -2.61030602
REMARK minimizedRMSD -1
REMARK  0 active torsions:
REMARK  status: ('A' for Active; 'I' for Inactive)
ROOT
ATOM      1  C   UNL d   1      -5.042  -4.057  -4.091  0.00  0.00     0.172 C 
ATOM      2  N   UNL d   1      -3.893  -4.624  -4.756  0.00  0.00    -0.070 N 
ATOM      3  C1  UNL d   1      -3.869  -5.814  -5.433  0.00  0.00    -0.004 A 
ATOM      4  C2  UNL d   1      -2.593  -5.997  -5.920  0.00  0.00    -0.047 A 
ATOM      5  C3  UNL d   1      -1.823  -4.879  -5.521  0.00  0.00    -0.047 A 
ATOM      6  C4  UNL d   1      -2.653  -4.045  -4.802  0.00  0.00    -0.004 A 
ENDROOT
TORSDOF 0
ENDMDL
