MODEL 1
REMARK minimizedAffinity -2.58938694
REMARK minimizedRMSD -1
REMARK  0 active torsions:
REMARK  status: ('A' for Active; 'I' for Inactive)
ROOT
ATOM      1  C   UNL d   1      -1.624  -5.364  -5.257  0.00  0.00     0.172 C 
ATOM      2  N   UNL d   1      -3.010  -5.237  -4.870  0.00  0.00    -0.070 N 
ATOM      3  C1  UNL d   1      -3.645  -5.989  -3.918  0.00  0.00    -0.004 A 
ATOM      4  C2  UNL d   1      -4.953  -5.561  -3.847  0.00  0.00    -0.047 A 
ATOM      5  C3  UNL d   1      -5.110  -4.517  -4.789  0.00  0.00    -0.047 A 
ATOM      6  C4  UNL d   1      -3.891  -4.337  -5.409  0.00  0.00    -0.004 A 
ENDROOT
TORSDOF 0
ENDMDL
