MODEL 1
REMARK minimizedAffinity -0.340668529
REMARK minimizedRMSD -1
REMARK  0 active torsions:
REMARK  status: ('A' for Active; 'I' for Inactive)
ROOT
ATOM      1  C   UNL d   1      -2.022  -1.206   3.269  0.00  0.00     0.172 C 
ATOM      2  N   UNL d   1      -0.965  -1.290   2.289  0.00  0.00    -0.070 N 
ATOM      3  C1  UNL d   1      -0.747  -0.401   1.270  0.00  0.00    -0.004 A 
ATOM      4  C2  UNL d   1       0.353  -0.833   0.561  0.00  0.00    -0.047 A 
ATOM      5  C3  UNL d   1       0.811  -2.023   1.173  0.00  0.00    -0.047 A 
ATOM      6  C4  UNL d   1      -0.022  -2.283   2.241  0.00  0.00    -0.004 A 
ENDROOT
TORSDOF 0
ENDMDL
