MODEL 1
REMARK minimizedAffinity -2.66663933
REMARK minimizedRMSD -1
REMARK  0 active torsions:
REMARK  status: ('A' for Active; 'I' for Inactive)
ROOT
ATOM      1  C   UNL d   1      -5.002  -5.672  -3.747  0.00  0.00     0.172 C 
ATOM      2  N   UNL d   1      -4.173  -4.788  -4.532  0.00  0.00    -0.070 N 
ATOM      3  C1  UNL d   1      -4.477  -3.495  -4.867  0.00  0.00    -0.004 A 
ATOM      4  C2  UNL d   1      -3.434  -2.997  -5.617  0.00  0.00    -0.047 A 
ATOM      5  C3  UNL d   1      -2.470  -4.027  -5.739  0.00  0.00    -0.047 A 
ATOM      6  C4  UNL d   1      -2.953  -5.124  -5.058  0.00  0.00    -0.004 A 
ENDROOT
TORSDOF 0
ENDMDL
