MODEL 1
REMARK minimizedAffinity -2.69127822
REMARK minimizedRMSD -1
REMARK  0 active torsions:
REMARK  status: ('A' for Active; 'I' for Inactive)
ROOT
ATOM      1  C   UNL d   1      -1.991  -5.998  -5.711  0.00  0.00     0.172 C 
ATOM      2  N   UNL d   1      -3.242  -5.356  -5.387  0.00  0.00    -0.070 N 
ATOM      3  C1  UNL d   1      -4.445  -5.598  -5.995  0.00  0.00    -0.004 A 
ATOM      4  C2  UNL d   1      -5.389  -4.788  -5.401  0.00  0.00    -0.047 A 
ATOM      5  C3  UNL d   1      -4.731  -4.034  -4.401  0.00  0.00    -0.047 A 
ATOM      6  C4  UNL d   1      -3.403  -4.405  -4.414  0.00  0.00    -0.004 A 
ENDROOT
TORSDOF 0
ENDMDL
