MODEL 1
REMARK minimizedAffinity -2.99210262
REMARK minimizedRMSD -1
REMARK  0 active torsions:
REMARK  status: ('A' for Active; 'I' for Inactive)
ROOT
ATOM      1  C   UNL d   1      -2.683  -4.839  -5.275  0.00  0.00     0.172 C 
ATOM      2  N   UNL d   1      -3.867  -4.202  -4.746  0.00  0.00    -0.070 N 
ATOM      3  C1  UNL d   1      -5.032  -4.837  -4.409  0.00  0.00    -0.004 A 
ATOM      4  C2  UNL d   1      -5.913  -3.884  -3.945  0.00  0.00    -0.047 A 
ATOM      5  C3  UNL d   1      -5.255  -2.633  -4.008  0.00  0.00    -0.047 A 
ATOM      6  C4  UNL d   1      -3.990  -2.858  -4.507  0.00  0.00    -0.004 A 
ENDROOT
TORSDOF 0
ENDMDL
