MODEL 1
REMARK minimizedAffinity -2.32607079
REMARK minimizedRMSD -1
REMARK  0 active torsions:
REMARK  status: ('A' for Active; 'I' for Inactive)
ROOT
ATOM      1  C   UNL d   1      -1.753  -5.972  -5.408  0.00  0.00     0.172 C 
ATOM      2  N   UNL d   1      -3.061  -5.437  -5.109  0.00  0.00    -0.070 N 
ATOM      3  C1  UNL d   1      -3.450  -4.903  -3.910  0.00  0.00    -0.004 A 
ATOM      4  C2  UNL d   1      -4.764  -4.506  -4.030  0.00  0.00    -0.047 A 
ATOM      5  C3  UNL d   1      -5.180  -4.814  -5.348  0.00  0.00    -0.047 A 
ATOM      6  C4  UNL d   1      -4.106  -5.389  -5.994  0.00  0.00    -0.004 A 
ENDROOT
TORSDOF 0
ENDMDL
