MODEL 1
REMARK minimizedAffinity -2.98439503
REMARK minimizedRMSD -1
REMARK  0 active torsions:
REMARK  status: ('A' for Active; 'I' for Inactive)
ROOT
ATOM      1  C   UNL d   1      -5.189  -4.377  -4.312  0.00  0.00     0.172 C 
ATOM      2  N   UNL d   1      -3.797  -4.755  -4.387  0.00  0.00    -0.070 N 
ATOM      3  C1  UNL d   1      -3.067  -5.317  -3.374  0.00  0.00    -0.004 A 
ATOM      4  C2  UNL d   1      -1.788  -5.527  -3.843  0.00  0.00    -0.047 A 
ATOM      5  C3  UNL d   1      -1.748  -5.074  -5.183  0.00  0.00    -0.047 A 
ATOM      6  C4  UNL d   1      -3.006  -4.601  -5.494  0.00  0.00    -0.004 A 
ENDROOT
TORSDOF 0
ENDMDL
