MODEL 1
REMARK minimizedAffinity -2.81083608
REMARK minimizedRMSD -1
REMARK  0 active torsions:
REMARK  status: ('A' for Active; 'I' for Inactive)
ROOT
ATOM      1  C   UNL d   1      -4.734  -2.750  -4.498  0.00  0.00     0.172 C 
ATOM      2  N   UNL d   1      -3.559  -3.543  -4.772  0.00  0.00    -0.070 N 
ATOM      3  C1  UNL d   1      -2.972  -3.703  -5.999  0.00  0.00    -0.004 A 
ATOM      4  C2  UNL d   1      -1.881  -4.529  -5.841  0.00  0.00    -0.047 A 
ATOM      5  C3  UNL d   1      -1.809  -4.878  -4.471  0.00  0.00    -0.047 A 
ATOM      6  C4  UNL d   1      -2.860  -4.254  -3.833  0.00  0.00    -0.004 A 
ENDROOT
TORSDOF 0
ENDMDL
