MODEL 1
REMARK minimizedAffinity -1.76868582
REMARK minimizedRMSD -1
REMARK  0 active torsions:
REMARK  status: ('A' for Active; 'I' for Inactive)
ROOT
ATOM      1  C   UNL d   1      -2.290  -5.985  -5.014  0.00  0.00     0.078 C 
ATOM      2  C1  UNL d   1      -3.561  -5.268  -5.359  0.00  0.00    -0.077 A 
ATOM      3  C2  UNL d   1      -3.625  -3.869  -5.347  0.00  0.00    -0.001 A 
ATOM      4  C3  UNL d   1      -4.818  -3.215  -5.661  0.00  0.00     0.003 A 
ATOM      5  C4  UNL d   1      -5.955  -3.951  -5.987  0.00  0.00    -0.005 A 
ATOM      6  C5  UNL d   1      -5.901  -5.344  -5.999  0.00  0.00     0.003 A 
ATOM      7  C6  UNL d   1      -4.709  -6.000  -5.686  0.00  0.00    -0.001 A 
ENDROOT
TORSDOF 0
ENDMDL
