MODEL 1
REMARK minimizedAffinity 9.88272953
REMARK minimizedRMSD -1
REMARK  0 active torsions:
REMARK  status: ('A' for Active; 'I' for Inactive)
ROOT
ATOM      1  C   UNL d   1      -0.722  -4.795  -5.046  0.00  0.00     0.078 C 
ATOM      2  C1  UNL d   1      -2.190  -4.802  -5.354  0.00  0.00    -0.077 A 
ATOM      3  C2  UNL d   1      -2.918  -5.998  -5.364  0.00  0.00    -0.001 A 
ATOM      4  C3  UNL d   1      -4.282  -5.991  -5.662  0.00  0.00     0.003 A 
ATOM      5  C4  UNL d   1      -4.928  -4.792  -5.954  0.00  0.00    -0.005 A 
ATOM      6  C5  UNL d   1      -4.211  -3.598  -5.949  0.00  0.00     0.003 A 
ATOM      7  C6  UNL d   1      -2.848  -3.602  -5.651  0.00  0.00    -0.001 A 
ENDROOT
TORSDOF 0
ENDMDL
