MODEL 1
REMARK minimizedAffinity 2.4275682
REMARK minimizedRMSD -1
REMARK  0 active torsions:
REMARK  status: ('A' for Active; 'I' for Inactive)
ROOT
ATOM      1  C   UNL d   1      -3.739  -1.738  -5.987  0.00  0.00     0.078 C 
ATOM      2  C1  UNL d   1      -3.947  -3.223  -5.975  0.00  0.00    -0.077 A 
ATOM      3  C2  UNL d   1      -2.859  -4.104  -5.994  0.00  0.00    -0.001 A 
ATOM      4  C3  UNL d   1      -3.068  -5.484  -5.993  0.00  0.00     0.003 A 
ATOM      5  C4  UNL d   1      -4.364  -5.995  -5.973  0.00  0.00    -0.005 A 
ATOM      6  C5  UNL d   1      -5.453  -5.126  -5.955  0.00  0.00     0.003 A 
ATOM      7  C6  UNL d   1      -5.246  -3.746  -5.957  0.00  0.00    -0.001 A 
ENDROOT
TORSDOF 0
ENDMDL
