MODEL 1
REMARK minimizedAffinity 6.90494156
REMARK minimizedRMSD -1
REMARK  0 active torsions:
REMARK  status: ('A' for Active; 'I' for Inactive)
ROOT
ATOM      1  C   UNL d   1      -3.714   4.508  -2.996  0.00  0.00     0.078 C 
ATOM      2  C1  UNL d   1      -2.461   4.343  -2.189  0.00  0.00    -0.077 A 
ATOM      3  C2  UNL d   1      -1.869   5.437  -1.545  0.00  0.00    -0.001 A 
ATOM      4  C3  UNL d   1      -0.698   5.271  -0.805  0.00  0.00     0.003 A 
ATOM      5  C4  UNL d   1      -0.108   4.013  -0.702  0.00  0.00    -0.005 A 
ATOM      6  C5  UNL d   1      -0.688   2.919  -1.340  0.00  0.00     0.003 A 
ATOM      7  C6  UNL d   1      -1.860   3.083  -2.081  0.00  0.00    -0.001 A 
ENDROOT
TORSDOF 0
ENDMDL
