MODEL 1
REMARK minimizedAffinity 5.20348787
REMARK minimizedRMSD -1
REMARK  0 active torsions:
REMARK  status: ('A' for Active; 'I' for Inactive)
ROOT
ATOM      1  C   UNL d   1      -3.466   1.528  -2.176  0.00  0.00     0.078 C 
ATOM      2  C1  UNL d   1      -2.371   2.458  -1.745  0.00  0.00    -0.077 A 
ATOM      3  C2  UNL d   1      -1.361   2.028  -0.875  0.00  0.00    -0.001 A 
ATOM      4  C3  UNL d   1      -0.354   2.906  -0.474  0.00  0.00     0.003 A 
ATOM      5  C4  UNL d   1      -0.347   4.221  -0.937  0.00  0.00    -0.005 A 
ATOM      6  C5  UNL d   1      -1.349   4.658  -1.800  0.00  0.00     0.003 A 
ATOM      7  C6  UNL d   1      -2.357   3.781  -2.202  0.00  0.00    -0.001 A 
ENDROOT
TORSDOF 0
ENDMDL
