MODEL 1
REMARK minimizedAffinity 1.39610147
REMARK minimizedRMSD -1
REMARK  0 active torsions:
REMARK  status: ('A' for Active; 'I' for Inactive)
ROOT
ATOM      1  C   UNL d   1      -2.835   6.000   1.331  0.00  0.00     0.078 C 
ATOM      2  C1  UNL d   1      -1.872   5.596   0.255  0.00  0.00    -0.077 A 
ATOM      3  C2  UNL d   1      -0.738   4.831   0.552  0.00  0.00    -0.001 A 
ATOM      4  C3  UNL d   1       0.156   4.471  -0.458  0.00  0.00     0.003 A 
ATOM      5  C4  UNL d   1      -0.075   4.873  -1.772  0.00  0.00    -0.005 A 
ATOM      6  C5  UNL d   1      -1.200   5.636  -2.078  0.00  0.00     0.003 A 
ATOM      7  C6  UNL d   1      -2.095   5.997  -1.069  0.00  0.00    -0.001 A 
ENDROOT
TORSDOF 0
ENDMDL
