MODEL 1
REMARK minimizedAffinity 1.9088099
REMARK minimizedRMSD -1
REMARK  1 active torsions:
REMARK  status: ('A' for Active; 'I' for Inactive)
REMARK    1  A    between atoms: C3_4  and  O_7 
ROOT
ATOM      1  C   UNL d   1       1.575  -0.501   0.431  0.00  0.00    -0.033 A 
ATOM      2  C1  UNL d   1       0.625   0.020  -0.450  0.00  0.00     0.039 A 
ATOM      3  C2  UNL d   1      -0.345   0.910   0.013  0.00  0.00    -0.080 A 
ATOM      4  C3  UNL d   1      -0.354   1.272   1.357  0.00  0.00     0.150 A 
ATOM      5  C4  UNL d   1       0.591   0.760   2.240  0.00  0.00    -0.007 A 
ATOM      6  C5  UNL d   1       1.559  -0.129   1.775  0.00  0.00     0.039 A 
ENDROOT
BRANCH   4   7
ATOM      7  O   UNL d   1      -1.285   2.134   1.857  0.00  0.00    -0.526 OA
ATOM      8  H5  UNL d   1      -1.890   2.384   1.139  0.00  0.00     0.418 HD
ENDBRANCH   4   7
TORSDOF 1
ENDMDL
