MODEL 1
REMARK minimizedAffinity 0.315999508
REMARK minimizedRMSD -1
REMARK  1 active torsions:
REMARK  status: ('A' for Active; 'I' for Inactive)
REMARK    1  A    between atoms: C3_4  and  O_7 
ROOT
ATOM      1  C   UNL d   1       0.082   4.651  -0.675  0.00  0.00    -0.033 A 
ATOM      2  C1  UNL d   1       0.035   3.266  -0.846  0.00  0.00     0.039 A 
ATOM      3  C2  UNL d   1      -0.924   2.510  -0.170  0.00  0.00    -0.080 A 
ATOM      4  C3  UNL d   1      -1.829   3.149   0.673  0.00  0.00     0.150 A 
ATOM      5  C4  UNL d   1      -1.791   4.529   0.845  0.00  0.00    -0.007 A 
ATOM      6  C5  UNL d   1      -0.832   5.283   0.169  0.00  0.00     0.039 A 
ENDROOT
BRANCH   4   7
ATOM      7  O   UNL d   1      -2.780   2.452   1.358  0.00  0.00    -0.526 OA
ATOM      8  H5  UNL d   1      -2.668   1.506   1.163  0.00  0.00     0.418 HD
ENDBRANCH   4   7
TORSDOF 1
ENDMDL
