MODEL 1
REMARK minimizedAffinity 5.03792667
REMARK minimizedRMSD -1
REMARK  1 active torsions:
REMARK  status: ('A' for Active; 'I' for Inactive)
REMARK    1  A    between atoms: C3_4  and  O_7 
ROOT
ATOM      1  C   UNL d   1       4.180  -4.463  -0.036  0.00  0.00    -0.033 A 
ATOM      2  C1  UNL d   1       5.169  -3.518   0.246  0.00  0.00     0.039 A 
ATOM      3  C2  UNL d   1       4.812  -2.206   0.564  0.00  0.00    -0.080 A 
ATOM      4  C3  UNL d   1       3.465  -1.853   0.597  0.00  0.00     0.150 A 
ATOM      5  C4  UNL d   1       2.476  -2.791   0.321  0.00  0.00    -0.007 A 
ATOM      6  C5  UNL d   1       2.834  -4.100   0.003  0.00  0.00     0.039 A 
ENDROOT
BRANCH   4   7
ATOM      7  O   UNL d   1       3.069  -0.584   0.898  0.00  0.00    -0.526 OA
ATOM      8  H5  UNL d   1       3.861  -0.039   1.037  0.00  0.00     0.418 HD
ENDBRANCH   4   7
TORSDOF 1
ENDMDL
