MODEL 1
REMARK minimizedAffinity 2.16909957
REMARK minimizedRMSD -1
REMARK  1 active torsions:
REMARK  status: ('A' for Active; 'I' for Inactive)
REMARK    1  A    between atoms: C3_4  and  O_7 
ROOT
ATOM      1  C   UNL d   1       2.057  -2.387  -0.631  0.00  0.00    -0.033 A 
ATOM      2  C1  UNL d   1       2.630  -3.596  -0.229  0.00  0.00     0.039 A 
ATOM      3  C2  UNL d   1       3.889  -3.606   0.375  0.00  0.00    -0.080 A 
ATOM      4  C3  UNL d   1       4.562  -2.404   0.573  0.00  0.00     0.150 A 
ATOM      5  C4  UNL d   1       3.996  -1.196   0.178  0.00  0.00    -0.007 A 
ATOM      6  C5  UNL d   1       2.740  -1.188  -0.426  0.00  0.00     0.039 A 
ENDROOT
BRANCH   4   7
ATOM      7  O   UNL d   1       5.795  -2.365   1.154  0.00  0.00    -0.526 OA
ATOM      8  H5  UNL d   1       6.073  -3.276   1.348  0.00  0.00     0.418 HD
ENDBRANCH   4   7
TORSDOF 1
ENDMDL
