MODEL 1
REMARK minimizedAffinity 9.02227879
REMARK minimizedRMSD -1
REMARK  1 active torsions:
REMARK  status: ('A' for Active; 'I' for Inactive)
REMARK    1  A    between atoms: C3_4  and  O_7 
ROOT
ATOM      1  C   UNL d   1      -0.755  -0.650  -2.464  0.00  0.00    -0.033 A 
ATOM      2  C1  UNL d   1       0.445  -0.067  -2.051  0.00  0.00     0.039 A 
ATOM      3  C2  UNL d   1       0.442   0.912  -1.055  0.00  0.00    -0.080 A 
ATOM      4  C3  UNL d   1      -0.766   1.298  -0.481  0.00  0.00     0.150 A 
ATOM      5  C4  UNL d   1      -1.964   0.719  -0.884  0.00  0.00    -0.007 A 
ATOM      6  C5  UNL d   1      -1.959  -0.258  -1.879  0.00  0.00     0.039 A 
ENDROOT
BRANCH   4   7
ATOM      7  O   UNL d   1      -0.820   2.253   0.491  0.00  0.00    -0.526 OA
ATOM      8  H5  UNL d   1       0.080   2.584   0.647  0.00  0.00     0.418 HD
ENDBRANCH   4   7
TORSDOF 1
ENDMDL
