MODEL 1
REMARK minimizedAffinity 7.42102098
REMARK minimizedRMSD -1
REMARK  1 active torsions:
REMARK  status: ('A' for Active; 'I' for Inactive)
REMARK    1  A    between atoms: C3_4  and  O_7 
ROOT
ATOM      1  C   UNL d   1      -1.678   2.354   1.263  0.00  0.00    -0.033 A 
ATOM      2  C1  UNL d   1      -1.059   1.522   0.329  0.00  0.00     0.039 A 
ATOM      3  C2  UNL d   1      -0.383   2.075  -0.761  0.00  0.00    -0.080 A 
ATOM      4  C3  UNL d   1      -0.334   3.459  -0.904  0.00  0.00     0.150 A 
ATOM      5  C4  UNL d   1      -0.946   4.294   0.025  0.00  0.00    -0.007 A 
ATOM      6  C5  UNL d   1      -1.620   3.740   1.112  0.00  0.00     0.039 A 
ENDROOT
BRANCH   4   7
ATOM      7  O   UNL d   1       0.309   4.044  -1.954  0.00  0.00    -0.526 OA
ATOM      8  H5  UNL d   1       0.659   3.344  -2.530  0.00  0.00     0.418 HD
ENDBRANCH   4   7
TORSDOF 1
ENDMDL
