MODEL 1
REMARK minimizedAffinity 2.67399311
REMARK minimizedRMSD -1
REMARK  1 active torsions:
REMARK  status: ('A' for Active; 'I' for Inactive)
REMARK    1  A    between atoms: C3_4  and  O_7 
ROOT
ATOM      1  C   UNL d   1      -0.367   4.157   0.409  0.00  0.00    -0.033 A 
ATOM      2  C1  UNL d   1       0.278   4.237  -0.827  0.00  0.00     0.039 A 
ATOM      3  C2  UNL d   1       0.564   3.073  -1.543  0.00  0.00    -0.080 A 
ATOM      4  C3  UNL d   1       0.199   1.838  -1.015  0.00  0.00     0.150 A 
ATOM      5  C4  UNL d   1      -0.448   1.752   0.214  0.00  0.00    -0.007 A 
ATOM      6  C5  UNL d   1      -0.731   2.915   0.929  0.00  0.00     0.039 A 
ENDROOT
BRANCH   4   7
ATOM      7  O   UNL d   1       0.461   0.675  -1.675  0.00  0.00    -0.526 OA
ATOM      8  H5  UNL d   1       0.937   0.887  -2.495  0.00  0.00     0.418 HD
ENDBRANCH   4   7
TORSDOF 1
ENDMDL
