MODEL 1
REMARK minimizedAffinity 0.18864359
REMARK minimizedRMSD -1
REMARK  1 active torsions:
REMARK  status: ('A' for Active; 'I' for Inactive)
REMARK    1  A    between atoms: C3_4  and  O_7 
ROOT
ATOM      1  C   UNL d   1      -1.690   3.260  -0.003  0.00  0.00    -0.033 A 
ATOM      2  C1  UNL d   1      -2.952   2.984   0.526  0.00  0.00     0.039 A 
ATOM      3  C2  UNL d   1      -3.084   2.091   1.591  0.00  0.00    -0.080 A 
ATOM      4  C3  UNL d   1      -1.948   1.482   2.117  0.00  0.00     0.150 A 
ATOM      5  C4  UNL d   1      -0.688   1.755   1.597  0.00  0.00    -0.007 A 
ATOM      6  C5  UNL d   1      -0.558   2.646   0.533  0.00  0.00     0.039 A 
ENDROOT
BRANCH   4   7
ATOM      7  O   UNL d   1      -2.028   0.599   3.153  0.00  0.00    -0.526 OA
ATOM      8  H5  UNL d   1      -2.964   0.486   3.390  0.00  0.00     0.418 HD
ENDBRANCH   4   7
TORSDOF 1
ENDMDL
