MODEL 1
REMARK minimizedAffinity 5.5484252
REMARK minimizedRMSD -1
REMARK  1 active torsions:
REMARK  status: ('A' for Active; 'I' for Inactive)
REMARK    1  A    between atoms: C3_4  and  O_7 
ROOT
ATOM      1  C   UNL d   1      -0.382   3.987  -0.224  0.00  0.00    -0.033 A 
ATOM      2  C1  UNL d   1      -0.634   2.914   0.634  0.00  0.00     0.039 A 
ATOM      3  C2  UNL d   1      -0.388   1.607   0.210  0.00  0.00    -0.080 A 
ATOM      4  C3  UNL d   1       0.109   1.386  -1.071  0.00  0.00     0.150 A 
ATOM      5  C4  UNL d   1       0.365   2.450  -1.930  0.00  0.00    -0.007 A 
ATOM      6  C5  UNL d   1       0.118   3.755  -1.505  0.00  0.00     0.039 A 
ENDROOT
BRANCH   4   7
ATOM      7  O   UNL d   1       0.359   0.127  -1.531  0.00  0.00    -0.526 OA
ATOM      8  H5  UNL d   1       0.108  -0.509  -0.840  0.00  0.00     0.418 HD
ENDBRANCH   4   7
TORSDOF 1
ENDMDL
