MODEL 1
REMARK minimizedAffinity 3.96788239
REMARK minimizedRMSD -1
REMARK  1 active torsions:
REMARK  status: ('A' for Active; 'I' for Inactive)
REMARK    1  A    between atoms: C3_4  and  O_7 
ROOT
ATOM      1  C   UNL d   1       0.167   2.599  -1.799  0.00  0.00    -0.033 A 
ATOM      2  C1  UNL d   1      -0.055   3.736  -1.019  0.00  0.00     0.039 A 
ATOM      3  C2  UNL d   1      -0.487   3.605   0.302  0.00  0.00    -0.080 A 
ATOM      4  C3  UNL d   1      -0.693   2.334   0.831  0.00  0.00     0.150 A 
ATOM      5  C4  UNL d   1      -0.470   1.197   0.061  0.00  0.00    -0.007 A 
ATOM      6  C5  UNL d   1      -0.039   1.330  -1.258  0.00  0.00     0.039 A 
ENDROOT
BRANCH   4   7
ATOM      7  O   UNL d   1      -1.119   2.156   2.114  0.00  0.00    -0.526 OA
ATOM      8  H5  UNL d   1      -1.258   3.030   2.515  0.00  0.00     0.418 HD
ENDBRANCH   4   7
TORSDOF 1
ENDMDL
