MODEL 1
REMARK minimizedAffinity 7.53492117
REMARK minimizedRMSD -1
REMARK  1 active torsions:
REMARK  status: ('A' for Active; 'I' for Inactive)
REMARK    1  A    between atoms: C3_4  and  O_7 
ROOT
ATOM      1  C   UNL d   1       0.384   0.919  -2.139  0.00  0.00    -0.033 A 
ATOM      2  C1  UNL d   1       0.126  -0.161  -2.985  0.00  0.00     0.039 A 
ATOM      3  C2  UNL d   1      -1.148  -0.731  -3.024  0.00  0.00    -0.080 A 
ATOM      4  C3  UNL d   1      -2.154  -0.211  -2.214  0.00  0.00     0.150 A 
ATOM      5  C4  UNL d   1      -1.905   0.868  -1.372  0.00  0.00    -0.007 A 
ATOM      6  C5  UNL d   1      -0.632   1.435  -1.334  0.00  0.00     0.039 A 
ENDROOT
BRANCH   4   7
ATOM      7  O   UNL d   1      -3.412  -0.737  -2.214  0.00  0.00    -0.526 OA
ATOM      8  H5  UNL d   1      -3.429  -1.494  -2.822  0.00  0.00     0.418 HD
ENDBRANCH   4   7
TORSDOF 1
ENDMDL
