MODEL 1
REMARK minimizedAffinity 3.57250094
REMARK minimizedRMSD -1
REMARK  1 active torsions:
REMARK  status: ('A' for Active; 'I' for Inactive)
REMARK    1  A    between atoms: C3_4  and  O_7 
ROOT
ATOM      1  C   UNL d   1       0.197   0.254  -1.732  0.00  0.00    -0.033 A 
ATOM      2  C1  UNL d   1      -0.461  -0.930  -2.069  0.00  0.00     0.039 A 
ATOM      3  C2  UNL d   1      -1.840  -0.927  -2.289  0.00  0.00    -0.080 A 
ATOM      4  C3  UNL d   1      -2.548   0.266  -2.170  0.00  0.00     0.150 A 
ATOM      5  C4  UNL d   1      -1.898   1.451  -1.839  0.00  0.00    -0.007 A 
ATOM      6  C5  UNL d   1      -0.521   1.445  -1.619  0.00  0.00     0.039 A 
ENDROOT
BRANCH   4   7
ATOM      7  O   UNL d   1      -3.895   0.318  -2.370  0.00  0.00    -0.526 OA
ATOM      8  H5  UNL d   1      -4.213  -0.579  -2.564  0.00  0.00     0.418 HD
ENDBRANCH   4   7
TORSDOF 1
ENDMDL
