MODEL 1
REMARK minimizedAffinity 6.26219082
REMARK minimizedRMSD -1
REMARK  1 active torsions:
REMARK  status: ('A' for Active; 'I' for Inactive)
REMARK    1  A    between atoms: C3_4  and  O_7 
ROOT
ATOM      1  C   UNL d   1       4.578  -4.355   0.843  0.00  0.00    -0.033 A 
ATOM      2  C1  UNL d   1       3.184  -4.332   0.919  0.00  0.00     0.039 A 
ATOM      3  C2  UNL d   1       2.513  -3.121   1.099  0.00  0.00    -0.080 A 
ATOM      4  C3  UNL d   1       3.246  -1.942   1.200  0.00  0.00     0.150 A 
ATOM      5  C4  UNL d   1       4.635  -1.957   1.122  0.00  0.00    -0.007 A 
ATOM      6  C5  UNL d   1       5.303  -3.167   0.944  0.00  0.00     0.039 A 
ENDROOT
BRANCH   4   7
ATOM      7  O   UNL d   1       2.635  -0.737   1.381  0.00  0.00    -0.526 OA
ATOM      8  H5  UNL d   1       1.677  -0.884   1.446  0.00  0.00     0.418 HD
ENDBRANCH   4   7
TORSDOF 1
ENDMDL
