MODEL 1
REMARK minimizedAffinity -0.58390063
REMARK minimizedRMSD -1
REMARK  1 active torsions:
REMARK  status: ('A' for Active; 'I' for Inactive)
REMARK    1  A    between atoms: C3_4  and  O_7 
ROOT
ATOM      1  C   UNL d   1      -1.343  -0.470  -2.883  0.00  0.00    -0.033 A 
ATOM      2  C1  UNL d   1      -0.030  -0.458  -2.408  0.00  0.00     0.039 A 
ATOM      3  C2  UNL d   1       0.474   0.679  -1.772  0.00  0.00    -0.080 A 
ATOM      4  C3  UNL d   1      -0.345   1.795  -1.618  0.00  0.00     0.150 A 
ATOM      5  C4  UNL d   1      -1.654   1.788  -2.086  0.00  0.00    -0.007 A 
ATOM      6  C5  UNL d   1      -2.156   0.653  -2.721  0.00  0.00     0.039 A 
ENDROOT
BRANCH   4   7
ATOM      7  O   UNL d   1       0.104   2.929  -1.009  0.00  0.00    -0.526 OA
ATOM      8  H5  UNL d   1       1.036   2.798  -0.764  0.00  0.00     0.418 HD
ENDBRANCH   4   7
TORSDOF 1
ENDMDL
