MODEL 1
REMARK minimizedAffinity -1.25252235
REMARK minimizedRMSD -1
REMARK  1 active torsions:
REMARK  status: ('A' for Active; 'I' for Inactive)
REMARK    1  A    between atoms: C3_4  and  O_7 
ROOT
ATOM      1  C   UNL d   1      -0.556   2.508  -0.781  0.00  0.00    -0.033 A 
ATOM      2  C1  UNL d   1      -1.469   2.369   0.266  0.00  0.00     0.039 A 
ATOM      3  C2  UNL d   1      -2.167   3.482   0.739  0.00  0.00    -0.080 A 
ATOM      4  C3  UNL d   1      -1.943   4.727   0.158  0.00  0.00     0.150 A 
ATOM      5  C4  UNL d   1      -1.037   4.872  -0.888  0.00  0.00    -0.007 A 
ATOM      6  C5  UNL d   1      -0.341   3.760  -1.359  0.00  0.00     0.039 A 
ENDROOT
BRANCH   4   7
ATOM      7  O   UNL d   1      -2.596   5.842   0.589  0.00  0.00    -0.526 OA
ATOM      8  H5  UNL d   1      -3.168   5.595   1.335  0.00  0.00     0.418 HD
ENDBRANCH   4   7
TORSDOF 1
ENDMDL
