MODEL 1
REMARK minimizedAffinity 4.58251715
REMARK minimizedRMSD -1
REMARK  0 active torsions:
REMARK  status: ('A' for Active; 'I' for Inactive)
ROOT
ATOM      1  C   UNL d   1       4.928  -5.995  -1.159  0.00  0.00     0.077 C 
ATOM      2  C1  UNL d   1       4.554  -5.009  -0.093  0.00  0.00    -0.074 A 
ATOM      3  C2  UNL d   1       5.520  -4.187   0.496  0.00  0.00    -0.005 A 
ATOM      4  C3  UNL d   1       5.155  -3.268   1.480  0.00  0.00     0.006 A 
ATOM      5  C4  UNL d   1       3.824  -3.163   1.885  0.00  0.00    -0.005 A 
ATOM      6  C5  UNL d   1       2.844  -3.977   1.307  0.00  0.00    -0.074 A 
ATOM      7  C6  UNL d   1       1.408  -3.870   1.723  0.00  0.00     0.077 C 
ATOM      8  C7  UNL d   1       3.217  -4.892   0.314  0.00  0.00    -0.001 A 
ENDROOT
TORSDOF 0
ENDMDL
