MODEL 1
REMARK minimizedAffinity 12.6220655
REMARK minimizedRMSD -1
REMARK  0 active torsions:
REMARK  status: ('A' for Active; 'I' for Inactive)
ROOT
ATOM      1  C   UNL d   1      -3.729  -0.375  -6.000  0.00  0.00     0.077 C 
ATOM      2  C1  UNL d   1      -4.022  -0.954  -4.647  0.00  0.00    -0.074 A 
ATOM      3  C2  UNL d   1      -4.163  -2.334  -4.471  0.00  0.00    -0.005 A 
ATOM      4  C3  UNL d   1      -4.426  -2.858  -3.205  0.00  0.00     0.006 A 
ATOM      5  C4  UNL d   1      -4.551  -2.008  -2.105  0.00  0.00    -0.005 A 
ATOM      6  C5  UNL d   1      -4.412  -0.626  -2.262  0.00  0.00    -0.074 A 
ATOM      7  C6  UNL d   1      -4.533   0.300  -1.089  0.00  0.00     0.077 C 
ATOM      8  C7  UNL d   1      -4.141  -0.107  -3.536  0.00  0.00    -0.001 A 
ENDROOT
TORSDOF 0
ENDMDL
