MODEL 1
REMARK minimizedAffinity -4.65255547
REMARK minimizedRMSD -1
REMARK  0 active torsions:
REMARK  status: ('A' for Active; 'I' for Inactive)
ROOT
ATOM      1  C   UNL d   1       4.818  -3.424   1.728  0.00  0.00     0.077 C 
ATOM      2  C1  UNL d   1       4.539  -3.432   3.202  0.00  0.00    -0.074 A 
ATOM      3  C2  UNL d   1       4.346  -2.238   3.904  0.00  0.00    -0.005 A 
ATOM      4  C3  UNL d   1       4.078  -2.262   5.272  0.00  0.00     0.006 A 
ATOM      5  C4  UNL d   1       3.999  -3.478   5.952  0.00  0.00    -0.005 A 
ATOM      6  C5  UNL d   1       4.188  -4.682   5.266  0.00  0.00    -0.074 A 
ATOM      7  C6  UNL d   1       4.097  -5.999   5.980  0.00  0.00     0.077 C 
ATOM      8  C7  UNL d   1       4.450  -4.650   3.890  0.00  0.00    -0.001 A 
ENDROOT
TORSDOF 0
ENDMDL
