MODEL 1
REMARK minimizedAffinity 14.9276724
REMARK minimizedRMSD -1
REMARK  0 active torsions:
REMARK  status: ('A' for Active; 'I' for Inactive)
ROOT
ATOM      1  C   UNL d   1      -5.167  -3.706  -4.254  0.00  0.00     0.077 C 
ATOM      2  C1  UNL d   1      -4.884  -2.486  -3.428  0.00  0.00    -0.074 A 
ATOM      3  C2  UNL d   1      -5.515  -1.269  -3.704  0.00  0.00    -0.005 A 
ATOM      4  C3  UNL d   1      -5.250  -0.146  -2.920  0.00  0.00     0.006 A 
ATOM      5  C4  UNL d   1      -4.352  -0.228  -1.856  0.00  0.00    -0.005 A 
ATOM      6  C5  UNL d   1      -3.711  -1.437  -1.564  0.00  0.00    -0.074 A 
ATOM      7  C6  UNL d   1      -2.751  -1.545  -0.418  0.00  0.00     0.077 C 
ATOM      8  C7  UNL d   1      -3.989  -2.563  -2.352  0.00  0.00    -0.001 A 
ENDROOT
TORSDOF 0
ENDMDL
