MODEL 1
REMARK minimizedAffinity 9.0505228
REMARK minimizedRMSD -1
REMARK  0 active torsions:
REMARK  status: ('A' for Active; 'I' for Inactive)
ROOT
ATOM      1  C   UNL d   1      -2.568  -1.235  -1.296  0.00  0.00     0.077 C 
ATOM      2  C1  UNL d   1      -3.705  -1.241  -2.274  0.00  0.00    -0.074 A 
ATOM      3  C2  UNL d   1      -4.454  -0.084  -2.513  0.00  0.00    -0.005 A 
ATOM      4  C3  UNL d   1      -5.503  -0.103  -3.432  0.00  0.00     0.006 A 
ATOM      5  C4  UNL d   1      -5.813  -1.276  -4.121  0.00  0.00    -0.005 A 
ATOM      6  C5  UNL d   1      -5.075  -2.442  -3.896  0.00  0.00    -0.074 A 
ATOM      7  C6  UNL d   1      -5.388  -3.709  -4.635  0.00  0.00     0.077 C 
ATOM      8  C7  UNL d   1      -4.018  -2.414  -2.976  0.00  0.00    -0.001 A 
ENDROOT
TORSDOF 0
ENDMDL
