MODEL 1
REMARK minimizedAffinity 2.10844946
REMARK minimizedRMSD -1
REMARK  0 active torsions:
REMARK  status: ('A' for Active; 'I' for Inactive)
ROOT
ATOM      1  C   UNL d   1       4.913  -2.269   5.999  0.00  0.00     0.077 C 
ATOM      2  C1  UNL d   1       4.482  -3.575   5.401  0.00  0.00    -0.074 A 
ATOM      3  C2  UNL d   1       4.834  -4.790   5.997  0.00  0.00    -0.005 A 
ATOM      4  C3  UNL d   1       4.418  -5.996   5.435  0.00  0.00     0.006 A 
ATOM      5  C4  UNL d   1       3.647  -6.000   4.271  0.00  0.00    -0.005 A 
ATOM      6  C5  UNL d   1       3.285  -4.795   3.661  0.00  0.00    -0.074 A 
ATOM      7  C6  UNL d   1       2.448  -4.781   2.416  0.00  0.00     0.077 C 
ATOM      8  C7  UNL d   1       3.701  -3.586   4.237  0.00  0.00    -0.001 A 
ENDROOT
TORSDOF 0
ENDMDL
