MODEL 1
REMARK minimizedAffinity 11.7968006
REMARK minimizedRMSD -1
REMARK  0 active torsions:
REMARK  status: ('A' for Active; 'I' for Inactive)
ROOT
ATOM      1  C   UNL d   1      -3.444   1.032   3.785  0.00  0.00     0.077 C 
ATOM      2  C1  UNL d   1      -2.526  -0.046   3.292  0.00  0.00    -0.074 A 
ATOM      3  C2  UNL d   1      -3.030  -1.182   2.650  0.00  0.00    -0.005 A 
ATOM      4  C3  UNL d   1      -2.163  -2.172   2.188  0.00  0.00     0.006 A 
ATOM      5  C4  UNL d   1      -0.786  -2.037   2.363  0.00  0.00    -0.005 A 
ATOM      6  C5  UNL d   1      -0.263  -0.908   3.002  0.00  0.00    -0.074 A 
ATOM      7  C6  UNL d   1       1.216  -0.743   3.190  0.00  0.00     0.077 C 
ATOM      8  C7  UNL d   1      -1.140   0.086   3.457  0.00  0.00    -0.001 A 
ENDROOT
TORSDOF 0
ENDMDL
