MODEL 1
REMARK minimizedAffinity 12.1094723
REMARK minimizedRMSD -1
REMARK  0 active torsions:
REMARK  status: ('A' for Active; 'I' for Inactive)
ROOT
ATOM      1  C   UNL d   1      -2.770  -1.044  -1.267  0.00  0.00     0.077 C 
ATOM      2  C1  UNL d   1      -3.678  -1.165  -2.455  0.00  0.00    -0.074 A 
ATOM      3  C2  UNL d   1      -4.688  -2.132  -2.492  0.00  0.00    -0.005 A 
ATOM      4  C3  UNL d   1      -5.530  -2.226  -3.600  0.00  0.00     0.006 A 
ATOM      5  C4  UNL d   1      -5.372  -1.356  -4.679  0.00  0.00    -0.005 A 
ATOM      6  C5  UNL d   1      -4.368  -0.383  -4.660  0.00  0.00    -0.074 A 
ATOM      7  C6  UNL d   1      -4.191   0.566  -5.807  0.00  0.00     0.077 C 
ATOM      8  C7  UNL d   1      -3.530  -0.290  -3.540  0.00  0.00    -0.001 A 
ENDROOT
TORSDOF 0
ENDMDL
