MODEL 1
REMARK minimizedAffinity -0.445424348
REMARK minimizedRMSD -1
REMARK  0 active torsions:
REMARK  status: ('A' for Active; 'I' for Inactive)
ROOT
ATOM      1  C   UNL d   1       4.124  -4.110   6.000  0.00  0.00     0.077 C 
ATOM      2  C1  UNL d   1       3.737  -4.244   4.557  0.00  0.00    -0.074 A 
ATOM      3  C2  UNL d   1       4.333  -5.210   3.740  0.00  0.00    -0.005 A 
ATOM      4  C3  UNL d   1       3.956  -5.329   2.402  0.00  0.00     0.006 A 
ATOM      5  C4  UNL d   1       2.980  -4.486   1.870  0.00  0.00    -0.005 A 
ATOM      6  C5  UNL d   1       2.372  -3.515   2.672  0.00  0.00    -0.074 A 
ATOM      7  C6  UNL d   1       1.315  -2.607   2.118  0.00  0.00     0.077 C 
ATOM      8  C7  UNL d   1       2.752  -3.406   4.017  0.00  0.00    -0.001 A 
ENDROOT
TORSDOF 0
ENDMDL
