MODEL 1
REMARK minimizedAffinity -4.02654886
REMARK minimizedRMSD -1
REMARK  0 active torsions:
REMARK  status: ('A' for Active; 'I' for Inactive)
ROOT
ATOM      1  C   UNL d   1       2.531  -0.069   0.418  0.00  0.00     0.078 C 
ATOM      2  C1  UNL d   1       1.044  -0.078   0.228  0.00  0.00    -0.077 A 
ATOM      3  C2  UNL d   1       0.423   0.823  -0.646  0.00  0.00    -0.001 A 
ATOM      4  C3  UNL d   1      -0.964   0.810  -0.806  0.00  0.00     0.003 A 
ATOM      5  C4  UNL d   1      -1.741  -0.101  -0.094  0.00  0.00    -0.005 A 
ATOM      6  C5  UNL d   1      -1.133  -1.000   0.779  0.00  0.00     0.003 A 
ATOM      7  C6  UNL d   1       0.253  -0.989   0.940  0.00  0.00    -0.001 A 
ENDROOT
TORSDOF 0
ENDMDL
