MODEL 1
REMARK minimizedAffinity -5.30942392
REMARK minimizedRMSD -1
REMARK  0 active torsions:
REMARK  status: ('A' for Active; 'I' for Inactive)
ROOT
ATOM      1  C   UNL d   1       3.432  -0.509   0.922  0.00  0.00     0.078 C 
ATOM      2  C1  UNL d   1       2.061  -0.036   0.546  0.00  0.00    -0.077 A 
ATOM      3  C2  UNL d   1       0.994  -0.935   0.429  0.00  0.00    -0.001 A 
ATOM      4  C3  UNL d   1      -0.276  -0.482   0.068  0.00  0.00     0.003 A 
ATOM      5  C4  UNL d   1      -0.491   0.873  -0.181  0.00  0.00    -0.005 A 
ATOM      6  C5  UNL d   1       0.565   1.775  -0.069  0.00  0.00     0.003 A 
ATOM      7  C6  UNL d   1       1.836   1.323   0.292  0.00  0.00    -0.001 A 
ENDROOT
TORSDOF 0
ENDMDL
