MODEL 1
REMARK minimizedAffinity -5.57577896
REMARK minimizedRMSD -1
REMARK  0 active torsions:
REMARK  status: ('A' for Active; 'I' for Inactive)
ROOT
ATOM      1  C   UNL d   1       3.304  -0.519   0.675  0.00  0.00     0.078 C 
ATOM      2  C1  UNL d   1       1.807  -0.460   0.607  0.00  0.00    -0.077 A 
ATOM      3  C2  UNL d   1       1.021  -1.504   1.111  0.00  0.00    -0.001 A 
ATOM      4  C3  UNL d   1      -0.371  -1.441   1.032  0.00  0.00     0.003 A 
ATOM      5  C4  UNL d   1      -0.989  -0.337   0.449  0.00  0.00    -0.005 A 
ATOM      6  C5  UNL d   1      -0.216   0.706  -0.057  0.00  0.00     0.003 A 
ATOM      7  C6  UNL d   1       1.177   0.644   0.021  0.00  0.00    -0.001 A 
ENDROOT
TORSDOF 0
ENDMDL
