MODEL 1
REMARK minimizedAffinity -3.539428
REMARK minimizedRMSD -1
REMARK  0 active torsions:
REMARK  status: ('A' for Active; 'I' for Inactive)
ROOT
ATOM      1  C   UNL d   1      -0.343   0.809  -0.256  0.00  0.00     0.078 C 
ATOM      2  C1  UNL d   1       0.747   0.227   0.594  0.00  0.00    -0.077 A 
ATOM      3  C2  UNL d   1       1.801   1.022   1.059  0.00  0.00    -0.001 A 
ATOM      4  C3  UNL d   1       2.814   0.465   1.842  0.00  0.00     0.003 A 
ATOM      5  C4  UNL d   1       2.782  -0.890   2.166  0.00  0.00    -0.005 A 
ATOM      6  C5  UNL d   1       1.737  -1.689   1.707  0.00  0.00     0.003 A 
ATOM      7  C6  UNL d   1       0.724  -1.134   0.924  0.00  0.00    -0.001 A 
ENDROOT
TORSDOF 0
ENDMDL
