MODEL 1
REMARK minimizedAffinity -5.09034157
REMARK minimizedRMSD -1
REMARK  0 active torsions:
REMARK  status: ('A' for Active; 'I' for Inactive)
ROOT
ATOM      1  C   UNL d   1       3.101  -0.147   1.064  0.00  0.00     0.078 C 
ATOM      2  C1  UNL d   1       1.633  -0.011   0.788  0.00  0.00    -0.077 A 
ATOM      3  C2  UNL d   1       0.769  -1.104   0.924  0.00  0.00    -0.001 A 
ATOM      4  C3  UNL d   1      -0.593  -0.966   0.653  0.00  0.00     0.003 A 
ATOM      5  C4  UNL d   1      -1.103   0.264   0.244  0.00  0.00    -0.005 A 
ATOM      6  C5  UNL d   1      -0.251   1.358   0.103  0.00  0.00     0.003 A 
ATOM      7  C6  UNL d   1       1.111   1.221   0.373  0.00  0.00    -0.001 A 
ENDROOT
TORSDOF 0
ENDMDL
