MODEL 1
REMARK minimizedAffinity -4.70912027
REMARK minimizedRMSD -1
REMARK  0 active torsions:
REMARK  status: ('A' for Active; 'I' for Inactive)
ROOT
ATOM      1  C   UNL d   1       3.573  -0.900   1.049  0.00  0.00     0.078 C 
ATOM      2  C1  UNL d   1       2.235  -0.390   0.606  0.00  0.00    -0.077 A 
ATOM      3  C2  UNL d   1       1.965   0.983   0.561  0.00  0.00    -0.001 A 
ATOM      4  C3  UNL d   1       0.711   1.443   0.155  0.00  0.00     0.003 A 
ATOM      5  C4  UNL d   1      -0.283   0.537  -0.207  0.00  0.00    -0.005 A 
ATOM      6  C5  UNL d   1      -0.025  -0.832  -0.163  0.00  0.00     0.003 A 
ATOM      7  C6  UNL d   1       1.228  -1.294   0.242  0.00  0.00    -0.001 A 
ENDROOT
TORSDOF 0
ENDMDL
