MODEL 1
REMARK minimizedAffinity -4.56216717
REMARK minimizedRMSD -1
REMARK  0 active torsions:
REMARK  status: ('A' for Active; 'I' for Inactive)
ROOT
ATOM      1  C   UNL d   1      -1.148  -0.091  -0.005  0.00  0.00     0.078 C 
ATOM      2  C1  UNL d   1       0.331  -0.023   0.228  0.00  0.00    -0.077 A 
ATOM      3  C2  UNL d   1       0.982   1.207   0.382  0.00  0.00    -0.001 A 
ATOM      4  C3  UNL d   1       2.361   1.256   0.589  0.00  0.00     0.003 A 
ATOM      5  C4  UNL d   1       3.103   0.077   0.643  0.00  0.00    -0.005 A 
ATOM      6  C5  UNL d   1       2.464  -1.152   0.489  0.00  0.00     0.003 A 
ATOM      7  C6  UNL d   1       1.085  -1.202   0.282  0.00  0.00    -0.001 A 
ENDROOT
TORSDOF 0
ENDMDL
