MODEL 1
REMARK minimizedAffinity -5.33528709
REMARK minimizedRMSD -1
REMARK  0 active torsions:
REMARK  status: ('A' for Active; 'I' for Inactive)
ROOT
ATOM      1  C   UNL d   1      -1.355  -0.040  -0.065  0.00  0.00     0.078 C 
ATOM      2  C1  UNL d   1       0.039  -0.041   0.486  0.00  0.00    -0.077 A 
ATOM      3  C2  UNL d   1       0.801   1.133   0.522  0.00  0.00    -0.001 A 
ATOM      4  C3  UNL d   1       2.101   1.116   1.029  0.00  0.00     0.003 A 
ATOM      5  C4  UNL d   1       2.651  -0.073   1.504  0.00  0.00    -0.005 A 
ATOM      6  C5  UNL d   1       1.902  -1.247   1.470  0.00  0.00     0.003 A 
ATOM      7  C6  UNL d   1       0.601  -1.232   0.963  0.00  0.00    -0.001 A 
ENDROOT
TORSDOF 0
ENDMDL
