MODEL 1
REMARK minimizedAffinity 7.51332188
REMARK minimizedRMSD -1
REMARK  0 active torsions:
REMARK  status: ('A' for Active; 'I' for Inactive)
ROOT
ATOM      1  O1  BZF d   1       1.971   3.800  -0.359  0.00  0.00    -0.204 OA
ATOM      2  C2  BZF d   1       1.244   2.976   0.477  0.00  0.00     0.174 A 
ATOM      3  C3  BZF d   1      -0.080   3.140   0.279  0.00  0.00    -0.012 A 
ATOM      4  C3A BZF d   1      -0.186   4.062  -0.810  0.00  0.00    -0.107 A 
ATOM      5  C4  BZF d   1      -1.244   4.607  -1.480  0.00  0.00     0.055 A 
ATOM      6  C5  BZF d   1      -1.008   5.531  -2.448  0.00  0.00    -0.016 A 
ATOM      7  C6  BZF d   1       0.271   5.937  -2.768  0.00  0.00     0.022 A 
ATOM      8  C7  BZF d   1       1.353   5.421  -2.134  0.00  0.00     0.029 A 
ATOM      9  C7A BZF d   1       1.119   4.463  -1.179  0.00  0.00     0.058 A 
ENDROOT
TORSDOF 0
ENDMDL
