MODEL 1
REMARK minimizedAffinity 11.108449
REMARK minimizedRMSD -1
REMARK  0 active torsions:
REMARK  status: ('A' for Active; 'I' for Inactive)
ROOT
ATOM      1  O1  BZF d   1       2.219   3.048   3.421  0.00  0.00    -0.204 OA
ATOM      2  C2  BZF d   1       1.115   2.411   3.952  0.00  0.00     0.174 A 
ATOM      3  C3  BZF d   1       0.133   2.310   3.033  0.00  0.00    -0.012 A 
ATOM      4  C3A BZF d   1       0.691   2.839   1.827  0.00  0.00    -0.107 A 
ATOM      5  C4  BZF d   1       0.208   2.995   0.559  0.00  0.00     0.055 A 
ATOM      6  C5  BZF d   1       0.982   3.614  -0.371  0.00  0.00    -0.016 A 
ATOM      7  C6  BZF d   1       2.240   4.092  -0.067  0.00  0.00     0.022 A 
ATOM      8  C7  BZF d   1       2.764   3.955   1.176  0.00  0.00     0.029 A 
ATOM      9  C7A BZF d   1       1.997   3.301   2.109  0.00  0.00     0.058 A 
ENDROOT
TORSDOF 0
ENDMDL
