MODEL 1
REMARK minimizedAffinity 2.21448374
REMARK minimizedRMSD -1
REMARK  0 active torsions:
REMARK  status: ('A' for Active; 'I' for Inactive)
ROOT
ATOM      1  O1  BZF d   1      -2.117   4.097   2.158  0.00  0.00    -0.204 OA
ATOM      2  C2  BZF d   1      -2.598   5.389   2.074  0.00  0.00     0.174 A 
ATOM      3  C3  BZF d   1      -2.258   5.951   0.897  0.00  0.00    -0.012 A 
ATOM      4  C3A BZF d   1      -1.598   4.916   0.162  0.00  0.00    -0.107 A 
ATOM      5  C4  BZF d   1      -1.043   4.856  -1.084  0.00  0.00     0.055 A 
ATOM      6  C5  BZF d   1      -0.412   3.717  -1.472  0.00  0.00    -0.016 A 
ATOM      7  C6  BZF d   1      -0.312   2.622  -0.638  0.00  0.00     0.022 A 
ATOM      8  C7  BZF d   1      -0.851   2.632   0.605  0.00  0.00     0.029 A 
ATOM      9  C7A BZF d   1      -1.518   3.770   0.988  0.00  0.00     0.058 A 
ENDROOT
TORSDOF 0
ENDMDL
