MODEL 1
REMARK minimizedAffinity 4.49724293
REMARK minimizedRMSD -1
REMARK  0 active torsions:
REMARK  status: ('A' for Active; 'I' for Inactive)
ROOT
ATOM      1  O1  BZF d   1       2.076  -1.202   3.937  0.00  0.00    -0.204 OA
ATOM      2  C2  BZF d   1       1.124  -1.701   4.805  0.00  0.00     0.174 A 
ATOM      3  C3  BZF d   1       0.030  -0.913   4.820  0.00  0.00    -0.012 A 
ATOM      4  C3A BZF d   1       0.279   0.095   3.836  0.00  0.00    -0.107 A 
ATOM      5  C4  BZF d   1      -0.445   1.159   3.377  0.00  0.00     0.055 A 
ATOM      6  C5  BZF d   1       0.114   1.993   2.462  0.00  0.00    -0.016 A 
ATOM      7  C6  BZF d   1       1.395   1.797   1.987  0.00  0.00     0.022 A 
ATOM      8  C7  BZF d   1       2.149   0.753   2.409  0.00  0.00     0.029 A 
ATOM      9  C7A BZF d   1       1.575  -0.111   3.309  0.00  0.00     0.058 A 
ENDROOT
TORSDOF 0
ENDMDL
