MODEL 1
REMARK minimizedAffinity 8.75472069
REMARK minimizedRMSD -1
REMARK  0 active torsions:
REMARK  status: ('A' for Active; 'I' for Inactive)
ROOT
ATOM      1  O1  BZF d   1       5.639  -4.735  -4.454  0.00  0.00    -0.204 OA
ATOM      2  C2  BZF d   1       4.678  -5.371  -5.216  0.00  0.00     0.174 A 
ATOM      3  C3  BZF d   1       3.782  -6.000  -4.428  0.00  0.00    -0.012 A 
ATOM      4  C3A BZF d   1       4.157  -5.663  -3.089  0.00  0.00    -0.107 A 
ATOM      5  C4  BZF d   1       3.641  -5.974  -1.864  0.00  0.00     0.055 A 
ATOM      6  C5  BZF d   1       4.287  -5.546  -0.747  0.00  0.00    -0.016 A 
ATOM      7  C6  BZF d   1       5.452  -4.811  -0.819  0.00  0.00     0.022 A 
ATOM      8  C7  BZF d   1       6.000  -4.475  -2.013  0.00  0.00     0.029 A 
ATOM      9  C7A BZF d   1       5.331  -4.878  -3.143  0.00  0.00     0.058 A 
ENDROOT
TORSDOF 0
ENDMDL
