MODEL 1
REMARK minimizedAffinity 16.374918
REMARK minimizedRMSD -1
REMARK  0 active torsions:
REMARK  status: ('A' for Active; 'I' for Inactive)
ROOT
ATOM      1  O1  BZF d   1       1.129   4.414  -0.085  0.00  0.00    -0.204 OA
ATOM      2  C2  BZF d   1       1.092   3.063   0.203  0.00  0.00     0.174 A 
ATOM      3  C3  BZF d   1      -0.066   2.516  -0.221  0.00  0.00    -0.012 A 
ATOM      4  C3A BZF d   1      -0.758   3.573  -0.892  0.00  0.00    -0.107 A 
ATOM      5  C4  BZF d   1      -1.957   3.646  -1.542  0.00  0.00     0.055 A 
ATOM      6  C5  BZF d   1      -2.375   4.846  -2.024  0.00  0.00    -0.016 A 
ATOM      7  C6  BZF d   1      -1.623   5.992  -1.871  0.00  0.00     0.022 A 
ATOM      8  C7  BZF d   1      -0.425   5.968  -1.238  0.00  0.00     0.029 A 
ATOM      9  C7A BZF d   1       0.015   4.751  -0.779  0.00  0.00     0.058 A 
ENDROOT
TORSDOF 0
ENDMDL
