MODEL 1
REMARK minimizedAffinity 5.18824577
REMARK minimizedRMSD -1
REMARK  0 active torsions:
REMARK  status: ('A' for Active; 'I' for Inactive)
ROOT
ATOM      1  O1  BZF d   1      -0.726   0.274   3.502  0.00  0.00    -0.204 OA
ATOM      2  C2  BZF d   1       0.344   0.891   2.883  0.00  0.00     0.174 A 
ATOM      3  C3  BZF d   1       1.512   0.429   3.373  0.00  0.00    -0.012 A 
ATOM      4  C3A BZF d   1       1.151  -0.605   4.294  0.00  0.00    -0.107 A 
ATOM      5  C4  BZF d   1       1.873  -1.450   5.087  0.00  0.00     0.055 A 
ATOM      6  C5  BZF d   1       1.215  -2.293   5.925  0.00  0.00    -0.016 A 
ATOM      7  C6  BZF d   1      -0.162  -2.314   6.000  0.00  0.00     0.022 A 
ATOM      8  C7  BZF d   1      -0.921  -1.498   5.229  0.00  0.00     0.029 A 
ATOM      9  C7A BZF d   1      -0.260  -0.668   4.357  0.00  0.00     0.058 A 
ENDROOT
TORSDOF 0
ENDMDL
