MODEL 1
REMARK minimizedAffinity -5.68764544
REMARK minimizedRMSD -1
REMARK  1 active torsions:
REMARK  status: ('A' for Active; 'I' for Inactive)
REMARK    1  A    between atoms: C1_2  and  C2_3 
ROOT
ATOM      1  C2  UNL d   1       0.259  -0.328   0.701  0.00  0.00    -0.077 A 
ATOM      2  C3  UNL d   1       0.320  -1.423   1.576  0.00  0.00     0.002 A 
ATOM      3  C4  UNL d   1       1.450  -1.632   2.368  0.00  0.00     0.002 A 
ATOM      4  C5  UNL d   1       2.526  -0.749   2.298  0.00  0.00    -0.004 A 
ATOM      5  C6  UNL d   1       2.476   0.341   1.430  0.00  0.00     0.002 A 
ATOM      6  C7  UNL d   1       1.348   0.551   0.636  0.00  0.00     0.002 A 
ENDROOT
BRANCH   1   7
ATOM      7  C1  UNL d   1      -0.979  -0.073  -0.118  0.00  0.00     0.055 C 
ATOM      8  C   UNL d   1      -2.241  -0.377   0.676  0.00  0.00     0.019 C 
ENDBRANCH   1   7
TORSDOF 1
ENDMDL
