MODEL 1
REMARK minimizedAffinity 0.806873262
REMARK minimizedRMSD -1
REMARK  1 active torsions:
REMARK  status: ('A' for Active; 'I' for Inactive)
REMARK    1  A    between atoms: C1_2  and  C2_3 
ROOT
ATOM      1  C2  UNL d   1       1.571  -0.513   1.912  0.00  0.00    -0.077 A 
ATOM      2  C3  UNL d   1       0.420  -0.449   1.114  0.00  0.00     0.002 A 
ATOM      3  C4  UNL d   1       0.334   0.476   0.072  0.00  0.00     0.002 A 
ATOM      4  C5  UNL d   1       1.396   1.341  -0.184  0.00  0.00    -0.004 A 
ATOM      5  C6  UNL d   1       2.544   1.286   0.605  0.00  0.00     0.002 A 
ATOM      6  C7  UNL d   1       2.632   0.363   1.648  0.00  0.00     0.002 A 
ENDROOT
BRANCH   1   7
ATOM      7  C1  UNL d   1       1.686  -1.543   3.005  0.00  0.00     0.055 C 
ATOM      8  C   UNL d   1       0.854  -2.778   2.691  0.00  0.00     0.019 C 
ENDBRANCH   1   7
TORSDOF 1
ENDMDL
