MODEL 1
REMARK minimizedAffinity -3.43501878
REMARK minimizedRMSD -1
REMARK  1 active torsions:
REMARK  status: ('A' for Active; 'I' for Inactive)
REMARK    1  A    between atoms: C1_2  and  C2_3 
ROOT
ATOM      1  C2  UNL d   1       0.668  -0.522   0.604  0.00  0.00    -0.077 A 
ATOM      2  C3  UNL d   1       0.269  -1.712   1.229  0.00  0.00     0.002 A 
ATOM      3  C4  UNL d   1       1.014  -2.239   2.285  0.00  0.00     0.002 A 
ATOM      4  C5  UNL d   1       2.159  -1.582   2.729  0.00  0.00    -0.004 A 
ATOM      5  C6  UNL d   1       2.566  -0.399   2.113  0.00  0.00     0.002 A 
ATOM      6  C7  UNL d   1       1.823   0.129   1.056  0.00  0.00     0.002 A 
ENDROOT
BRANCH   1   7
ATOM      7  C1  UNL d   1      -0.161   0.074  -0.503  0.00  0.00     0.055 C 
ATOM      8  C   UNL d   1      -1.583   0.355  -0.040  0.00  0.00     0.019 C 
ENDBRANCH   1   7
TORSDOF 1
ENDMDL
