MODEL 1
REMARK minimizedAffinity -4.70685863
REMARK minimizedRMSD -1
REMARK  1 active torsions:
REMARK  status: ('A' for Active; 'I' for Inactive)
REMARK    1  A    between atoms: C1_2  and  C2_3 
ROOT
ATOM      1  C2  UNL d   1       0.370  -0.831   0.900  0.00  0.00    -0.077 A 
ATOM      2  C3  UNL d   1       0.963  -1.759   1.767  0.00  0.00     0.002 A 
ATOM      3  C4  UNL d   1       2.246  -1.536   2.271  0.00  0.00     0.002 A 
ATOM      4  C5  UNL d   1       2.944  -0.383   1.917  0.00  0.00    -0.004 A 
ATOM      5  C6  UNL d   1       2.364   0.546   1.054  0.00  0.00     0.002 A 
ATOM      6  C7  UNL d   1       1.082   0.323   0.548  0.00  0.00     0.002 A 
ENDROOT
BRANCH   1   7
ATOM      7  C1  UNL d   1      -1.032  -1.046   0.394  0.00  0.00     0.055 C 
ATOM      8  C   UNL d   1      -1.521   0.151  -0.408  0.00  0.00     0.019 C 
ENDBRANCH   1   7
TORSDOF 1
ENDMDL
