MODEL 1
REMARK minimizedAffinity 3.9601047
REMARK minimizedRMSD -1
REMARK  1 active torsions:
REMARK  status: ('A' for Active; 'I' for Inactive)
REMARK    1  A    between atoms: C1_2  and  C2_3 
ROOT
ATOM      1  C2  UNL d   1       1.745  -3.207  -3.458  0.00  0.00    -0.077 A 
ATOM      2  C3  UNL d   1       3.039  -3.238  -3.997  0.00  0.00     0.002 A 
ATOM      3  C4  UNL d   1       3.290  -2.707  -5.264  0.00  0.00     0.002 A 
ATOM      4  C5  UNL d   1       2.253  -2.136  -5.999  0.00  0.00    -0.004 A 
ATOM      5  C6  UNL d   1       0.962  -2.102  -5.473  0.00  0.00     0.002 A 
ATOM      6  C7  UNL d   1       0.710  -2.634  -4.208  0.00  0.00     0.002 A 
ENDROOT
BRANCH   1   7
ATOM      7  C1  UNL d   1       1.482  -3.735  -2.072  0.00  0.00     0.055 C 
ATOM      8  C   UNL d   1       1.507  -2.617  -1.040  0.00  0.00     0.019 C 
ENDBRANCH   1   7
TORSDOF 1
ENDMDL
