MODEL 1
REMARK minimizedAffinity 8.62089062
REMARK minimizedRMSD -1
REMARK  1 active torsions:
REMARK  status: ('A' for Active; 'I' for Inactive)
REMARK    1  A    between atoms: C1_2  and  C2_3 
ROOT
ATOM      1  C2  UNL d   1      -3.310  -3.254   4.729  0.00  0.00    -0.077 A 
ATOM      2  C3  UNL d   1      -4.045  -2.790   5.829  0.00  0.00     0.002 A 
ATOM      3  C4  UNL d   1      -5.384  -3.154   5.988  0.00  0.00     0.002 A 
ATOM      4  C5  UNL d   1      -5.996  -3.987   5.054  0.00  0.00    -0.004 A 
ATOM      5  C6  UNL d   1      -5.274  -4.453   3.956  0.00  0.00     0.002 A 
ATOM      6  C7  UNL d   1      -3.936  -4.088   3.795  0.00  0.00     0.002 A 
ENDROOT
BRANCH   1   7
ATOM      7  C1  UNL d   1      -1.852  -2.902   4.582  0.00  0.00     0.055 C 
ATOM      8  C   UNL d   1      -0.958  -4.025   5.087  0.00  0.00     0.019 C 
ENDBRANCH   1   7
TORSDOF 1
ENDMDL
