MODEL 1
REMARK minimizedAffinity 15.708107
REMARK minimizedRMSD -1
REMARK  1 active torsions:
REMARK  status: ('A' for Active; 'I' for Inactive)
REMARK    1  A    between atoms: C1_2  and  C2_3 
ROOT
ATOM      1  C2  UNL d   1      -4.979   5.795   1.591  0.00  0.00    -0.077 A 
ATOM      2  C3  UNL d   1      -3.694   5.447   1.153  0.00  0.00     0.002 A 
ATOM      3  C4  UNL d   1      -3.426   5.303  -0.210  0.00  0.00     0.002 A 
ATOM      4  C5  UNL d   1      -4.438   5.509  -1.145  0.00  0.00    -0.004 A 
ATOM      5  C6  UNL d   1      -5.720   5.854  -0.720  0.00  0.00     0.002 A 
ATOM      6  C7  UNL d   1      -5.989   5.997   0.642  0.00  0.00     0.002 A 
ENDROOT
BRANCH   1   7
ATOM      7  C1  UNL d   1      -5.257   5.999   3.057  0.00  0.00     0.055 C 
ATOM      8  C   UNL d   1      -3.970   5.999   3.870  0.00  0.00     0.019 C 
ENDBRANCH   1   7
TORSDOF 1
ENDMDL
