MODEL 1
REMARK minimizedAffinity 16.6347427
REMARK minimizedRMSD -1
REMARK  1 active torsions:
REMARK  status: ('A' for Active; 'I' for Inactive)
REMARK    1  A    between atoms: C1_2  and  C2_3 
ROOT
ATOM      1  C2  UNL d   1      -5.235   5.653   1.006  0.00  0.00    -0.077 A 
ATOM      2  C3  UNL d   1      -3.928   5.161   0.888  0.00  0.00     0.002 A 
ATOM      3  C4  UNL d   1      -3.389   4.884  -0.370  0.00  0.00     0.002 A 
ATOM      4  C5  UNL d   1      -4.148   5.100  -1.518  0.00  0.00    -0.004 A 
ATOM      5  C6  UNL d   1      -5.450   5.587  -1.411  0.00  0.00     0.002 A 
ATOM      6  C7  UNL d   1      -5.991   5.864  -0.154  0.00  0.00     0.002 A 
ENDROOT
BRANCH   1   7
ATOM      7  C1  UNL d   1      -5.801   5.999   2.359  0.00  0.00     0.055 C 
ATOM      8  C   UNL d   1      -4.720   5.992   3.429  0.00  0.00     0.019 C 
ENDBRANCH   1   7
TORSDOF 1
ENDMDL
