MODEL 1
REMARK minimizedAffinity 19.878109
REMARK minimizedRMSD -1
REMARK  1 active torsions:
REMARK  status: ('A' for Active; 'I' for Inactive)
REMARK    1  A    between atoms: C1_2  and  C2_3 
ROOT
ATOM      1  C2  UNL d   1      -0.874   2.931  -2.444  0.00  0.00    -0.077 A 
ATOM      2  C3  UNL d   1       0.468   3.135  -2.093  0.00  0.00     0.002 A 
ATOM      3  C4  UNL d   1       0.931   2.766  -0.828  0.00  0.00     0.002 A 
ATOM      4  C5  UNL d   1       0.061   2.187   0.093  0.00  0.00    -0.004 A 
ATOM      5  C6  UNL d   1      -1.276   1.982  -0.246  0.00  0.00     0.002 A 
ATOM      6  C7  UNL d   1      -1.741   2.351  -1.509  0.00  0.00     0.002 A 
ENDROOT
BRANCH   1   7
ATOM      7  C1  UNL d   1      -1.364   3.284  -3.824  0.00  0.00     0.055 C 
ATOM      8  C   UNL d   1      -1.000   4.715  -4.192  0.00  0.00     0.019 C 
ENDBRANCH   1   7
TORSDOF 1
ENDMDL
