MODEL 1
REMARK minimizedAffinity 5.68286991
REMARK minimizedRMSD -1
REMARK  1 active torsions:
REMARK  status: ('A' for Active; 'I' for Inactive)
REMARK    1  A    between atoms: C1_2  and  C2_3 
ROOT
ATOM      1  C2  UNL d   1      -1.473   1.523   1.202  0.00  0.00    -0.077 A 
ATOM      2  C3  UNL d   1      -2.735   1.162   1.695  0.00  0.00     0.002 A 
ATOM      3  C4  UNL d   1      -2.851   0.200   2.701  0.00  0.00     0.002 A 
ATOM      4  C5  UNL d   1      -1.710  -0.405   3.224  0.00  0.00    -0.004 A 
ATOM      5  C6  UNL d   1      -0.451  -0.054   2.738  0.00  0.00     0.002 A 
ATOM      6  C7  UNL d   1      -0.333   0.906   1.732  0.00  0.00     0.002 A 
ENDROOT
BRANCH   1   7
ATOM      7  C1  UNL d   1      -1.342   2.596   0.152  0.00  0.00     0.055 C 
ATOM      8  C   UNL d   1      -0.144   2.343  -0.751  0.00  0.00     0.019 C 
ENDBRANCH   1   7
TORSDOF 1
ENDMDL
