MODEL 1
REMARK minimizedAffinity 11.1780653
REMARK minimizedRMSD -1
REMARK  1 active torsions:
REMARK  status: ('A' for Active; 'I' for Inactive)
REMARK    1  A    between atoms: C1_2  and  C2_3 
ROOT
ATOM      1  C2  UNL d   1       1.893  -4.139  -4.564  0.00  0.00    -0.077 A 
ATOM      2  C3  UNL d   1       2.461  -3.382  -3.529  0.00  0.00     0.002 A 
ATOM      3  C4  UNL d   1       2.613  -3.932  -2.255  0.00  0.00     0.002 A 
ATOM      4  C5  UNL d   1       2.204  -5.240  -2.005  0.00  0.00    -0.004 A 
ATOM      5  C6  UNL d   1       1.637  -6.000  -3.027  0.00  0.00     0.002 A 
ATOM      6  C7  UNL d   1       1.482  -5.452  -4.301  0.00  0.00     0.002 A 
ENDROOT
BRANCH   1   7
ATOM      7  C1  UNL d   1       1.772  -3.564  -5.952  0.00  0.00     0.055 C 
ATOM      8  C   UNL d   1       2.260  -2.124  -5.999  0.00  0.00     0.019 C 
ENDBRANCH   1   7
TORSDOF 1
ENDMDL
