MODEL 1
REMARK minimizedAffinity 16.6333809
REMARK minimizedRMSD -1
REMARK  1 active torsions:
REMARK  status: ('A' for Active; 'I' for Inactive)
REMARK    1  A    between atoms: C1_2  and  C2_3 
ROOT
ATOM      1  C2  UNL d   1      -5.196   5.808   2.062  0.00  0.00    -0.077 A 
ATOM      2  C3  UNL d   1      -3.806   5.893   1.902  0.00  0.00     0.002 A 
ATOM      3  C4  UNL d   1      -3.233   5.774   0.634  0.00  0.00     0.002 A 
ATOM      4  C5  UNL d   1      -4.042   5.573  -0.482  0.00  0.00    -0.004 A 
ATOM      5  C6  UNL d   1      -5.425   5.485  -0.333  0.00  0.00     0.002 A 
ATOM      6  C7  UNL d   1      -6.000   5.602   0.933  0.00  0.00     0.002 A 
ENDROOT
BRANCH   1   7
ATOM      7  C1  UNL d   1      -5.820   5.985   3.422  0.00  0.00     0.055 C 
ATOM      8  C   UNL d   1      -4.765   5.994   4.518  0.00  0.00     0.019 C 
ENDBRANCH   1   7
TORSDOF 1
ENDMDL
