MODEL 1
REMARK minimizedAffinity 13.7750206
REMARK minimizedRMSD -1
REMARK  1 active torsions:
REMARK  status: ('A' for Active; 'I' for Inactive)
REMARK    1  A    between atoms: C1_2  and  C2_3 
ROOT
ATOM      1  C2  UNL d   1       3.572  -2.934   1.619  0.00  0.00    -0.077 A 
ATOM      2  C3  UNL d   1       4.793  -2.252   1.513  0.00  0.00     0.002 A 
ATOM      3  C4  UNL d   1       6.000  -2.951   1.571  0.00  0.00     0.002 A 
ATOM      4  C5  UNL d   1       5.999  -4.335   1.731  0.00  0.00    -0.004 A 
ATOM      5  C6  UNL d   1       4.791  -5.023   1.839  0.00  0.00     0.002 A 
ATOM      6  C7  UNL d   1       3.583  -4.326   1.783  0.00  0.00     0.002 A 
ENDROOT
BRANCH   1   7
ATOM      7  C1  UNL d   1       2.268  -2.189   1.508  0.00  0.00     0.055 C 
ATOM      8  C   UNL d   1       1.519  -2.571   0.240  0.00  0.00     0.019 C 
ENDBRANCH   1   7
TORSDOF 1
ENDMDL
