MODEL 1
REMARK minimizedAffinity 14.0960112
REMARK minimizedRMSD -1
REMARK  1 active torsions:
REMARK  status: ('A' for Active; 'I' for Inactive)
REMARK    1  A    between atoms: C1_2  and  C2_3 
ROOT
ATOM      1  C2  UNL d   1      -0.427   3.793  -1.507  0.00  0.00    -0.077 A 
ATOM      2  C3  UNL d   1      -0.104   5.111  -1.858  0.00  0.00     0.002 A 
ATOM      3  C4  UNL d   1      -0.771   5.746  -2.908  0.00  0.00     0.002 A 
ATOM      4  C5  UNL d   1      -1.767   5.072  -3.612  0.00  0.00    -0.004 A 
ATOM      5  C6  UNL d   1      -2.094   3.760  -3.272  0.00  0.00     0.002 A 
ATOM      6  C7  UNL d   1      -1.428   3.124  -2.224  0.00  0.00     0.002 A 
ENDROOT
BRANCH   1   7
ATOM      7  C1  UNL d   1       0.256   3.123  -0.344  0.00  0.00     0.055 C 
ATOM      8  C   UNL d   1      -0.695   2.194   0.396  0.00  0.00     0.019 C 
ENDBRANCH   1   7
TORSDOF 1
ENDMDL
