MODEL 1
REMARK minimizedAffinity 3.53747988
REMARK minimizedRMSD -1
REMARK  1 active torsions:
REMARK  status: ('A' for Active; 'I' for Inactive)
REMARK    1  A    between atoms: C1_2  and  C2_3 
ROOT
ATOM      1  C2  UNL d   1      -0.559   4.054  -1.938  0.00  0.00    -0.077 A 
ATOM      2  C3  UNL d   1      -0.345   3.016  -1.020  0.00  0.00     0.002 A 
ATOM      3  C4  UNL d   1       0.304   3.266   0.190  0.00  0.00     0.002 A 
ATOM      4  C5  UNL d   1       0.741   4.554   0.496  0.00  0.00    -0.004 A 
ATOM      5  C6  UNL d   1       0.534   5.592  -0.412  0.00  0.00     0.002 A 
ATOM      6  C7  UNL d   1      -0.113   5.344  -1.623  0.00  0.00     0.002 A 
ENDROOT
BRANCH   1   7
ATOM      7  C1  UNL d   1      -1.303   3.796  -3.222  0.00  0.00     0.055 C 
ATOM      8  C   UNL d   1      -2.338   2.693  -3.051  0.00  0.00     0.019 C 
ENDBRANCH   1   7
TORSDOF 1
ENDMDL
