MODEL 1
REMARK minimizedAffinity 7.38003874
REMARK minimizedRMSD -1
REMARK  1 active torsions:
REMARK  status: ('A' for Active; 'I' for Inactive)
REMARK    1  A    between atoms: C1_2  and  C2_3 
ROOT
ATOM      1  C2  UNL d   1      -0.089   2.991  -0.425  0.00  0.00    -0.077 A 
ATOM      2  C3  UNL d   1       0.435   4.255  -0.121  0.00  0.00     0.002 A 
ATOM      3  C4  UNL d   1       0.229   5.331  -0.987  0.00  0.00     0.002 A 
ATOM      4  C5  UNL d   1      -0.504   5.155  -2.158  0.00  0.00    -0.004 A 
ATOM      5  C6  UNL d   1      -1.027   3.901  -2.470  0.00  0.00     0.002 A 
ATOM      6  C7  UNL d   1      -0.822   2.824  -1.607  0.00  0.00     0.002 A 
ENDROOT
BRANCH   1   7
ATOM      7  C1  UNL d   1       0.089   1.841   0.531  0.00  0.00     0.055 C 
ATOM      8  C   UNL d   1      -1.226   1.467   1.199  0.00  0.00     0.019 C 
ENDBRANCH   1   7
TORSDOF 1
ENDMDL
