MODEL 1
REMARK minimizedAffinity -2.55425096
REMARK minimizedRMSD -1
REMARK  1 active torsions:
REMARK  status: ('A' for Active; 'I' for Inactive)
REMARK    1  A    between atoms: N_2  and  C1_3 
ROOT
ATOM      1  C1  UNL d   1      -0.039  -0.202   0.179  0.00  0.00     0.143 A 
ATOM      2  C2  UNL d   1       0.720   0.588   1.050  0.00  0.00    -0.057 A 
ATOM      3  C3  UNL d   1       0.109   1.414   2.000  0.00  0.00     0.033 A 
ATOM      4  C4  UNL d   1      -1.278   1.487   2.078  0.00  0.00    -0.042 A 
ATOM      5  C5  UNL d   1      -2.053   0.730   1.207  0.00  0.00     0.033 A 
ATOM      6  C6  UNL d   1      -1.437  -0.098   0.264  0.00  0.00    -0.057 A 
ENDROOT
BRANCH   1   7
ATOM      7  N   UNL d   1       0.508  -0.969  -0.852  0.00  0.00    -0.732 N 
ATOM      8  C   UNL d   1       0.577  -0.447  -2.201  0.00  0.00     0.284 C 
ATOM      9  H3  UNL d   1       1.339  -1.477  -0.560  0.00  0.00     0.395 HD
ENDBRANCH   1   7
TORSDOF 1
ENDMDL
