MODEL 1
REMARK minimizedAffinity 1.1740756
REMARK minimizedRMSD -1
REMARK  1 active torsions:
REMARK  status: ('A' for Active; 'I' for Inactive)
REMARK    1  A    between atoms: N_2  and  C1_3 
ROOT
ATOM      1  C1  UNL d   1       0.525   0.328  -1.477  0.00  0.00     0.143 A 
ATOM      2  C2  UNL d   1      -0.280  -0.778  -1.184  0.00  0.00    -0.057 A 
ATOM      3  C3  UNL d   1      -1.003  -0.854   0.012  0.00  0.00     0.033 A 
ATOM      4  C4  UNL d   1      -0.910   0.166   0.954  0.00  0.00    -0.042 A 
ATOM      5  C5  UNL d   1      -0.096   1.263   0.695  0.00  0.00     0.033 A 
ATOM      6  C6  UNL d   1       0.618   1.336  -0.505  0.00  0.00    -0.057 A 
ENDROOT
BRANCH   1   7
ATOM      7  N   UNL d   1       1.345   0.417  -2.605  0.00  0.00    -0.732 N 
ATOM      8  C   UNL d   1       0.875   1.070  -3.808  0.00  0.00     0.284 C 
ATOM      9  H3  UNL d   1       2.311   0.629  -2.367  0.00  0.00     0.395 HD
ENDBRANCH   1   7
TORSDOF 1
ENDMDL
