MODEL 1
REMARK minimizedAffinity -3.64738083
REMARK minimizedRMSD -1
REMARK  1 active torsions:
REMARK  status: ('A' for Active; 'I' for Inactive)
REMARK    1  A    between atoms: N_2  and  C1_3 
ROOT
ATOM      1  C1  UNL d   1       0.222   1.288   2.058  0.00  0.00     0.143 A 
ATOM      2  C2  UNL d   1       1.435   0.593   2.089  0.00  0.00    -0.057 A 
ATOM      3  C3  UNL d   1       1.725  -0.405   1.150  0.00  0.00     0.033 A 
ATOM      4  C4  UNL d   1       0.790  -0.746   0.178  0.00  0.00    -0.042 A 
ATOM      5  C5  UNL d   1      -0.433  -0.085   0.144  0.00  0.00     0.033 A 
ATOM      6  C6  UNL d   1      -0.714   0.915   1.081  0.00  0.00    -0.057 A 
ENDROOT
BRANCH   1   7
ATOM      7  N   UNL d   1      -0.165   2.221   3.024  0.00  0.00    -0.732 N 
ATOM      8  C   UNL d   1      -1.044   1.839   4.108  0.00  0.00     0.284 C 
ATOM      9  H3  UNL d   1       0.601   2.830   3.304  0.00  0.00     0.395 HD
ENDBRANCH   1   7
TORSDOF 1
ENDMDL
