MODEL 1
REMARK minimizedAffinity -3.64968252
REMARK minimizedRMSD -1
REMARK  1 active torsions:
REMARK  status: ('A' for Active; 'I' for Inactive)
REMARK    1  A    between atoms: N_2  and  C1_3 
ROOT
ATOM      1  C1  UNL d   1       0.388  -0.453  -1.144  0.00  0.00     0.143 A 
ATOM      2  C2  UNL d   1       1.496  -0.391  -0.291  0.00  0.00    -0.057 A 
ATOM      3  C3  UNL d   1       1.368   0.045   1.033  0.00  0.00     0.033 A 
ATOM      4  C4  UNL d   1       0.132   0.455   1.521  0.00  0.00    -0.042 A 
ATOM      5  C5  UNL d   1      -0.978   0.425   0.684  0.00  0.00     0.033 A 
ATOM      6  C6  UNL d   1      -0.845  -0.018  -0.635  0.00  0.00    -0.057 A 
ENDROOT
BRANCH   1   7
ATOM      7  N   UNL d   1       0.468  -0.783  -2.499  0.00  0.00    -0.732 N 
ATOM      8  C   UNL d   1       0.931   0.187  -3.468  0.00  0.00     0.284 C 
ATOM      9  H3  UNL d   1       0.825  -1.724  -2.649  0.00  0.00     0.395 HD
ENDBRANCH   1   7
TORSDOF 1
ENDMDL
