MODEL 1
REMARK minimizedAffinity -3.1160841
REMARK minimizedRMSD -1
REMARK  1 active torsions:
REMARK  status: ('A' for Active; 'I' for Inactive)
REMARK    1  A    between atoms: N_2  and  C1_3 
ROOT
ATOM      1  C1  UNL d   1       0.566   0.164  -1.035  0.00  0.00     0.143 A 
ATOM      2  C2  UNL d   1       0.488  -1.020  -1.775  0.00  0.00    -0.057 A 
ATOM      3  C3  UNL d   1       0.940  -1.080  -3.099  0.00  0.00     0.033 A 
ATOM      4  C4  UNL d   1       1.452   0.055  -3.718  0.00  0.00    -0.042 A 
ATOM      5  C5  UNL d   1       1.516   1.250  -3.009  0.00  0.00     0.033 A 
ATOM      6  C6  UNL d   1       1.070   1.302  -1.685  0.00  0.00    -0.057 A 
ENDROOT
BRANCH   1   7
ATOM      7  N   UNL d   1       0.044   0.313   0.252  0.00  0.00    -0.732 N 
ATOM      8  C   UNL d   1      -1.348   0.659   0.448  0.00  0.00     0.284 C 
ATOM      9  H3  UNL d   1       0.391  -0.394   0.897  0.00  0.00     0.395 HD
ENDBRANCH   1   7
TORSDOF 1
ENDMDL
