MODEL 1
REMARK minimizedAffinity -4.14883137
REMARK minimizedRMSD -1
REMARK  1 active torsions:
REMARK  status: ('A' for Active; 'I' for Inactive)
REMARK    1  A    between atoms: N_2  and  C1_3 
ROOT
ATOM      1  C1  UNL d   1       0.020  -0.374  -0.103  0.00  0.00     0.143 A 
ATOM      2  C2  UNL d   1       0.484   0.623   0.762  0.00  0.00    -0.057 A 
ATOM      3  C3  UNL d   1      -0.355   1.197   1.725  0.00  0.00     0.033 A 
ATOM      4  C4  UNL d   1      -1.686   0.803   1.821  0.00  0.00    -0.042 A 
ATOM      5  C5  UNL d   1      -2.176  -0.168   0.955  0.00  0.00     0.033 A 
ATOM      6  C6  UNL d   1      -1.331  -0.742  -0.001  0.00  0.00    -0.057 A 
ENDROOT
BRANCH   1   7
ATOM      7  N   UNL d   1       0.777  -0.913  -1.146  0.00  0.00    -0.732 N 
ATOM      8  C   UNL d   1       0.940  -0.189  -2.389  0.00  0.00     0.284 C 
ATOM      9  H3  UNL d   1       1.624  -1.368  -0.816  0.00  0.00     0.395 HD
ENDBRANCH   1   7
TORSDOF 1
ENDMDL
