MODEL 1
REMARK minimizedAffinity 0.23945497
REMARK minimizedRMSD -1
REMARK  1 active torsions:
REMARK  status: ('A' for Active; 'I' for Inactive)
REMARK    1  A    between atoms: N_2  and  C1_3 
ROOT
ATOM      1  C1  UNL d   1      -0.013  -0.249   0.013  0.00  0.00     0.143 A 
ATOM      2  C2  UNL d   1      -1.389   0.000  -0.012  0.00  0.00    -0.057 A 
ATOM      3  C3  UNL d   1      -2.103   0.251   1.165  0.00  0.00     0.033 A 
ATOM      4  C4  UNL d   1      -1.456   0.229   2.396  0.00  0.00    -0.042 A 
ATOM      5  C5  UNL d   1      -0.093  -0.040   2.448  0.00  0.00     0.033 A 
ATOM      6  C6  UNL d   1       0.616  -0.284   1.268  0.00  0.00    -0.057 A 
ENDROOT
BRANCH   1   7
ATOM      7  N   UNL d   1       0.735  -0.602  -1.113  0.00  0.00    -0.732 N 
ATOM      8  C   UNL d   1       0.775   0.263  -2.273  0.00  0.00     0.284 C 
ATOM      9  H3  UNL d   1       1.633  -1.013  -0.870  0.00  0.00     0.395 HD
ENDBRANCH   1   7
TORSDOF 1
ENDMDL
