MODEL 1
REMARK minimizedAffinity -0.558254719
REMARK minimizedRMSD -1
REMARK  1 active torsions:
REMARK  status: ('A' for Active; 'I' for Inactive)
REMARK    1  A    between atoms: N_2  and  C1_3 
ROOT
ATOM      1  C1  UNL d   1       0.560   0.312   1.409  0.00  0.00     0.143 A 
ATOM      2  C2  UNL d   1       1.864  -0.081   1.089  0.00  0.00    -0.057 A 
ATOM      3  C3  UNL d   1       2.143  -0.777  -0.093  0.00  0.00     0.033 A 
ATOM      4  C4  UNL d   1       1.115  -1.119  -0.965  0.00  0.00    -0.042 A 
ATOM      5  C5  UNL d   1      -0.192  -0.760  -0.656  0.00  0.00     0.033 A 
ATOM      6  C6  UNL d   1      -0.464  -0.059   0.523  0.00  0.00    -0.057 A 
ENDROOT
BRANCH   1   7
ATOM      7  N   UNL d   1       0.205   0.920   2.615  0.00  0.00    -0.732 N 
ATOM      8  C   UNL d   1       0.017   0.128   3.812  0.00  0.00     0.284 C 
ATOM      9  H3  UNL d   1       0.699   1.796   2.770  0.00  0.00     0.395 HD
ENDBRANCH   1   7
TORSDOF 1
ENDMDL
