MODEL 1
REMARK minimizedAffinity -4.77251244
REMARK minimizedRMSD -1
REMARK  1 active torsions:
REMARK  status: ('A' for Active; 'I' for Inactive)
REMARK    1  A    between atoms: N_2  and  C1_3 
ROOT
ATOM      1  C1  UNL d   1      -0.068   0.436   0.439  0.00  0.00     0.143 A 
ATOM      2  C2  UNL d   1      -1.301  -0.015   0.921  0.00  0.00    -0.057 A 
ATOM      3  C3  UNL d   1      -1.788   0.397   2.168  0.00  0.00     0.033 A 
ATOM      4  C4  UNL d   1      -1.033   1.247   2.970  0.00  0.00    -0.042 A 
ATOM      5  C5  UNL d   1       0.207   1.688   2.521  0.00  0.00     0.033 A 
ATOM      6  C6  UNL d   1       0.684   1.279   1.273  0.00  0.00    -0.057 A 
ENDROOT
BRANCH   1   7
ATOM      7  N   UNL d   1       0.515  -0.014  -0.748  0.00  0.00    -0.732 N 
ATOM      8  C   UNL d   1       0.694  -1.429  -0.991  0.00  0.00     0.284 C 
ATOM      9  H3  UNL d   1       0.197   0.510  -1.560  0.00  0.00     0.395 HD
ENDBRANCH   1   7
TORSDOF 1
ENDMDL
