MODEL 1
REMARK minimizedAffinity -4.50303698
REMARK minimizedRMSD -1
REMARK  1 active torsions:
REMARK  status: ('A' for Active; 'I' for Inactive)
REMARK    1  A    between atoms: N_2  and  C1_3 
ROOT
ATOM      1  C1  UNL d   1       0.189   0.057   0.311  0.00  0.00     0.143 A 
ATOM      2  C2  UNL d   1      -1.130   0.229   0.745  0.00  0.00    -0.057 A 
ATOM      3  C3  UNL d   1      -1.419   0.594   2.066  0.00  0.00     0.033 A 
ATOM      4  C4  UNL d   1      -0.391   0.765   2.987  0.00  0.00    -0.042 A 
ATOM      5  C5  UNL d   1       0.927   0.575   2.584  0.00  0.00     0.033 A 
ATOM      6  C6  UNL d   1       1.209   0.218   1.262  0.00  0.00    -0.057 A 
ENDROOT
BRANCH   1   7
ATOM      7  N   UNL d   1       0.535  -0.401  -0.962  0.00  0.00    -0.732 N 
ATOM      8  C   UNL d   1       0.996   0.522  -1.977  0.00  0.00     0.284 C 
ATOM      9  H3  UNL d   1       1.051  -1.278  -0.932  0.00  0.00     0.395 HD
ENDBRANCH   1   7
TORSDOF 1
ENDMDL
