MODEL 1
REMARK minimizedAffinity -4.04490805
REMARK minimizedRMSD -1
REMARK  0 active torsions:
REMARK  status: ('A' for Active; 'I' for Inactive)
ROOT
ATOM      1  C4' PXY d   1      -2.537   0.515  -1.425  0.00  0.00     0.077 C 
ATOM      2  C1' PXY d   1       2.727   0.609   0.961  0.00  0.00     0.077 C 
ATOM      3  C1  PXY d   1       1.347   0.571   0.334  0.00  0.00    -0.082 A 
ATOM      4  C2  PXY d   1       0.862   1.658  -0.245  0.00  0.00     0.003 A 
ATOM      5  C3  PXY d   1      -0.396   1.651  -0.789  0.00  0.00     0.003 A 
ATOM      6  C4  PXY d   1      -1.145   0.504  -0.787  0.00  0.00    -0.082 A 
ATOM      7  C5  PXY d   1      -0.653  -0.611  -0.208  0.00  0.00     0.003 A 
ATOM      8  C6  PXY d   1       0.610  -0.571   0.375  0.00  0.00     0.003 A 
ENDROOT
TORSDOF 0
ENDMDL
