MODEL 1
REMARK minimizedAffinity -2.27183723
REMARK minimizedRMSD -1
REMARK  0 active torsions:
REMARK  status: ('A' for Active; 'I' for Inactive)
ROOT
ATOM      1  C4' PXY d   1      -2.954   0.413  -1.287  0.00  0.00     0.077 C 
ATOM      2  C1' PXY d   1       2.383   0.699   0.916  0.00  0.00     0.077 C 
ATOM      3  C1  PXY d   1       0.984   0.611   0.338  0.00  0.00    -0.082 A 
ATOM      4  C2  PXY d   1       0.494   1.631  -0.347  0.00  0.00     0.003 A 
ATOM      5  C3  PXY d   1      -0.781   1.581  -0.850  0.00  0.00     0.003 A 
ATOM      6  C4  PXY d   1      -1.543   0.454  -0.694  0.00  0.00    -0.082 A 
ATOM      7  C5  PXY d   1      -1.046  -0.595  -0.004  0.00  0.00     0.003 A 
ATOM      8  C6  PXY d   1       0.235  -0.508   0.533  0.00  0.00     0.003 A 
ENDROOT
TORSDOF 0
ENDMDL
