MODEL 1
REMARK minimizedAffinity -3.80097389
REMARK minimizedRMSD -1
REMARK  0 active torsions:
REMARK  status: ('A' for Active; 'I' for Inactive)
ROOT
ATOM      1  C4' PXY d   1      -4.435   4.193  -2.681  0.00  0.00     0.077 C 
ATOM      2  C1' PXY d   1      -2.545  -1.268  -2.854  0.00  0.00     0.077 C 
ATOM      3  C1  PXY d   1      -3.042   0.163  -2.795  0.00  0.00    -0.082 A 
ATOM      4  C2  PXY d   1      -3.570   0.717  -3.875  0.00  0.00     0.003 A 
ATOM      5  C3  PXY d   1      -3.995   2.020  -3.849  0.00  0.00     0.003 A 
ATOM      6  C4  PXY d   1      -3.928   2.748  -2.691  0.00  0.00    -0.082 A 
ATOM      7  C5  PXY d   1      -3.401   2.187  -1.582  0.00  0.00     0.003 A 
ATOM      8  C6  PXY d   1      -2.938   0.876  -1.641  0.00  0.00     0.003 A 
ENDROOT
TORSDOF 0
ENDMDL
