MODEL 1
REMARK minimizedAffinity -5.97505999
REMARK minimizedRMSD -1
REMARK  0 active torsions:
REMARK  status: ('A' for Active; 'I' for Inactive)
ROOT
ATOM      1  C4' PXY d   1      -0.940   0.365   0.289  0.00  0.00     0.077 C 
ATOM      2  C1' PXY d   1       4.041  -1.976   2.057  0.00  0.00     0.077 C 
ATOM      3  C1  PXY d   1       2.729  -1.374   1.593  0.00  0.00    -0.082 A 
ATOM      4  C2  PXY d   1       2.731  -0.218   0.949  0.00  0.00     0.003 A 
ATOM      5  C3  PXY d   1       1.552   0.356   0.551  0.00  0.00     0.003 A 
ATOM      6  C4  PXY d   1       0.361  -0.285   0.767  0.00  0.00    -0.082 A 
ATOM      7  C5  PXY d   1       0.351  -1.469   1.414  0.00  0.00     0.003 A 
ATOM      8  C6  PXY d   1       1.556  -2.016   1.847  0.00  0.00     0.003 A 
ENDROOT
TORSDOF 0
ENDMDL
