MODEL 1
REMARK minimizedAffinity -3.27347684
REMARK minimizedRMSD -1
REMARK  0 active torsions:
REMARK  status: ('A' for Active; 'I' for Inactive)
ROOT
ATOM      1  C4' PXY d   1       2.578  -1.036   2.479  0.00  0.00     0.077 C 
ATOM      2  C1' PXY d   1      -1.843   0.341  -0.982  0.00  0.00     0.077 C 
ATOM      3  C1  PXY d   1      -0.675  -0.013  -0.082  0.00  0.00    -0.082 A 
ATOM      4  C2  PXY d   1      -0.722  -1.117   0.645  0.00  0.00     0.003 A 
ATOM      5  C3  PXY d   1       0.311  -1.436   1.489  0.00  0.00     0.003 A 
ATOM      6  C4  PXY d   1       1.427  -0.644   1.549  0.00  0.00    -0.082 A 
ATOM      7  C5  PXY d   1       1.486   0.479   0.802  0.00  0.00     0.003 A 
ATOM      8  C6  PXY d   1       0.409   0.807  -0.017  0.00  0.00     0.003 A 
ENDROOT
TORSDOF 0
ENDMDL
