MODEL 1
REMARK minimizedAffinity -5.75139666
REMARK minimizedRMSD -1
REMARK  0 active torsions:
REMARK  status: ('A' for Active; 'I' for Inactive)
ROOT
ATOM      1  C4' PXY d   1       1.396   1.910  -0.620  0.00  0.00     0.077 C 
ATOM      2  C1' PXY d   1       2.051  -2.828   2.627  0.00  0.00     0.077 C 
ATOM      3  C1  PXY d   1       1.889  -1.579   1.782  0.00  0.00    -0.082 A 
ATOM      4  C2  PXY d   1       0.731  -1.337   1.189  0.00  0.00     0.003 A 
ATOM      5  C3  PXY d   1       0.577  -0.229   0.395  0.00  0.00     0.003 A 
ATOM      6  C4  PXY d   1       1.602   0.667   0.250  0.00  0.00    -0.082 A 
ATOM      7  C5  PXY d   1       2.783   0.432   0.860  0.00  0.00     0.003 A 
ATOM      8  C6  PXY d   1       2.932  -0.719   1.628  0.00  0.00     0.003 A 
ENDROOT
TORSDOF 0
ENDMDL
