MODEL 1
REMARK minimizedAffinity -2.40076566
REMARK minimizedRMSD -1
REMARK  0 active torsions:
REMARK  status: ('A' for Active; 'I' for Inactive)
ROOT
ATOM      1  C4' PXY d   1      -2.853   0.446  -1.296  0.00  0.00     0.077 C 
ATOM      2  C1' PXY d   1       2.245   0.958   1.380  0.00  0.00     0.077 C 
ATOM      3  C1  PXY d   1       0.911   0.811   0.676  0.00  0.00    -0.082 A 
ATOM      4  C2  PXY d   1       0.332   1.875   0.143  0.00  0.00     0.003 A 
ATOM      5  C3  PXY d   1      -0.890   1.766  -0.469  0.00  0.00     0.003 A 
ATOM      6  C4  PXY d   1      -1.501   0.546  -0.584  0.00  0.00    -0.082 A 
ATOM      7  C5  PXY d   1      -0.911  -0.546  -0.053  0.00  0.00     0.003 A 
ATOM      8  C6  PXY d   1       0.310  -0.407   0.600  0.00  0.00     0.003 A 
ENDROOT
TORSDOF 0
ENDMDL
