MODEL 1
REMARK minimizedAffinity -4.85130596
REMARK minimizedRMSD -1
REMARK  0 active torsions:
REMARK  status: ('A' for Active; 'I' for Inactive)
ROOT
ATOM      1  C4' PXY d   1      -1.906   0.278  -0.481  0.00  0.00     0.077 C 
ATOM      2  C1' PXY d   1       3.090  -1.552   1.779  0.00  0.00     0.077 C 
ATOM      3  C1  PXY d   1       1.784  -1.059   1.188  0.00  0.00    -0.082 A 
ATOM      4  C2  PXY d   1       0.709  -1.829   1.245  0.00  0.00     0.003 A 
ATOM      5  C3  PXY d   1      -0.472  -1.412   0.687  0.00  0.00     0.003 A 
ATOM      6  C4  PXY d   1      -0.568  -0.174   0.111  0.00  0.00    -0.082 A 
ATOM      7  C5  PXY d   1       0.521   0.621   0.058  0.00  0.00     0.003 A 
ATOM      8  C6  PXY d   1       1.722   0.163   0.594  0.00  0.00     0.003 A 
ENDROOT
TORSDOF 0
ENDMDL
