MODEL 1
REMARK minimizedAffinity -6.08426523
REMARK minimizedRMSD -1
REMARK  0 active torsions:
REMARK  status: ('A' for Active; 'I' for Inactive)
ROOT
ATOM      1  C4' PXY d   1      -2.084   0.459  -1.328  0.00  0.00     0.077 C 
ATOM      2  C1' PXY d   1       2.499  -1.770   1.401  0.00  0.00     0.077 C 
ATOM      3  C1  PXY d   1       1.289  -1.193   0.692  0.00  0.00    -0.082 A 
ATOM      4  C2  PXY d   1       1.441  -0.590  -0.476  0.00  0.00     0.003 A 
ATOM      5  C3  PXY d   1       0.363  -0.035  -1.115  0.00  0.00     0.003 A 
ATOM      6  C4  PXY d   1      -0.893  -0.146  -0.580  0.00  0.00    -0.082 A 
ATOM      7  C5  PXY d   1      -1.058  -0.770   0.605  0.00  0.00     0.003 A 
ATOM      8  C6  PXY d   1       0.056  -1.290   1.259  0.00  0.00     0.003 A 
ENDROOT
TORSDOF 0
ENDMDL
