MODEL 1
REMARK minimizedAffinity 0.0898152292
REMARK minimizedRMSD -1
REMARK  0 active torsions:
REMARK  status: ('A' for Active; 'I' for Inactive)
ROOT
ATOM      1  C4' PXY d   1      -2.676   0.755  -3.374  0.00  0.00     0.077 C 
ATOM      2  C1' PXY d   1      -5.997   5.167  -1.667  0.00  0.00     0.077 C 
ATOM      3  C1  PXY d   1      -5.128   4.013  -2.127  0.00  0.00    -0.082 A 
ATOM      4  C2  PXY d   1      -4.942   2.975  -1.328  0.00  0.00     0.003 A 
ATOM      5  C3  PXY d   1      -4.134   1.938  -1.715  0.00  0.00     0.003 A 
ATOM      6  C4  PXY d   1      -3.552   1.938  -2.955  0.00  0.00    -0.082 A 
ATOM      7  C5  PXY d   1      -3.746   2.988  -3.780  0.00  0.00     0.003 A 
ATOM      8  C6  PXY d   1      -4.537   4.051  -3.352  0.00  0.00     0.003 A 
ENDROOT
TORSDOF 0
ENDMDL
