MODEL 1
REMARK minimizedAffinity -5.46836805
REMARK minimizedRMSD -1
REMARK  0 active torsions:
REMARK  status: ('A' for Active; 'I' for Inactive)
ROOT
ATOM      1  C4' PXY d   1      -0.773   0.002   0.026  0.00  0.00     0.077 C 
ATOM      2  C1' PXY d   1       4.240  -1.366   2.557  0.00  0.00     0.077 C 
ATOM      3  C1  PXY d   1       2.929  -0.995   1.893  0.00  0.00    -0.082 A 
ATOM      4  C2  PXY d   1       1.890  -1.808   1.996  0.00  0.00     0.003 A 
ATOM      5  C3  PXY d   1       0.706  -1.503   1.376  0.00  0.00     0.003 A 
ATOM      6  C4  PXY d   1       0.567  -0.328   0.687  0.00  0.00    -0.082 A 
ATOM      7  C5  PXY d   1       1.619   0.513   0.587  0.00  0.00     0.003 A 
ATOM      8  C6  PXY d   1       2.825   0.165   1.189  0.00  0.00     0.003 A 
ENDROOT
TORSDOF 0
ENDMDL
