MODEL 1
REMARK minimizedAffinity 2.16297007
REMARK minimizedRMSD -1
REMARK  0 active torsions:
REMARK  status: ('A' for Active; 'I' for Inactive)
ROOT
ATOM      1  C2' OXE d   1      -1.873  -0.207   0.606  0.00  0.00     0.078 C 
ATOM      2  C1' OXE d   1      -2.473  -2.000   2.681  0.00  0.00     0.078 C 
ATOM      3  C1  OXE d   1      -1.066  -1.463   2.600  0.00  0.00    -0.078 A 
ATOM      4  C2  OXE d   1      -0.769  -0.623   1.554  0.00  0.00    -0.078 A 
ATOM      5  C3  OXE d   1       0.499  -0.056   1.464  0.00  0.00     0.003 A 
ATOM      6  C4  OXE d   1       1.517  -0.453   2.339  0.00  0.00    -0.002 A 
ATOM      7  C5  OXE d   1       1.246  -1.338   3.388  0.00  0.00    -0.002 A 
ATOM      8  C6  OXE d   1      -0.048  -1.818   3.557  0.00  0.00     0.003 A 
ENDROOT
TORSDOF 0
ENDMDL
