MODEL 1
REMARK minimizedAffinity 3.80020571
REMARK minimizedRMSD -1
REMARK  0 active torsions:
REMARK  status: ('A' for Active; 'I' for Inactive)
ROOT
ATOM      1  C2' OXE d   1      -2.813  -2.090   2.776  0.00  0.00     0.078 C 
ATOM      2  C1' OXE d   1      -1.761   0.284   1.710  0.00  0.00     0.078 C 
ATOM      3  C1  OXE d   1      -0.814  -0.645   2.428  0.00  0.00    -0.078 A 
ATOM      4  C2  OXE d   1      -1.347  -1.782   2.987  0.00  0.00    -0.078 A 
ATOM      5  C3  OXE d   1      -0.508  -2.700   3.613  0.00  0.00     0.003 A 
ATOM      6  C4  OXE d   1       0.846  -2.402   3.812  0.00  0.00    -0.002 A 
ATOM      7  C5  OXE d   1       1.400  -1.231   3.285  0.00  0.00    -0.002 A 
ATOM      8  C6  OXE d   1       0.594  -0.364   2.555  0.00  0.00     0.003 A 
ENDROOT
TORSDOF 0
ENDMDL
