MODEL 1
REMARK minimizedAffinity 0.268405497
REMARK minimizedRMSD -1
REMARK  0 active torsions:
REMARK  status: ('A' for Active; 'I' for Inactive)
ROOT
ATOM      1  C2' OXE d   1       2.685  -1.088   2.447  0.00  0.00     0.078 C 
ATOM      2  C1' OXE d   1       1.046  -2.171   4.452  0.00  0.00     0.078 C 
ATOM      3  C1  OXE d   1       0.390  -1.331   3.385  0.00  0.00    -0.078 A 
ATOM      4  C2  OXE d   1       1.206  -0.766   2.435  0.00  0.00    -0.078 A 
ATOM      5  C3  OXE d   1       0.647  -0.027   1.397  0.00  0.00     0.003 A 
ATOM      6  C4  OXE d   1      -0.721   0.275   1.398  0.00  0.00    -0.002 A 
ATOM      7  C5  OXE d   1      -1.564  -0.258   2.379  0.00  0.00    -0.002 A 
ATOM      8  C6  OXE d   1      -1.032  -1.095   3.354  0.00  0.00     0.003 A 
ENDROOT
TORSDOF 0
ENDMDL
