MODEL 1
REMARK minimizedAffinity 6.06527376
REMARK minimizedRMSD -1
REMARK  0 active torsions:
REMARK  status: ('A' for Active; 'I' for Inactive)
ROOT
ATOM      1  C2' OXE d   1       3.537  -0.357   4.508  0.00  0.00     0.078 C 
ATOM      2  C1' OXE d   1       1.649  -2.020   5.753  0.00  0.00     0.078 C 
ATOM      3  C1  OXE d   1       1.332  -1.507   4.370  0.00  0.00    -0.078 A 
ATOM      4  C2  OXE d   1       2.241  -0.657   3.787  0.00  0.00    -0.078 A 
ATOM      5  C3  OXE d   1       2.024  -0.199   2.491  0.00  0.00     0.003 A 
ATOM      6  C4  OXE d   1       0.817  -0.473   1.835  0.00  0.00    -0.002 A 
ATOM      7  C5  OXE d   1      -0.139  -1.305   2.426  0.00  0.00    -0.002 A 
ATOM      8  C6  OXE d   1       0.121  -1.863   3.673  0.00  0.00     0.003 A 
ENDROOT
TORSDOF 0
ENDMDL
