MODEL 1
REMARK minimizedAffinity -3.44921827
REMARK minimizedRMSD -1
REMARK  0 active torsions:
REMARK  status: ('A' for Active; 'I' for Inactive)
ROOT
ATOM      1  C2' OXE d   1       0.096  -2.672   4.528  0.00  0.00     0.078 C 
ATOM      2  C1' OXE d   1      -2.326  -1.881   3.349  0.00  0.00     0.078 C 
ATOM      3  C1  OXE d   1      -1.057  -1.238   2.849  0.00  0.00    -0.078 A 
ATOM      4  C2  OXE d   1       0.119  -1.597   3.464  0.00  0.00    -0.078 A 
ATOM      5  C3  OXE d   1       1.324  -1.074   3.005  0.00  0.00     0.003 A 
ATOM      6  C4  OXE d   1       1.336  -0.072   2.027  0.00  0.00    -0.002 A 
ATOM      7  C5  OXE d   1       0.146   0.337   1.415  0.00  0.00    -0.002 A 
ATOM      8  C6  OXE d   1      -1.052  -0.266   1.784  0.00  0.00     0.003 A 
ENDROOT
TORSDOF 0
ENDMDL
