MODEL 1
REMARK minimizedAffinity 0.17686896
REMARK minimizedRMSD -1
REMARK  0 active torsions:
REMARK  status: ('A' for Active; 'I' for Inactive)
ROOT
ATOM      1  C2' OXE d   1      -2.545  -1.413   3.043  0.00  0.00     0.078 C 
ATOM      2  C1' OXE d   1      -1.213  -0.007   1.011  0.00  0.00     0.078 C 
ATOM      3  C1  OXE d   1      -0.373  -0.686   2.063  0.00  0.00    -0.078 A 
ATOM      4  C2  OXE d   1      -1.034  -1.333   3.080  0.00  0.00    -0.078 A 
ATOM      5  C3  OXE d   1      -0.306  -2.023   4.046  0.00  0.00     0.003 A 
ATOM      6  C4  OXE d   1       1.091  -1.935   4.078  0.00  0.00    -0.002 A 
ATOM      7  C5  OXE d   1       1.782  -1.248   3.074  0.00  0.00    -0.002 A 
ATOM      8  C6  OXE d   1       1.069  -0.656   2.038  0.00  0.00     0.003 A 
ENDROOT
TORSDOF 0
ENDMDL
