MODEL 1
REMARK minimizedAffinity 7.26967716
REMARK minimizedRMSD -1
REMARK  0 active torsions:
REMARK  status: ('A' for Active; 'I' for Inactive)
ROOT
ATOM      1  C2' OXE d   1       0.560   0.178   5.588  0.00  0.00     0.078 C 
ATOM      2  C1' OXE d   1       1.829  -1.878   4.159  0.00  0.00     0.078 C 
ATOM      3  C1  OXE d   1       0.870  -0.988   3.409  0.00  0.00    -0.078 A 
ATOM      4  C2  OXE d   1       0.218  -0.014   4.126  0.00  0.00    -0.078 A 
ATOM      5  C3  OXE d   1      -0.635   0.870   3.472  0.00  0.00     0.003 A 
ATOM      6  C4  OXE d   1      -0.953   0.679   2.122  0.00  0.00    -0.002 A 
ATOM      7  C5  OXE d   1      -0.331  -0.332   1.382  0.00  0.00    -0.002 A 
ATOM      8  C6  OXE d   1       0.613  -1.145   1.999  0.00  0.00     0.003 A 
ENDROOT
TORSDOF 0
ENDMDL
