MODEL 1
REMARK minimizedAffinity 1.32416701
REMARK minimizedRMSD -1
REMARK  0 active torsions:
REMARK  status: ('A' for Active; 'I' for Inactive)
ROOT
ATOM      1  C2' OXE d   1       1.803  -1.219   3.018  0.00  0.00     0.078 C 
ATOM      2  C1' OXE d   1       3.432  -0.837   5.272  0.00  0.00     0.078 C 
ATOM      3  C1  OXE d   1       3.481   0.206   4.184  0.00  0.00    -0.078 A 
ATOM      4  C2  OXE d   1       2.715  -0.012   3.064  0.00  0.00    -0.078 A 
ATOM      5  C3  OXE d   1       2.682   0.946   2.054  0.00  0.00     0.003 A 
ATOM      6  C4  OXE d   1       3.536   2.054   2.100  0.00  0.00    -0.002 A 
ATOM      7  C5  OXE d   1       4.353   2.275   3.214  0.00  0.00    -0.002 A 
ATOM      8  C6  OXE d   1       4.306   1.385   4.281  0.00  0.00     0.003 A 
ENDROOT
TORSDOF 0
ENDMDL
