MODEL 1
REMARK minimizedAffinity 9.78074932
REMARK minimizedRMSD -1
REMARK  0 active torsions:
REMARK  status: ('A' for Active; 'I' for Inactive)
ROOT
ATOM      1  C   UNL d   1      -5.999   0.603   0.742  0.00  0.00     0.023 A 
ATOM      2  C1  UNL d   1      -4.953   1.464   1.076  0.00  0.00     0.003 A 
ATOM      3  C2  UNL d   1      -3.748   1.408   0.373  0.00  0.00     0.048 A 
ATOM      4  C3  UNL d   1      -3.595   0.488  -0.664  0.00  0.00     0.023 A 
ATOM      5  C4  UNL d   1      -4.639  -0.376  -1.002  0.00  0.00     0.048 A 
ATOM      6  C5  UNL d   1      -5.841  -0.316  -0.296  0.00  0.00     0.003 A 
ATOM      7  I   UNL d   1      -1.803   0.401  -1.712  0.00  0.00    -0.146 I 
ENDROOT
TORSDOF 0
ENDMDL
