MODEL 1
REMARK minimizedAffinity 15.1389952
REMARK minimizedRMSD -1
REMARK  0 active torsions:
REMARK  status: ('A' for Active; 'I' for Inactive)
ROOT
ATOM      1  C   UNL d   1       2.557   0.380  -0.461  0.00  0.00     0.023 A 
ATOM      2  C1  UNL d   1       2.676  -0.036  -1.787  0.00  0.00     0.003 A 
ATOM      3  C2  UNL d   1       3.660   0.518  -2.608  0.00  0.00     0.048 A 
ATOM      4  C3  UNL d   1       4.523   1.487  -2.097  0.00  0.00     0.023 A 
ATOM      5  C4  UNL d   1       4.408   1.906  -0.771  0.00  0.00     0.048 A 
ATOM      6  C5  UNL d   1       3.422   1.350   0.046  0.00  0.00     0.003 A 
ATOM      7  I   UNL d   1       5.988   2.312  -3.318  0.00  0.00    -0.146 I 
ENDROOT
TORSDOF 0
ENDMDL
