MODEL 1
REMARK minimizedAffinity 9.0185833
REMARK minimizedRMSD -1
REMARK  0 active torsions:
REMARK  status: ('A' for Active; 'I' for Inactive)
ROOT
ATOM      1  C   UNL d   1       2.536   0.286  -0.339  0.00  0.00     0.023 A 
ATOM      2  C1  UNL d   1       3.409   1.214   0.231  0.00  0.00     0.003 A 
ATOM      3  C2  UNL d   1       4.378   1.837  -0.557  0.00  0.00     0.048 A 
ATOM      4  C3  UNL d   1       4.469   1.530  -1.914  0.00  0.00     0.023 A 
ATOM      5  C4  UNL d   1       3.598   0.604  -2.489  0.00  0.00     0.048 A 
ATOM      6  C5  UNL d   1       2.630  -0.018  -1.697  0.00  0.00     0.003 A 
ATOM      7  I   UNL d   1       5.912   2.458  -3.088  0.00  0.00    -0.146 I 
ENDROOT
TORSDOF 0
ENDMDL
