MODEL 1
REMARK minimizedAffinity 10.1462383
REMARK minimizedRMSD -1
REMARK  0 active torsions:
REMARK  status: ('A' for Active; 'I' for Inactive)
ROOT
ATOM      1  C   UNL d   1      -5.842   4.497   4.221  0.00  0.00     0.023 A 
ATOM      2  C1  UNL d   1      -5.163   5.698   4.015  0.00  0.00     0.003 A 
ATOM      3  C2  UNL d   1      -4.639   5.998   2.756  0.00  0.00     0.048 A 
ATOM      4  C3  UNL d   1      -4.798   5.093   1.707  0.00  0.00     0.023 A 
ATOM      5  C4  UNL d   1      -5.478   3.890   1.908  0.00  0.00     0.048 A 
ATOM      6  C5  UNL d   1      -5.999   3.595   3.169  0.00  0.00     0.003 A 
ATOM      7  I   UNL d   1      -4.019   5.537  -0.168  0.00  0.00    -0.146 I 
ENDROOT
TORSDOF 0
ENDMDL
