MODEL 1
REMARK minimizedAffinity 1.32010102
REMARK minimizedRMSD -1
REMARK  0 active torsions:
REMARK  status: ('A' for Active; 'I' for Inactive)
ROOT
ATOM      1  C   UNL d   1      -2.594  -1.170  -4.152  0.00  0.00     0.023 A 
ATOM      2  C1  UNL d   1      -1.648  -1.759  -3.312  0.00  0.00     0.003 A 
ATOM      3  C2  UNL d   1      -1.477  -3.144  -3.312  0.00  0.00     0.048 A 
ATOM      4  C3  UNL d   1      -2.255  -3.936  -4.156  0.00  0.00     0.023 A 
ATOM      5  C4  UNL d   1      -3.202  -3.352  -4.999  0.00  0.00     0.048 A 
ATOM      6  C5  UNL d   1      -3.370  -1.966  -4.995  0.00  0.00     0.003 A 
ATOM      7  I   UNL d   1      -2.003  -5.999  -4.159  0.00  0.00    -0.146 I 
ENDROOT
TORSDOF 0
ENDMDL
