MODEL 1
REMARK minimizedAffinity 11.3746138
REMARK minimizedRMSD -1
REMARK  0 active torsions:
REMARK  status: ('A' for Active; 'I' for Inactive)
ROOT
ATOM      1  C   UNL d   1       4.833   1.885   0.296  0.00  0.00     0.023 A 
ATOM      2  C1  UNL d   1       4.453   1.734  -1.038  0.00  0.00     0.003 A 
ATOM      3  C2  UNL d   1       3.294   1.025  -1.359  0.00  0.00     0.048 A 
ATOM      4  C3  UNL d   1       2.518   0.471  -0.341  0.00  0.00     0.023 A 
ATOM      5  C4  UNL d   1       2.894   0.620   0.995  0.00  0.00     0.048 A 
ATOM      6  C5  UNL d   1       4.055   1.328   1.311  0.00  0.00     0.003 A 
ATOM      7  I   UNL d   1       0.792  -0.584  -0.817  0.00  0.00    -0.146 I 
ENDROOT
TORSDOF 0
ENDMDL
