MODEL 1
REMARK minimizedAffinity 12.9274454
REMARK minimizedRMSD -1
REMARK  0 active torsions:
REMARK  status: ('A' for Active; 'I' for Inactive)
ROOT
ATOM      1  C   UNL d   1       5.522  -1.555   4.573  0.00  0.00     0.023 A 
ATOM      2  C1  UNL d   1       5.223  -0.976   5.807  0.00  0.00     0.003 A 
ATOM      3  C2  UNL d   1       4.114  -0.138   5.936  0.00  0.00     0.048 A 
ATOM      4  C3  UNL d   1       3.306   0.116   4.828  0.00  0.00     0.023 A 
ATOM      5  C4  UNL d   1       3.600  -0.462   3.592  0.00  0.00     0.048 A 
ATOM      6  C5  UNL d   1       4.711  -1.299   3.467  0.00  0.00     0.003 A 
ATOM      7  I   UNL d   1       1.654   1.362   5.018  0.00  0.00    -0.146 I 
ENDROOT
TORSDOF 0
ENDMDL
