MODEL 1
REMARK minimizedAffinity 7.19027042
REMARK minimizedRMSD -1
REMARK  0 active torsions:
REMARK  status: ('A' for Active; 'I' for Inactive)
ROOT
ATOM      1  C   UNL d   1      -6.000   0.009   0.717  0.00  0.00     0.023 A 
ATOM      2  C1  UNL d   1      -4.949  -0.511  -0.038  0.00  0.00     0.003 A 
ATOM      3  C2  UNL d   1      -3.735   0.175  -0.114  0.00  0.00     0.048 A 
ATOM      4  C3  UNL d   1      -3.579   1.381   0.569  0.00  0.00     0.023 A 
ATOM      5  C4  UNL d   1      -4.627   1.905   1.327  0.00  0.00     0.048 A 
ATOM      6  C5  UNL d   1      -5.839   1.216   1.399  0.00  0.00     0.003 A 
ATOM      7  I   UNL d   1      -1.773   2.404   0.457  0.00  0.00    -0.146 I 
ENDROOT
TORSDOF 0
ENDMDL
