MODEL 1
REMARK minimizedAffinity 7.83264208
REMARK minimizedRMSD -1
REMARK  0 active torsions:
REMARK  status: ('A' for Active; 'I' for Inactive)
ROOT
ATOM      1  C   UNL d   1       5.987   2.727  -1.675  0.00  0.00     0.023 A 
ATOM      2  C1  UNL d   1       5.999   2.830  -0.284  0.00  0.00     0.003 A 
ATOM      3  C2  UNL d   1       5.029   2.171   0.474  0.00  0.00     0.048 A 
ATOM      4  C3  UNL d   1       4.052   1.409  -0.166  0.00  0.00     0.023 A 
ATOM      5  C4  UNL d   1       4.037   1.302  -1.557  0.00  0.00     0.048 A 
ATOM      6  C5  UNL d   1       5.008   1.964  -2.311  0.00  0.00     0.003 A 
ATOM      7  I   UNL d   1       2.608   0.425   0.961  0.00  0.00    -0.146 I 
ENDROOT
TORSDOF 0
ENDMDL
