MODEL 1
REMARK minimizedAffinity 9.95844555
REMARK minimizedRMSD -1
REMARK  0 active torsions:
REMARK  status: ('A' for Active; 'I' for Inactive)
ROOT
ATOM      1  C   UNL d   1       1.377   2.490   5.117  0.00  0.00     0.023 A 
ATOM      2  C1  UNL d   1       2.126   1.326   4.943  0.00  0.00     0.003 A 
ATOM      3  C2  UNL d   1       2.654   1.015   3.688  0.00  0.00     0.048 A 
ATOM      4  C3  UNL d   1       2.429   1.873   2.612  0.00  0.00     0.023 A 
ATOM      5  C4  UNL d   1       1.681   3.039   2.781  0.00  0.00     0.048 A 
ATOM      6  C5  UNL d   1       1.154   3.345   4.038  0.00  0.00     0.003 A 
ATOM      7  I   UNL d   1       3.214   1.413   0.743  0.00  0.00    -0.146 I 
ENDROOT
TORSDOF 0
ENDMDL
