MODEL 1
REMARK minimizedAffinity -4.62629461
REMARK minimizedRMSD -1
REMARK  0 active torsions:
REMARK  status: ('A' for Active; 'I' for Inactive)
ROOT
ATOM      1  C   UNL d   1      -1.367   0.727  -0.122  0.00  0.00     0.078 C 
ATOM      2  C1  UNL d   1       0.094   0.389  -0.129  0.00  0.00    -0.077 A 
ATOM      3  C2  UNL d   1       0.526  -0.941  -0.203  0.00  0.00    -0.001 A 
ATOM      4  C3  UNL d   1       1.889  -1.241  -0.199  0.00  0.00     0.003 A 
ATOM      5  C4  UNL d   1       2.831  -0.217  -0.119  0.00  0.00    -0.005 A 
ATOM      6  C5  UNL d   1       2.410   1.109  -0.042  0.00  0.00     0.003 A 
ATOM      7  C6  UNL d   1       1.048   1.411  -0.046  0.00  0.00    -0.001 A 
ENDROOT
TORSDOF 0
ENDMDL
