MODEL 1
REMARK minimizedAffinity -1.78753424
REMARK minimizedRMSD -1
REMARK  0 active torsions:
REMARK  status: ('A' for Active; 'I' for Inactive)
ROOT
ATOM      1  C   UNL d   1       3.618   1.044  -0.541  0.00  0.00     0.078 C 
ATOM      2  C1  UNL d   1       2.353   0.238  -0.544  0.00  0.00    -0.077 A 
ATOM      3  C2  UNL d   1       2.389  -1.160  -0.479  0.00  0.00    -0.001 A 
ATOM      4  C3  UNL d   1       1.204  -1.898  -0.492  0.00  0.00     0.003 A 
ATOM      5  C4  UNL d   1      -0.025  -1.247  -0.572  0.00  0.00    -0.005 A 
ATOM      6  C5  UNL d   1      -0.071   0.144  -0.640  0.00  0.00     0.003 A 
ATOM      7  C6  UNL d   1       1.113   0.884  -0.626  0.00  0.00    -0.001 A 
ENDROOT
TORSDOF 0
ENDMDL
