MODEL 1
REMARK minimizedAffinity -5.19042206
REMARK minimizedRMSD -1
REMARK  0 active torsions:
REMARK  status: ('A' for Active; 'I' for Inactive)
ROOT
ATOM      1  C   UNL d   1      -0.761   0.666  -0.390  0.00  0.00     0.078 C 
ATOM      2  C1  UNL d   1       0.694   0.368  -0.182  0.00  0.00    -0.077 A 
ATOM      3  C2  UNL d   1       1.627   1.401  -0.030  0.00  0.00    -0.001 A 
ATOM      4  C3  UNL d   1       2.980   1.109   0.154  0.00  0.00     0.003 A 
ATOM      5  C4  UNL d   1       3.412  -0.215   0.187  0.00  0.00    -0.005 A 
ATOM      6  C5  UNL d   1       2.491  -1.250   0.035  0.00  0.00     0.003 A 
ATOM      7  C6  UNL d   1       1.138  -0.960  -0.149  0.00  0.00    -0.001 A 
ENDROOT
TORSDOF 0
ENDMDL
