MODEL 1
REMARK minimizedAffinity -3.94987822
REMARK minimizedRMSD -1
REMARK  0 active torsions:
REMARK  status: ('A' for Active; 'I' for Inactive)
ROOT
ATOM      1  C   UNL d   1       2.272  -0.772   1.259  0.00  0.00     0.078 C 
ATOM      2  C1  UNL d   1       1.257   0.060   0.534  0.00  0.00    -0.077 A 
ATOM      3  C2  UNL d   1       1.446   1.436   0.358  0.00  0.00    -0.001 A 
ATOM      4  C3  UNL d   1       0.489   2.201  -0.311  0.00  0.00     0.003 A 
ATOM      5  C4  UNL d   1      -0.665   1.598  -0.808  0.00  0.00    -0.005 A 
ATOM      6  C5  UNL d   1      -0.863   0.229  -0.636  0.00  0.00     0.003 A 
ATOM      7  C6  UNL d   1       0.094  -0.537   0.033  0.00  0.00    -0.001 A 
ENDROOT
TORSDOF 0
ENDMDL
