MODEL 1
REMARK minimizedAffinity -5.07433939
REMARK minimizedRMSD -1
REMARK  0 active torsions:
REMARK  status: ('A' for Active; 'I' for Inactive)
ROOT
ATOM      1  C   UNL d   1      -1.356   0.389  -0.738  0.00  0.00     0.078 C 
ATOM      2  C1  UNL d   1      -0.098  -0.250  -0.231  0.00  0.00    -0.077 A 
ATOM      3  C2  UNL d   1       0.683   0.375   0.749  0.00  0.00    -0.001 A 
ATOM      4  C3  UNL d   1       1.857  -0.226   1.206  0.00  0.00     0.003 A 
ATOM      5  C4  UNL d   1       2.262  -1.454   0.686  0.00  0.00    -0.005 A 
ATOM      6  C5  UNL d   1       1.493  -2.083  -0.291  0.00  0.00     0.003 A 
ATOM      7  C6  UNL d   1       0.318  -1.483  -0.748  0.00  0.00    -0.001 A 
ENDROOT
TORSDOF 0
ENDMDL
