MODEL 1
REMARK minimizedAffinity -4.14557743
REMARK minimizedRMSD -1
REMARK  0 active torsions:
REMARK  status: ('A' for Active; 'I' for Inactive)
ROOT
ATOM      1  C   UNL d   1      -0.710   0.378  -0.449  0.00  0.00     0.078 C 
ATOM      2  C1  UNL d   1       0.751   0.388  -0.113  0.00  0.00    -0.077 A 
ATOM      3  C2  UNL d   1       1.434   1.592   0.100  0.00  0.00    -0.001 A 
ATOM      4  C3  UNL d   1       2.797   1.586   0.402  0.00  0.00     0.003 A 
ATOM      5  C4  UNL d   1       3.488   0.380   0.493  0.00  0.00    -0.005 A 
ATOM      6  C5  UNL d   1       2.818  -0.822   0.281  0.00  0.00     0.003 A 
ATOM      7  C6  UNL d   1       1.455  -0.819  -0.022  0.00  0.00    -0.001 A 
ENDROOT
TORSDOF 0
ENDMDL
