MODEL 1
REMARK minimizedAffinity -4.31824493
REMARK minimizedRMSD -1
REMARK  0 active torsions:
REMARK  status: ('A' for Active; 'I' for Inactive)
ROOT
ATOM      1  C   UNL d   1       3.330  -1.523   1.332  0.00  0.00     0.078 C 
ATOM      2  C1  UNL d   1       2.047  -1.058   0.710  0.00  0.00    -0.077 A 
ATOM      3  C2  UNL d   1       1.805   0.303   0.487  0.00  0.00    -0.001 A 
ATOM      4  C3  UNL d   1       0.603   0.722  -0.085  0.00  0.00     0.003 A 
ATOM      5  C4  UNL d   1      -0.368  -0.213  -0.436  0.00  0.00    -0.005 A 
ATOM      6  C5  UNL d   1      -0.138  -1.569  -0.216  0.00  0.00     0.003 A 
ATOM      7  C6  UNL d   1       1.064  -1.990   0.355  0.00  0.00    -0.001 A 
ENDROOT
TORSDOF 0
ENDMDL
