MODEL 1
REMARK minimizedAffinity -5.14908409
REMARK minimizedRMSD -1
REMARK  0 active torsions:
REMARK  status: ('A' for Active; 'I' for Inactive)
ROOT
ATOM      1  C   UNL d   1      -0.649  -2.136  -1.835  0.00  0.00     0.078 C 
ATOM      2  C1  UNL d   1       0.191  -1.316  -0.902  0.00  0.00    -0.077 A 
ATOM      3  C2  UNL d   1       1.456  -1.756  -0.494  0.00  0.00    -0.001 A 
ATOM      4  C3  UNL d   1       2.223  -0.987   0.382  0.00  0.00     0.003 A 
ATOM      5  C4  UNL d   1       1.733   0.227   0.860  0.00  0.00    -0.005 A 
ATOM      6  C5  UNL d   1       0.475   0.673   0.461  0.00  0.00     0.003 A 
ATOM      7  C6  UNL d   1      -0.294  -0.095  -0.415  0.00  0.00    -0.001 A 
ENDROOT
TORSDOF 0
ENDMDL
