MODEL 1
REMARK minimizedAffinity -2.82726955
REMARK minimizedRMSD -1
REMARK  0 active torsions:
REMARK  status: ('A' for Active; 'I' for Inactive)
ROOT
ATOM      1  C   UNL d   1       2.756  -1.856   0.196  0.00  0.00     0.078 C 
ATOM      2  C1  UNL d   1       1.514  -1.027   0.058  0.00  0.00    -0.077 A 
ATOM      3  C2  UNL d   1       0.304  -1.605  -0.345  0.00  0.00    -0.001 A 
ATOM      4  C3  UNL d   1      -0.843  -0.820  -0.480  0.00  0.00     0.003 A 
ATOM      5  C4  UNL d   1      -0.790   0.547  -0.214  0.00  0.00    -0.005 A 
ATOM      6  C5  UNL d   1       0.411   1.131   0.185  0.00  0.00     0.003 A 
ATOM      7  C6  UNL d   1       1.558   0.348   0.320  0.00  0.00    -0.001 A 
ENDROOT
TORSDOF 0
ENDMDL
