MODEL 1
REMARK minimizedAffinity -3.11933446
REMARK minimizedRMSD -1
REMARK  0 active torsions:
REMARK  status: ('A' for Active; 'I' for Inactive)
ROOT
ATOM      1  C   UNL d   1       2.342  -0.954   1.278  0.00  0.00     0.078 C 
ATOM      2  C1  UNL d   1       1.280  -0.250   0.487  0.00  0.00    -0.077 A 
ATOM      3  C2  UNL d   1       1.177   1.147   0.500  0.00  0.00    -0.001 A 
ATOM      4  C3  UNL d   1       0.177   1.788  -0.233  0.00  0.00     0.003 A 
ATOM      5  C4  UNL d   1      -0.729   1.041  -0.983  0.00  0.00    -0.005 A 
ATOM      6  C5  UNL d   1      -0.636  -0.349  -1.000  0.00  0.00     0.003 A 
ATOM      7  C6  UNL d   1       0.363  -0.992  -0.268  0.00  0.00    -0.001 A 
ENDROOT
TORSDOF 0
ENDMDL
