MODEL 1
REMARK minimizedAffinity 10.2797871
REMARK minimizedRMSD -1
REMARK  0 active torsions:
REMARK  status: ('A' for Active; 'I' for Inactive)
ROOT
ATOM      1  C   UNL d   1      -1.227   1.534   1.190  0.00  0.00     0.124 A 
ATOM      2  C1  UNL d   1      -0.993   0.252   1.667  0.00  0.00     0.062 A 
ATOM      3  C2  UNL d   1      -1.176  -0.849   0.836  0.00  0.00     0.162 A 
ATOM      4  C3  UNL d   1      -1.594  -0.673  -0.483  0.00  0.00    -0.034 A 
ATOM      5  C4  UNL d   1      -1.829   0.619  -0.956  0.00  0.00     0.162 A 
ATOM      6  C5  UNL d   1      -1.645   1.716  -0.121  0.00  0.00     0.062 A 
ATOM      7  F   UNL d   1      -1.872   2.954  -0.584  0.00  0.00    -0.097 F 
ATOM      8  F1  UNL d   1      -2.232   0.824  -2.219  0.00  0.00    -0.096 F 
ATOM      9  I   UNL d   1      -1.869  -2.317  -1.730  0.00  0.00    -0.060 I 
ATOM     10  F2  UNL d   1      -0.942  -2.077   1.324  0.00  0.00    -0.096 F 
ATOM     11  F3  UNL d   1      -0.590   0.073   2.934  0.00  0.00    -0.097 F 
ATOM     12  F4  UNL d   1      -1.052   2.591   1.993  0.00  0.00    -0.092 F 
ENDROOT
TORSDOF 0
ENDMDL
