MODEL 1
REMARK minimizedAffinity 8.85836315
REMARK minimizedRMSD -1
REMARK  0 active torsions:
REMARK  status: ('A' for Active; 'I' for Inactive)
ROOT
ATOM      1  C   UNL d   1      -1.803   2.013   0.582  0.00  0.00     0.124 A 
ATOM      2  C1  UNL d   1      -1.418   1.036  -0.326  0.00  0.00     0.062 A 
ATOM      3  C2  UNL d   1      -0.097   0.598  -0.364  0.00  0.00     0.162 A 
ATOM      4  C3  UNL d   1       0.848   1.135   0.510  0.00  0.00    -0.034 A 
ATOM      5  C4  UNL d   1       0.453   2.117   1.420  0.00  0.00     0.162 A 
ATOM      6  C5  UNL d   1      -0.868   2.552   1.454  0.00  0.00     0.062 A 
ATOM      7  F   UNL d   1      -1.239   3.495   2.332  0.00  0.00    -0.097 F 
ATOM      8  F1  UNL d   1       1.336   2.655   2.275  0.00  0.00    -0.096 F 
ATOM      9  I   UNL d   1       2.823   0.482   0.456  0.00  0.00    -0.060 I 
ATOM     10  F2  UNL d   1       0.247  -0.346  -1.252  0.00  0.00    -0.096 F 
ATOM     11  F3  UNL d   1      -2.319   0.514  -1.170  0.00  0.00    -0.097 F 
ATOM     12  F4  UNL d   1      -3.075   2.433   0.616  0.00  0.00    -0.092 F 
ENDROOT
TORSDOF 0
ENDMDL
