MODEL 1
REMARK minimizedAffinity -0.886835456
REMARK minimizedRMSD -1
REMARK  0 active torsions:
REMARK  status: ('A' for Active; 'I' for Inactive)
ROOT
ATOM      1  C   UNL d   1       0.574   2.124   1.154  0.00  0.00     0.124 A 
ATOM      2  C1  UNL d   1       1.545   1.153   0.954  0.00  0.00     0.062 A 
ATOM      3  C2  UNL d   1       1.202  -0.075   0.394  0.00  0.00     0.162 A 
ATOM      4  C3  UNL d   1      -0.118  -0.338   0.030  0.00  0.00    -0.034 A 
ATOM      5  C4  UNL d   1      -1.089   0.643   0.235  0.00  0.00     0.162 A 
ATOM      6  C5  UNL d   1      -0.742   1.868   0.794  0.00  0.00     0.062 A 
ATOM      7  F   UNL d   1      -1.682   2.806   0.987  0.00  0.00    -0.097 F 
ATOM      8  F1  UNL d   1      -2.368   0.423  -0.104  0.00  0.00    -0.096 F 
ATOM      9  I   UNL d   1      -0.634  -2.173  -0.807  0.00  0.00    -0.060 I 
ATOM     10  F2  UNL d   1       2.161  -0.995   0.213  0.00  0.00    -0.096 F 
ATOM     11  F3  UNL d   1       2.817   1.397   1.301  0.00  0.00    -0.097 F 
ATOM     12  F4  UNL d   1       0.906   3.304   1.693  0.00  0.00    -0.092 F 
ENDROOT
TORSDOF 0
ENDMDL
