MODEL 1
REMARK minimizedAffinity -0.27442196
REMARK minimizedRMSD -1
REMARK  0 active torsions:
REMARK  status: ('A' for Active; 'I' for Inactive)
ROOT
ATOM      1  C   UNL d   1       2.289   2.151   0.314  0.00  0.00     0.124 A 
ATOM      2  C1  UNL d   1       2.045   0.786   0.370  0.00  0.00     0.062 A 
ATOM      3  C2  UNL d   1       0.760   0.315   0.628  0.00  0.00     0.162 A 
ATOM      4  C3  UNL d   1      -0.290   1.211   0.830  0.00  0.00    -0.034 A 
ATOM      5  C4  UNL d   1      -0.036   2.582   0.773  0.00  0.00     0.162 A 
ATOM      6  C5  UNL d   1       1.250   3.048   0.515  0.00  0.00     0.062 A 
ATOM      7  F   UNL d   1       1.484   4.367   0.461  0.00  0.00    -0.097 F 
ATOM      8  F1  UNL d   1      -1.022   3.471   0.963  0.00  0.00    -0.096 F 
ATOM      9  I   UNL d   1      -2.212   0.511   1.216  0.00  0.00    -0.060 I 
ATOM     10  F2  UNL d   1       0.553  -1.009   0.677  0.00  0.00    -0.096 F 
ATOM     11  F3  UNL d   1       3.048  -0.082   0.177  0.00  0.00    -0.097 F 
ATOM     12  F4  UNL d   1       3.526   2.601   0.066  0.00  0.00    -0.092 F 
ENDROOT
TORSDOF 0
ENDMDL
