MODEL 1
REMARK minimizedAffinity 2.18690586
REMARK minimizedRMSD -1
REMARK  0 active torsions:
REMARK  status: ('A' for Active; 'I' for Inactive)
ROOT
ATOM      1  C   UNL d   1      -0.379   2.587   1.021  0.00  0.00     0.124 A 
ATOM      2  C1  UNL d   1       0.904   2.974   0.661  0.00  0.00     0.062 A 
ATOM      3  C2  UNL d   1       1.810   2.032   0.180  0.00  0.00     0.162 A 
ATOM      4  C3  UNL d   1       1.434   0.694   0.056  0.00  0.00    -0.034 A 
ATOM      5  C4  UNL d   1       0.142   0.313   0.421  0.00  0.00     0.162 A 
ATOM      6  C5  UNL d   1      -0.759   1.258   0.901  0.00  0.00     0.062 A 
ATOM      7  F   UNL d   1      -1.999   0.883   1.248  0.00  0.00    -0.097 F 
ATOM      8  F1  UNL d   1      -0.251  -0.965   0.314  0.00  0.00    -0.096 F 
ATOM      9  I   UNL d   1       2.785  -0.716  -0.663  0.00  0.00    -0.060 I 
ATOM     10  F2  UNL d   1       3.043   2.434  -0.161  0.00  0.00    -0.096 F 
ATOM     11  F3  UNL d   1       1.274   4.257   0.777  0.00  0.00    -0.097 F 
ATOM     12  F4  UNL d   1      -1.248   3.495   1.484  0.00  0.00    -0.092 F 
ENDROOT
TORSDOF 0
ENDMDL
