MODEL 1
REMARK minimizedAffinity 2.10773063
REMARK minimizedRMSD -1
REMARK  0 active torsions:
REMARK  status: ('A' for Active; 'I' for Inactive)
ROOT
ATOM      1  C   UNL d   1       0.833   2.158   0.709  0.00  0.00     0.124 A 
ATOM      2  C1  UNL d   1      -0.540   1.991   0.591  0.00  0.00     0.062 A 
ATOM      3  C2  UNL d   1      -1.067   0.751   0.243  0.00  0.00     0.162 A 
ATOM      4  C3  UNL d   1      -0.221  -0.334   0.012  0.00  0.00    -0.034 A 
ATOM      5  C4  UNL d   1       1.159  -0.158   0.131  0.00  0.00     0.162 A 
ATOM      6  C5  UNL d   1       1.681   1.083   0.479  0.00  0.00     0.062 A 
ATOM      7  F   UNL d   1       3.008   1.242   0.592  0.00  0.00    -0.097 F 
ATOM      8  F1  UNL d   1       2.001  -1.180  -0.085  0.00  0.00    -0.096 F 
ATOM      9  I   UNL d   1      -1.006  -2.190  -0.509  0.00  0.00    -0.060 I 
ATOM     10  F2  UNL d   1      -2.398   0.619   0.137  0.00  0.00    -0.096 F 
ATOM     11  F3  UNL d   1      -1.361   3.028   0.812  0.00  0.00    -0.097 F 
ATOM     12  F4  UNL d   1       1.338   3.352   1.043  0.00  0.00    -0.092 F 
ENDROOT
TORSDOF 0
ENDMDL
