MODEL 1
REMARK minimizedAffinity -3.01473737
REMARK minimizedRMSD -1
REMARK  0 active torsions:
REMARK  status: ('A' for Active; 'I' for Inactive)
ROOT
ATOM      1  C   UNL d   1      -0.311  -0.736   0.804  0.00  0.00     0.124 A 
ATOM      2  C1  UNL d   1       1.035  -0.458   0.612  0.00  0.00     0.062 A 
ATOM      3  C2  UNL d   1       1.480   0.860   0.572  0.00  0.00     0.162 A 
ATOM      4  C3  UNL d   1       0.576   1.912   0.724  0.00  0.00    -0.034 A 
ATOM      5  C4  UNL d   1      -0.776   1.625   0.915  0.00  0.00     0.162 A 
ATOM      6  C5  UNL d   1      -1.215   0.306   0.955  0.00  0.00     0.062 A 
ATOM      7  F   UNL d   1      -2.517   0.040   1.140  0.00  0.00    -0.097 F 
ATOM      8  F1  UNL d   1      -1.672   2.613   1.065  0.00  0.00    -0.096 F 
ATOM      9  I   UNL d   1       1.236   3.885   0.664  0.00  0.00    -0.060 I 
ATOM     10  F2  UNL d   1       2.786   1.099   0.385  0.00  0.00    -0.096 F 
ATOM     11  F3  UNL d   1       1.911  -1.463   0.465  0.00  0.00    -0.097 F 
ATOM     12  F4  UNL d   1      -0.736  -2.005   0.841  0.00  0.00    -0.092 F 
ENDROOT
TORSDOF 0
ENDMDL
