MODEL 1
REMARK minimizedAffinity -2.61293268
REMARK minimizedRMSD -1
REMARK  0 active torsions:
REMARK  status: ('A' for Active; 'I' for Inactive)
ROOT
ATOM      1  C   UNL d   1       1.072   2.227   0.995  0.00  0.00     0.124 A 
ATOM      2  C1  UNL d   1       2.025   1.224   0.875  0.00  0.00     0.062 A 
ATOM      3  C2  UNL d   1       1.640  -0.069   0.532  0.00  0.00     0.162 A 
ATOM      4  C3  UNL d   1       0.297  -0.367   0.305  0.00  0.00    -0.034 A 
ATOM      5  C4  UNL d   1      -0.655   0.646   0.428  0.00  0.00     0.162 A 
ATOM      6  C5  UNL d   1      -0.266   1.937   0.771  0.00  0.00     0.062 A 
ATOM      7  F   UNL d   1      -1.188   2.904   0.886  0.00  0.00    -0.097 F 
ATOM      8  F1  UNL d   1      -1.956   0.394   0.216  0.00  0.00    -0.096 F 
ATOM      9  I   UNL d   1      -0.282  -2.299  -0.208  0.00  0.00    -0.060 I 
ATOM     10  F2  UNL d   1       2.582  -1.018   0.424  0.00  0.00    -0.096 F 
ATOM     11  F3  UNL d   1       3.319   1.501   1.092  0.00  0.00    -0.097 F 
ATOM     12  F4  UNL d   1       1.445   3.470   1.326  0.00  0.00    -0.092 F 
ENDROOT
TORSDOF 0
ENDMDL
