MODEL 1
REMARK minimizedAffinity -4.47954273
REMARK minimizedRMSD -1
REMARK  0 active torsions:
REMARK  status: ('A' for Active; 'I' for Inactive)
ROOT
ATOM      1  C   UNL d   1       1.107   2.330   1.164  0.00  0.00     0.124 A 
ATOM      2  C1  UNL d   1      -0.154   2.040   0.661  0.00  0.00     0.062 A 
ATOM      3  C2  UNL d   1      -0.443   0.762   0.191  0.00  0.00     0.162 A 
ATOM      4  C3  UNL d   1       0.530  -0.237   0.223  0.00  0.00    -0.034 A 
ATOM      5  C4  UNL d   1       1.796   0.063   0.729  0.00  0.00     0.162 A 
ATOM      6  C5  UNL d   1       2.080   1.342   1.197  0.00  0.00     0.062 A 
ATOM      7  F   UNL d   1       3.299   1.620   1.683  0.00  0.00    -0.097 F 
ATOM      8  F1  UNL d   1       2.756  -0.873   0.774  0.00  0.00    -0.096 F 
ATOM      9  I   UNL d   1       0.102  -2.149  -0.479  0.00  0.00    -0.060 I 
ATOM     10  F2  UNL d   1      -1.670   0.510  -0.289  0.00  0.00    -0.096 F 
ATOM     11  F3  UNL d   1      -1.096   2.993   0.627  0.00  0.00    -0.097 F 
ATOM     12  F4  UNL d   1       1.382   3.560   1.615  0.00  0.00    -0.092 F 
ENDROOT
TORSDOF 0
ENDMDL
