MODEL 1
REMARK minimizedAffinity -3.92012763
REMARK minimizedRMSD -1
REMARK  0 active torsions:
REMARK  status: ('A' for Active; 'I' for Inactive)
ROOT
ATOM      1  C   UNL d   1      -0.239  -0.194  -0.523  0.00  0.00     0.124 A 
ATOM      2  C1  UNL d   1       1.085  -0.009  -0.897  0.00  0.00     0.062 A 
ATOM      3  C2  UNL d   1       1.723   1.201  -0.640  0.00  0.00     0.162 A 
ATOM      4  C3  UNL d   1       1.037   2.236  -0.005  0.00  0.00    -0.034 A 
ATOM      5  C4  UNL d   1      -0.294   2.043   0.368  0.00  0.00     0.162 A 
ATOM      6  C5  UNL d   1      -0.927   0.832   0.109  0.00  0.00     0.062 A 
ATOM      7  F   UNL d   1      -2.206   0.655   0.470  0.00  0.00    -0.097 F 
ATOM      8  F1  UNL d   1      -0.983   3.018   0.980  0.00  0.00    -0.096 F 
ATOM      9  I   UNL d   1       1.987   4.048   0.382  0.00  0.00    -0.060 I 
ATOM     10  F2  UNL d   1       3.003   1.352  -1.013  0.00  0.00    -0.096 F 
ATOM     11  F3  UNL d   1       1.752  -0.999  -1.509  0.00  0.00    -0.097 F 
ATOM     12  F4  UNL d   1      -0.850  -1.359  -0.773  0.00  0.00    -0.092 F 
ENDROOT
TORSDOF 0
ENDMDL
