MODEL 1
REMARK minimizedAffinity 4.00779581
REMARK minimizedRMSD -1
REMARK  0 active torsions:
REMARK  status: ('A' for Active; 'I' for Inactive)
ROOT
ATOM      1  C   UNL d   1       0.717   2.675   1.340  0.00  0.00     0.124 A 
ATOM      2  C1  UNL d   1       1.715   1.768   1.010  0.00  0.00     0.062 A 
ATOM      3  C2  UNL d   1       1.383   0.493   0.564  0.00  0.00     0.162 A 
ATOM      4  C3  UNL d   1       0.045   0.116   0.443  0.00  0.00    -0.034 A 
ATOM      5  C4  UNL d   1      -0.953   1.033   0.777  0.00  0.00     0.162 A 
ATOM      6  C5  UNL d   1      -0.616   2.306   1.223  0.00  0.00     0.062 A 
ATOM      7  F   UNL d   1      -1.582   3.181   1.541  0.00  0.00    -0.097 F 
ATOM      8  F1  UNL d   1      -2.249   0.703   0.673  0.00  0.00    -0.096 F 
ATOM      9  I   UNL d   1      -0.456  -1.791  -0.225  0.00  0.00    -0.060 I 
ATOM     10  F2  UNL d   1       2.368  -0.362   0.252  0.00  0.00    -0.096 F 
ATOM     11  F3  UNL d   1       3.004   2.122   1.123  0.00  0.00    -0.097 F 
ATOM     12  F4  UNL d   1       1.040   3.901   1.771  0.00  0.00    -0.092 F 
ENDROOT
TORSDOF 0
ENDMDL
