MODEL 1
REMARK minimizedAffinity -1.92724311
REMARK minimizedRMSD -1
REMARK  0 active torsions:
REMARK  status: ('A' for Active; 'I' for Inactive)
ROOT
ATOM      1  C   UNL d   1       1.355   2.187   0.805  0.00  0.00     0.124 A 
ATOM      2  C1  UNL d   1       0.026   2.039   0.430  0.00  0.00     0.062 A 
ATOM      3  C2  UNL d   1      -0.470   0.783   0.094  0.00  0.00     0.162 A 
ATOM      4  C3  UNL d   1       0.363  -0.336   0.130  0.00  0.00    -0.034 A 
ATOM      5  C4  UNL d   1       1.698  -0.179   0.507  0.00  0.00     0.162 A 
ATOM      6  C5  UNL d   1       2.189   1.079   0.842  0.00  0.00     0.062 A 
ATOM      7  F   UNL d   1       3.473   1.220   1.204  0.00  0.00    -0.097 F 
ATOM      8  F1  UNL d   1       2.526  -1.233   0.553  0.00  0.00    -0.096 F 
ATOM      9  I   UNL d   1      -0.375  -2.216  -0.372  0.00  0.00    -0.060 I 
ATOM     10  F2  UNL d   1      -1.758   0.669  -0.264  0.00  0.00    -0.096 F 
ATOM     11  F3  UNL d   1      -0.782   3.108   0.392  0.00  0.00    -0.097 F 
ATOM     12  F4  UNL d   1       1.830   3.397   1.127  0.00  0.00    -0.092 F 
ENDROOT
TORSDOF 0
ENDMDL
