MODEL 1
REMARK minimizedAffinity -3.1902132
REMARK minimizedRMSD -1
REMARK  0 active torsions:
REMARK  status: ('A' for Active; 'I' for Inactive)
ROOT
ATOM      1  C   UNL d   1       2.251   1.471   0.071  0.00  0.00     0.124 A 
ATOM      2  C1  UNL d   1       1.892   0.146   0.279  0.00  0.00     0.062 A 
ATOM      3  C2  UNL d   1       0.577  -0.181   0.596  0.00  0.00     0.162 A 
ATOM      4  C3  UNL d   1      -0.390   0.818   0.707  0.00  0.00    -0.034 A 
ATOM      5  C4  UNL d   1      -0.021   2.148   0.498  0.00  0.00     0.162 A 
ATOM      6  C5  UNL d   1       1.294   2.470   0.181  0.00  0.00     0.062 A 
ATOM      7  F   UNL d   1       1.639   3.750  -0.020  0.00  0.00    -0.097 F 
ATOM      8  F1  UNL d   1      -0.926   3.133   0.597  0.00  0.00    -0.096 F 
ATOM      9  I   UNL d   1      -2.357   0.332   1.182  0.00  0.00    -0.060 I 
ATOM     10  F2  UNL d   1       0.259  -1.470   0.792  0.00  0.00    -0.096 F 
ATOM     11  F3  UNL d   1       2.815  -0.821   0.174  0.00  0.00    -0.097 F 
ATOM     12  F4  UNL d   1       3.517   1.783  -0.234  0.00  0.00    -0.092 F 
ENDROOT
TORSDOF 0
ENDMDL
