MODEL 1
REMARK minimizedAffinity -3.65830851
REMARK minimizedRMSD -1
REMARK  0 active torsions:
REMARK  status: ('A' for Active; 'I' for Inactive)
ROOT
ATOM      1  C   UNL d   1       0.840   2.902   0.406  0.00  0.00     0.124 A 
ATOM      2  C1  UNL d   1       1.913   2.037   0.242  0.00  0.00     0.062 A 
ATOM      3  C2  UNL d   1       1.694   0.672   0.081  0.00  0.00     0.162 A 
ATOM      4  C3  UNL d   1       0.395   0.163   0.083  0.00  0.00    -0.034 A 
ATOM      5  C4  UNL d   1      -0.679   1.039   0.250  0.00  0.00     0.162 A 
ATOM      6  C5  UNL d   1      -0.454   2.403   0.410  0.00  0.00     0.062 A 
ATOM      7  F   UNL d   1      -1.492   3.237   0.568  0.00  0.00    -0.097 F 
ATOM      8  F1  UNL d   1      -1.941   0.584   0.256  0.00  0.00    -0.096 F 
ATOM      9  I   UNL d   1       0.062  -1.877  -0.157  0.00  0.00    -0.060 I 
ATOM     10  F2  UNL d   1       2.749  -0.141  -0.075  0.00  0.00    -0.096 F 
ATOM     11  F3  UNL d   1       3.165   2.517   0.239  0.00  0.00    -0.097 F 
ATOM     12  F4  UNL d   1       1.055   4.215   0.561  0.00  0.00    -0.092 F 
ENDROOT
TORSDOF 0
ENDMDL
