MODEL 1
REMARK minimizedAffinity 4.43158054
REMARK minimizedRMSD -1
REMARK  0 active torsions:
REMARK  status: ('A' for Active; 'I' for Inactive)
ROOT
ATOM      1  C   UNL d   1      -2.066  -0.023  -3.789  0.00  0.00     0.077 C 
ATOM      2  C1  UNL d   1      -0.802   0.749  -3.553  0.00  0.00    -0.074 A 
ATOM      3  C2  UNL d   1      -0.834   2.130  -3.333  0.00  0.00    -0.005 A 
ATOM      4  C3  UNL d   1       0.349   2.833  -3.105  0.00  0.00     0.006 A 
ATOM      5  C4  UNL d   1       1.574   2.163  -3.096  0.00  0.00    -0.005 A 
ATOM      6  C5  UNL d   1       1.625   0.783  -3.313  0.00  0.00    -0.074 A 
ATOM      7  C6  UNL d   1       2.931   0.047  -3.296  0.00  0.00     0.077 C 
ATOM      8  C7  UNL d   1       0.431   0.082  -3.534  0.00  0.00    -0.001 A 
ENDROOT
TORSDOF 0
ENDMDL
