MODEL 1
REMARK minimizedAffinity 1.89637673
REMARK minimizedRMSD -1
REMARK  0 active torsions:
REMARK  status: ('A' for Active; 'I' for Inactive)
ROOT
ATOM      1  C   UNL d   1       2.207  -0.849  -3.485  0.00  0.00     0.077 C 
ATOM      2  C1  UNL d   1       1.111   0.173  -3.412  0.00  0.00    -0.074 A 
ATOM      3  C2  UNL d   1       1.378   1.485  -3.008  0.00  0.00    -0.005 A 
ATOM      4  C3  UNL d   1       0.350   2.427  -2.953  0.00  0.00     0.006 A 
ATOM      5  C4  UNL d   1      -0.952   2.066  -3.301  0.00  0.00    -0.005 A 
ATOM      6  C5  UNL d   1      -1.238   0.759  -3.707  0.00  0.00    -0.074 A 
ATOM      7  C6  UNL d   1      -2.630   0.357  -4.094  0.00  0.00     0.077 C 
ATOM      8  C7  UNL d   1      -0.198  -0.180  -3.767  0.00  0.00    -0.001 A 
ENDROOT
TORSDOF 0
ENDMDL
