MODEL 1
REMARK minimizedAffinity 9.03606033
REMARK minimizedRMSD -1
REMARK  0 active torsions:
REMARK  status: ('A' for Active; 'I' for Inactive)
ROOT
ATOM      1  C   UNL d   1      -2.665   1.884  -4.141  0.00  0.00     0.077 C 
ATOM      2  C1  UNL d   1      -1.228   2.193  -3.842  0.00  0.00    -0.074 A 
ATOM      3  C2  UNL d   1      -0.718   2.055  -2.547  0.00  0.00    -0.005 A 
ATOM      4  C3  UNL d   1       0.623   2.337  -2.286  0.00  0.00     0.006 A 
ATOM      5  C4  UNL d   1       1.466   2.759  -3.315  0.00  0.00    -0.005 A 
ATOM      6  C5  UNL d   1       0.974   2.902  -4.616  0.00  0.00    -0.074 A 
ATOM      7  C6  UNL d   1       1.868   3.345  -5.735  0.00  0.00     0.077 C 
ATOM      8  C7  UNL d   1      -0.373   2.610  -4.872  0.00  0.00    -0.001 A 
ENDROOT
TORSDOF 0
ENDMDL
