MODEL 1
REMARK minimizedAffinity 7.87238264
REMARK minimizedRMSD -1
REMARK  0 active torsions:
REMARK  status: ('A' for Active; 'I' for Inactive)
ROOT
ATOM      1  C   UNL d   1       2.653  -5.819  -0.284  0.00  0.00     0.077 C 
ATOM      2  C1  UNL d   1       1.523  -5.829   0.702  0.00  0.00    -0.074 A 
ATOM      3  C2  UNL d   1       1.764  -6.000   2.069  0.00  0.00    -0.005 A 
ATOM      4  C3  UNL d   1       0.704  -5.997   2.976  0.00  0.00     0.006 A 
ATOM      5  C4  UNL d   1      -0.605  -5.824   2.525  0.00  0.00    -0.005 A 
ATOM      6  C5  UNL d   1      -0.865  -5.651   1.162  0.00  0.00    -0.074 A 
ATOM      7  C6  UNL d   1      -2.266  -5.454   0.662  0.00  0.00     0.077 C 
ATOM      8  C7  UNL d   1       0.206  -5.648   0.258  0.00  0.00    -0.001 A 
ENDROOT
TORSDOF 0
ENDMDL
