MODEL 1
REMARK minimizedAffinity 6.5759182
REMARK minimizedRMSD -1
REMARK  0 active torsions:
REMARK  status: ('A' for Active; 'I' for Inactive)
ROOT
ATOM      1  C   UNL d   1       0.667   4.740  -3.781  0.00  0.00     0.077 C 
ATOM      2  C1  UNL d   1       1.682   3.635  -3.776  0.00  0.00    -0.074 A 
ATOM      3  C2  UNL d   1       2.510   3.416  -4.881  0.00  0.00    -0.005 A 
ATOM      4  C3  UNL d   1       3.456   2.391  -4.859  0.00  0.00     0.006 A 
ATOM      5  C4  UNL d   1       3.582   1.576  -3.733  0.00  0.00    -0.005 A 
ATOM      6  C5  UNL d   1       2.763   1.781  -2.618  0.00  0.00    -0.074 A 
ATOM      7  C6  UNL d   1       2.893   0.921  -1.396  0.00  0.00     0.077 C 
ATOM      8  C7  UNL d   1       1.820   2.818  -2.646  0.00  0.00    -0.001 A 
ENDROOT
TORSDOF 0
ENDMDL
