MODEL 1
REMARK minimizedAffinity 2.87133622
REMARK minimizedRMSD -1
REMARK  0 active torsions:
REMARK  status: ('A' for Active; 'I' for Inactive)
ROOT
ATOM      1  C   UNL d   1      -1.242   1.875   0.754  0.00  0.00     0.077 C 
ATOM      2  C1  UNL d   1      -2.353   0.904   0.481  0.00  0.00    -0.074 A 
ATOM      3  C2  UNL d   1      -2.149  -0.208  -0.343  0.00  0.00    -0.005 A 
ATOM      4  C3  UNL d   1      -3.189  -1.107  -0.580  0.00  0.00     0.006 A 
ATOM      5  C4  UNL d   1      -4.441  -0.903   0.003  0.00  0.00    -0.005 A 
ATOM      6  C5  UNL d   1      -4.662   0.203   0.830  0.00  0.00    -0.074 A 
ATOM      7  C6  UNL d   1      -5.999   0.431   1.472  0.00  0.00     0.077 C 
ATOM      8  C7  UNL d   1      -3.611   1.098   1.069  0.00  0.00    -0.001 A 
ENDROOT
TORSDOF 0
ENDMDL
