MODEL 1
REMARK minimizedAffinity 9.87571526
REMARK minimizedRMSD -1
REMARK  0 active torsions:
REMARK  status: ('A' for Active; 'I' for Inactive)
ROOT
ATOM      1  C   UNL d   1       2.667  -1.204  -3.166  0.00  0.00     0.077 C 
ATOM      2  C1  UNL d   1       2.414  -0.160  -2.120  0.00  0.00    -0.074 A 
ATOM      3  C2  UNL d   1       1.326   0.713  -2.223  0.00  0.00    -0.005 A 
ATOM      4  C3  UNL d   1       1.098   1.673  -1.237  0.00  0.00     0.006 A 
ATOM      5  C4  UNL d   1       1.954   1.770  -0.140  0.00  0.00    -0.005 A 
ATOM      6  C5  UNL d   1       3.047   0.905  -0.019  0.00  0.00    -0.074 A 
ATOM      7  C6  UNL d   1       3.971   0.989   1.160  0.00  0.00     0.077 C 
ATOM      8  C7  UNL d   1       3.265  -0.061  -1.010  0.00  0.00    -0.001 A 
ENDROOT
TORSDOF 0
ENDMDL
