MODEL 1
REMARK minimizedAffinity -1.14211309
REMARK minimizedRMSD -1
REMARK  0 active torsions:
REMARK  status: ('A' for Active; 'I' for Inactive)
ROOT
ATOM      1  C   UNL d   1       0.947  -2.953   1.698  0.00  0.00     0.077 C 
ATOM      2  C1  UNL d   1       1.471  -1.548   1.688  0.00  0.00    -0.074 A 
ATOM      3  C2  UNL d   1       0.625  -0.467   1.415  0.00  0.00    -0.005 A 
ATOM      4  C3  UNL d   1       1.124   0.835   1.419  0.00  0.00     0.006 A 
ATOM      5  C4  UNL d   1       2.472   1.070   1.694  0.00  0.00    -0.005 A 
ATOM      6  C5  UNL d   1       3.332   0.003   1.970  0.00  0.00    -0.074 A 
ATOM      7  C6  UNL d   1       4.781   0.238   2.278  0.00  0.00     0.077 C 
ATOM      8  C7  UNL d   1       2.822  -1.303   1.971  0.00  0.00    -0.001 A 
ENDROOT
TORSDOF 0
ENDMDL
