MODEL 1
REMARK minimizedAffinity 13.035697
REMARK minimizedRMSD -1
REMARK  0 active torsions:
REMARK  status: ('A' for Active; 'I' for Inactive)
ROOT
ATOM      1  C   UNL d   1       2.121   3.057  -0.151  0.00  0.00     0.077 C 
ATOM      2  C1  UNL d   1       3.401   2.381   0.241  0.00  0.00    -0.074 A 
ATOM      3  C2  UNL d   1       4.619   2.757  -0.335  0.00  0.00    -0.005 A 
ATOM      4  C3  UNL d   1       5.803   2.126   0.047  0.00  0.00     0.006 A 
ATOM      5  C4  UNL d   1       5.781   1.113   1.007  0.00  0.00    -0.005 A 
ATOM      6  C5  UNL d   1       4.573   0.723   1.594  0.00  0.00    -0.074 A 
ATOM      7  C6  UNL d   1       4.533  -0.357   2.634  0.00  0.00     0.077 C 
ATOM      8  C7  UNL d   1       3.389   1.367   1.210  0.00  0.00    -0.001 A 
ENDROOT
TORSDOF 0
ENDMDL
