MODEL 1
REMARK minimizedAffinity 7.11911869
REMARK minimizedRMSD -1
REMARK  0 active torsions:
REMARK  status: ('A' for Active; 'I' for Inactive)
ROOT
ATOM      1  C   UNL d   1       4.126  -0.547  -4.145  0.00  0.00     0.077 C 
ATOM      2  C1  UNL d   1       3.143   0.541  -3.831  0.00  0.00    -0.074 A 
ATOM      3  C2  UNL d   1       2.375   0.501  -2.663  0.00  0.00    -0.005 A 
ATOM      4  C3  UNL d   1       1.471   1.525  -2.380  0.00  0.00     0.006 A 
ATOM      5  C4  UNL d   1       1.326   2.598  -3.261  0.00  0.00    -0.005 A 
ATOM      6  C5  UNL d   1       2.086   2.655  -4.434  0.00  0.00    -0.074 A 
ATOM      7  C6  UNL d   1       1.950   3.806  -5.387  0.00  0.00     0.077 C 
ATOM      8  C7  UNL d   1       2.997   1.626  -4.707  0.00  0.00    -0.001 A 
ENDROOT
TORSDOF 0
ENDMDL
