MODEL 1
REMARK minimizedAffinity 10.9042139
REMARK minimizedRMSD -1
REMARK  0 active torsions:
REMARK  status: ('A' for Active; 'I' for Inactive)
ROOT
ATOM      1  C   UNL d   1      -4.336   1.502   1.901  0.00  0.00     0.077 C 
ATOM      2  C1  UNL d   1      -4.741   1.724   3.328  0.00  0.00    -0.074 A 
ATOM      3  C2  UNL d   1      -5.475   0.759   4.026  0.00  0.00    -0.005 A 
ATOM      4  C3  UNL d   1      -5.836   0.976   5.355  0.00  0.00     0.006 A 
ATOM      5  C4  UNL d   1      -5.469   2.158   6.000  0.00  0.00    -0.005 A 
ATOM      6  C5  UNL d   1      -4.734   3.134   5.319  0.00  0.00    -0.074 A 
ATOM      7  C6  UNL d   1      -4.323   4.405   6.000  0.00  0.00     0.077 C 
ATOM      8  C7  UNL d   1      -4.369   2.906   3.985  0.00  0.00    -0.001 A 
ENDROOT
TORSDOF 0
ENDMDL
