MODEL 1
REMARK minimizedAffinity 8.84214783
REMARK minimizedRMSD -1
REMARK  0 active torsions:
REMARK  status: ('A' for Active; 'I' for Inactive)
ROOT
ATOM      1  C   UNL d   1      -2.792  -6.000   1.099  0.00  0.00     0.077 C 
ATOM      2  C1  UNL d   1      -1.384  -5.991   1.618  0.00  0.00    -0.074 A 
ATOM      3  C2  UNL d   1      -1.125  -5.999   2.992  0.00  0.00    -0.005 A 
ATOM      4  C3  UNL d   1       0.189  -6.000   3.459  0.00  0.00     0.006 A 
ATOM      5  C4  UNL d   1       1.255  -5.993   2.559  0.00  0.00    -0.005 A 
ATOM      6  C5  UNL d   1       1.015  -5.986   1.181  0.00  0.00    -0.074 A 
ATOM      7  C6  UNL d   1       2.149  -5.988   0.200  0.00  0.00     0.077 C 
ATOM      8  C7  UNL d   1      -0.308  -5.992   0.719  0.00  0.00    -0.001 A 
ENDROOT
TORSDOF 0
ENDMDL
