MODEL 1
REMARK minimizedAffinity 2.00941801
REMARK minimizedRMSD -1
REMARK  0 active torsions:
REMARK  status: ('A' for Active; 'I' for Inactive)
ROOT
ATOM      1  O1  BZF d   1      -0.691  -3.700   2.964  0.00  0.00    -0.204 OA
ATOM      2  C2  BZF d   1      -0.975  -2.625   3.783  0.00  0.00     0.174 A 
ATOM      3  C3  BZF d   1      -1.380  -1.564   3.056  0.00  0.00    -0.012 A 
ATOM      4  C3A BZF d   1      -1.437  -2.032   1.705  0.00  0.00    -0.107 A 
ATOM      5  C4  BZF d   1      -1.787  -1.447   0.522  0.00  0.00     0.055 A 
ATOM      6  C5  BZF d   1      -1.662  -2.158  -0.629  0.00  0.00    -0.016 A 
ATOM      7  C6  BZF d   1      -1.187  -3.453  -0.634  0.00  0.00     0.022 A 
ATOM      8  C7  BZF d   1      -0.833  -4.078   0.515  0.00  0.00     0.029 A 
ATOM      9  C7A BZF d   1      -0.988  -3.373   1.683  0.00  0.00     0.058 A 
ENDROOT
TORSDOF 0
ENDMDL
