MODEL 1
REMARK minimizedAffinity 18.039856
REMARK minimizedRMSD -1
REMARK  0 active torsions:
REMARK  status: ('A' for Active; 'I' for Inactive)
ROOT
ATOM      1  O1  BZF d   1      -4.384  -1.109   0.659  0.00  0.00    -0.204 OA
ATOM      2  C2  BZF d   1      -5.313  -2.001   1.159  0.00  0.00     0.174 A 
ATOM      3  C3  BZF d   1      -4.722  -3.162   1.508  0.00  0.00    -0.012 A 
ATOM      4  C3A BZF d   1      -3.323  -2.951   1.294  0.00  0.00    -0.107 A 
ATOM      5  C4  BZF d   1      -2.218  -3.732   1.474  0.00  0.00     0.055 A 
ATOM      6  C5  BZF d   1      -1.003  -3.253   1.099  0.00  0.00    -0.016 A 
ATOM      7  C6  BZF d   1      -0.857  -2.002   0.538  0.00  0.00     0.022 A 
ATOM      8  C7  BZF d   1      -1.924  -1.188   0.344  0.00  0.00     0.029 A 
ATOM      9  C7A BZF d   1      -3.149  -1.657   0.752  0.00  0.00     0.058 A 
ENDROOT
TORSDOF 0
ENDMDL
