MODEL 1
REMARK minimizedAffinity 2.46207881
REMARK minimizedRMSD -1
REMARK  0 active torsions:
REMARK  status: ('A' for Active; 'I' for Inactive)
ROOT
ATOM      1  O1  BZF d   1       5.993   3.470   5.996  0.00  0.00    -0.204 OA
ATOM      2  C2  BZF d   1       5.014   4.423   5.792  0.00  0.00     0.174 A 
ATOM      3  C3  BZF d   1       3.833   3.842   5.500  0.00  0.00    -0.012 A 
ATOM      4  C3A BZF d   1       4.068   2.435   5.614  0.00  0.00    -0.107 A 
ATOM      5  C4  BZF d   1       3.274   1.335   5.460  0.00  0.00     0.055 A 
ATOM      6  C5  BZF d   1       3.828   0.099   5.570  0.00  0.00    -0.016 A 
ATOM      7  C6  BZF d   1       5.173  -0.073   5.828  0.00  0.00     0.022 A 
ATOM      8  C7  BZF d   1       5.999   0.988   5.994  0.00  0.00     0.029 A 
ATOM      9  C7A BZF d   1       5.435   2.238   5.916  0.00  0.00     0.058 A 
ENDROOT
TORSDOF 0
ENDMDL
