MODEL 1
REMARK minimizedAffinity 21.3160095
REMARK minimizedRMSD -1
REMARK  0 active torsions:
REMARK  status: ('A' for Active; 'I' for Inactive)
ROOT
ATOM      1  O1  BZF d   1      -2.225  -5.282   3.791  0.00  0.00    -0.204 OA
ATOM      2  C2  BZF d   1      -2.355  -5.991   4.969  0.00  0.00     0.174 A 
ATOM      3  C3  BZF d   1      -1.812  -5.311   6.000  0.00  0.00    -0.012 A 
ATOM      4  C3A BZF d   1      -1.394  -4.060   5.446  0.00  0.00    -0.107 A 
ATOM      5  C4  BZF d   1      -0.799  -2.951   5.976  0.00  0.00     0.055 A 
ATOM      6  C5  BZF d   1      -0.456  -1.927   5.150  0.00  0.00    -0.016 A 
ATOM      7  C6  BZF d   1      -0.690  -1.981   3.792  0.00  0.00     0.022 A 
ATOM      8  C7  BZF d   1      -1.283  -3.058   3.221  0.00  0.00     0.029 A 
ATOM      9  C7A BZF d   1      -1.660  -4.080   4.057  0.00  0.00     0.058 A 
ENDROOT
TORSDOF 0
ENDMDL
