MODEL 1
REMARK minimizedAffinity 17.3888416
REMARK minimizedRMSD -1
REMARK  0 active torsions:
REMARK  status: ('A' for Active; 'I' for Inactive)
ROOT
ATOM      1  O1  BZF d   1      -3.138   4.551  -2.208  0.00  0.00    -0.204 OA
ATOM      2  C2  BZF d   1      -3.647   5.361  -3.206  0.00  0.00     0.174 A 
ATOM      3  C3  BZF d   1      -4.758   5.998  -2.785  0.00  0.00    -0.012 A 
ATOM      4  C3A BZF d   1      -4.905   5.630  -1.410  0.00  0.00    -0.107 A 
ATOM      5  C4  BZF d   1      -5.813   5.955  -0.443  0.00  0.00     0.055 A 
ATOM      6  C5  BZF d   1      -5.716   5.367   0.779  0.00  0.00    -0.016 A 
ATOM      7  C6  BZF d   1      -4.728   4.448   1.065  0.00  0.00     0.022 A 
ATOM      8  C7  BZF d   1      -3.802   4.097   0.140  0.00  0.00     0.029 A 
ATOM      9  C7A BZF d   1      -3.878   4.714  -1.085  0.00  0.00     0.058 A 
ENDROOT
TORSDOF 0
ENDMDL
