MODEL 1
REMARK minimizedAffinity 15.9306078
REMARK minimizedRMSD -1
REMARK  0 active torsions:
REMARK  status: ('A' for Active; 'I' for Inactive)
ROOT
ATOM      1  O1  BZF d   1      -4.060   2.619  -5.759  0.00  0.00    -0.204 OA
ATOM      2  C2  BZF d   1      -2.944   2.299  -5.009  0.00  0.00     0.174 A 
ATOM      3  C3  BZF d   1      -2.714   3.237  -4.068  0.00  0.00    -0.012 A 
ATOM      4  C3A BZF d   1      -3.804   4.157  -4.180  0.00  0.00    -0.107 A 
ATOM      5  C4  BZF d   1      -4.146   5.294  -3.505  0.00  0.00     0.055 A 
ATOM      6  C5  BZF d   1      -5.235   6.000  -3.909  0.00  0.00    -0.016 A 
ATOM      7  C6  BZF d   1      -6.000   5.602  -4.986  0.00  0.00     0.022 A 
ATOM      8  C7  BZF d   1      -5.703   4.478  -5.683  0.00  0.00     0.029 A 
ATOM      9  C7A BZF d   1      -4.623   3.744  -5.256  0.00  0.00     0.058 A 
ENDROOT
TORSDOF 0
ENDMDL
