MODEL 1
REMARK minimizedAffinity 22.949213
REMARK minimizedRMSD -1
REMARK  0 active torsions:
REMARK  status: ('A' for Active; 'I' for Inactive)
ROOT
ATOM      1  O1  BZF d   1      -0.791  -3.093   3.499  0.00  0.00    -0.204 OA
ATOM      2  C2  BZF d   1      -1.628  -2.299   4.260  0.00  0.00     0.174 A 
ATOM      3  C3  BZF d   1      -2.356  -1.481   3.473  0.00  0.00    -0.012 A 
ATOM      4  C3A BZF d   1      -2.016  -1.846   2.132  0.00  0.00    -0.107 A 
ATOM      5  C4  BZF d   1      -2.423  -1.403   0.907  0.00  0.00     0.055 A 
ATOM      6  C5  BZF d   1      -1.842  -1.919  -0.208  0.00  0.00    -0.016 A 
ATOM      7  C6  BZF d   1      -0.850  -2.875  -0.134  0.00  0.00     0.022 A 
ATOM      8  C7  BZF d   1      -0.417  -3.349   1.059  0.00  0.00     0.029 A 
ATOM      9  C7A BZF d   1      -1.025  -2.853   2.186  0.00  0.00     0.058 A 
ENDROOT
TORSDOF 0
ENDMDL
