MODEL 1
REMARK minimizedAffinity 12.3212919
REMARK minimizedRMSD -1
REMARK  0 active torsions:
REMARK  status: ('A' for Active; 'I' for Inactive)
ROOT
ATOM      1  O1  BZF d   1      -0.393   0.117  -3.251  0.00  0.00    -0.204 OA
ATOM      2  C2  BZF d   1       0.853   0.137  -2.656  0.00  0.00     0.174 A 
ATOM      3  C3  BZF d   1       0.799  -0.384  -1.414  0.00  0.00    -0.012 A 
ATOM      4  C3A BZF d   1      -0.549  -0.837  -1.254  0.00  0.00    -0.107 A 
ATOM      5  C4  BZF d   1      -1.217  -1.458  -0.238  0.00  0.00     0.055 A 
ATOM      6  C5  BZF d   1      -2.548  -1.698  -0.372  0.00  0.00    -0.016 A 
ATOM      7  C6  BZF d   1      -3.243  -1.325  -1.504  0.00  0.00     0.022 A 
ATOM      8  C7  BZF d   1      -2.623  -0.710  -2.540  0.00  0.00     0.029 A 
ATOM      9  C7A BZF d   1      -1.271  -0.497  -2.422  0.00  0.00     0.058 A 
ENDROOT
TORSDOF 0
ENDMDL
