MODEL 1
REMARK minimizedAffinity 15.9568253
REMARK minimizedRMSD -1
REMARK  0 active torsions:
REMARK  status: ('A' for Active; 'I' for Inactive)
ROOT
ATOM      1  O1  BZF d   1      -0.997  -1.068   1.041  0.00  0.00    -0.204 OA
ATOM      2  C2  BZF d   1      -2.348  -1.336   1.155  0.00  0.00     0.174 A 
ATOM      3  C3  BZF d   1      -2.903  -1.518  -0.060  0.00  0.00    -0.012 A 
ATOM      4  C3A BZF d   1      -1.815  -1.444  -0.987  0.00  0.00    -0.107 A 
ATOM      5  C4  BZF d   1      -1.728  -1.562  -2.344  0.00  0.00     0.055 A 
ATOM      6  C5  BZF d   1      -0.527  -1.365  -2.949  0.00  0.00    -0.016 A 
ATOM      7  C6  BZF d   1       0.604  -1.042  -2.228  0.00  0.00     0.022 A 
ATOM      8  C7  BZF d   1       0.568  -0.919  -0.879  0.00  0.00     0.029 A 
ATOM      9  C7A BZF d   1      -0.637  -1.151  -0.262  0.00  0.00     0.058 A 
ENDROOT
TORSDOF 0
ENDMDL
