MODEL 1
REMARK minimizedAffinity 16.3428955
REMARK minimizedRMSD -1
REMARK  0 active torsions:
REMARK  status: ('A' for Active; 'I' for Inactive)
ROOT
ATOM      1  O1  BZF d   1      -4.331  -0.561  -0.853  0.00  0.00    -0.204 OA
ATOM      2  C2  BZF d   1      -4.278  -1.138   0.401  0.00  0.00     0.174 A 
ATOM      3  C3  BZF d   1      -3.355  -2.121   0.436  0.00  0.00    -0.012 A 
ATOM      4  C3A BZF d   1      -2.733  -2.099  -0.852  0.00  0.00    -0.107 A 
ATOM      5  C4  BZF d   1      -1.729  -2.829  -1.422  0.00  0.00     0.055 A 
ATOM      6  C5  BZF d   1      -1.408  -2.607  -2.723  0.00  0.00    -0.016 A 
ATOM      7  C6  BZF d   1      -2.072  -1.668  -3.485  0.00  0.00     0.022 A 
ATOM      8  C7  BZF d   1      -3.072  -0.917  -2.962  0.00  0.00     0.029 A 
ATOM      9  C7A BZF d   1      -3.376  -1.116  -1.638  0.00  0.00     0.058 A 
ENDROOT
TORSDOF 0
ENDMDL
