MODEL 1
REMARK minimizedAffinity 4.81374979
REMARK minimizedRMSD -1
REMARK  0 active torsions:
REMARK  status: ('A' for Active; 'I' for Inactive)
ROOT
ATOM      1  O1  BZF d   1      -3.404   4.141  -1.659  0.00  0.00    -0.204 OA
ATOM      2  C2  BZF d   1      -3.596   5.146  -2.588  0.00  0.00     0.174 A 
ATOM      3  C3  BZF d   1      -4.556   6.000  -2.178  0.00  0.00    -0.012 A 
ATOM      4  C3A BZF d   1      -4.927   5.550  -0.871  0.00  0.00    -0.107 A 
ATOM      5  C4  BZF d   1      -5.821   5.999   0.058  0.00  0.00     0.055 A 
ATOM      6  C5  BZF d   1      -5.995   5.291   1.204  0.00  0.00    -0.016 A 
ATOM      7  C6  BZF d   1      -5.296   4.128   1.452  0.00  0.00     0.022 A 
ATOM      8  C7  BZF d   1      -4.394   3.645   0.563  0.00  0.00     0.029 A 
ATOM      9  C7A BZF d   1      -4.192   4.377  -0.582  0.00  0.00     0.058 A 
ENDROOT
TORSDOF 0
ENDMDL
