MODEL 1
REMARK minimizedAffinity 8.63884258
REMARK minimizedRMSD -1
REMARK  0 active torsions:
REMARK  status: ('A' for Active; 'I' for Inactive)
ROOT
ATOM      1  O1  BZF d   1      -5.147   5.997  -1.640  0.00  0.00    -0.204 OA
ATOM      2  C2  BZF d   1      -3.974   5.619  -2.266  0.00  0.00     0.174 A 
ATOM      3  C3  BZF d   1      -3.107   5.092  -1.378  0.00  0.00    -0.012 A 
ATOM      4  C3A BZF d   1      -3.815   5.059  -0.135  0.00  0.00    -0.107 A 
ATOM      5  C4  BZF d   1      -3.490   4.628   1.120  0.00  0.00     0.055 A 
ATOM      6  C5  BZF d   1      -4.381   4.804   2.130  0.00  0.00    -0.016 A 
ATOM      7  C6  BZF d   1      -5.603   5.411   1.924  0.00  0.00     0.022 A 
ATOM      8  C7  BZF d   1      -5.972   5.850   0.696  0.00  0.00     0.029 A 
ATOM      9  C7A BZF d   1      -5.087   5.644  -0.334  0.00  0.00     0.058 A 
ENDROOT
TORSDOF 0
ENDMDL
