MODEL 1
REMARK minimizedAffinity 21.4012928
REMARK minimizedRMSD -1
REMARK  0 active torsions:
REMARK  status: ('A' for Active; 'I' for Inactive)
ROOT
ATOM      1  O1  BZF d   1      -0.799  -3.515  -3.921  0.00  0.00    -0.204 OA
ATOM      2  C2  BZF d   1      -0.947  -2.254  -4.465  0.00  0.00     0.174 A 
ATOM      3  C3  BZF d   1      -1.162  -1.339  -3.498  0.00  0.00    -0.012 A 
ATOM      4  C3A BZF d   1      -1.054  -2.059  -2.267  0.00  0.00    -0.107 A 
ATOM      5  C4  BZF d   1      -1.153  -1.696  -0.954  0.00  0.00     0.055 A 
ATOM      6  C5  BZF d   1      -1.070  -2.655   0.005  0.00  0.00    -0.016 A 
ATOM      7  C6  BZF d   1      -0.894  -3.986  -0.312  0.00  0.00     0.022 A 
ATOM      8  C7  BZF d   1      -0.786  -4.394  -1.600  0.00  0.00     0.029 A 
ATOM      9  C7A BZF d   1      -0.836  -3.423  -2.570  0.00  0.00     0.058 A 
ENDROOT
TORSDOF 0
ENDMDL
