MODEL 1
REMARK minimizedAffinity 17.1837025
REMARK minimizedRMSD -1
REMARK  0 active torsions:
REMARK  status: ('A' for Active; 'I' for Inactive)
ROOT
ATOM      1  O1  BZF d   1      -3.001  -4.987   4.852  0.00  0.00    -0.204 OA
ATOM      2  C2  BZF d   1      -2.305  -5.998   5.486  0.00  0.00     0.174 A 
ATOM      3  C3  BZF d   1      -1.142  -5.536   5.988  0.00  0.00    -0.012 A 
ATOM      4  C3A BZF d   1      -1.151  -4.130   5.726  0.00  0.00    -0.107 A 
ATOM      5  C4  BZF d   1      -0.276  -3.118   6.000  0.00  0.00     0.055 A 
ATOM      6  C5  BZF d   1      -0.548  -1.867   5.543  0.00  0.00    -0.016 A 
ATOM      7  C6  BZF d   1      -1.683  -1.594   4.807  0.00  0.00     0.022 A 
ATOM      8  C7  BZF d   1      -2.583  -2.564   4.515  0.00  0.00     0.029 A 
ATOM      9  C7A BZF d   1      -2.327  -3.822   5.003  0.00  0.00     0.058 A 
ENDROOT
TORSDOF 0
ENDMDL
