MODEL 1
REMARK minimizedAffinity 11.9298296
REMARK minimizedRMSD -1
REMARK  0 active torsions:
REMARK  status: ('A' for Active; 'I' for Inactive)
ROOT
ATOM      1  O1  BZF d   1       5.999   4.864  -1.490  0.00  0.00    -0.204 OA
ATOM      2  C2  BZF d   1       5.486   6.000  -0.893  0.00  0.00     0.174 A 
ATOM      3  C3  BZF d   1       4.506   5.682  -0.023  0.00  0.00    -0.012 A 
ATOM      4  C3A BZF d   1       4.463   4.252  -0.011  0.00  0.00    -0.107 A 
ATOM      5  C4  BZF d   1       3.706   3.341   0.669  0.00  0.00     0.055 A 
ATOM      6  C5  BZF d   1       3.863   2.018   0.398  0.00  0.00    -0.016 A 
ATOM      7  C6  BZF d   1       4.762   1.572  -0.548  0.00  0.00     0.022 A 
ATOM      8  C7  BZF d   1       5.538   2.438  -1.245  0.00  0.00     0.029 A 
ATOM      9  C7A BZF d   1       5.406   3.773  -0.950  0.00  0.00     0.058 A 
ENDROOT
TORSDOF 0
ENDMDL
