MODEL 1
REMARK minimizedAffinity 15.8582048
REMARK minimizedRMSD -1
REMARK  0 active torsions:
REMARK  status: ('A' for Active; 'I' for Inactive)
ROOT
ATOM      1  O1  BZF d   1      -2.524  -1.067  -2.387  0.00  0.00    -0.204 OA
ATOM      2  C2  BZF d   1      -1.883  -1.919  -3.265  0.00  0.00     0.174 A 
ATOM      3  C3  BZF d   1      -1.231  -2.892  -2.597  0.00  0.00    -0.012 A 
ATOM      4  C3A BZF d   1      -1.556  -2.686  -1.219  0.00  0.00    -0.107 A 
ATOM      5  C4  BZF d   1      -1.224  -3.340  -0.067  0.00  0.00     0.055 A 
ATOM      6  C5  BZF d   1      -1.648  -2.840   1.123  0.00  0.00    -0.016 A 
ATOM      7  C6  BZF d   1      -2.401  -1.687   1.199  0.00  0.00     0.022 A 
ATOM      8  C7  BZF d   1      -2.760  -1.006   0.083  0.00  0.00     0.029 A 
ATOM      9  C7A BZF d   1      -2.361  -1.527  -1.123  0.00  0.00     0.058 A 
ENDROOT
TORSDOF 0
ENDMDL
