MODEL 1
REMARK minimizedAffinity 9.83969307
REMARK minimizedRMSD -1
REMARK  0 active torsions:
REMARK  status: ('A' for Active; 'I' for Inactive)
ROOT
ATOM      1  O1  BZF d   1      -2.724  -1.312   3.563  0.00  0.00    -0.204 OA
ATOM      2  C2  BZF d   1      -1.898  -1.823   4.546  0.00  0.00     0.174 A 
ATOM      3  C3  BZF d   1      -0.907  -2.559   4.003  0.00  0.00    -0.012 A 
ATOM      4  C3A BZF d   1      -1.074  -2.428   2.587  0.00  0.00    -0.107 A 
ATOM      5  C4  BZF d   1      -0.387  -2.916   1.512  0.00  0.00     0.055 A 
ATOM      6  C5  BZF d   1      -0.853  -2.663   0.261  0.00  0.00    -0.016 A 
ATOM      7  C6  BZF d   1      -2.003  -1.931   0.049  0.00  0.00     0.022 A 
ATOM      8  C7  BZF d   1      -2.715  -1.422   1.084  0.00  0.00     0.029 A 
ATOM      9  C7A BZF d   1      -2.229  -1.649   2.348  0.00  0.00     0.058 A 
ENDROOT
TORSDOF 0
ENDMDL
