MODEL 1
REMARK minimizedAffinity 14.8896646
REMARK minimizedRMSD -1
REMARK  0 active torsions:
REMARK  status: ('A' for Active; 'I' for Inactive)
ROOT
ATOM      1  O1  BZF d   1      -3.926   2.522  -5.556  0.00  0.00    -0.204 OA
ATOM      2  C2  BZF d   1      -2.802   2.319  -4.780  0.00  0.00     0.174 A 
ATOM      3  C3  BZF d   1      -2.618   3.346  -3.926  0.00  0.00    -0.012 A 
ATOM      4  C3A BZF d   1      -3.746   4.204  -4.121  0.00  0.00    -0.107 A 
ATOM      5  C4  BZF d   1      -4.141   5.381  -3.551  0.00  0.00     0.055 A 
ATOM      6  C5  BZF d   1      -5.257   6.000  -4.018  0.00  0.00    -0.016 A 
ATOM      7  C6  BZF d   1      -5.998   5.474  -5.056  0.00  0.00     0.022 A 
ATOM      8  C7  BZF d   1      -5.649   4.306  -5.650  0.00  0.00     0.029 A 
ATOM      9  C7A BZF d   1      -4.540   3.662  -5.158  0.00  0.00     0.058 A 
ENDROOT
TORSDOF 0
ENDMDL
