MODEL 1
REMARK minimizedAffinity 11.8431416
REMARK minimizedRMSD -1
REMARK  0 active torsions:
REMARK  status: ('A' for Active; 'I' for Inactive)
ROOT
ATOM      1  O1  BZF d   1      -0.890  -2.611   4.360  0.00  0.00    -0.204 OA
ATOM      2  C2  BZF d   1      -1.943  -1.989   5.004  0.00  0.00     0.174 A 
ATOM      3  C3  BZF d   1      -2.866  -1.568   4.115  0.00  0.00    -0.012 A 
ATOM      4  C3A BZF d   1      -2.402  -2.033   2.843  0.00  0.00    -0.107 A 
ATOM      5  C4  BZF d   1      -2.897  -1.942   1.573  0.00  0.00     0.055 A 
ATOM      6  C5  BZF d   1      -2.164  -2.439   0.542  0.00  0.00    -0.016 A 
ATOM      7  C6  BZF d   1      -0.933  -3.028   0.744  0.00  0.00     0.022 A 
ATOM      8  C7  BZF d   1      -0.404  -3.146   1.986  0.00  0.00     0.029 A 
ATOM      9  C7A BZF d   1      -1.156  -2.674   3.033  0.00  0.00     0.058 A 
ENDROOT
TORSDOF 0
ENDMDL
