MODEL 1
REMARK minimizedAffinity 9.62865353
REMARK minimizedRMSD -1
REMARK  0 active torsions:
REMARK  status: ('A' for Active; 'I' for Inactive)
ROOT
ATOM      1  O1  BZF d   1      -1.706  -3.707   5.088  0.00  0.00    -0.204 OA
ATOM      2  C2  BZF d   1      -2.367  -2.619   5.622  0.00  0.00     0.174 A 
ATOM      3  C3  BZF d   1      -2.539  -1.659   4.691  0.00  0.00    -0.012 A 
ATOM      4  C3A BZF d   1      -2.030  -2.217   3.476  0.00  0.00    -0.107 A 
ATOM      5  C4  BZF d   1      -1.936  -1.752   2.196  0.00  0.00     0.055 A 
ATOM      6  C5  BZF d   1      -1.320  -2.519   1.258  0.00  0.00    -0.016 A 
ATOM      7  C6  BZF d   1      -0.782  -3.751   1.567  0.00  0.00     0.022 A 
ATOM      8  C7  BZF d   1      -0.855  -4.257   2.822  0.00  0.00     0.029 A 
ATOM      9  C7A BZF d   1      -1.506  -3.499   3.764  0.00  0.00     0.058 A 
ENDROOT
TORSDOF 0
ENDMDL
