MODEL 1
REMARK minimizedAffinity -0.479666144
REMARK minimizedRMSD -1
REMARK  2 active torsions:
REMARK  status: ('A' for Active; 'I' for Inactive)
REMARK    1  A    between atoms: C2'_3  and  C1'_4 
REMARK    2  A    between atoms: C1'_4  and  C1_5 
ROOT
ATOM      1  C1  I4B d   1      -3.317   3.385   4.231  0.00  0.00    -0.075 A 
ATOM      2  C2  I4B d   1      -3.379   4.185   5.345  0.00  0.00     0.003 A 
ATOM      3  C3  I4B d   1      -3.880   5.505   5.247  0.00  0.00     0.002 A 
ATOM      4  C4  I4B d   1      -4.259   6.000   4.016  0.00  0.00    -0.004 A 
ATOM      5  C5  I4B d   1      -4.218   5.180   2.892  0.00  0.00     0.002 A 
ATOM      6  C6  I4B d   1      -3.756   3.861   3.001  0.00  0.00     0.003 A 
ENDROOT
BRANCH   1   7
ATOM      7  C1' I4B d   1      -2.752   2.007   4.363  0.00  0.00     0.060 C 
BRANCH   7   8
ATOM      8  C2' I4B d   1      -3.721   1.040   3.712  0.00  0.00    -0.013 C 
ATOM      9  C4' I4B d   1      -2.996   0.037   2.855  0.00  0.00     0.013 C 
ATOM     10  C3' I4B d   1      -4.498   0.362   4.800  0.00  0.00     0.013 C 
ENDBRANCH   7   8
ENDBRANCH   1   7
TORSDOF 2
ENDMDL
