MODEL 1
REMARK minimizedAffinity 0.459724367
REMARK minimizedRMSD -1
REMARK  2 active torsions:
REMARK  status: ('A' for Active; 'I' for Inactive)
REMARK    1  A    between atoms: C2'_3  and  C1'_4 
REMARK    2  A    between atoms: C1'_4  and  C1_5 
ROOT
ATOM      1  C1  I4B d   1      -3.981   5.146   2.863  0.00  0.00    -0.075 A 
ATOM      2  C2  I4B d   1      -5.349   5.104   2.760  0.00  0.00     0.003 A 
ATOM      3  C3  I4B d   1      -5.986   5.503   1.560  0.00  0.00     0.002 A 
ATOM      4  C4  I4B d   1      -5.225   5.980   0.512  0.00  0.00    -0.004 A 
ATOM      5  C5  I4B d   1      -3.837   6.000   0.610  0.00  0.00     0.002 A 
ATOM      6  C6  I4B d   1      -3.210   5.568   1.788  0.00  0.00     0.003 A 
ENDROOT
BRANCH   1   7
ATOM      7  C1' I4B d   1      -3.343   4.749   4.156  0.00  0.00     0.060 C 
BRANCH   7   8
ATOM      8  C2' I4B d   1      -3.567   5.870   5.150  0.00  0.00    -0.013 C 
ATOM      9  C4' I4B d   1      -4.783   5.612   6.000  0.00  0.00     0.013 C 
ATOM     10  C3' I4B d   1      -2.333   5.993   5.994  0.00  0.00     0.013 C 
ENDBRANCH   7   8
ENDBRANCH   1   7
TORSDOF 2
ENDMDL
