MODEL 1
REMARK minimizedAffinity 6.51945162
REMARK minimizedRMSD -1
REMARK  2 active torsions:
REMARK  status: ('A' for Active; 'I' for Inactive)
REMARK    1  A    between atoms: C2'_3  and  C1'_4 
REMARK    2  A    between atoms: C1'_4  and  C1_5 
ROOT
ATOM      1  C1  I4B d   1      -3.512   5.538   3.267  0.00  0.00    -0.075 A 
ATOM      2  C2  I4B d   1      -4.775   5.797   3.738  0.00  0.00     0.003 A 
ATOM      3  C3  I4B d   1      -4.992   6.000   5.122  0.00  0.00     0.002 A 
ATOM      4  C4  I4B d   1      -3.933   5.885   6.000  0.00  0.00    -0.004 A 
ATOM      5  C5  I4B d   1      -2.649   5.645   5.518  0.00  0.00     0.002 A 
ATOM      6  C6  I4B d   1      -2.435   5.483   4.141  0.00  0.00     0.003 A 
ENDROOT
BRANCH   1   7
ATOM      7  C1' I4B d   1      -3.325   5.297   1.802  0.00  0.00     0.060 C 
BRANCH   7   8
ATOM      8  C2' I4B d   1      -3.876   3.923   1.481  0.00  0.00    -0.013 C 
ATOM      9  C4' I4B d   1      -3.317   2.880   2.413  0.00  0.00     0.013 C 
ATOM     10  C3' I4B d   1      -5.371   3.990   1.578  0.00  0.00     0.013 C 
ENDBRANCH   7   8
ENDBRANCH   1   7
TORSDOF 2
ENDMDL
