MODEL 1
REMARK minimizedAffinity -1.10145473
REMARK minimizedRMSD -1
REMARK  2 active torsions:
REMARK  status: ('A' for Active; 'I' for Inactive)
REMARK    1  A    between atoms: C2'_3  and  C1'_4 
REMARK    2  A    between atoms: C1'_4  and  C1_5 
ROOT
ATOM      1  C1  I4B d   1      -3.373   3.629   3.390  0.00  0.00    -0.075 A 
ATOM      2  C2  I4B d   1      -3.597   3.637   4.744  0.00  0.00     0.003 A 
ATOM      3  C3  I4B d   1      -3.480   4.841   5.479  0.00  0.00     0.002 A 
ATOM      4  C4  I4B d   1      -3.090   5.997   4.833  0.00  0.00    -0.004 A 
ATOM      5  C5  I4B d   1      -2.885   5.991   3.456  0.00  0.00     0.002 A 
ATOM      6  C6  I4B d   1      -3.039   4.803   2.727  0.00  0.00     0.003 A 
ENDROOT
BRANCH   1   7
ATOM      7  C1' I4B d   1      -3.473   2.332   2.651  0.00  0.00     0.060 C 
BRANCH   7   8
ATOM      8  C2' I4B d   1      -2.791   1.266   3.484  0.00  0.00    -0.013 C 
ATOM      9  C4' I4B d   1      -3.800   0.378   4.164  0.00  0.00     0.013 C 
ATOM     10  C3' I4B d   1      -1.895   0.474   2.579  0.00  0.00     0.013 C 
ENDBRANCH   7   8
ENDBRANCH   1   7
TORSDOF 2
ENDMDL
