MODEL 1
REMARK minimizedAffinity 3.63104939
REMARK minimizedRMSD -1
REMARK  2 active torsions:
REMARK  status: ('A' for Active; 'I' for Inactive)
REMARK    1  A    between atoms: C2'_3  and  C1'_4 
REMARK    2  A    between atoms: C1'_4  and  C1_5 
ROOT
ATOM      1  C1  I4B d   1      -4.010   5.795   3.562  0.00  0.00    -0.075 A 
ATOM      2  C2  I4B d   1      -4.705   5.883   4.743  0.00  0.00     0.003 A 
ATOM      3  C3  I4B d   1      -4.010   5.998   5.971  0.00  0.00     0.002 A 
ATOM      4  C4  I4B d   1      -2.631   5.970   5.977  0.00  0.00    -0.004 A 
ATOM      5  C5  I4B d   1      -1.928   5.904   4.777  0.00  0.00     0.002 A 
ATOM      6  C6  I4B d   1      -2.622   5.828   3.561  0.00  0.00     0.003 A 
ENDROOT
BRANCH   1   7
ATOM      7  C1' I4B d   1      -4.775   5.642   2.286  0.00  0.00     0.060 C 
BRANCH   7   8
ATOM      8  C2' I4B d   1      -3.896   4.898   1.301  0.00  0.00    -0.013 C 
ATOM      9  C4' I4B d   1      -2.593   5.620   1.080  0.00  0.00     0.013 C 
ATOM     10  C3' I4B d   1      -3.665   3.517   1.838  0.00  0.00     0.013 C 
ENDBRANCH   7   8
ENDBRANCH   1   7
TORSDOF 2
ENDMDL
