MODEL 1
REMARK minimizedAffinity 9.33830166
REMARK minimizedRMSD -1
REMARK  2 active torsions:
REMARK  status: ('A' for Active; 'I' for Inactive)
REMARK    1  A    between atoms: C2'_3  and  C1'_4 
REMARK    2  A    between atoms: C1'_4  and  C1_5 
ROOT
ATOM      1  C1  I4B d   1      -3.158   2.646   3.469  0.00  0.00    -0.075 A 
ATOM      2  C2  I4B d   1      -3.858   1.880   4.368  0.00  0.00     0.003 A 
ATOM      3  C3  I4B d   1      -3.818   0.468   4.285  0.00  0.00     0.002 A 
ATOM      4  C4  I4B d   1      -3.112  -0.133   3.262  0.00  0.00    -0.004 A 
ATOM      5  C5  I4B d   1      -2.385   0.644   2.365  0.00  0.00     0.002 A 
ATOM      6  C6  I4B d   1      -2.398   2.042   2.476  0.00  0.00     0.003 A 
ENDROOT
BRANCH   1   7
ATOM      7  C1' I4B d   1      -3.249   4.136   3.566  0.00  0.00     0.060 C 
BRANCH   7   8
ATOM      8  C2' I4B d   1      -3.619   4.671   2.198  0.00  0.00    -0.013 C 
ATOM      9  C4' I4B d   1      -5.112   4.798   2.047  0.00  0.00     0.013 C 
ATOM     10  C3' I4B d   1      -2.942   5.998   2.021  0.00  0.00     0.013 C 
ENDBRANCH   7   8
ENDBRANCH   1   7
TORSDOF 2
ENDMDL
