MODEL 1
REMARK minimizedAffinity 5.3265667
REMARK minimizedRMSD -1
REMARK  2 active torsions:
REMARK  status: ('A' for Active; 'I' for Inactive)
REMARK    1  A    between atoms: C2'_3  and  C1'_4 
REMARK    2  A    between atoms: C1'_4  and  C1_5 
ROOT
ATOM      1  C1  I4B d   1      -3.277   5.976   3.088  0.00  0.00    -0.075 A 
ATOM      2  C2  I4B d   1      -4.411   5.981   3.861  0.00  0.00     0.003 A 
ATOM      3  C3  I4B d   1      -4.311   6.000   5.274  0.00  0.00     0.002 A 
ATOM      4  C4  I4B d   1      -3.066   5.963   5.867  0.00  0.00    -0.004 A 
ATOM      5  C5  I4B d   1      -1.917   5.980   5.082  0.00  0.00     0.002 A 
ATOM      6  C6  I4B d   1      -2.023   6.000   3.684  0.00  0.00     0.003 A 
ENDROOT
BRANCH   1   7
ATOM      7  C1' I4B d   1      -3.419   5.922   1.600  0.00  0.00     0.060 C 
BRANCH   7   8
ATOM      8  C2' I4B d   1      -4.694   5.169   1.280  0.00  0.00    -0.013 C 
ATOM      9  C4' I4B d   1      -4.694   3.802   1.913  0.00  0.00     0.013 C 
ATOM     10  C3' I4B d   1      -5.852   5.990   1.766  0.00  0.00     0.013 C 
ENDBRANCH   7   8
ENDBRANCH   1   7
TORSDOF 2
ENDMDL
