MODEL 1
REMARK minimizedAffinity 12.1302633
REMARK minimizedRMSD -1
REMARK  2 active torsions:
REMARK  status: ('A' for Active; 'I' for Inactive)
REMARK    1  A    between atoms: C2'_3  and  C1'_4 
REMARK    2  A    between atoms: C1'_4  and  C1_5 
ROOT
ATOM      1  C1  I4B d   1       2.401   2.743  -4.094  0.00  0.00    -0.075 A 
ATOM      2  C2  I4B d   1       1.927   4.011  -4.320  0.00  0.00     0.003 A 
ATOM      3  C3  I4B d   1       2.811   5.117  -4.301  0.00  0.00     0.002 A 
ATOM      4  C4  I4B d   1       4.143   4.917  -4.003  0.00  0.00    -0.004 A 
ATOM      5  C5  I4B d   1       4.627   3.628  -3.796  0.00  0.00     0.002 A 
ATOM      6  C6  I4B d   1       3.753   2.532  -3.855  0.00  0.00     0.003 A 
ENDROOT
BRANCH   1   7
ATOM      7  C1' I4B d   1       1.434   1.602  -4.090  0.00  0.00     0.060 C 
BRANCH   7   8
ATOM      8  C2' I4B d   1       0.820   1.516  -2.708  0.00  0.00    -0.013 C 
ATOM      9  C4' I4B d   1       1.390   0.360  -1.929  0.00  0.00     0.013 C 
ATOM     10  C3' I4B d   1       1.071   2.818  -2.008  0.00  0.00     0.013 C 
ENDBRANCH   7   8
ENDBRANCH   1   7
TORSDOF 2
ENDMDL
