MODEL 1
REMARK minimizedAffinity 3.04080105
REMARK minimizedRMSD -1
REMARK  2 active torsions:
REMARK  status: ('A' for Active; 'I' for Inactive)
REMARK    1  A    between atoms: C2'_3  and  C1'_4 
REMARK    2  A    between atoms: C1'_4  and  C1_5 
ROOT
ATOM      1  C1  I4B d   1      -3.141   3.435   2.429  0.00  0.00    -0.075 A 
ATOM      2  C2  I4B d   1      -3.379   4.532   1.639  0.00  0.00     0.003 A 
ATOM      3  C3  I4B d   1      -3.196   5.837   2.158  0.00  0.00     0.002 A 
ATOM      4  C4  I4B d   1      -2.826   5.998   3.477  0.00  0.00    -0.004 A 
ATOM      5  C5  I4B d   1      -2.564   4.884   4.270  0.00  0.00     0.002 A 
ATOM      6  C6  I4B d   1      -2.710   3.594   3.740  0.00  0.00     0.003 A 
ENDROOT
BRANCH   1   7
ATOM      7  C1' I4B d   1      -3.376   2.072   1.859  0.00  0.00     0.060 C 
BRANCH   7   8
ATOM      8  C2' I4B d   1      -2.615   1.074   2.708  0.00  0.00    -0.013 C 
ATOM      9  C4' I4B d   1      -3.541   0.318   3.624  0.00  0.00     0.013 C 
ATOM     10  C3' I4B d   1      -1.887   0.142   1.785  0.00  0.00     0.013 C 
ENDBRANCH   7   8
ENDBRANCH   1   7
TORSDOF 2
ENDMDL
