MODEL 1
REMARK minimizedAffinity 0.429841995
REMARK minimizedRMSD -1
REMARK  2 active torsions:
REMARK  status: ('A' for Active; 'I' for Inactive)
REMARK    1  A    between atoms: C2'_3  and  C1'_4 
REMARK    2  A    between atoms: C1'_4  and  C1_5 
ROOT
ATOM      1  C1  I4B d   1       3.112   1.001  -4.724  0.00  0.00    -0.075 A 
ATOM      2  C2  I4B d   1       3.831   0.916  -3.558  0.00  0.00     0.003 A 
ATOM      3  C3  I4B d   1       5.236   0.745  -3.598  0.00  0.00     0.002 A 
ATOM      4  C4  I4B d   1       5.871   0.614  -4.817  0.00  0.00    -0.004 A 
ATOM      5  C5  I4B d   1       5.143   0.724  -5.998  0.00  0.00     0.002 A 
ATOM      6  C6  I4B d   1       3.757   0.931  -5.952  0.00  0.00     0.003 A 
ENDROOT
BRANCH   1   7
ATOM      7  C1' I4B d   1       1.626   1.148  -4.645  0.00  0.00     0.060 C 
BRANCH   7   8
ATOM      8  C2' I4B d   1       1.249   1.299  -3.185  0.00  0.00    -0.013 C 
ATOM      9  C4' I4B d   1       1.677   0.098  -2.384  0.00  0.00     0.013 C 
ATOM     10  C3' I4B d   1       1.891   2.552  -2.668  0.00  0.00     0.013 C 
ENDBRANCH   7   8
ENDBRANCH   1   7
TORSDOF 2
ENDMDL
