MODEL 1
REMARK minimizedAffinity -0.815456271
REMARK minimizedRMSD -1
REMARK  2 active torsions:
REMARK  status: ('A' for Active; 'I' for Inactive)
REMARK    1  A    between atoms: C2'_3  and  C1'_4 
REMARK    2  A    between atoms: C1'_4  and  C1_5 
ROOT
ATOM      1  C1  I4B d   1       4.513   5.297   0.245  0.00  0.00    -0.075 A 
ATOM      2  C2  I4B d   1       5.569   5.999   0.770  0.00  0.00     0.003 A 
ATOM      3  C3  I4B d   1       5.999   5.755   2.096  0.00  0.00     0.002 A 
ATOM      4  C4  I4B d   1       5.317   4.842   2.875  0.00  0.00    -0.004 A 
ATOM      5  C5  I4B d   1       4.261   4.115   2.334  0.00  0.00     0.002 A 
ATOM      6  C6  I4B d   1       3.863   4.334   1.007  0.00  0.00     0.003 A 
ENDROOT
BRANCH   1   7
ATOM      7  C1' I4B d   1       4.064   5.604  -1.148  0.00  0.00     0.060 C 
BRANCH   7   8
ATOM      8  C2' I4B d   1       2.862   4.733  -1.454  0.00  0.00    -0.013 C 
ATOM      9  C4' I4B d   1       1.624   5.253  -0.773  0.00  0.00     0.013 C 
ATOM     10  C3' I4B d   1       2.685   4.694  -2.943  0.00  0.00     0.013 C 
ENDBRANCH   7   8
ENDBRANCH   1   7
TORSDOF 2
ENDMDL
