MODEL 1
REMARK minimizedAffinity -1.55613422
REMARK minimizedRMSD -1
REMARK  0 active torsions:
REMARK  status: ('A' for Active; 'I' for Inactive)
ROOT
ATOM      1  C1  BNZ d   1      -0.694   0.313   0.537  0.00  0.00     0.000 A 
ATOM      2  C2  BNZ d   1      -0.183   1.032  -0.510  0.00  0.00     0.000 A 
ATOM      3  C3  BNZ d   1       0.081   0.431  -1.709  0.00  0.00     0.000 A 
ATOM      4  C4  BNZ d   1      -0.129  -0.894  -1.847  0.00  0.00     0.000 A 
ATOM      5  C5  BNZ d   1      -0.635  -1.635  -0.798  0.00  0.00     0.000 A 
ATOM      6  C6  BNZ d   1      -0.936  -1.019   0.395  0.00  0.00     0.000 A 
ENDROOT
TORSDOF 0
ENDMDL
