MODEL 1
REMARK minimizedAffinity -2.77606082
REMARK minimizedRMSD -1
REMARK  0 active torsions:
REMARK  status: ('A' for Active; 'I' for Inactive)
ROOT
ATOM      1  C1  BNZ d   1      -0.071   2.356  -0.145  0.00  0.00     0.000 A 
ATOM      2  C2  BNZ d   1       0.205   3.635   0.259  0.00  0.00     0.000 A 
ATOM      3  C3  BNZ d   1       1.388   3.934   0.877  0.00  0.00     0.000 A 
ATOM      4  C4  BNZ d   1       2.273   2.948   1.126  0.00  0.00     0.000 A 
ATOM      5  C5  BNZ d   1       2.005   1.652   0.734  0.00  0.00     0.000 A 
ATOM      6  C6  BNZ d   1       0.831   1.362   0.077  0.00  0.00     0.000 A 
ENDROOT
TORSDOF 0
ENDMDL
