MODEL 1
REMARK minimizedAffinity -3.18283415
REMARK minimizedRMSD -1
REMARK  0 active torsions:
REMARK  status: ('A' for Active; 'I' for Inactive)
ROOT
ATOM      1  C1  BNZ d   1      -0.376  -0.479   1.203  0.00  0.00     0.000 A 
ATOM      2  C2  BNZ d   1      -1.051   0.355   0.353  0.00  0.00     0.000 A 
ATOM      3  C3  BNZ d   1      -0.397   1.353  -0.315  0.00  0.00     0.000 A 
ATOM      4  C4  BNZ d   1       0.921   1.541  -0.101  0.00  0.00     0.000 A 
ATOM      5  C5  BNZ d   1       1.614   0.714   0.761  0.00  0.00     0.000 A 
ATOM      6  C6  BNZ d   1       0.960  -0.314   1.401  0.00  0.00     0.000 A 
ENDROOT
TORSDOF 0
ENDMDL
