MODEL 1
REMARK minimizedAffinity -2.88630462
REMARK minimizedRMSD -1
REMARK  0 active torsions:
REMARK  status: ('A' for Active; 'I' for Inactive)
ROOT
ATOM      1  C1  BNZ d   1      -1.148  -0.688   0.858  0.00  0.00     0.000 A 
ATOM      2  C2  BNZ d   1      -0.676   0.078  -0.174  0.00  0.00     0.000 A 
ATOM      3  C3  BNZ d   1       0.464   0.819  -0.032  0.00  0.00     0.000 A 
ATOM      4  C4  BNZ d   1       1.108   0.823   1.153  0.00  0.00     0.000 A 
ATOM      5  C5  BNZ d   1       0.640   0.063   2.206  0.00  0.00     0.000 A 
ATOM      6  C6  BNZ d   1      -0.486  -0.712   2.047  0.00  0.00     0.000 A 
ENDROOT
TORSDOF 0
ENDMDL
