MODEL 1
REMARK minimizedAffinity -1.42098868
REMARK minimizedRMSD -1
REMARK  0 active torsions:
REMARK  status: ('A' for Active; 'I' for Inactive)
ROOT
ATOM      1  C1  BNZ d   1      -0.383  -0.562  -0.921  0.00  0.00     0.000 A 
ATOM      2  C2  BNZ d   1      -0.038   0.732  -1.204  0.00  0.00     0.000 A 
ATOM      3  C3  BNZ d   1       0.113   1.652  -0.204  0.00  0.00     0.000 A 
ATOM      4  C4  BNZ d   1      -0.121   1.286   1.073  0.00  0.00     0.000 A 
ATOM      5  C5  BNZ d   1      -0.479  -0.013   1.374  0.00  0.00     0.000 A 
ATOM      6  C6  BNZ d   1      -0.591  -0.945   0.368  0.00  0.00     0.000 A 
ENDROOT
TORSDOF 0
ENDMDL
