MODEL 1
REMARK minimizedAffinity -3.69115925
REMARK minimizedRMSD -1
REMARK  0 active torsions:
REMARK  status: ('A' for Active; 'I' for Inactive)
ROOT
ATOM      1  C1  BNZ d   1       1.025   3.374   0.685  0.00  0.00     0.000 A 
ATOM      2  C2  BNZ d   1       0.400   2.229   0.267  0.00  0.00     0.000 A 
ATOM      3  C3  BNZ d   1       1.016   1.014   0.381  0.00  0.00     0.000 A 
ATOM      4  C4  BNZ d   1       2.269   0.950   0.876  0.00  0.00     0.000 A 
ATOM      5  C5  BNZ d   1       2.916   2.096   1.293  0.00  0.00     0.000 A 
ATOM      6  C6  BNZ d   1       2.278   3.313   1.212  0.00  0.00     0.000 A 
ENDROOT
TORSDOF 0
ENDMDL
