MODEL 1
REMARK minimizedAffinity -3.14795947
REMARK minimizedRMSD -1
REMARK  0 active torsions:
REMARK  status: ('A' for Active; 'I' for Inactive)
ROOT
ATOM      1  C1  BNZ d   1      -1.181  -2.071   1.359  0.00  0.00     0.000 A 
ATOM      2  C2  BNZ d   1      -0.861  -0.763   1.606  0.00  0.00     0.000 A 
ATOM      3  C3  BNZ d   1      -0.485   0.070   0.590  0.00  0.00     0.000 A 
ATOM      4  C4  BNZ d   1      -0.392  -0.415  -0.665  0.00  0.00     0.000 A 
ATOM      5  C5  BNZ d   1      -0.702  -1.734  -0.929  0.00  0.00     0.000 A 
ATOM      6  C6  BNZ d   1      -1.117  -2.560   0.090  0.00  0.00     0.000 A 
ENDROOT
TORSDOF 0
ENDMDL
