MODEL 1
REMARK minimizedAffinity -2.28810382
REMARK minimizedRMSD -1
REMARK  0 active torsions:
REMARK  status: ('A' for Active; 'I' for Inactive)
ROOT
ATOM      1  C1  BNZ d   1       1.156   1.051   0.801  0.00  0.00     0.000 A 
ATOM      2  C2  BNZ d   1       0.681  -0.096   1.380  0.00  0.00     0.000 A 
ATOM      3  C3  BNZ d   1      -0.538  -0.605   1.028  0.00  0.00     0.000 A 
ATOM      4  C4  BNZ d   1      -1.297   0.054   0.128  0.00  0.00     0.000 A 
ATOM      5  C5  BNZ d   1      -0.836   1.216  -0.458  0.00  0.00     0.000 A 
ATOM      6  C6  BNZ d   1       0.408   1.704  -0.130  0.00  0.00     0.000 A 
ENDROOT
TORSDOF 0
ENDMDL
