MODEL 1
REMARK minimizedAffinity -1.52421308
REMARK minimizedRMSD -1
REMARK  0 active torsions:
REMARK  status: ('A' for Active; 'I' for Inactive)
ROOT
ATOM      1  C1  BNZ d   1       0.001  -1.299  -0.431  0.00  0.00     0.000 A 
ATOM      2  C2  BNZ d   1      -0.112  -0.441   0.630  0.00  0.00     0.000 A 
ATOM      3  C3  BNZ d   1      -0.192   0.909   0.432  0.00  0.00     0.000 A 
ATOM      4  C4  BNZ d   1      -0.118   1.402  -0.821  0.00  0.00     0.000 A 
ATOM      5  C5  BNZ d   1       0.006   0.550  -1.901  0.00  0.00     0.000 A 
ATOM      6  C6  BNZ d   1       0.047  -0.811  -1.701  0.00  0.00     0.000 A 
ENDROOT
TORSDOF 0
ENDMDL
