MODEL 1
REMARK minimizedAffinity -3.94788551
REMARK minimizedRMSD -1
REMARK  0 active torsions:
REMARK  status: ('A' for Active; 'I' for Inactive)
ROOT
ATOM      1  C1  BNZ d   1      -0.798  -2.386  -0.889  0.00  0.00     0.000 A 
ATOM      2  C2  BNZ d   1      -0.149  -1.359  -1.522  0.00  0.00     0.000 A 
ATOM      3  C3  BNZ d   1       0.094  -0.181  -0.874  0.00  0.00     0.000 A 
ATOM      4  C4  BNZ d   1      -0.346  -0.016   0.391  0.00  0.00     0.000 A 
ATOM      5  C5  BNZ d   1      -1.009  -1.039   1.039  0.00  0.00     0.000 A 
ATOM      6  C6  BNZ d   1      -1.218  -2.238   0.397  0.00  0.00     0.000 A 
ENDROOT
TORSDOF 0
ENDMDL
