MODEL 1
REMARK minimizedAffinity -2.44050217
REMARK minimizedRMSD -1
REMARK  0 active torsions:
REMARK  status: ('A' for Active; 'I' for Inactive)
ROOT
ATOM      1  C1  BNZ d   1       0.400  -0.911   0.928  0.00  0.00     0.000 A 
ATOM      2  C2  BNZ d   1       1.125   0.034   0.252  0.00  0.00     0.000 A 
ATOM      3  C3  BNZ d   1       0.590   1.260  -0.027  0.00  0.00     0.000 A 
ATOM      4  C4  BNZ d   1      -0.682   1.526   0.334  0.00  0.00     0.000 A 
ATOM      5  C5  BNZ d   1      -1.429   0.580   1.008  0.00  0.00     0.000 A 
ATOM      6  C6  BNZ d   1      -0.874  -0.639   1.321  0.00  0.00     0.000 A 
ENDROOT
TORSDOF 0
ENDMDL
