MODEL 1
REMARK minimizedAffinity -1.88577521
REMARK minimizedRMSD -1
REMARK  0 active torsions:
REMARK  status: ('A' for Active; 'I' for Inactive)
ROOT
ATOM      1  C1  BNZ d   1      -0.245   0.058  -0.901  0.00  0.00     0.000 A 
ATOM      2  C2  BNZ d   1      -1.290  -0.682  -0.416  0.00  0.00     0.000 A 
ATOM      3  C3  BNZ d   1      -1.372  -0.989   0.914  0.00  0.00     0.000 A 
ATOM      4  C4  BNZ d   1      -0.391  -0.589   1.748  0.00  0.00     0.000 A 
ATOM      5  C5  BNZ d   1       0.673   0.150   1.272  0.00  0.00     0.000 A 
ATOM      6  C6  BNZ d   1       0.733   0.490  -0.060  0.00  0.00     0.000 A 
ENDROOT
TORSDOF 0
ENDMDL
