MODEL 1
REMARK minimizedAffinity -2.89719844
REMARK minimizedRMSD -1
REMARK  0 active torsions:
REMARK  status: ('A' for Active; 'I' for Inactive)
ROOT
ATOM      1  C1  BNZ d   1       0.111  -1.347  -1.035  0.00  0.00     0.000 A 
ATOM      2  C2  BNZ d   1      -0.593  -2.354  -0.432  0.00  0.00     0.000 A 
ATOM      3  C3  BNZ d   1      -1.067  -2.212   0.843  0.00  0.00     0.000 A 
ATOM      4  C4  BNZ d   1      -0.802  -1.080   1.526  0.00  0.00     0.000 A 
ATOM      5  C5  BNZ d   1      -0.085  -0.059   0.935  0.00  0.00     0.000 A 
ATOM      6  C6  BNZ d   1       0.357  -0.190  -0.361  0.00  0.00     0.000 A 
ENDROOT
TORSDOF 0
ENDMDL
