MODEL 1
REMARK minimizedAffinity -3.47045374
REMARK minimizedRMSD -1
REMARK  0 active torsions:
REMARK  status: ('A' for Active; 'I' for Inactive)
ROOT
ATOM      1  C1  BNZ d   1      -0.594  -2.277   1.324  0.00  0.00     0.000 A 
ATOM      2  C2  BNZ d   1      -0.421  -1.031   1.865  0.00  0.00     0.000 A 
ATOM      3  C3  BNZ d   1      -0.184   0.053   1.066  0.00  0.00     0.000 A 
ATOM      4  C4  BNZ d   1      -0.080  -0.117  -0.268  0.00  0.00     0.000 A 
ATOM      5  C5  BNZ d   1      -0.243  -1.369  -0.828  0.00  0.00     0.000 A 
ATOM      6  C6  BNZ d   1      -0.520  -2.451  -0.024  0.00  0.00     0.000 A 
ENDROOT
TORSDOF 0
ENDMDL
