MODEL 1
REMARK minimizedAffinity -2.32439709
REMARK minimizedRMSD -1
REMARK  0 active torsions:
REMARK  status: ('A' for Active; 'I' for Inactive)
ROOT
ATOM      1  C1  BNZ d   1       2.226   3.108  -0.135  0.00  0.00     0.000 A 
ATOM      2  C2  BNZ d   1       1.422   2.038  -0.429  0.00  0.00     0.000 A 
ATOM      3  C3  BNZ d   1       0.379   1.702   0.388  0.00  0.00     0.000 A 
ATOM      4  C4  BNZ d   1       0.165   2.410   1.516  0.00  0.00     0.000 A 
ATOM      5  C5  BNZ d   1       0.972   3.485   1.830  0.00  0.00     0.000 A 
ATOM      6  C6  BNZ d   1       1.997   3.844   0.986  0.00  0.00     0.000 A 
ENDROOT
TORSDOF 0
ENDMDL
