MODEL 1
REMARK minimizedAffinity 2.00109529
REMARK minimizedRMSD -1
REMARK  0 active torsions:
REMARK  status: ('A' for Active; 'I' for Inactive)
ROOT
ATOM      1  C   UNL d   1       0.927   0.073  -1.750  0.00  0.00     0.124 A 
ATOM      2  C1  UNL d   1       0.737   1.447  -1.745  0.00  0.00     0.062 A 
ATOM      3  C2  UNL d   1      -0.001   2.048  -0.729  0.00  0.00     0.162 A 
ATOM      4  C3  UNL d   1      -0.554   1.275   0.291  0.00  0.00    -0.034 A 
ATOM      5  C4  UNL d   1      -0.360  -0.108   0.279  0.00  0.00     0.162 A 
ATOM      6  C5  UNL d   1       0.379  -0.704  -0.738  0.00  0.00     0.062 A 
ATOM      7  F   UNL d   1       0.561  -2.032  -0.742  0.00  0.00    -0.097 F 
ATOM      8  F1  UNL d   1      -0.878  -0.882   1.244  0.00  0.00    -0.096 F 
ATOM      9  I   UNL d   1      -1.659   2.169   1.812  0.00  0.00    -0.060 I 
ATOM     10  F2  UNL d   1      -0.169   3.379  -0.749  0.00  0.00    -0.096 F 
ATOM     11  F3  UNL d   1       1.265   2.199  -2.721  0.00  0.00    -0.097 F 
ATOM     12  F4  UNL d   1       1.637  -0.503  -2.729  0.00  0.00    -0.092 F 
ENDROOT
TORSDOF 0
ENDMDL
