MODEL 1
REMARK minimizedAffinity 12.9862814
REMARK minimizedRMSD -1
REMARK  0 active torsions:
REMARK  status: ('A' for Active; 'I' for Inactive)
ROOT
ATOM      1  C   UNL d   1      -0.093   1.121   0.573  0.00  0.00     0.124 A 
ATOM      2  C1  UNL d   1       0.520  -0.024   1.064  0.00  0.00     0.062 A 
ATOM      3  C2  UNL d   1       0.417  -1.226   0.369  0.00  0.00     0.162 A 
ATOM      4  C3  UNL d   1      -0.300  -1.289  -0.826  0.00  0.00    -0.034 A 
ATOM      5  C4  UNL d   1      -0.914  -0.133  -1.313  0.00  0.00     0.162 A 
ATOM      6  C5  UNL d   1      -0.809   1.065  -0.615  0.00  0.00     0.062 A 
ATOM      7  F   UNL d   1      -1.401   2.170  -1.090  0.00  0.00    -0.097 F 
ATOM      8  F1  UNL d   1      -1.611  -0.159  -2.459  0.00  0.00    -0.096 F 
ATOM      9  I   UNL d   1      -0.455  -3.083  -1.868  0.00  0.00    -0.060 I 
ATOM     10  F2  UNL d   1       1.019  -2.316   0.866  0.00  0.00    -0.096 F 
ATOM     11  F3  UNL d   1       1.211   0.027   2.211  0.00  0.00    -0.097 F 
ATOM     12  F4  UNL d   1       0.006   2.275   1.244  0.00  0.00    -0.092 F 
ENDROOT
TORSDOF 0
ENDMDL
