MODEL 1
REMARK minimizedAffinity -4.07669687
REMARK minimizedRMSD -1
REMARK  0 active torsions:
REMARK  status: ('A' for Active; 'I' for Inactive)
ROOT
ATOM      1  C   UNL d   1      -1.038   2.007   0.907  0.00  0.00     0.124 A 
ATOM      2  C1  UNL d   1      -0.327   1.988  -0.285  0.00  0.00     0.062 A 
ATOM      3  C2  UNL d   1       0.158   0.786  -0.792  0.00  0.00     0.162 A 
ATOM      4  C3  UNL d   1      -0.066  -0.408  -0.108  0.00  0.00    -0.034 A 
ATOM      5  C4  UNL d   1      -0.781  -0.382   1.091  0.00  0.00     0.162 A 
ATOM      6  C5  UNL d   1      -1.264   0.822   1.594  0.00  0.00     0.062 A 
ATOM      7  F   UNL d   1      -1.950   0.838   2.746  0.00  0.00    -0.097 F 
ATOM      8  F1  UNL d   1      -1.015  -1.512   1.775  0.00  0.00    -0.096 F 
ATOM      9  I   UNL d   1       0.658  -2.207  -0.863  0.00  0.00    -0.060 I 
ATOM     10  F2  UNL d   1       0.842   0.798  -1.947  0.00  0.00    -0.096 F 
ATOM     11  F3  UNL d   1      -0.106   3.131  -0.950  0.00  0.00    -0.097 F 
ATOM     12  F4  UNL d   1      -1.503   3.165   1.393  0.00  0.00    -0.092 F 
ENDROOT
TORSDOF 0
ENDMDL
