MODEL 1
REMARK minimizedAffinity -4.68498421
REMARK minimizedRMSD -1
REMARK  0 active torsions:
REMARK  status: ('A' for Active; 'I' for Inactive)
ROOT
ATOM      1  C   UNL d   1       1.235  -0.974   0.423  0.00  0.00     0.124 A 
ATOM      2  C1  UNL d   1       0.479  -0.706   1.556  0.00  0.00     0.062 A 
ATOM      3  C2  UNL d   1      -0.149   0.528   1.702  0.00  0.00     0.162 A 
ATOM      4  C3  UNL d   1      -0.024   1.503   0.713  0.00  0.00    -0.034 A 
ATOM      5  C4  UNL d   1       0.738   1.227  -0.423  0.00  0.00     0.162 A 
ATOM      6  C5  UNL d   1       1.364  -0.008  -0.565  0.00  0.00     0.062 A 
ATOM      7  F   UNL d   1       2.094  -0.265  -1.660  0.00  0.00    -0.097 F 
ATOM      8  F1  UNL d   1       0.879   2.141  -1.394  0.00  0.00    -0.096 F 
ATOM      9  I   UNL d   1      -0.962   3.349   0.928  0.00  0.00    -0.060 I 
ATOM     10  F2  UNL d   1      -0.873   0.760   2.807  0.00  0.00    -0.096 F 
ATOM     11  F3  UNL d   1       0.354  -1.637   2.512  0.00  0.00    -0.097 F 
ATOM     12  F4  UNL d   1       1.839  -2.161   0.285  0.00  0.00    -0.092 F 
ENDROOT
TORSDOF 0
ENDMDL
