MODEL 1
REMARK minimizedAffinity 3.08438158
REMARK minimizedRMSD -1
REMARK  0 active torsions:
REMARK  status: ('A' for Active; 'I' for Inactive)
ROOT
ATOM      1  C   UNL d   1       0.461  -3.842  -2.000  0.00  0.00     0.124 A 
ATOM      2  C1  UNL d   1       1.394  -3.319  -1.116  0.00  0.00     0.062 A 
ATOM      3  C2  UNL d   1       1.340  -1.976  -0.754  0.00  0.00     0.162 A 
ATOM      4  C3  UNL d   1       0.348  -1.146  -1.276  0.00  0.00    -0.034 A 
ATOM      5  C4  UNL d   1      -0.587  -1.679  -2.166  0.00  0.00     0.162 A 
ATOM      6  C5  UNL d   1      -0.528  -3.022  -2.525  0.00  0.00     0.062 A 
ATOM      7  F   UNL d   1      -1.431  -3.525  -3.379  0.00  0.00    -0.097 F 
ATOM      8  F1  UNL d   1      -1.553  -0.909  -2.688  0.00  0.00    -0.096 F 
ATOM      9  I   UNL d   1       0.264   0.862  -0.738  0.00  0.00    -0.060 I 
ATOM     10  F2  UNL d   1       2.254  -1.498   0.103  0.00  0.00    -0.096 F 
ATOM     11  F3  UNL d   1       2.351  -4.110  -0.608  0.00  0.00    -0.097 F 
ATOM     12  F4  UNL d   1       0.516  -5.135  -2.347  0.00  0.00    -0.092 F 
ENDROOT
TORSDOF 0
ENDMDL
