MODEL 1
REMARK minimizedAffinity 1.97946012
REMARK minimizedRMSD -1
REMARK  0 active torsions:
REMARK  status: ('A' for Active; 'I' for Inactive)
ROOT
ATOM      1  C   UNL d   1      -0.041   0.570   2.052  0.00  0.00     0.124 A 
ATOM      2  C1  UNL d   1       0.918  -0.433   2.018  0.00  0.00     0.062 A 
ATOM      3  C2  UNL d   1       1.160  -1.130   0.838  0.00  0.00     0.162 A 
ATOM      4  C3  UNL d   1       0.441  -0.827  -0.319  0.00  0.00    -0.034 A 
ATOM      5  C4  UNL d   1      -0.522   0.182  -0.277  0.00  0.00     0.162 A 
ATOM      6  C5  UNL d   1      -0.760   0.876   0.905  0.00  0.00     0.062 A 
ATOM      7  F   UNL d   1      -1.687   1.844   0.936  0.00  0.00    -0.097 F 
ATOM      8  F1  UNL d   1      -1.231   0.498  -1.370  0.00  0.00    -0.096 F 
ATOM      9  I   UNL d   1       0.800  -1.869  -2.085  0.00  0.00    -0.060 I 
ATOM     10  F2  UNL d   1       2.093  -2.094   0.834  0.00  0.00    -0.096 F 
ATOM     11  F3  UNL d   1       1.614  -0.731   3.124  0.00  0.00    -0.097 F 
ATOM     12  F4  UNL d   1      -0.272   1.239   3.188  0.00  0.00    -0.092 F 
ENDROOT
TORSDOF 0
ENDMDL
