MODEL 1
REMARK minimizedAffinity 7.72942209
REMARK minimizedRMSD -1
REMARK  0 active torsions:
REMARK  status: ('A' for Active; 'I' for Inactive)
ROOT
ATOM      1  C   UNL d   1       1.369  -0.090  -1.157  0.00  0.00     0.124 A 
ATOM      2  C1  UNL d   1       0.959   1.223  -1.347  0.00  0.00     0.062 A 
ATOM      3  C2  UNL d   1       0.236   1.880  -0.356  0.00  0.00     0.162 A 
ATOM      4  C3  UNL d   1      -0.082   1.227   0.835  0.00  0.00    -0.034 A 
ATOM      5  C4  UNL d   1       0.333  -0.094   1.018  0.00  0.00     0.162 A 
ATOM      6  C5  UNL d   1       1.056  -0.747   0.025  0.00  0.00     0.062 A 
ATOM      7  F   UNL d   1       1.451  -2.015   0.210  0.00  0.00    -0.097 F 
ATOM      8  F1  UNL d   1       0.044  -0.752   2.150  0.00  0.00    -0.096 F 
ATOM      9  I   UNL d   1      -1.163   2.206   2.318  0.00  0.00    -0.060 I 
ATOM     10  F2  UNL d   1      -0.147   3.148  -0.566  0.00  0.00    -0.096 F 
ATOM     11  F3  UNL d   1       1.260   1.859  -2.488  0.00  0.00    -0.097 F 
ATOM     12  F4  UNL d   1       2.064  -0.721  -2.112  0.00  0.00    -0.092 F 
ENDROOT
TORSDOF 0
ENDMDL
