MODEL 1
REMARK minimizedAffinity -5.02065849
REMARK minimizedRMSD -1
REMARK  0 active torsions:
REMARK  status: ('A' for Active; 'I' for Inactive)
ROOT
ATOM      1  C   UNL d   1      -0.758  -0.322   1.774  0.00  0.00     0.124 A 
ATOM      2  C1  UNL d   1      -1.544   0.822   1.812  0.00  0.00     0.062 A 
ATOM      3  C2  UNL d   1      -1.316   1.858   0.910  0.00  0.00     0.162 A 
ATOM      4  C3  UNL d   1      -0.298   1.754  -0.038  0.00  0.00    -0.034 A 
ATOM      5  C4  UNL d   1       0.488   0.601  -0.069  0.00  0.00     0.162 A 
ATOM      6  C5  UNL d   1       0.256  -0.431   0.834  0.00  0.00     0.062 A 
ATOM      7  F   UNL d   1       1.016  -1.535   0.796  0.00  0.00    -0.097 F 
ATOM      8  F1  UNL d   1       1.475   0.469  -0.968  0.00  0.00    -0.096 F 
ATOM      9  I   UNL d   1       0.046   3.301  -1.388  0.00  0.00    -0.060 I 
ATOM     10  F2  UNL d   1      -2.090   2.952   0.970  0.00  0.00    -0.096 F 
ATOM     11  F3  UNL d   1      -2.524   0.931   2.720  0.00  0.00    -0.097 F 
ATOM     12  F4  UNL d   1      -0.979  -1.316   2.643  0.00  0.00    -0.092 F 
ENDROOT
TORSDOF 0
ENDMDL
