MODEL 1
REMARK minimizedAffinity -1.83091366
REMARK minimizedRMSD -1
REMARK  0 active torsions:
REMARK  status: ('A' for Active; 'I' for Inactive)
ROOT
ATOM      1  C   UNL d   1      -0.912   1.847   0.921  0.00  0.00     0.124 A 
ATOM      2  C1  UNL d   1      -1.089   0.672   1.638  0.00  0.00     0.062 A 
ATOM      3  C2  UNL d   1      -0.502  -0.511   1.197  0.00  0.00     0.162 A 
ATOM      4  C3  UNL d   1       0.269  -0.524   0.034  0.00  0.00    -0.034 A 
ATOM      5  C4  UNL d   1       0.441   0.662  -0.681  0.00  0.00     0.162 A 
ATOM      6  C5  UNL d   1      -0.148   1.842  -0.237  0.00  0.00     0.062 A 
ATOM      7  F   UNL d   1       0.024   2.976  -0.930  0.00  0.00    -0.097 F 
ATOM      8  F1  UNL d   1       1.175   0.685  -1.803  0.00  0.00    -0.096 F 
ATOM      9  I   UNL d   1       1.148  -2.291  -0.627  0.00  0.00    -0.060 I 
ATOM     10  F2  UNL d   1      -0.689  -1.632   1.909  0.00  0.00    -0.096 F 
ATOM     11  F3  UNL d   1      -1.827   0.674   2.757  0.00  0.00    -0.097 F 
ATOM     12  F4  UNL d   1      -1.479   2.984   1.347  0.00  0.00    -0.092 F 
ENDROOT
TORSDOF 0
ENDMDL
