MODEL 1
REMARK minimizedAffinity 1.03982866
REMARK minimizedRMSD -1
REMARK  0 active torsions:
REMARK  status: ('A' for Active; 'I' for Inactive)
ROOT
ATOM      1  C   UNL d   1      -1.221   1.970   1.833  0.00  0.00     0.124 A 
ATOM      2  C1  UNL d   1      -0.503   1.023   2.549  0.00  0.00     0.062 A 
ATOM      3  C2  UNL d   1       0.049  -0.076   1.898  0.00  0.00     0.162 A 
ATOM      4  C3  UNL d   1      -0.114  -0.234   0.522  0.00  0.00    -0.034 A 
ATOM      5  C4  UNL d   1      -0.838   0.722  -0.192  0.00  0.00     0.162 A 
ATOM      6  C5  UNL d   1      -1.388   1.819   0.463  0.00  0.00     0.062 A 
ATOM      7  F   UNL d   1      -2.081   2.734  -0.230  0.00  0.00    -0.097 F 
ATOM      8  F1  UNL d   1      -1.014   0.602  -1.516  0.00  0.00    -0.096 F 
ATOM      9  I   UNL d   1       0.710  -1.877  -0.456  0.00  0.00    -0.060 I 
ATOM     10  F2  UNL d   1       0.739  -0.976   2.615  0.00  0.00    -0.096 F 
ATOM     11  F3  UNL d   1      -0.341   1.166   3.872  0.00  0.00    -0.097 F 
ATOM     12  F4  UNL d   1      -1.752   3.027   2.462  0.00  0.00    -0.092 F 
ENDROOT
TORSDOF 0
ENDMDL
