MODEL 1
REMARK minimizedAffinity -2.04423499
REMARK minimizedRMSD -1
REMARK  0 active torsions:
REMARK  status: ('A' for Active; 'I' for Inactive)
ROOT
ATOM      1  C   UNL d   1      -1.251   1.776   1.544  0.00  0.00     0.124 A 
ATOM      2  C1  UNL d   1      -1.041   1.833   0.173  0.00  0.00     0.062 A 
ATOM      3  C2  UNL d   1      -0.340   0.818  -0.470  0.00  0.00     0.162 A 
ATOM      4  C3  UNL d   1       0.155  -0.265   0.256  0.00  0.00    -0.034 A 
ATOM      5  C4  UNL d   1      -0.059  -0.315   1.635  0.00  0.00     0.162 A 
ATOM      6  C5  UNL d   1      -0.760   0.703   2.273  0.00  0.00     0.062 A 
ATOM      7  F   UNL d   1      -0.961   0.646   3.598  0.00  0.00    -0.097 F 
ATOM      8  F1  UNL d   1       0.404  -1.342   2.363  0.00  0.00    -0.096 F 
ATOM      9  I   UNL d   1       1.204  -1.786  -0.703  0.00  0.00    -0.060 I 
ATOM     10  F2  UNL d   1      -0.153   0.899  -1.796  0.00  0.00    -0.096 F 
ATOM     11  F3  UNL d   1      -1.514   2.870  -0.533  0.00  0.00    -0.097 F 
ATOM     12  F4  UNL d   1      -1.925   2.756   2.161  0.00  0.00    -0.092 F 
ENDROOT
TORSDOF 0
ENDMDL
