MODEL 1
REMARK minimizedAffinity -1.21399987
REMARK minimizedRMSD -1
REMARK  0 active torsions:
REMARK  status: ('A' for Active; 'I' for Inactive)
ROOT
ATOM      1  C   UNL d   1      -1.111   0.558   2.285  0.00  0.00     0.124 A 
ATOM      2  C1  UNL d   1      -0.207  -0.487   2.149  0.00  0.00     0.062 A 
ATOM      3  C2  UNL d   1       0.378  -0.750   0.915  0.00  0.00     0.162 A 
ATOM      4  C3  UNL d   1       0.063   0.034  -0.195  0.00  0.00    -0.034 A 
ATOM      5  C4  UNL d   1      -0.847   1.083  -0.051  0.00  0.00     0.162 A 
ATOM      6  C5  UNL d   1      -1.429   1.342   1.185  0.00  0.00     0.062 A 
ATOM      7  F   UNL d   1      -2.302   2.352   1.314  0.00  0.00    -0.097 F 
ATOM      8  F1  UNL d   1      -1.172   1.857  -1.098  0.00  0.00    -0.096 F 
ATOM      9  I   UNL d   1       0.937  -0.356  -2.043  0.00  0.00    -0.060 I 
ATOM     10  F2  UNL d   1       1.248  -1.766   0.813  0.00  0.00    -0.096 F 
ATOM     11  F3  UNL d   1       0.101  -1.246   3.211  0.00  0.00    -0.097 F 
ATOM     12  F4  UNL d   1      -1.674   0.809   3.474  0.00  0.00    -0.092 F 
ENDROOT
TORSDOF 0
ENDMDL
