MODEL 1
REMARK minimizedAffinity -0.867666185
REMARK minimizedRMSD -1
REMARK  0 active torsions:
REMARK  status: ('A' for Active; 'I' for Inactive)
ROOT
ATOM      1  C   UNL d   1      -1.164   0.611   2.226  0.00  0.00     0.124 A 
ATOM      2  C1  UNL d   1      -0.450  -0.565   2.041  0.00  0.00     0.062 A 
ATOM      3  C2  UNL d   1       0.213  -0.799   0.839  0.00  0.00     0.162 A 
ATOM      4  C3  UNL d   1       0.166   0.145  -0.186  0.00  0.00    -0.034 A 
ATOM      5  C4  UNL d   1      -0.556   1.325   0.007  0.00  0.00     0.162 A 
ATOM      6  C5  UNL d   1      -1.217   1.554   1.210  0.00  0.00     0.062 A 
ATOM      7  F   UNL d   1      -1.907   2.690   1.387  0.00  0.00    -0.097 F 
ATOM      8  F1  UNL d   1      -0.622   2.254  -0.958  0.00  0.00    -0.096 F 
ATOM      9  I   UNL d   1       1.155  -0.201  -1.984  0.00  0.00    -0.060 I 
ATOM     10  F2  UNL d   1       0.896  -1.943   0.688  0.00  0.00    -0.096 F 
ATOM     11  F3  UNL d   1      -0.398  -1.478   3.021  0.00  0.00    -0.097 F 
ATOM     12  F4  UNL d   1      -1.802   0.833   3.383  0.00  0.00    -0.092 F 
ENDROOT
TORSDOF 0
ENDMDL
