MODEL 1
REMARK minimizedAffinity -0.0172457471
REMARK minimizedRMSD -1
REMARK  0 active torsions:
REMARK  status: ('A' for Active; 'I' for Inactive)
ROOT
ATOM      1  C   UNL d   1      -0.880   1.744   2.051  0.00  0.00     0.124 A 
ATOM      2  C1  UNL d   1      -1.094   1.790   0.680  0.00  0.00     0.062 A 
ATOM      3  C2  UNL d   1      -0.681   0.736  -0.129  0.00  0.00     0.162 A 
ATOM      4  C3  UNL d   1      -0.050  -0.376   0.430  0.00  0.00    -0.034 A 
ATOM      5  C4  UNL d   1       0.162  -0.415   1.809  0.00  0.00     0.162 A 
ATOM      6  C5  UNL d   1      -0.252   0.641   2.614  0.00  0.00     0.062 A 
ATOM      7  F   UNL d   1      -0.044   0.594   3.938  0.00  0.00    -0.097 F 
ATOM      8  F1  UNL d   1       0.766  -1.468   2.380  0.00  0.00    -0.096 F 
ATOM      9  I   UNL d   1       0.569  -1.954  -0.777  0.00  0.00    -0.060 I 
ATOM     10  F2  UNL d   1      -0.900   0.808  -1.450  0.00  0.00    -0.096 F 
ATOM     11  F3  UNL d   1      -1.699   2.855   0.134  0.00  0.00    -0.097 F 
ATOM     12  F4  UNL d   1      -1.277   2.760   2.827  0.00  0.00    -0.092 F 
ENDROOT
TORSDOF 0
ENDMDL
