MODEL 1
REMARK minimizedAffinity -1.33666039
REMARK minimizedRMSD -1
REMARK  0 active torsions:
REMARK  status: ('A' for Active; 'I' for Inactive)
ROOT
ATOM      1  C   UNL d   1      -0.596   2.922  -0.572  0.00  0.00     0.124 A 
ATOM      2  C1  UNL d   1      -1.432   2.806   0.530  0.00  0.00     0.062 A 
ATOM      3  C2  UNL d   1      -1.505   1.606   1.231  0.00  0.00     0.162 A 
ATOM      4  C3  UNL d   1      -0.739   0.511   0.833  0.00  0.00    -0.034 A 
ATOM      5  C4  UNL d   1       0.099   0.634  -0.277  0.00  0.00     0.162 A 
ATOM      6  C5  UNL d   1       0.169   1.836  -0.974  0.00  0.00     0.062 A 
ATOM      7  F   UNL d   1       0.978   1.945  -2.038  0.00  0.00    -0.097 F 
ATOM      8  F1  UNL d   1       0.850  -0.399  -0.687  0.00  0.00    -0.096 F 
ATOM      9  I   UNL d   1      -0.846  -1.285   1.878  0.00  0.00    -0.060 I 
ATOM     10  F2  UNL d   1      -2.322   1.524   2.292  0.00  0.00    -0.096 F 
ATOM     11  F3  UNL d   1      -2.173   3.854   0.920  0.00  0.00    -0.097 F 
ATOM     12  F4  UNL d   1      -0.528   4.077  -1.245  0.00  0.00    -0.092 F 
ENDROOT
TORSDOF 0
ENDMDL
