MODEL 1
REMARK minimizedAffinity -3.87852311
REMARK minimizedRMSD -1
REMARK  0 active torsions:
REMARK  status: ('A' for Active; 'I' for Inactive)
ROOT
ATOM      1  C   UNL d   1      -0.908   2.577   0.708  0.00  0.00     0.124 A 
ATOM      2  C1  UNL d   1      -0.008   2.554  -0.349  0.00  0.00     0.062 A 
ATOM      3  C2  UNL d   1       0.410   1.340  -0.886  0.00  0.00     0.162 A 
ATOM      4  C3  UNL d   1      -0.072   0.138  -0.367  0.00  0.00    -0.034 A 
ATOM      5  C4  UNL d   1      -0.976   0.169   0.696  0.00  0.00     0.162 A 
ATOM      6  C5  UNL d   1      -1.391   1.385   1.229  0.00  0.00     0.062 A 
ATOM      7  F   UNL d   1      -2.260   1.406   2.250  0.00  0.00    -0.097 F 
ATOM      8  F1  UNL d   1      -1.459  -0.968   1.219  0.00  0.00    -0.096 F 
ATOM      9  I   UNL d   1       0.551  -1.680  -1.166  0.00  0.00    -0.060 I 
ATOM     10  F2  UNL d   1       1.280   1.347  -1.906  0.00  0.00    -0.096 F 
ATOM     11  F3  UNL d   1       0.460   3.704  -0.854  0.00  0.00    -0.097 F 
ATOM     12  F4  UNL d   1      -1.308   3.747   1.223  0.00  0.00    -0.092 F 
ENDROOT
TORSDOF 0
ENDMDL
