MODEL 1
REMARK minimizedAffinity -3.55184698
REMARK minimizedRMSD -1
REMARK  0 active torsions:
REMARK  status: ('A' for Active; 'I' for Inactive)
ROOT
ATOM      1  C4' PXY d   1      -4.584   1.906  -2.530  0.00  0.00     0.077 C 
ATOM      2  C1' PXY d   1       1.051   3.194  -2.592  0.00  0.00     0.077 C 
ATOM      3  C1  PXY d   1      -0.425   2.847  -2.585  0.00  0.00    -0.082 A 
ATOM      4  C2  PXY d   1      -1.307   3.749  -2.186  0.00  0.00     0.003 A 
ATOM      5  C3  PXY d   1      -2.643   3.442  -2.143  0.00  0.00     0.003 A 
ATOM      6  C4  PXY d   1      -3.085   2.216  -2.563  0.00  0.00    -0.082 A 
ATOM      7  C5  PXY d   1      -2.193   1.294  -2.982  0.00  0.00     0.003 A 
ATOM      8  C6  PXY d   1      -0.838   1.612  -2.979  0.00  0.00     0.003 A 
ENDROOT
TORSDOF 0
ENDMDL
