MODEL 1
REMARK minimizedAffinity -5.59442234
REMARK minimizedRMSD -1
REMARK  0 active torsions:
REMARK  status: ('A' for Active; 'I' for Inactive)
ROOT
ATOM      1  C4' PXY d   1       1.702  -1.318   3.475  0.00  0.00     0.077 C 
ATOM      2  C1' PXY d   1      -0.612   0.247  -1.586  0.00  0.00     0.077 C 
ATOM      3  C1  PXY d   1      -0.013  -0.154  -0.253  0.00  0.00    -0.082 A 
ATOM      4  C2  PXY d   1       1.191  -0.703  -0.215  0.00  0.00     0.003 A 
ATOM      5  C3  PXY d   1       1.734  -1.101   0.979  0.00  0.00     0.003 A 
ATOM      6  C4  PXY d   1       1.061  -0.888   2.152  0.00  0.00    -0.082 A 
ATOM      7  C5  PXY d   1      -0.163  -0.319   2.123  0.00  0.00     0.003 A 
ATOM      8  C6  PXY d   1      -0.714   0.041   0.897  0.00  0.00     0.003 A 
ENDROOT
TORSDOF 0
ENDMDL
