MODEL 1
REMARK minimizedAffinity -4.94072771
REMARK minimizedRMSD -1
REMARK  0 active torsions:
REMARK  status: ('A' for Active; 'I' for Inactive)
ROOT
ATOM      1  C4' PXY d   1      -0.261   0.267  -1.862  0.00  0.00     0.077 C 
ATOM      2  C1' PXY d   1       1.301  -0.820   3.596  0.00  0.00     0.077 C 
ATOM      3  C1  PXY d   1       0.904  -0.533   2.162  0.00  0.00    -0.082 A 
ATOM      4  C2  PXY d   1      -0.317  -0.099   1.895  0.00  0.00     0.003 A 
ATOM      5  C3  PXY d   1      -0.703   0.135   0.600  0.00  0.00     0.003 A 
ATOM      6  C4  PXY d   1       0.187  -0.026  -0.428  0.00  0.00    -0.082 A 
ATOM      7  C5  PXY d   1       1.438  -0.459  -0.163  0.00  0.00     0.003 A 
ATOM      8  C6  PXY d   1       1.797  -0.730   1.154  0.00  0.00     0.003 A 
ENDROOT
TORSDOF 0
ENDMDL
