MODEL 1
REMARK minimizedAffinity 1.36007667
REMARK minimizedRMSD -1
REMARK  0 active torsions:
REMARK  status: ('A' for Active; 'I' for Inactive)
ROOT
ATOM      1  C4' PXY d   1      -1.991   3.198  -3.060  0.00  0.00     0.077 C 
ATOM      2  C1' PXY d   1      -4.979  -1.610  -4.231  0.00  0.00     0.077 C 
ATOM      3  C1  PXY d   1      -4.194  -0.347  -3.937  0.00  0.00    -0.082 A 
ATOM      4  C2  PXY d   1      -3.574  -0.218  -2.775  0.00  0.00     0.003 A 
ATOM      5  C3  PXY d   1      -2.886   0.931  -2.480  0.00  0.00     0.003 A 
ATOM      6  C4  PXY d   1      -2.787   1.936  -3.404  0.00  0.00    -0.082 A 
ATOM      7  C5  PXY d   1      -3.408   1.808  -4.596  0.00  0.00     0.003 A 
ATOM      8  C6  PXY d   1      -4.136   0.651  -4.860  0.00  0.00     0.003 A 
ENDROOT
TORSDOF 0
ENDMDL
