MODEL 1
REMARK minimizedAffinity 3.37366509
REMARK minimizedRMSD -1
REMARK  0 active torsions:
REMARK  status: ('A' for Active; 'I' for Inactive)
ROOT
ATOM      1  C4' PXY d   1      -3.761   0.861   2.664  0.00  0.00     0.077 C 
ATOM      2  C1' PXY d   1       1.339  -1.533   1.370  0.00  0.00     0.077 C 
ATOM      3  C1  PXY d   1      -0.003  -0.907   1.697  0.00  0.00    -0.082 A 
ATOM      4  C2  PXY d   1      -0.096  -0.046   2.697  0.00  0.00     0.003 A 
ATOM      5  C3  PXY d   1      -1.308   0.505   3.027  0.00  0.00     0.003 A 
ATOM      6  C4  PXY d   1      -2.425   0.212   2.292  0.00  0.00    -0.082 A 
ATOM      7  C5  PXY d   1      -2.336  -0.659   1.264  0.00  0.00     0.003 A 
ATOM      8  C6  PXY d   1      -1.105  -1.238   0.971  0.00  0.00     0.003 A 
ENDROOT
TORSDOF 0
ENDMDL
