MODEL 1
REMARK minimizedAffinity -3.75151753
REMARK minimizedRMSD -1
REMARK  0 active torsions:
REMARK  status: ('A' for Active; 'I' for Inactive)
ROOT
ATOM      1  C4' PXY d   1       3.476  -2.111   0.293  0.00  0.00     0.077 C 
ATOM      2  C1' PXY d   1      -1.430   0.435   1.987  0.00  0.00     0.077 C 
ATOM      3  C1  PXY d   1      -0.148  -0.233   1.530  0.00  0.00    -0.082 A 
ATOM      4  C2  PXY d   1       0.593  -0.893   2.406  0.00  0.00     0.003 A 
ATOM      5  C3  PXY d   1       1.772  -1.476   2.017  0.00  0.00     0.003 A 
ATOM      6  C4  PXY d   1       2.169  -1.429   0.707  0.00  0.00    -0.082 A 
ATOM      7  C5  PXY d   1       1.413  -0.767  -0.194  0.00  0.00     0.003 A 
ATOM      8  C6  PXY d   1       0.241  -0.147   0.229  0.00  0.00     0.003 A 
ENDROOT
TORSDOF 0
ENDMDL
