MODEL 1
REMARK minimizedAffinity -2.76214576
REMARK minimizedRMSD -1
REMARK  0 active torsions:
REMARK  status: ('A' for Active; 'I' for Inactive)
ROOT
ATOM      1  C4' PXY d   1      -0.748   1.405  -2.045  0.00  0.00     0.077 C 
ATOM      2  C1' PXY d   1       0.455  -0.938   3.101  0.00  0.00     0.077 C 
ATOM      3  C1  PXY d   1       0.127  -0.326   1.753  0.00  0.00    -0.082 A 
ATOM      4  C2  PXY d   1       1.062  -0.259   0.820  0.00  0.00     0.003 A 
ATOM      5  C3  PXY d   1       0.792   0.320  -0.393  0.00  0.00     0.003 A 
ATOM      6  C4  PXY d   1      -0.464   0.787  -0.673  0.00  0.00    -0.082 A 
ATOM      7  C5  PXY d   1      -1.428   0.712   0.270  0.00  0.00     0.003 A 
ATOM      8  C6  PXY d   1      -1.121   0.158   1.510  0.00  0.00     0.003 A 
ENDROOT
TORSDOF 0
ENDMDL
