MODEL 1
REMARK minimizedAffinity -2.47234178
REMARK minimizedRMSD -1
REMARK  0 active torsions:
REMARK  status: ('A' for Active; 'I' for Inactive)
ROOT
ATOM      1  C4' PXY d   1       0.908  -1.191   2.687  0.00  0.00     0.077 C 
ATOM      2  C1' PXY d   1      -0.714   1.138  -2.348  0.00  0.00     0.077 C 
ATOM      3  C1  PXY d   1      -0.299   0.533  -1.022  0.00  0.00    -0.082 A 
ATOM      4  C2  PXY d   1       0.971   0.229  -0.810  0.00  0.00     0.003 A 
ATOM      5  C3  PXY d   1       1.359  -0.349   0.371  0.00  0.00     0.003 A 
ATOM      6  C4  PXY d   1       0.445  -0.569   1.367  0.00  0.00    -0.082 A 
ATOM      7  C5  PXY d   1      -0.851  -0.252   1.163  0.00  0.00     0.003 A 
ATOM      8  C6  PXY d   1      -1.231   0.295  -0.059  0.00  0.00     0.003 A 
ENDROOT
TORSDOF 0
ENDMDL
