MODEL 1
REMARK minimizedAffinity -3.26001954
REMARK minimizedRMSD -1
REMARK  0 active torsions:
REMARK  status: ('A' for Active; 'I' for Inactive)
ROOT
ATOM      1  C4' PXY d   1      -0.518   1.381  -2.058  0.00  0.00     0.077 C 
ATOM      2  C1' PXY d   1       0.854  -0.736   3.142  0.00  0.00     0.077 C 
ATOM      3  C1  PXY d   1       0.503  -0.189   1.773  0.00  0.00    -0.082 A 
ATOM      4  C2  PXY d   1      -0.028   1.018   1.667  0.00  0.00     0.003 A 
ATOM      5  C3  PXY d   1      -0.381   1.516   0.440  0.00  0.00     0.003 A 
ATOM      6  C4  PXY d   1      -0.139   0.792  -0.697  0.00  0.00    -0.082 A 
ATOM      7  C5  PXY d   1       0.412  -0.436  -0.599  0.00  0.00     0.003 A 
ATOM      8  C6  PXY d   1       0.726  -0.940   0.660  0.00  0.00     0.003 A 
ENDROOT
TORSDOF 0
ENDMDL
