MODEL 1
REMARK minimizedAffinity 3.65465879
REMARK minimizedRMSD -1
REMARK  0 active torsions:
REMARK  status: ('A' for Active; 'I' for Inactive)
ROOT
ATOM      1  C   UNL d   1      -3.755  -3.147  -3.036  0.00  0.00     0.172 C 
ATOM      2  N   UNL d   1      -3.162  -1.850  -3.260  0.00  0.00    -0.070 N 
ATOM      3  C1  UNL d   1      -1.924  -1.452  -2.829  0.00  0.00    -0.004 A 
ATOM      4  C2  UNL d   1      -1.730  -0.152  -3.243  0.00  0.00    -0.047 A 
ATOM      5  C3  UNL d   1      -2.891   0.245  -3.948  0.00  0.00    -0.047 A 
ATOM      6  C4  UNL d   1      -3.761  -0.824  -3.943  0.00  0.00    -0.004 A 
ENDROOT
TORSDOF 0
ENDMDL
