MODEL 1
REMARK minimizedAffinity 13.8339767
REMARK minimizedRMSD -1
REMARK  0 active torsions:
REMARK  status: ('A' for Active; 'I' for Inactive)
ROOT
ATOM      1  C   UNL d   1      -3.348   3.066  -3.779  0.00  0.00     0.172 C 
ATOM      2  N   UNL d   1      -2.933   1.748  -3.359  0.00  0.00    -0.070 N 
ATOM      3  C1  UNL d   1      -2.755   0.667  -4.180  0.00  0.00    -0.004 A 
ATOM      4  C2  UNL d   1      -2.359  -0.397  -3.399  0.00  0.00    -0.047 A 
ATOM      5  C3  UNL d   1      -2.298   0.060  -2.061  0.00  0.00    -0.047 A 
ATOM      6  C4  UNL d   1      -2.659   1.391  -2.065  0.00  0.00    -0.004 A 
ENDROOT
TORSDOF 0
ENDMDL
