MODEL 1
REMARK minimizedAffinity 3.96607518
REMARK minimizedRMSD -1
REMARK  0 active torsions:
REMARK  status: ('A' for Active; 'I' for Inactive)
ROOT
ATOM      1  C   UNL d   1      -3.343   2.672  -3.344  0.00  0.00     0.172 C 
ATOM      2  N   UNL d   1      -2.877   1.369  -2.933  0.00  0.00    -0.070 N 
ATOM      3  C1  UNL d   1      -2.672   0.297  -3.761  0.00  0.00    -0.004 A 
ATOM      4  C2  UNL d   1      -2.228  -0.754  -2.988  0.00  0.00    -0.047 A 
ATOM      5  C3  UNL d   1      -2.164  -0.298  -1.649  0.00  0.00    -0.047 A 
ATOM      6  C4  UNL d   1      -2.571   1.019  -1.644  0.00  0.00    -0.004 A 
ENDROOT
TORSDOF 0
ENDMDL
