MODEL 1
REMARK minimizedAffinity 2.24087858
REMARK minimizedRMSD -1
REMARK  0 active torsions:
REMARK  status: ('A' for Active; 'I' for Inactive)
ROOT
ATOM      1  C   UNL d   1      -3.264   2.961  -4.132  0.00  0.00     0.172 C 
ATOM      2  N   UNL d   1      -2.941   1.629  -3.677  0.00  0.00    -0.070 N 
ATOM      3  C1  UNL d   1      -2.833   0.518  -4.471  0.00  0.00    -0.004 A 
ATOM      4  C2  UNL d   1      -2.512  -0.550  -3.661  0.00  0.00    -0.047 A 
ATOM      5  C3  UNL d   1      -2.425  -0.064  -2.335  0.00  0.00    -0.047 A 
ATOM      6  C4  UNL d   1      -2.695   1.287  -2.373  0.00  0.00    -0.004 A 
ENDROOT
TORSDOF 0
ENDMDL
