MODEL 1
REMARK minimizedAffinity 6.3713665
REMARK minimizedRMSD -1
REMARK  0 active torsions:
REMARK  status: ('A' for Active; 'I' for Inactive)
ROOT
ATOM      1  C   UNL d   1       5.219  -5.999  -5.989  0.00  0.00     0.172 C 
ATOM      2  N   UNL d   1       4.136  -5.221  -5.434  0.00  0.00    -0.070 N 
ATOM      3  C1  UNL d   1       3.469  -5.499  -4.271  0.00  0.00    -0.004 A 
ATOM      4  C2  UNL d   1       2.512  -4.523  -4.091  0.00  0.00    -0.047 A 
ATOM      5  C3  UNL d   1       2.607  -3.629  -5.183  0.00  0.00    -0.047 A 
ATOM      6  C4  UNL d   1       3.621  -4.085  -6.000  0.00  0.00    -0.004 A 
ENDROOT
TORSDOF 0
ENDMDL
