MODEL 1
REMARK minimizedAffinity 5.4990449
REMARK minimizedRMSD -1
REMARK  0 active torsions:
REMARK  status: ('A' for Active; 'I' for Inactive)
ROOT
ATOM      1  C   UNL d   1       1.508  -1.494   4.035  0.00  0.00     0.172 C 
ATOM      2  N   UNL d   1       0.795  -2.274   3.050  0.00  0.00    -0.070 N 
ATOM      3  C1  UNL d   1      -0.444  -1.982   2.545  0.00  0.00    -0.004 A 
ATOM      4  C2  UNL d   1      -0.770  -2.964   1.635  0.00  0.00    -0.047 A 
ATOM      5  C3  UNL d   1       0.309  -3.878   1.592  0.00  0.00    -0.047 A 
ATOM      6  C4  UNL d   1       1.265  -3.426   2.478  0.00  0.00    -0.004 A 
ENDROOT
TORSDOF 0
ENDMDL
