MODEL 1
REMARK minimizedAffinity 1.85678911
REMARK minimizedRMSD -1
REMARK  0 active torsions:
REMARK  status: ('A' for Active; 'I' for Inactive)
ROOT
ATOM      1  C   UNL d   1      -2.166  -0.739   0.096  0.00  0.00     0.172 C 
ATOM      2  N   UNL d   1      -2.447  -0.439  -1.289  0.00  0.00    -0.070 N 
ATOM      3  C1  UNL d   1      -2.317  -1.311  -2.336  0.00  0.00    -0.004 A 
ATOM      4  C2  UNL d   1      -2.681  -0.646  -3.487  0.00  0.00    -0.047 A 
ATOM      5  C3  UNL d   1      -3.042   0.672  -3.118  0.00  0.00    -0.047 A 
ATOM      6  C4  UNL d   1      -2.888   0.772  -1.752  0.00  0.00    -0.004 A 
ENDROOT
TORSDOF 0
ENDMDL
