MODEL 1
REMARK minimizedAffinity 8.17451668
REMARK minimizedRMSD -1
REMARK  0 active torsions:
REMARK  status: ('A' for Active; 'I' for Inactive)
ROOT
ATOM      1  C   UNL d   1       1.784   4.830   0.012  0.00  0.00     0.172 C 
ATOM      2  N   UNL d   1       3.199   5.115  -0.042  0.00  0.00    -0.070 N 
ATOM      3  C1  UNL d   1       4.158   4.551   0.756  0.00  0.00    -0.004 A 
ATOM      4  C2  UNL d   1       5.376   5.083   0.393  0.00  0.00    -0.047 A 
ATOM      5  C3  UNL d   1       5.141   6.000  -0.659  0.00  0.00    -0.047 A 
ATOM      6  C4  UNL d   1       3.785   6.000  -0.908  0.00  0.00    -0.004 A 
ENDROOT
TORSDOF 0
ENDMDL
