MODEL 1
REMARK minimizedAffinity -1.5794431
REMARK minimizedRMSD -1
REMARK  0 active torsions:
REMARK  status: ('A' for Active; 'I' for Inactive)
ROOT
ATOM      1  C   UNL d   1       0.538  -0.336   0.054  0.00  0.00     0.172 C 
ATOM      2  N   UNL d   1       1.177  -0.913   1.214  0.00  0.00    -0.070 N 
ATOM      3  C1  UNL d   1       0.859  -2.115   1.786  0.00  0.00    -0.004 A 
ATOM      4  C2  UNL d   1       1.695  -2.304   2.865  0.00  0.00    -0.047 A 
ATOM      5  C3  UNL d   1       2.545  -1.175   2.945  0.00  0.00    -0.047 A 
ATOM      6  C4  UNL d   1       2.203  -0.330   1.911  0.00  0.00    -0.004 A 
ENDROOT
TORSDOF 0
ENDMDL
