MODEL 1
REMARK minimizedAffinity 1.35563564
REMARK minimizedRMSD -1
REMARK  0 active torsions:
REMARK  status: ('A' for Active; 'I' for Inactive)
ROOT
ATOM      1  C   UNL d   1      -3.086   1.816  -2.531  0.00  0.00     0.172 C 
ATOM      2  N   UNL d   1      -2.313   0.679  -2.973  0.00  0.00    -0.070 N 
ATOM      3  C1  UNL d   1      -2.201   0.244  -4.266  0.00  0.00    -0.004 A 
ATOM      4  C2  UNL d   1      -1.379  -0.862  -4.270  0.00  0.00    -0.047 A 
ATOM      5  C3  UNL d   1      -0.983  -1.099  -2.932  0.00  0.00    -0.047 A 
ATOM      6  C4  UNL d   1      -1.575  -0.131  -2.150  0.00  0.00    -0.004 A 
ENDROOT
TORSDOF 0
ENDMDL
