MODEL 1
REMARK minimizedAffinity 5.32116985
REMARK minimizedRMSD -1
REMARK  0 active torsions:
REMARK  status: ('A' for Active; 'I' for Inactive)
ROOT
ATOM      1  C   UNL d   1      -3.010  -2.489  -3.111  0.00  0.00     0.172 C 
ATOM      2  N   UNL d   1      -2.666  -1.096  -3.276  0.00  0.00    -0.070 N 
ATOM      3  C1  UNL d   1      -3.168  -0.259  -4.236  0.00  0.00    -0.004 A 
ATOM      4  C2  UNL d   1      -2.594   0.981  -4.056  0.00  0.00    -0.047 A 
ATOM      5  C3  UNL d   1      -1.716   0.885  -2.951  0.00  0.00    -0.047 A 
ATOM      6  C4  UNL d   1      -1.780  -0.412  -2.487  0.00  0.00    -0.004 A 
ENDROOT
TORSDOF 0
ENDMDL
