MODEL 1
REMARK minimizedAffinity -1.07228541
REMARK minimizedRMSD -1
REMARK  0 active torsions:
REMARK  status: ('A' for Active; 'I' for Inactive)
ROOT
ATOM      1  C   UNL d   1       2.517   1.491   5.134  0.00  0.00     0.172 C 
ATOM      2  N   UNL d   1       2.301   0.271   4.392  0.00  0.00    -0.070 N 
ATOM      3  C1  UNL d   1       2.247  -0.989   4.927  0.00  0.00    -0.004 A 
ATOM      4  C2  UNL d   1       2.025  -1.875   3.895  0.00  0.00    -0.047 A 
ATOM      5  C3  UNL d   1       1.943  -1.123   2.700  0.00  0.00    -0.047 A 
ATOM      6  C4  UNL d   1       2.117   0.203   3.036  0.00  0.00    -0.004 A 
ENDROOT
TORSDOF 0
ENDMDL
