MODEL 1
REMARK minimizedAffinity 0.0230864901
REMARK minimizedRMSD -1
REMARK  0 active torsions:
REMARK  status: ('A' for Active; 'I' for Inactive)
ROOT
ATOM      1  C   UNL d   1      -0.562  -0.023  -2.830  0.00  0.00     0.172 C 
ATOM      2  N   UNL d   1      -1.707  -0.746  -3.332  0.00  0.00    -0.070 N 
ATOM      3  C1  UNL d   1      -1.701  -1.613  -4.392  0.00  0.00    -0.004 A 
ATOM      4  C2  UNL d   1      -2.982  -2.094  -4.552  0.00  0.00    -0.047 A 
ATOM      5  C3  UNL d   1      -3.787  -1.495  -3.553  0.00  0.00    -0.047 A 
ATOM      6  C4  UNL d   1      -2.972  -0.665  -2.812  0.00  0.00    -0.004 A 
ENDROOT
TORSDOF 0
ENDMDL
