MODEL 1
REMARK minimizedAffinity 10.744441
REMARK minimizedRMSD -1
REMARK  3 active torsions:
REMARK  status: ('A' for Active; 'I' for Inactive)
REMARK    1  A    between atoms: C3'_2  and  C2'_3 
REMARK    2  A    between atoms: C2'_3  and  C1'_4 
REMARK    3  A    between atoms: C1'_4  and  C1_5 
ROOT
ATOM      1  C1  N4B d   1       2.241   2.124   1.663  0.00  0.00    -0.075 A 
ATOM      2  C2  N4B d   1       0.988   1.685   2.145  0.00  0.00     0.002 A 
ATOM      3  C3  N4B d   1      -0.167   2.093   1.524  0.00  0.00     0.002 A 
ATOM      4  C4  N4B d   1      -0.096   2.952   0.438  0.00  0.00    -0.004 A 
ATOM      5  C5  N4B d   1       1.120   3.351  -0.037  0.00  0.00     0.002 A 
ATOM      6  C6  N4B d   1       2.289   2.946   0.574  0.00  0.00     0.002 A 
ENDROOT
BRANCH   1   7
ATOM      7  C1' N4B d   1       3.527   1.774   2.360  0.00  0.00     0.057 C 
BRANCH   7   8
ATOM      8  C2' N4B d   1       3.440   2.208   3.821  0.00  0.00     0.009 C 
BRANCH   8   9
ATOM      9  C3' N4B d   1       4.529   3.202   4.184  0.00  0.00     0.004 C 
ATOM     10  C4' N4B d   1       5.897   2.587   4.191  0.00  0.00     0.003 C 
ENDBRANCH   8   9
ENDBRANCH   7   8
ENDBRANCH   1   7
TORSDOF 3
ENDMDL
