MODEL 1
REMARK minimizedAffinity 8.97737885
REMARK minimizedRMSD -1
REMARK  3 active torsions:
REMARK  status: ('A' for Active; 'I' for Inactive)
REMARK    1  A    between atoms: C3'_2  and  C2'_3 
REMARK    2  A    between atoms: C2'_3  and  C1'_4 
REMARK    3  A    between atoms: C1'_4  and  C1_5 
ROOT
ATOM      1  C1  N4B d   1       3.611  -5.906  -5.230  0.00  0.00    -0.075 A 
ATOM      2  C2  N4B d   1       3.500  -5.764  -3.830  0.00  0.00     0.002 A 
ATOM      3  C3  N4B d   1       2.261  -5.663  -3.246  0.00  0.00     0.002 A 
ATOM      4  C4  N4B d   1       1.125  -5.683  -4.041  0.00  0.00    -0.004 A 
ATOM      5  C5  N4B d   1       1.240  -5.846  -5.390  0.00  0.00     0.002 A 
ATOM      6  C6  N4B d   1       2.479  -5.953  -5.990  0.00  0.00     0.002 A 
ENDROOT
BRANCH   1   7
ATOM      7  C1' N4B d   1       4.947  -5.934  -5.922  0.00  0.00     0.057 C 
BRANCH   7   8
ATOM      8  C2' N4B d   1       5.990  -5.274  -5.025  0.00  0.00     0.009 C 
BRANCH   8   9
ATOM      9  C3' N4B d   1       6.000  -3.764  -5.181  0.00  0.00     0.004 C 
ATOM     10  C4' N4B d   1       5.954  -3.043  -3.866  0.00  0.00     0.003 C 
ENDBRANCH   8   9
ENDBRANCH   7   8
ENDBRANCH   1   7
TORSDOF 3
ENDMDL
