MODEL 1
REMARK minimizedAffinity 9.71734047
REMARK minimizedRMSD -1
REMARK  3 active torsions:
REMARK  status: ('A' for Active; 'I' for Inactive)
REMARK    1  A    between atoms: C3'_2  and  C2'_3 
REMARK    2  A    between atoms: C2'_3  and  C1'_4 
REMARK    3  A    between atoms: C1'_4  and  C1_5 
ROOT
ATOM      1  C1  N4B d   1       4.855   2.285   1.126  0.00  0.00    -0.075 A 
ATOM      2  C2  N4B d   1       5.394   2.070   2.413  0.00  0.00     0.002 A 
ATOM      3  C3  N4B d   1       4.569   1.722   3.454  0.00  0.00     0.002 A 
ATOM      4  C4  N4B d   1       3.205   1.601   3.236  0.00  0.00    -0.004 A 
ATOM      5  C5  N4B d   1       2.695   1.786   1.985  0.00  0.00     0.002 A 
ATOM      6  C6  N4B d   1       3.513   2.132   0.928  0.00  0.00     0.002 A 
ENDROOT
BRANCH   1   7
ATOM      7  C1' N4B d   1       5.706   2.751  -0.024  0.00  0.00     0.057 C 
BRANCH   7   8
ATOM      8  C2' N4B d   1       4.916   2.608  -1.322  0.00  0.00     0.009 C 
BRANCH   8   9
ATOM      9  C3' N4B d   1       5.807   2.732  -2.546  0.00  0.00     0.004 C 
ATOM     10  C4' N4B d   1       5.294   3.733  -3.538  0.00  0.00     0.003 C 
ENDBRANCH   8   9
ENDBRANCH   7   8
ENDBRANCH   1   7
TORSDOF 3
ENDMDL
