MODEL 1
REMARK minimizedAffinity 9.86863327
REMARK minimizedRMSD -1
REMARK  3 active torsions:
REMARK  status: ('A' for Active; 'I' for Inactive)
REMARK    1  A    between atoms: C3'_2  and  C2'_3 
REMARK    2  A    between atoms: C2'_3  and  C1'_4 
REMARK    3  A    between atoms: C1'_4  and  C1_5 
ROOT
ATOM      1  C1  N4B d   1       2.378   2.661   0.771  0.00  0.00    -0.075 A 
ATOM      2  C2  N4B d   1       2.536   2.213   2.101  0.00  0.00     0.002 A 
ATOM      3  C3  N4B d   1       1.431   1.967   2.879  0.00  0.00     0.002 A 
ATOM      4  C4  N4B d   1       0.164   2.179   2.357  0.00  0.00    -0.004 A 
ATOM      5  C5  N4B d   1       0.020   2.587   1.063  0.00  0.00     0.002 A 
ATOM      6  C6  N4B d   1       1.121   2.834   0.269  0.00  0.00     0.002 A 
ENDROOT
BRANCH   1   7
ATOM      7  C1' N4B d   1       3.557   3.025  -0.089  0.00  0.00     0.057 C 
BRANCH   7   8
ATOM      8  C2' N4B d   1       3.691   2.002  -1.214  0.00  0.00     0.009 C 
BRANCH   8   9
ATOM      9  C3' N4B d   1       4.390   2.584  -2.431  0.00  0.00     0.004 C 
ATOM     10  C4' N4B d   1       3.781   2.129  -3.723  0.00  0.00     0.003 C 
ENDBRANCH   8   9
ENDBRANCH   7   8
ENDBRANCH   1   7
TORSDOF 3
ENDMDL
