MODEL 1
REMARK minimizedAffinity 6.85015297
REMARK minimizedRMSD -1
REMARK  3 active torsions:
REMARK  status: ('A' for Active; 'I' for Inactive)
REMARK    1  A    between atoms: C3'_2  and  C2'_3 
REMARK    2  A    between atoms: C2'_3  and  C1'_4 
REMARK    3  A    between atoms: C1'_4  and  C1_5 
ROOT
ATOM      1  C1  N4B d   1       0.267   2.155   1.898  0.00  0.00    -0.075 A 
ATOM      2  C2  N4B d   1       1.185   2.012   2.961  0.00  0.00     0.002 A 
ATOM      3  C3  N4B d   1       2.493   1.683   2.699  0.00  0.00     0.002 A 
ATOM      4  C4  N4B d   1       2.899   1.476   1.389  0.00  0.00    -0.004 A 
ATOM      5  C5  N4B d   1       2.011   1.641   0.366  0.00  0.00     0.002 A 
ATOM      6  C6  N4B d   1       0.695   1.975   0.614  0.00  0.00     0.002 A 
ENDROOT
BRANCH   1   7
ATOM      7  C1' N4B d   1      -1.192   2.429   2.140  0.00  0.00     0.057 C 
BRANCH   7   8
ATOM      8  C2' N4B d   1      -1.857   2.807   0.820  0.00  0.00     0.009 C 
BRANCH   8   9
ATOM      9  C3' N4B d   1      -3.283   3.292   1.020  0.00  0.00     0.004 C 
ATOM     10  C4' N4B d   1      -4.297   2.399   0.368  0.00  0.00     0.003 C 
ENDBRANCH   8   9
ENDBRANCH   7   8
ENDBRANCH   1   7
TORSDOF 3
ENDMDL
