MODEL 1
REMARK minimizedAffinity 2.62397671
REMARK minimizedRMSD -1
REMARK  3 active torsions:
REMARK  status: ('A' for Active; 'I' for Inactive)
REMARK    1  A    between atoms: C3'_2  and  C2'_3 
REMARK    2  A    between atoms: C2'_3  and  C1'_4 
REMARK    3  A    between atoms: C1'_4  and  C1_5 
ROOT
ATOM      1  C1  N4B d   1       2.106   2.144   1.565  0.00  0.00    -0.075 A 
ATOM      2  C2  N4B d   1       3.071   2.980   0.962  0.00  0.00     0.002 A 
ATOM      3  C3  N4B d   1       4.126   3.455   1.701  0.00  0.00     0.002 A 
ATOM      4  C4  N4B d   1       4.227   3.125   3.044  0.00  0.00    -0.004 A 
ATOM      5  C5  N4B d   1       3.304   2.296   3.613  0.00  0.00     0.002 A 
ATOM      6  C6  N4B d   1       2.241   1.807   2.881  0.00  0.00     0.002 A 
ENDROOT
BRANCH   1   7
ATOM      7  C1' N4B d   1       0.888   1.670   0.820  0.00  0.00     0.057 C 
BRANCH   7   8
ATOM      8  C2' N4B d   1      -0.140   2.796   0.773  0.00  0.00     0.009 C 
BRANCH   8   9
ATOM      9  C3' N4B d   1      -1.440   2.408   1.456  0.00  0.00     0.004 C 
ATOM     10  C4' N4B d   1      -1.510   2.877   2.879  0.00  0.00     0.003 C 
ENDBRANCH   8   9
ENDBRANCH   7   8
ENDBRANCH   1   7
TORSDOF 3
ENDMDL
