MODEL 1
REMARK minimizedAffinity 15.6155233
REMARK minimizedRMSD -1
REMARK  3 active torsions:
REMARK  status: ('A' for Active; 'I' for Inactive)
REMARK    1  A    between atoms: C3'_2  and  C2'_3 
REMARK    2  A    between atoms: C2'_3  and  C1'_4 
REMARK    3  A    between atoms: C1'_4  and  C1_5 
ROOT
ATOM      1  C1  N4B d   1       0.347   2.675   1.202  0.00  0.00    -0.075 A 
ATOM      2  C2  N4B d   1       0.896   3.842   0.626  0.00  0.00     0.002 A 
ATOM      3  C3  N4B d   1       2.254   3.952   0.459  0.00  0.00     0.002 A 
ATOM      4  C4  N4B d   1       3.082   2.920   0.876  0.00  0.00    -0.004 A 
ATOM      5  C5  N4B d   1       2.542   1.786   1.408  0.00  0.00     0.002 A 
ATOM      6  C6  N4B d   1       1.178   1.660   1.578  0.00  0.00     0.002 A 
ENDROOT
BRANCH   1   7
ATOM      7  C1' N4B d   1      -1.125   2.545   1.483  0.00  0.00     0.057 C 
BRANCH   7   8
ATOM      8  C2' N4B d   1      -1.355   1.352   2.406  0.00  0.00     0.009 C 
BRANCH   8   9
ATOM      9  C3' N4B d   1      -2.259   1.705   3.575  0.00  0.00     0.004 C 
ATOM     10  C4' N4B d   1      -2.021   3.091   4.096  0.00  0.00     0.003 C 
ENDBRANCH   8   9
ENDBRANCH   7   8
ENDBRANCH   1   7
TORSDOF 3
ENDMDL
