MODEL 1
REMARK minimizedAffinity 11.3832636
REMARK minimizedRMSD -1
REMARK  3 active torsions:
REMARK  status: ('A' for Active; 'I' for Inactive)
REMARK    1  A    between atoms: C3'_2  and  C2'_3 
REMARK    2  A    between atoms: C2'_3  and  C1'_4 
REMARK    3  A    between atoms: C1'_4  and  C1_5 
ROOT
ATOM      1  C1  N4B d   1       3.300   1.249   3.745  0.00  0.00    -0.075 A 
ATOM      2  C2  N4B d   1       3.725   1.482   2.418  0.00  0.00     0.002 A 
ATOM      3  C3  N4B d   1       2.810   1.475   1.394  0.00  0.00     0.002 A 
ATOM      4  C4  N4B d   1       1.475   1.220   1.668  0.00  0.00    -0.004 A 
ATOM      5  C5  N4B d   1       1.069   1.022   2.955  0.00  0.00     0.002 A 
ATOM      6  C6  N4B d   1       1.977   1.030   3.995  0.00  0.00     0.002 A 
ENDROOT
BRANCH   1   7
ATOM      7  C1' N4B d   1       4.276   1.162   4.887  0.00  0.00     0.057 C 
BRANCH   7   8
ATOM      8  C2' N4B d   1       5.121   2.431   4.922  0.00  0.00     0.009 C 
BRANCH   8   9
ATOM      9  C3' N4B d   1       4.652   3.397   5.997  0.00  0.00     0.004 C 
ATOM     10  C4' N4B d   1       5.417   4.687   5.992  0.00  0.00     0.003 C 
ENDBRANCH   8   9
ENDBRANCH   7   8
ENDBRANCH   1   7
TORSDOF 3
ENDMDL
