MODEL 1
REMARK minimizedAffinity 4.52294064
REMARK minimizedRMSD -1
REMARK  3 active torsions:
REMARK  status: ('A' for Active; 'I' for Inactive)
REMARK    1  A    between atoms: C3'_2  and  C2'_3 
REMARK    2  A    between atoms: C2'_3  and  C1'_4 
REMARK    3  A    between atoms: C1'_4  and  C1_5 
ROOT
ATOM      1  C1  N4B d   1       1.524   3.196  -3.526  0.00  0.00    -0.075 A 
ATOM      2  C2  N4B d   1       0.320   2.783  -4.138  0.00  0.00     0.002 A 
ATOM      3  C3  N4B d   1      -0.822   3.530  -3.982  0.00  0.00     0.002 A 
ATOM      4  C4  N4B d   1      -0.789   4.678  -3.205  0.00  0.00    -0.004 A 
ATOM      5  C5  N4B d   1       0.384   5.084  -2.638  0.00  0.00     0.002 A 
ATOM      6  C6  N4B d   1       1.540   4.346  -2.790  0.00  0.00     0.002 A 
ENDROOT
BRANCH   1   7
ATOM      7  C1' N4B d   1       2.777   2.367  -3.598  0.00  0.00     0.057 C 
BRANCH   7   8
ATOM      8  C2' N4B d   1       2.506   0.997  -2.983  0.00  0.00     0.009 C 
BRANCH   8   9
ATOM      9  C3' N4B d   1       3.196   0.831  -1.640  0.00  0.00     0.004 C 
ATOM     10  C4' N4B d   1       2.281   1.090  -0.480  0.00  0.00     0.003 C 
ENDBRANCH   8   9
ENDBRANCH   7   8
ENDBRANCH   1   7
TORSDOF 3
ENDMDL
