MODEL 1
REMARK minimizedAffinity 5.80947733
REMARK minimizedRMSD -1
REMARK  3 active torsions:
REMARK  status: ('A' for Active; 'I' for Inactive)
REMARK    1  A    between atoms: C3'_2  and  C2'_3 
REMARK    2  A    between atoms: C2'_3  and  C1'_4 
REMARK    3  A    between atoms: C1'_4  and  C1_5 
ROOT
ATOM      1  C1  N4B d   1       4.900   3.363   4.491  0.00  0.00    -0.075 A 
ATOM      2  C2  N4B d   1       5.612   3.666   5.672  0.00  0.00     0.002 A 
ATOM      3  C3  N4B d   1       5.873   4.974   6.000  0.00  0.00     0.002 A 
ATOM      4  C4  N4B d   1       5.449   5.990   5.156  0.00  0.00    -0.004 A 
ATOM      5  C5  N4B d   1       4.739   5.690   4.030  0.00  0.00     0.002 A 
ATOM      6  C6  N4B d   1       4.467   4.380   3.691  0.00  0.00     0.002 A 
ENDROOT
BRANCH   1   7
ATOM      7  C1' N4B d   1       4.666   1.945   4.047  0.00  0.00     0.057 C 
BRANCH   7   8
ATOM      8  C2' N4B d   1       3.316   1.857   3.342  0.00  0.00     0.009 C 
BRANCH   8   9
ATOM      9  C3' N4B d   1       3.421   1.156   1.998  0.00  0.00     0.004 C 
ATOM     10  C4' N4B d   1       2.161   1.257   1.191  0.00  0.00     0.003 C 
ENDBRANCH   8   9
ENDBRANCH   7   8
ENDBRANCH   1   7
TORSDOF 3
ENDMDL
