MODEL 1
REMARK minimizedAffinity -4.47467375
REMARK minimizedRMSD -1
REMARK  3 active torsions:
REMARK  status: ('A' for Active; 'I' for Inactive)
REMARK    1  A    between atoms: C3'_2  and  C2'_3 
REMARK    2  A    between atoms: C2'_3  and  C1'_4 
REMARK    3  A    between atoms: C1'_4  and  C1_5 
ROOT
ATOM      1  C1  N4B d   1       2.146   2.804  -4.782  0.00  0.00    -0.075 A 
ATOM      2  C2  N4B d   1       1.271   3.011  -5.871  0.00  0.00     0.002 A 
ATOM      3  C3  N4B d   1       0.054   2.375  -5.903  0.00  0.00     0.002 A 
ATOM      4  C4  N4B d   1      -0.300   1.518  -4.872  0.00  0.00    -0.004 A 
ATOM      5  C5  N4B d   1       0.540   1.344  -3.811  0.00  0.00     0.002 A 
ATOM      6  C6  N4B d   1       1.765   1.979  -3.763  0.00  0.00     0.002 A 
ENDROOT
BRANCH   1   7
ATOM      7  C1' N4B d   1       3.523   3.410  -4.743  0.00  0.00     0.057 C 
BRANCH   7   8
ATOM      8  C2' N4B d   1       4.286   2.998  -5.998  0.00  0.00     0.009 C 
BRANCH   8   9
ATOM      9  C3' N4B d   1       5.738   3.444  -5.953  0.00  0.00     0.004 C 
ATOM     10  C4' N4B d   1       6.000   4.459  -4.881  0.00  0.00     0.003 C 
ENDBRANCH   8   9
ENDBRANCH   7   8
ENDBRANCH   1   7
TORSDOF 3
ENDMDL
