MODEL 1
REMARK minimizedAffinity 5.52067804
REMARK minimizedRMSD -1
REMARK  3 active torsions:
REMARK  status: ('A' for Active; 'I' for Inactive)
REMARK    1  A    between atoms: C3'_2  and  C2'_3 
REMARK    2  A    between atoms: C2'_3  and  C1'_4 
REMARK    3  A    between atoms: C1'_4  and  C1_5 
ROOT
ATOM      1  C1  N4B d   1       4.529   5.940   3.257  0.00  0.00    -0.075 A 
ATOM      2  C2  N4B d   1       3.432   5.928   4.147  0.00  0.00     0.002 A 
ATOM      3  C3  N4B d   1       3.648   5.939   5.503  0.00  0.00     0.002 A 
ATOM      4  C4  N4B d   1       4.947   5.944   5.991  0.00  0.00    -0.004 A 
ATOM      5  C5  N4B d   1       6.000   5.982   5.125  0.00  0.00     0.002 A 
ATOM      6  C6  N4B d   1       5.797   5.974   3.759  0.00  0.00     0.002 A 
ENDROOT
BRANCH   1   7
ATOM      7  C1' N4B d   1       4.344   5.841   1.768  0.00  0.00     0.057 C 
BRANCH   7   8
ATOM      8  C2' N4B d   1       5.700   5.987   1.084  0.00  0.00     0.009 C 
BRANCH   8   9
ATOM      9  C3' N4B d   1       5.921   4.919   0.026  0.00  0.00     0.004 C 
ATOM     10  C4' N4B d   1       5.580   3.542   0.512  0.00  0.00     0.003 C 
ENDBRANCH   8   9
ENDBRANCH   7   8
ENDBRANCH   1   7
TORSDOF 3
ENDMDL
