MODEL 1
REMARK minimizedAffinity 12.6846428
REMARK minimizedRMSD -1
REMARK  3 active torsions:
REMARK  status: ('A' for Active; 'I' for Inactive)
REMARK    1  A    between atoms: C3'_2  and  C2'_3 
REMARK    2  A    between atoms: C2'_3  and  C1'_4 
REMARK    3  A    between atoms: C1'_4  and  C1_5 
ROOT
ATOM      1  C1  N4B d   1      -0.239   2.667   0.020  0.00  0.00    -0.075 A 
ATOM      2  C2  N4B d   1      -1.328   2.842   0.902  0.00  0.00     0.002 A 
ATOM      3  C3  N4B d   1      -1.215   2.458   2.216  0.00  0.00     0.002 A 
ATOM      4  C4  N4B d   1      -0.036   1.881   2.664  0.00  0.00    -0.004 A 
ATOM      5  C5  N4B d   1       1.019   1.739   1.811  0.00  0.00     0.002 A 
ATOM      6  C6  N4B d   1       0.922   2.124   0.489  0.00  0.00     0.002 A 
ENDROOT
BRANCH   1   7
ATOM      7  C1' N4B d   1      -0.344   2.992  -1.445  0.00  0.00     0.057 C 
BRANCH   7   8
ATOM      8  C2' N4B d   1       0.067   1.769  -2.260  0.00  0.00     0.009 C 
BRANCH   8   9
ATOM      9  C3' N4B d   1       0.662   2.155  -3.604  0.00  0.00     0.004 C 
ATOM     10  C4' N4B d   1       2.009   1.541  -3.841  0.00  0.00     0.003 C 
ENDBRANCH   8   9
ENDBRANCH   7   8
ENDBRANCH   1   7
TORSDOF 3
ENDMDL
