MODEL 1
REMARK minimizedAffinity 14.9061317
REMARK minimizedRMSD -1
REMARK  0 active torsions:
REMARK  status: ('A' for Active; 'I' for Inactive)
ROOT
ATOM      1  C   UNL d   1      -2.653   5.683   1.191  0.00  0.00    -0.002 A 
ATOM      2  C1  UNL d   1      -3.575   4.652   1.076  0.00  0.00     0.010 A 
ATOM      3  C2  UNL d   1      -3.148   3.332   0.913  0.00  0.00     0.041 A 
ATOM      4  C3  UNL d   1      -1.766   3.063   0.869  0.00  0.00    -0.075 A 
ATOM      5  S   UNL d   1      -1.012   1.525   0.677  0.00  0.00     0.015 SA
ATOM      6  C4  UNL d   1       0.551   2.199   0.744  0.00  0.00     0.022 A 
ATOM      7  C5  UNL d   1       0.518   3.563   0.908  0.00  0.00     0.026 A 
ATOM      8  C6  UNL d   1      -0.818   4.084   0.983  0.00  0.00    -0.082 A 
ATOM      9  C7  UNL d   1      -1.282   5.412   1.147  0.00  0.00     0.045 A 
ENDROOT
TORSDOF 0
ENDMDL
