MODEL 1
REMARK minimizedAffinity 16.538063
REMARK minimizedRMSD -1
REMARK  0 active torsions:
REMARK  status: ('A' for Active; 'I' for Inactive)
ROOT
ATOM      1  C   UNL d   1      -5.984  -5.967  -5.269  0.00  0.00    -0.002 A 
ATOM      2  C1  UNL d   1      -5.924  -5.958  -3.883  0.00  0.00     0.010 A 
ATOM      3  C2  UNL d   1      -5.740  -4.761  -3.188  0.00  0.00     0.041 A 
ATOM      4  C3  UNL d   1      -5.619  -3.562  -3.916  0.00  0.00    -0.075 A 
ATOM      5  S   UNL d   1      -5.389  -1.977  -3.278  0.00  0.00     0.015 SA
ATOM      6  C4  UNL d   1      -5.367  -1.274  -4.831  0.00  0.00     0.022 A 
ATOM      7  C5  UNL d   1      -5.529  -2.211  -5.824  0.00  0.00     0.026 A 
ATOM      8  C6  UNL d   1      -5.678  -3.545  -5.313  0.00  0.00    -0.082 A 
ATOM      9  C7  UNL d   1      -5.864  -4.775  -5.989  0.00  0.00     0.045 A 
ENDROOT
TORSDOF 0
ENDMDL
