MODEL 1
REMARK minimizedAffinity 13.7872696
REMARK minimizedRMSD -1
REMARK  0 active torsions:
REMARK  status: ('A' for Active; 'I' for Inactive)
ROOT
ATOM      1  C   UNL d   1       1.841  -3.422   5.943  0.00  0.00    -0.002 A 
ATOM      2  C1  UNL d   1       1.049  -2.284   6.000  0.00  0.00     0.010 A 
ATOM      3  C2  UNL d   1       0.793  -1.538   4.848  0.00  0.00     0.041 A 
ATOM      4  C3  UNL d   1       1.351  -1.960   3.625  0.00  0.00    -0.075 A 
ATOM      5  S   UNL d   1       1.173  -1.205   2.085  0.00  0.00     0.015 SA
ATOM      6  C4  UNL d   1       2.143  -2.376   1.316  0.00  0.00     0.022 A 
ATOM      7  C5  UNL d   1       2.600  -3.327   2.197  0.00  0.00     0.026 A 
ATOM      8  C6  UNL d   1       2.151  -3.103   3.542  0.00  0.00    -0.082 A 
ATOM      9  C7  UNL d   1       2.392  -3.838   4.728  0.00  0.00     0.045 A 
ENDROOT
TORSDOF 0
ENDMDL
