MODEL 1
REMARK minimizedAffinity 11.5216656
REMARK minimizedRMSD -1
REMARK  0 active torsions:
REMARK  status: ('A' for Active; 'I' for Inactive)
ROOT
ATOM      1  C   UNL d   1       1.775  -3.479   6.000  0.00  0.00    -0.002 A 
ATOM      2  C1  UNL d   1       1.104  -2.265   5.957  0.00  0.00     0.010 A 
ATOM      3  C2  UNL d   1       0.933  -1.590   4.746  0.00  0.00     0.041 A 
ATOM      4  C3  UNL d   1       1.452  -2.162   3.568  0.00  0.00    -0.075 A 
ATOM      5  S   UNL d   1       1.362  -1.516   1.972  0.00  0.00     0.015 SA
ATOM      6  C4  UNL d   1       2.211  -2.837   1.309  0.00  0.00     0.022 A 
ATOM      7  C5  UNL d   1       2.563  -3.757   2.268  0.00  0.00     0.026 A 
ATOM      8  C6  UNL d   1       2.131  -3.384   3.586  0.00  0.00    -0.082 A 
ATOM      9  C7  UNL d   1       2.288  -4.043   4.828  0.00  0.00     0.045 A 
ENDROOT
TORSDOF 0
ENDMDL
