MODEL 1
REMARK minimizedAffinity 2.5730269
REMARK minimizedRMSD -1
REMARK  0 active torsions:
REMARK  status: ('A' for Active; 'I' for Inactive)
ROOT
ATOM      1  C   UNL d   1      -0.826  -0.015   1.591  0.00  0.00     0.023 A 
ATOM      2  C1  UNL d   1       0.359  -0.639   1.201  0.00  0.00     0.003 A 
ATOM      3  C2  UNL d   1       0.832  -0.487  -0.104  0.00  0.00     0.048 A 
ATOM      4  C3  UNL d   1       0.116   0.290  -1.013  0.00  0.00     0.023 A 
ATOM      5  C4  UNL d   1      -1.070   0.917  -0.627  0.00  0.00     0.048 A 
ATOM      6  C5  UNL d   1      -1.540   0.762   0.678  0.00  0.00     0.003 A 
ATOM      7  I   UNL d   1       0.819   0.517  -2.956  0.00  0.00    -0.146 I 
ENDROOT
TORSDOF 0
ENDMDL
