MODEL 1
REMARK minimizedAffinity 1.95201921
REMARK minimizedRMSD -1
REMARK  0 active torsions:
REMARK  status: ('A' for Active; 'I' for Inactive)
ROOT
ATOM      1  C   UNL d   1      -1.182   0.198   0.413  0.00  0.00     0.023 A 
ATOM      2  C1  UNL d   1      -0.100  -0.549  -0.053  0.00  0.00     0.003 A 
ATOM      3  C2  UNL d   1       0.351  -0.383  -1.364  0.00  0.00     0.048 A 
ATOM      4  C3  UNL d   1      -0.283   0.532  -2.203  0.00  0.00     0.023 A 
ATOM      5  C4  UNL d   1      -1.366   1.283  -1.740  0.00  0.00     0.048 A 
ATOM      6  C5  UNL d   1      -1.814   1.112  -0.429  0.00  0.00     0.003 A 
ATOM      7  I   UNL d   1       0.387   0.782  -4.154  0.00  0.00    -0.146 I 
ENDROOT
TORSDOF 0
ENDMDL
