MODEL 1
REMARK minimizedAffinity -4.60486889
REMARK minimizedRMSD -1
REMARK  0 active torsions:
REMARK  status: ('A' for Active; 'I' for Inactive)
ROOT
ATOM      1  C   UNL d   1       0.108   0.987   3.628  0.00  0.00     0.023 A 
ATOM      2  C1  UNL d   1      -0.858   1.253   2.658  0.00  0.00     0.003 A 
ATOM      3  C2  UNL d   1      -0.636   0.881   1.330  0.00  0.00     0.048 A 
ATOM      4  C3  UNL d   1       0.552   0.241   0.980  0.00  0.00     0.023 A 
ATOM      5  C4  UNL d   1       1.521  -0.029   1.949  0.00  0.00     0.048 A 
ATOM      6  C5  UNL d   1       1.296   0.346   3.274  0.00  0.00     0.003 A 
ATOM      7  I   UNL d   1       0.883  -0.315  -0.995  0.00  0.00    -0.146 I 
ENDROOT
TORSDOF 0
ENDMDL
