MODEL 1
REMARK minimizedAffinity 0.566218913
REMARK minimizedRMSD -1
REMARK  0 active torsions:
REMARK  status: ('A' for Active; 'I' for Inactive)
ROOT
ATOM      1  C   UNL d   1       0.690  -0.220   0.871  0.00  0.00     0.023 A 
ATOM      2  C1  UNL d   1       1.855  -0.540   0.173  0.00  0.00     0.003 A 
ATOM      3  C2  UNL d   1       1.967  -0.225  -1.183  0.00  0.00     0.048 A 
ATOM      4  C3  UNL d   1       0.910   0.411  -1.834  0.00  0.00     0.023 A 
ATOM      5  C4  UNL d   1      -0.256   0.734  -1.139  0.00  0.00     0.048 A 
ATOM      6  C5  UNL d   1      -0.364   0.416   0.216  0.00  0.00     0.003 A 
ATOM      7  I   UNL d   1       1.074   0.881  -3.852  0.00  0.00    -0.146 I 
ENDROOT
TORSDOF 0
ENDMDL
