MODEL 1
REMARK minimizedAffinity -4.48281527
REMARK minimizedRMSD -1
REMARK  0 active torsions:
REMARK  status: ('A' for Active; 'I' for Inactive)
ROOT
ATOM      1  C   UNL d   1      -0.039   1.255   3.213  0.00  0.00     0.023 A 
ATOM      2  C1  UNL d   1       1.138   0.580   2.890  0.00  0.00     0.003 A 
ATOM      3  C2  UNL d   1       1.324   0.076   1.601  0.00  0.00     0.048 A 
ATOM      4  C3  UNL d   1       0.329   0.251   0.640  0.00  0.00     0.023 A 
ATOM      5  C4  UNL d   1      -0.850   0.926   0.958  0.00  0.00     0.048 A 
ATOM      6  C5  UNL d   1      -1.032   1.428   2.248  0.00  0.00     0.003 A 
ATOM      7  I   UNL d   1       0.604  -0.498  -1.280  0.00  0.00    -0.146 I 
ENDROOT
TORSDOF 0
ENDMDL
