MODEL 1
REMARK minimizedAffinity -0.973947525
REMARK minimizedRMSD -1
REMARK  0 active torsions:
REMARK  status: ('A' for Active; 'I' for Inactive)
ROOT
ATOM      1  C   UNL d   1      -1.060   0.500   2.156  0.00  0.00     0.023 A 
ATOM      2  C1  UNL d   1      -1.962   0.455   1.093  0.00  0.00     0.003 A 
ATOM      3  C2  UNL d   1      -1.509   0.176  -0.198  0.00  0.00     0.048 A 
ATOM      4  C3  UNL d   1      -0.152  -0.057  -0.419  0.00  0.00     0.023 A 
ATOM      5  C4  UNL d   1       0.754  -0.014   0.641  0.00  0.00     0.048 A 
ATOM      6  C5  UNL d   1       0.297   0.266   1.930  0.00  0.00     0.003 A 
ATOM      7  I   UNL d   1       0.525  -0.472  -2.340  0.00  0.00    -0.146 I 
ENDROOT
TORSDOF 0
ENDMDL
