MODEL 1
REMARK minimizedAffinity -0.25887832
REMARK minimizedRMSD -1
REMARK  1 active torsions:
REMARK  status: ('A' for Active; 'I' for Inactive)
REMARK    1  A    between atoms: C1_2  and  C2_3 
ROOT
ATOM      1  C2  UNL d   1      -3.402  -3.647  -5.090  0.00  0.00    -0.076 A 
ATOM      2  C3  UNL d   1      -3.531  -4.711  -6.000  0.00  0.00     0.004 A 
ATOM      3  C4  UNL d   1      -2.783  -5.877  -5.851  0.00  0.00    -0.003 A 
ATOM      4  C5  UNL d   1      -1.894  -6.000  -4.788  0.00  0.00     0.000 A 
ATOM      5  C6  UNL d   1      -1.766  -4.962  -3.866  0.00  0.00     0.000 A 
ATOM      6  C7  UNL d   1      -2.525  -3.786  -3.992  0.00  0.00    -0.073 A 
ATOM      7  C8  UNL d   1      -2.342  -2.696  -2.972  0.00  0.00     0.078 C 
ENDROOT
BRANCH   1   8
ATOM      8  C1  UNL d   1      -4.219  -2.396  -5.317  0.00  0.00     0.053 C 
ATOM      9  C   UNL d   1      -3.421  -1.295  -5.999  0.00  0.00     0.018 C 
ENDBRANCH   1   8
TORSDOF 1
ENDMDL
