MODEL 1
REMARK minimizedAffinity -2.37581158
REMARK minimizedRMSD -1
REMARK  1 active torsions:
REMARK  status: ('A' for Active; 'I' for Inactive)
REMARK    1  A    between atoms: C1_2  and  C2_3 
ROOT
ATOM      1  C2  UNL d   1      -3.548   1.595  -5.731  0.00  0.00    -0.076 A 
ATOM      2  C3  UNL d   1      -2.571   0.587  -5.655  0.00  0.00     0.004 A 
ATOM      3  C4  UNL d   1      -2.924  -0.760  -5.709  0.00  0.00    -0.003 A 
ATOM      4  C5  UNL d   1      -4.260  -1.122  -5.840  0.00  0.00     0.000 A 
ATOM      5  C6  UNL d   1      -5.241  -0.135  -5.935  0.00  0.00     0.000 A 
ATOM      6  C7  UNL d   1      -4.901   1.228  -5.899  0.00  0.00    -0.073 A 
ATOM      7  C8  UNL d   1      -6.000   2.250  -6.000  0.00  0.00     0.078 C 
ENDROOT
BRANCH   1   8
ATOM      8  C1  UNL d   1      -3.108   3.038  -5.641  0.00  0.00     0.053 C 
ATOM      9  C   UNL d   1      -1.636   3.221  -5.977  0.00  0.00     0.018 C 
ENDBRANCH   1   8
TORSDOF 1
ENDMDL
