MODEL 1
REMARK minimizedAffinity 4.6419363
REMARK minimizedRMSD -1
REMARK  1 active torsions:
REMARK  status: ('A' for Active; 'I' for Inactive)
REMARK    1  A    between atoms: C1_2  and  C2_3 
ROOT
ATOM      1  C2  UNL d   1      -3.693   0.734  -5.823  0.00  0.00    -0.076 A 
ATOM      2  C3  UNL d   1      -4.783   1.605  -5.997  0.00  0.00     0.004 A 
ATOM      3  C4  UNL d   1      -4.615   2.987  -5.929  0.00  0.00    -0.003 A 
ATOM      4  C5  UNL d   1      -3.354   3.521  -5.686  0.00  0.00     0.000 A 
ATOM      5  C6  UNL d   1      -2.259   2.672  -5.529  0.00  0.00     0.000 A 
ATOM      6  C7  UNL d   1      -2.408   1.277  -5.611  0.00  0.00    -0.073 A 
ATOM      7  C8  UNL d   1      -1.193   0.409  -5.428  0.00  0.00     0.078 C 
ENDROOT
BRANCH   1   8
ATOM      8  C1  UNL d   1      -3.941  -0.756  -5.881  0.00  0.00     0.053 C 
ATOM      9  C   UNL d   1      -5.117  -1.186  -5.018  0.00  0.00     0.018 C 
ENDBRANCH   1   8
TORSDOF 1
ENDMDL
