MODEL 1
REMARK minimizedAffinity 2.30961156
REMARK minimizedRMSD -1
REMARK  1 active torsions:
REMARK  status: ('A' for Active; 'I' for Inactive)
REMARK    1  A    between atoms: C1_2  and  C2_3 
ROOT
ATOM      1  C2  UNL d   1      -4.119   1.239  -5.887  0.00  0.00    -0.076 A 
ATOM      2  C3  UNL d   1      -2.799   0.759  -5.846  0.00  0.00     0.004 A 
ATOM      3  C4  UNL d   1      -1.715   1.635  -5.890  0.00  0.00    -0.003 A 
ATOM      4  C5  UNL d   1      -1.935   3.005  -5.975  0.00  0.00     0.000 A 
ATOM      5  C6  UNL d   1      -3.238   3.500  -5.998  0.00  0.00     0.000 A 
ATOM      6  C7  UNL d   1      -4.342   2.632  -5.938  0.00  0.00    -0.073 A 
ATOM      7  C8  UNL d   1      -5.726   3.220  -5.973  0.00  0.00     0.078 C 
ENDROOT
BRANCH   1   8
ATOM      8  C1  UNL d   1      -5.254   0.241  -5.863  0.00  0.00     0.053 C 
ATOM      9  C   UNL d   1      -4.770  -1.195  -5.999  0.00  0.00     0.018 C 
ENDBRANCH   1   8
TORSDOF 1
ENDMDL
