MODEL 1
REMARK minimizedAffinity -1.6603446
REMARK minimizedRMSD -1
REMARK  1 active torsions:
REMARK  status: ('A' for Active; 'I' for Inactive)
REMARK    1  A    between atoms: C1_2  and  C2_3 
ROOT
ATOM      1  C2  UNL d   1      -4.222   1.664  -5.959  0.00  0.00    -0.076 A 
ATOM      2  C3  UNL d   1      -5.584   2.013  -5.980  0.00  0.00     0.004 A 
ATOM      3  C4  UNL d   1      -5.981   3.349  -6.000  0.00  0.00    -0.003 A 
ATOM      4  C5  UNL d   1      -5.024   4.357  -6.000  0.00  0.00     0.000 A 
ATOM      5  C6  UNL d   1      -3.669   4.029  -5.997  0.00  0.00     0.000 A 
ATOM      6  C7  UNL d   1      -3.251   2.687  -5.993  0.00  0.00    -0.073 A 
ATOM      7  C8  UNL d   1      -1.776   2.390  -5.984  0.00  0.00     0.078 C 
ENDROOT
BRANCH   1   8
ATOM      8  C1  UNL d   1      -3.851   0.199  -5.910  0.00  0.00     0.053 C 
ATOM      9  C   UNL d   1      -5.070  -0.711  -5.900  0.00  0.00     0.018 C 
ENDBRANCH   1   8
TORSDOF 1
ENDMDL
