MODEL 1
REMARK minimizedAffinity -1.43992853
REMARK minimizedRMSD -1
REMARK  1 active torsions:
REMARK  status: ('A' for Active; 'I' for Inactive)
REMARK    1  A    between atoms: C1_2  and  C2_3 
ROOT
ATOM      1  C2  UNL d   1      -3.228   0.914  -5.862  0.00  0.00    -0.076 A 
ATOM      2  C3  UNL d   1      -2.712   2.220  -5.929  0.00  0.00     0.004 A 
ATOM      3  C4  UNL d   1      -3.560   3.324  -5.993  0.00  0.00    -0.003 A 
ATOM      4  C5  UNL d   1      -4.938   3.141  -5.991  0.00  0.00     0.000 A 
ATOM      5  C6  UNL d   1      -5.468   1.854  -5.907  0.00  0.00     0.000 A 
ATOM      6  C7  UNL d   1      -4.627   0.731  -5.825  0.00  0.00    -0.073 A 
ATOM      7  C8  UNL d   1      -5.252  -0.635  -5.743  0.00  0.00     0.078 C 
ENDROOT
BRANCH   1   8
ATOM      8  C1  UNL d   1      -2.260  -0.246  -5.821  0.00  0.00     0.053 C 
ATOM      9  C   UNL d   1      -1.819  -0.588  -4.406  0.00  0.00     0.018 C 
ENDBRANCH   1   8
TORSDOF 1
ENDMDL
