MODEL 1
REMARK minimizedAffinity -0.949871242
REMARK minimizedRMSD -1
REMARK  1 active torsions:
REMARK  status: ('A' for Active; 'I' for Inactive)
REMARK    1  A    between atoms: C1_2  and  C2_3 
ROOT
ATOM      1  C2  UNL d   1      -2.861   3.253  -5.951  0.00  0.00    -0.076 A 
ATOM      2  C3  UNL d   1      -4.110   3.897  -5.963  0.00  0.00     0.004 A 
ATOM      3  C4  UNL d   1      -5.295   3.165  -5.988  0.00  0.00    -0.003 A 
ATOM      4  C5  UNL d   1      -5.251   1.775  -6.000  0.00  0.00     0.000 A 
ATOM      5  C6  UNL d   1      -4.021   1.119  -5.969  0.00  0.00     0.000 A 
ATOM      6  C7  UNL d   1      -2.817   1.842  -5.928  0.00  0.00    -0.073 A 
ATOM      7  C8  UNL d   1      -1.519   1.083  -5.902  0.00  0.00     0.078 C 
ENDROOT
BRANCH   1   8
ATOM      8  C1  UNL d   1      -1.609   4.100  -5.951  0.00  0.00     0.053 C 
ATOM      9  C   UNL d   1      -1.913   5.589  -5.998  0.00  0.00     0.018 C 
ENDBRANCH   1   8
TORSDOF 1
ENDMDL
