MODEL 1
REMARK minimizedAffinity -0.832892835
REMARK minimizedRMSD -1
REMARK  1 active torsions:
REMARK  status: ('A' for Active; 'I' for Inactive)
REMARK    1  A    between atoms: C1_2  and  C2_3 
ROOT
ATOM      1  C2  UNL d   1      -4.262   1.500  -5.980  0.00  0.00    -0.076 A 
ATOM      2  C3  UNL d   1      -5.391   2.337  -5.997  0.00  0.00     0.004 A 
ATOM      3  C4  UNL d   1      -5.256   3.724  -5.999  0.00  0.00    -0.003 A 
ATOM      4  C5  UNL d   1      -3.989   4.297  -5.984  0.00  0.00     0.000 A 
ATOM      5  C6  UNL d   1      -2.858   3.482  -5.985  0.00  0.00     0.000 A 
ATOM      6  C7  UNL d   1      -2.976   2.082  -5.999  0.00  0.00    -0.073 A 
ATOM      7  C8  UNL d   1      -1.722   1.251  -5.993  0.00  0.00     0.078 C 
ENDROOT
BRANCH   1   8
ATOM      8  C1  UNL d   1      -4.470   0.003  -5.951  0.00  0.00     0.053 C 
ATOM      9  C   UNL d   1      -5.941  -0.382  -5.999  0.00  0.00     0.018 C 
ENDBRANCH   1   8
TORSDOF 1
ENDMDL
