MODEL 1
REMARK minimizedAffinity -1.30166018
REMARK minimizedRMSD -1
REMARK  1 active torsions:
REMARK  status: ('A' for Active; 'I' for Inactive)
REMARK    1  A    between atoms: C1_2  and  C2_3 
ROOT
ATOM      1  C2  UNL d   1      -4.820   1.554  -5.968  0.00  0.00    -0.076 A 
ATOM      2  C3  UNL d   1      -5.754   2.605  -5.985  0.00  0.00     0.004 A 
ATOM      3  C4  UNL d   1      -5.337   3.935  -5.998  0.00  0.00    -0.003 A 
ATOM      4  C5  UNL d   1      -3.980   4.236  -5.994  0.00  0.00     0.000 A 
ATOM      5  C6  UNL d   1      -3.040   3.206  -5.995  0.00  0.00     0.000 A 
ATOM      6  C7  UNL d   1      -3.443   1.860  -5.999  0.00  0.00    -0.073 A 
ATOM      7  C8  UNL d   1      -2.386   0.789  -5.993  0.00  0.00     0.078 C 
ENDROOT
BRANCH   1   8
ATOM      8  C1  UNL d   1      -5.332   0.132  -5.927  0.00  0.00     0.053 C 
ATOM      9  C   UNL d   1      -4.210  -0.893  -6.000  0.00  0.00     0.018 C 
ENDBRANCH   1   8
TORSDOF 1
ENDMDL
