MODEL 1
REMARK minimizedAffinity -0.380079627
REMARK minimizedRMSD -1
REMARK  1 active torsions:
REMARK  status: ('A' for Active; 'I' for Inactive)
REMARK    1  A    between atoms: C1_2  and  C2_3 
ROOT
ATOM      1  C2  UNL d   1      -3.072   3.505  -5.948  0.00  0.00    -0.076 A 
ATOM      2  C3  UNL d   1      -2.415   2.262  -5.962  0.00  0.00     0.004 A 
ATOM      3  C4  UNL d   1      -3.136   1.070  -5.983  0.00  0.00    -0.003 A 
ATOM      4  C5  UNL d   1      -4.526   1.101  -5.991  0.00  0.00     0.000 A 
ATOM      5  C6  UNL d   1      -5.194   2.325  -5.996  0.00  0.00     0.000 A 
ATOM      6  C7  UNL d   1      -4.482   3.536  -5.991  0.00  0.00    -0.073 A 
ATOM      7  C8  UNL d   1      -5.254   4.827  -5.991  0.00  0.00     0.078 C 
ENDROOT
BRANCH   1   8
ATOM      8  C1  UNL d   1      -2.237   4.765  -5.898  0.00  0.00     0.053 C 
ATOM      9  C   UNL d   1      -0.746   4.480  -5.993  0.00  0.00     0.018 C 
ENDBRANCH   1   8
TORSDOF 1
ENDMDL
