MODEL 1
REMARK minimizedAffinity -1.99613905
REMARK minimizedRMSD -1
REMARK  1 active torsions:
REMARK  status: ('A' for Active; 'I' for Inactive)
REMARK    1  A    between atoms: C1_2  and  C2_3 
ROOT
ATOM      1  C2  UNL d   1      -4.009   0.604  -5.971  0.00  0.00    -0.076 A 
ATOM      2  C3  UNL d   1      -5.285   1.193  -5.991  0.00  0.00     0.004 A 
ATOM      3  C4  UNL d   1      -5.435   2.579  -6.000  0.00  0.00    -0.003 A 
ATOM      4  C5  UNL d   1      -4.312   3.398  -5.990  0.00  0.00     0.000 A 
ATOM      5  C6  UNL d   1      -3.038   2.830  -5.988  0.00  0.00     0.000 A 
ATOM      6  C7  UNL d   1      -2.869   1.435  -5.995  0.00  0.00    -0.073 A 
ATOM      7  C8  UNL d   1      -1.472   0.877  -5.987  0.00  0.00     0.078 C 
ENDROOT
BRANCH   1   8
ATOM      8  C1  UNL d   1      -3.909  -0.904  -5.934  0.00  0.00     0.053 C 
ATOM      9  C   UNL d   1      -4.861  -1.527  -4.925  0.00  0.00     0.018 C 
ENDBRANCH   1   8
TORSDOF 1
ENDMDL
