MODEL 1
REMARK minimizedAffinity 2.62464833
REMARK minimizedRMSD -1
REMARK  1 active torsions:
REMARK  status: ('A' for Active; 'I' for Inactive)
REMARK    1  A    between atoms: C1_2  and  C2_3 
ROOT
ATOM      1  C2  UNL d   1      -3.716  -3.681  -5.121  0.00  0.00    -0.076 A 
ATOM      2  C3  UNL d   1      -3.914  -4.766  -5.994  0.00  0.00     0.004 A 
ATOM      3  C4  UNL d   1      -3.039  -5.851  -6.000  0.00  0.00    -0.003 A 
ATOM      4  C5  UNL d   1      -1.951  -5.869  -5.133  0.00  0.00     0.000 A 
ATOM      5  C6  UNL d   1      -1.750  -4.810  -4.248  0.00  0.00     0.000 A 
ATOM      6  C7  UNL d   1      -2.632  -3.716  -4.218  0.00  0.00    -0.073 A 
ATOM      7  C8  UNL d   1      -2.363  -2.598  -3.248  0.00  0.00     0.078 C 
ENDROOT
BRANCH   1   8
ATOM      8  C1  UNL d   1      -4.683  -2.520  -5.179  0.00  0.00     0.053 C 
ATOM      9  C   UNL d   1      -5.985  -2.880  -5.877  0.00  0.00     0.018 C 
ENDBRANCH   1   8
TORSDOF 1
ENDMDL
