MODEL 1
REMARK minimizedAffinity 1.90453804
REMARK minimizedRMSD -1
REMARK  1 active torsions:
REMARK  status: ('A' for Active; 'I' for Inactive)
REMARK    1  A    between atoms: C1_2  and  C2_3 
ROOT
ATOM      1  C2  UNL d   1      -3.711  -3.069  -4.435  0.00  0.00    -0.076 A 
ATOM      2  C3  UNL d   1      -2.658  -2.687  -3.587  0.00  0.00     0.004 A 
ATOM      3  C4  UNL d   1      -1.588  -3.545  -3.340  0.00  0.00    -0.003 A 
ATOM      4  C5  UNL d   1      -1.553  -4.800  -3.939  0.00  0.00     0.000 A 
ATOM      5  C6  UNL d   1      -2.581  -5.189  -4.797  0.00  0.00     0.000 A 
ATOM      6  C7  UNL d   1      -3.659  -4.329  -5.069  0.00  0.00    -0.073 A 
ATOM      7  C8  UNL d   1      -4.743  -4.802  -5.999  0.00  0.00     0.078 C 
ENDROOT
BRANCH   1   8
ATOM      8  C1  UNL d   1      -4.859  -2.107  -4.644  0.00  0.00     0.053 C 
ATOM      9  C   UNL d   1      -4.670  -1.233  -5.874  0.00  0.00     0.018 C 
ENDBRANCH   1   8
TORSDOF 1
ENDMDL
