MODEL 1
REMARK minimizedAffinity 1.62099671
REMARK minimizedRMSD -1
REMARK  1 active torsions:
REMARK  status: ('A' for Active; 'I' for Inactive)
REMARK    1  A    between atoms: C1_2  and  C2_3 
ROOT
ATOM      1  C2  UNL d   1      -3.502  -3.788  -4.847  0.00  0.00    -0.076 A 
ATOM      2  C3  UNL d   1      -2.897  -4.979  -5.287  0.00  0.00     0.004 A 
ATOM      3  C4  UNL d   1      -3.655  -6.000  -5.858  0.00  0.00    -0.003 A 
ATOM      4  C5  UNL d   1      -5.030  -5.847  -5.999  0.00  0.00     0.000 A 
ATOM      5  C6  UNL d   1      -5.644  -4.666  -5.584  0.00  0.00     0.000 A 
ATOM      6  C7  UNL d   1      -4.892  -3.620  -5.021  0.00  0.00    -0.073 A 
ATOM      7  C8  UNL d   1      -5.607  -2.370  -4.586  0.00  0.00     0.078 C 
ENDROOT
BRANCH   1   8
ATOM      8  C1  UNL d   1      -2.633  -2.727  -4.211  0.00  0.00     0.053 C 
ATOM      9  C   UNL d   1      -1.906  -3.233  -2.975  0.00  0.00     0.018 C 
ENDBRANCH   1   8
TORSDOF 1
ENDMDL
