MODEL 1
REMARK minimizedAffinity 3.80367351
REMARK minimizedRMSD -1
REMARK  0 active torsions:
REMARK  status: ('A' for Active; 'I' for Inactive)
ROOT
ATOM      1  C   UNL d   1       2.404   0.291   2.209  0.00  0.00     0.077 C 
ATOM      2  C1  UNL d   1       1.908   0.503   0.809  0.00  0.00    -0.074 A 
ATOM      3  C2  UNL d   1       1.974  -0.523  -0.139  0.00  0.00    -0.005 A 
ATOM      4  C3  UNL d   1       1.499  -0.315  -1.434  0.00  0.00     0.006 A 
ATOM      5  C4  UNL d   1       0.956   0.919  -1.794  0.00  0.00    -0.005 A 
ATOM      6  C5  UNL d   1       0.881   1.956  -0.859  0.00  0.00    -0.074 A 
ATOM      7  C6  UNL d   1       0.290   3.285  -1.226  0.00  0.00     0.077 C 
ATOM      8  C7  UNL d   1       1.353   1.737   0.443  0.00  0.00    -0.001 A 
ENDROOT
TORSDOF 0
ENDMDL
