MODEL 1
REMARK minimizedAffinity -0.423685163
REMARK minimizedRMSD -1
REMARK  0 active torsions:
REMARK  status: ('A' for Active; 'I' for Inactive)
ROOT
ATOM      1  C   UNL d   1       0.316  -2.835  -1.478  0.00  0.00     0.077 C 
ATOM      2  C1  UNL d   1       0.726  -1.477  -0.990  0.00  0.00    -0.074 A 
ATOM      3  C2  UNL d   1       1.432  -1.326   0.207  0.00  0.00    -0.005 A 
ATOM      4  C3  UNL d   1       1.815  -0.058   0.644  0.00  0.00     0.006 A 
ATOM      5  C4  UNL d   1       1.495   1.071  -0.112  0.00  0.00    -0.005 A 
ATOM      6  C5  UNL d   1       0.790   0.940  -1.312  0.00  0.00    -0.074 A 
ATOM      7  C6  UNL d   1       0.447   2.142  -2.141  0.00  0.00     0.077 C 
ATOM      8  C7  UNL d   1       0.415  -0.339  -1.748  0.00  0.00    -0.001 A 
ENDROOT
TORSDOF 0
ENDMDL
