MODEL 1
REMARK minimizedAffinity 4.02218533
REMARK minimizedRMSD -1
REMARK  0 active torsions:
REMARK  status: ('A' for Active; 'I' for Inactive)
ROOT
ATOM      1  C   UNL d   1      -2.157   5.194   3.571  0.00  0.00     0.077 C 
ATOM      2  C1  UNL d   1      -2.841   4.011   2.952  0.00  0.00    -0.074 A 
ATOM      3  C2  UNL d   1      -3.239   2.921   3.733  0.00  0.00    -0.005 A 
ATOM      4  C3  UNL d   1      -3.883   1.833   3.145  0.00  0.00     0.006 A 
ATOM      5  C4  UNL d   1      -4.135   1.823   1.772  0.00  0.00    -0.005 A 
ATOM      6  C5  UNL d   1      -3.746   2.905   0.976  0.00  0.00    -0.074 A 
ATOM      7  C6  UNL d   1      -4.019   2.915  -0.499  0.00  0.00     0.077 C 
ATOM      8  C7  UNL d   1      -3.106   3.998   1.576  0.00  0.00    -0.001 A 
ENDROOT
TORSDOF 0
ENDMDL
