MODEL 1
REMARK minimizedAffinity -5.32910299
REMARK minimizedRMSD -1
REMARK  0 active torsions:
REMARK  status: ('A' for Active; 'I' for Inactive)
ROOT
ATOM      1  C   UNL d   1       1.005   4.450   1.631  0.00  0.00     0.077 C 
ATOM      2  C1  UNL d   1       0.999   3.616   0.384  0.00  0.00    -0.074 A 
ATOM      3  C2  UNL d   1       0.828   4.204  -0.873  0.00  0.00    -0.005 A 
ATOM      4  C3  UNL d   1       0.834   3.417  -2.025  0.00  0.00     0.006 A 
ATOM      5  C4  UNL d   1       1.012   2.037  -1.931  0.00  0.00    -0.005 A 
ATOM      6  C5  UNL d   1       1.185   1.431  -0.683  0.00  0.00    -0.074 A 
ATOM      7  C6  UNL d   1       1.387  -0.051  -0.565  0.00  0.00     0.077 C 
ATOM      8  C7  UNL d   1       1.185   2.229   0.469  0.00  0.00    -0.001 A 
ENDROOT
TORSDOF 0
ENDMDL
