MODEL 1
REMARK minimizedAffinity -1.57298207
REMARK minimizedRMSD -1
REMARK  0 active torsions:
REMARK  status: ('A' for Active; 'I' for Inactive)
ROOT
ATOM      1  C   UNL d   1       0.384   2.408   1.474  0.00  0.00     0.077 C 
ATOM      2  C1  UNL d   1       1.303   1.373   0.896  0.00  0.00    -0.074 A 
ATOM      3  C2  UNL d   1       2.647   1.313   1.277  0.00  0.00    -0.005 A 
ATOM      4  C3  UNL d   1       3.488   0.339   0.738  0.00  0.00     0.006 A 
ATOM      5  C4  UNL d   1       2.994  -0.583  -0.186  0.00  0.00    -0.005 A 
ATOM      6  C5  UNL d   1       1.652  -0.539  -0.577  0.00  0.00    -0.074 A 
ATOM      7  C6  UNL d   1       1.102  -1.529  -1.561  0.00  0.00     0.077 C 
ATOM      8  C7  UNL d   1       0.812   0.438  -0.026  0.00  0.00    -0.001 A 
ENDROOT
TORSDOF 0
ENDMDL
