MODEL 1
REMARK minimizedAffinity -1.36874068
REMARK minimizedRMSD -1
REMARK  0 active torsions:
REMARK  status: ('A' for Active; 'I' for Inactive)
ROOT
ATOM      1  C   UNL d   1       1.380  -1.401  -1.331  0.00  0.00     0.077 C 
ATOM      2  C1  UNL d   1       1.273  -0.004  -0.797  0.00  0.00    -0.074 A 
ATOM      3  C2  UNL d   1       1.592   0.282   0.535  0.00  0.00    -0.005 A 
ATOM      4  C3  UNL d   1       1.496   1.588   1.015  0.00  0.00     0.006 A 
ATOM      5  C4  UNL d   1       1.081   2.619   0.171  0.00  0.00    -0.005 A 
ATOM      6  C5  UNL d   1       0.758   2.352  -1.163  0.00  0.00    -0.074 A 
ATOM      7  C6  UNL d   1       0.320   3.449  -2.086  0.00  0.00     0.077 C 
ATOM      8  C7  UNL d   1       0.864   1.038  -1.640  0.00  0.00    -0.001 A 
ENDROOT
TORSDOF 0
ENDMDL
