MODEL 1
REMARK minimizedAffinity 1.09495509
REMARK minimizedRMSD -1
REMARK  0 active torsions:
REMARK  status: ('A' for Active; 'I' for Inactive)
ROOT
ATOM      1  C   UNL d   1       0.949  -1.536  -1.486  0.00  0.00     0.077 C 
ATOM      2  C1  UNL d   1       0.996  -0.083  -1.114  0.00  0.00    -0.074 A 
ATOM      3  C2  UNL d   1       0.696   0.909  -2.053  0.00  0.00    -0.005 A 
ATOM      4  C3  UNL d   1       0.734   2.255  -1.690  0.00  0.00     0.006 A 
ATOM      5  C4  UNL d   1       1.072   2.622  -0.387  0.00  0.00    -0.005 A 
ATOM      6  C5  UNL d   1       1.375   1.644   0.565  0.00  0.00    -0.074 A 
ATOM      7  C6  UNL d   1       1.731   2.021   1.973  0.00  0.00     0.077 C 
ATOM      8  C7  UNL d   1       1.327   0.293   0.195  0.00  0.00    -0.001 A 
ENDROOT
TORSDOF 0
ENDMDL
