MODEL 1
REMARK minimizedAffinity 8.31201839
REMARK minimizedRMSD -1
REMARK  0 active torsions:
REMARK  status: ('A' for Active; 'I' for Inactive)
ROOT
ATOM      1  C   UNL d   1       2.328  -1.402  -0.401  0.00  0.00     0.077 C 
ATOM      2  C1  UNL d   1       1.931   0.022  -0.656  0.00  0.00    -0.074 A 
ATOM      3  C2  UNL d   1       1.578   0.450  -1.940  0.00  0.00    -0.005 A 
ATOM      4  C3  UNL d   1       1.201   1.775  -2.161  0.00  0.00     0.006 A 
ATOM      5  C4  UNL d   1       1.173   2.683  -1.101  0.00  0.00    -0.005 A 
ATOM      6  C5  UNL d   1       1.521   2.273   0.189  0.00  0.00    -0.074 A 
ATOM      7  C6  UNL d   1       1.487   3.233   1.341  0.00  0.00     0.077 C 
ATOM      8  C7  UNL d   1       1.892   0.938   0.404  0.00  0.00    -0.001 A 
ENDROOT
TORSDOF 0
ENDMDL
