MODEL 1
REMARK minimizedAffinity 2.35473561
REMARK minimizedRMSD -1
REMARK  0 active torsions:
REMARK  status: ('A' for Active; 'I' for Inactive)
ROOT
ATOM      1  C   UNL d   1       0.769   1.846  -2.378  0.00  0.00     0.077 C 
ATOM      2  C1  UNL d   1       0.922   1.215  -1.026  0.00  0.00    -0.074 A 
ATOM      3  C2  UNL d   1       0.909   1.993   0.136  0.00  0.00    -0.005 A 
ATOM      4  C3  UNL d   1       1.042   1.391   1.387  0.00  0.00     0.006 A 
ATOM      5  C4  UNL d   1       1.189   0.007   1.489  0.00  0.00    -0.005 A 
ATOM      6  C5  UNL d   1       1.203  -0.788   0.338  0.00  0.00    -0.074 A 
ATOM      7  C6  UNL d   1       1.350  -2.277   0.430  0.00  0.00     0.077 C 
ATOM      8  C7  UNL d   1       1.061  -0.176  -0.915  0.00  0.00    -0.001 A 
ENDROOT
TORSDOF 0
ENDMDL
