MODEL 1
REMARK minimizedAffinity 5.68730402
REMARK minimizedRMSD -1
REMARK  0 active torsions:
REMARK  status: ('A' for Active; 'I' for Inactive)
ROOT
ATOM      1  C   UNL d   1       0.430   3.794  -1.413  0.00  0.00     0.077 C 
ATOM      2  C1  UNL d   1       0.803   2.349  -1.272  0.00  0.00    -0.074 A 
ATOM      3  C2  UNL d   1       1.247   1.610  -2.374  0.00  0.00    -0.005 A 
ATOM      4  C3  UNL d   1       1.599   0.269  -2.225  0.00  0.00     0.006 A 
ATOM      5  C4  UNL d   1       1.512  -0.347  -0.976  0.00  0.00    -0.005 A 
ATOM      6  C5  UNL d   1       1.072   0.376   0.137  0.00  0.00    -0.074 A 
ATOM      7  C6  UNL d   1       0.982  -0.267   1.489  0.00  0.00     0.077 C 
ATOM      8  C7  UNL d   1       0.726   1.725  -0.018  0.00  0.00    -0.001 A 
ENDROOT
TORSDOF 0
ENDMDL
