MODEL 1
REMARK minimizedAffinity -2.8931675
REMARK minimizedRMSD -1
REMARK  0 active torsions:
REMARK  status: ('A' for Active; 'I' for Inactive)
ROOT
ATOM      1  C   UNL d   1       0.883   3.174  -2.044  0.00  0.00     0.077 C 
ATOM      2  C1  UNL d   1       0.926   2.014  -1.094  0.00  0.00    -0.074 A 
ATOM      3  C2  UNL d   1       0.867   0.698  -1.564  0.00  0.00    -0.005 A 
ATOM      4  C3  UNL d   1       0.917  -0.371  -0.670  0.00  0.00     0.006 A 
ATOM      5  C4  UNL d   1       1.026  -0.136   0.701  0.00  0.00    -0.005 A 
ATOM      6  C5  UNL d   1       1.087   1.173   1.189  0.00  0.00    -0.074 A 
ATOM      7  C6  UNL d   1       1.214   1.444   2.659  0.00  0.00     0.077 C 
ATOM      8  C7  UNL d   1       1.043   2.242   0.284  0.00  0.00    -0.001 A 
ENDROOT
TORSDOF 0
ENDMDL
