MODEL 1
REMARK minimizedAffinity 2.83234072
REMARK minimizedRMSD -1
REMARK  0 active torsions:
REMARK  status: ('A' for Active; 'I' for Inactive)
ROOT
ATOM      1  C   UNL d   1       1.213   3.414  -1.942  0.00  0.00     0.077 C 
ATOM      2  C1  UNL d   1       1.164   2.320  -0.918  0.00  0.00    -0.074 A 
ATOM      3  C2  UNL d   1       1.272   2.607   0.447  0.00  0.00    -0.005 A 
ATOM      4  C3  UNL d   1       1.215   1.579   1.388  0.00  0.00     0.006 A 
ATOM      5  C4  UNL d   1       1.049   0.256   0.976  0.00  0.00    -0.005 A 
ATOM      6  C5  UNL d   1       0.938  -0.049  -0.385  0.00  0.00    -0.074 A 
ATOM      7  C6  UNL d   1       0.749  -1.464  -0.845  0.00  0.00     0.077 C 
ATOM      8  C7  UNL d   1       0.989   0.989  -1.324  0.00  0.00    -0.001 A 
ENDROOT
TORSDOF 0
ENDMDL
