MODEL 1
REMARK minimizedAffinity 2.45812154
REMARK minimizedRMSD -1
REMARK  0 active torsions:
REMARK  status: ('A' for Active; 'I' for Inactive)
ROOT
ATOM      1  C   UNL d   1       0.902   2.989  -2.066  0.00  0.00     0.077 C 
ATOM      2  C1  UNL d   1       1.105   1.832  -1.134  0.00  0.00    -0.074 A 
ATOM      3  C2  UNL d   1       0.913   0.517  -1.567  0.00  0.00    -0.005 A 
ATOM      4  C3  UNL d   1       1.114  -0.549  -0.691  0.00  0.00     0.006 A 
ATOM      5  C4  UNL d   1       1.510  -0.311   0.626  0.00  0.00    -0.005 A 
ATOM      6  C5  UNL d   1       1.708   0.997   1.077  0.00  0.00    -0.074 A 
ATOM      7  C6  UNL d   1       2.143   1.270   2.486  0.00  0.00     0.077 C 
ATOM      8  C7  UNL d   1       1.510   2.063   0.188  0.00  0.00    -0.001 A 
ENDROOT
TORSDOF 0
ENDMDL
