MODEL 1
REMARK minimizedAffinity -4.20005655
REMARK minimizedRMSD -1
REMARK  0 active torsions:
REMARK  status: ('A' for Active; 'I' for Inactive)
ROOT
ATOM      1  C   UNL d   1       1.556   4.023  -1.167  0.00  0.00     0.077 C 
ATOM      2  C1  UNL d   1       1.185   2.621  -0.784  0.00  0.00    -0.074 A 
ATOM      3  C2  UNL d   1       0.919   1.656  -1.760  0.00  0.00    -0.005 A 
ATOM      4  C3  UNL d   1       0.584   0.354  -1.389  0.00  0.00     0.006 A 
ATOM      5  C4  UNL d   1       0.512   0.004  -0.040  0.00  0.00    -0.005 A 
ATOM      6  C5  UNL d   1       0.775   0.956   0.950  0.00  0.00    -0.074 A 
ATOM      7  C6  UNL d   1       0.711   0.595   2.405  0.00  0.00     0.077 C 
ATOM      8  C7  UNL d   1       1.118   2.261   0.569  0.00  0.00    -0.001 A 
ENDROOT
TORSDOF 0
ENDMDL
