MODEL 1
REMARK minimizedAffinity -1.57820654
REMARK minimizedRMSD -1
REMARK  0 active torsions:
REMARK  status: ('A' for Active; 'I' for Inactive)
ROOT
ATOM      1  C   UNL d   1       1.092  -1.601  -1.457  0.00  0.00     0.077 C 
ATOM      2  C1  UNL d   1       1.109  -0.214  -0.888  0.00  0.00    -0.074 A 
ATOM      3  C2  UNL d   1       1.629   0.034   0.386  0.00  0.00    -0.005 A 
ATOM      4  C3  UNL d   1       1.647   1.332   0.898  0.00  0.00     0.006 A 
ATOM      5  C4  UNL d   1       1.145   2.392   0.143  0.00  0.00    -0.005 A 
ATOM      6  C5  UNL d   1       0.622   2.163  -1.134  0.00  0.00    -0.074 A 
ATOM      7  C6  UNL d   1       0.088   3.293  -1.963  0.00  0.00     0.077 C 
ATOM      8  C7  UNL d   1       0.614   0.858  -1.644  0.00  0.00    -0.001 A 
ENDROOT
TORSDOF 0
ENDMDL
