MODEL 1
REMARK minimizedAffinity 9.0286665
REMARK minimizedRMSD -1
REMARK  0 active torsions:
REMARK  status: ('A' for Active; 'I' for Inactive)
ROOT
ATOM      1  C   UNL d   1       1.927   6.000  -2.223  0.00  0.00     0.077 C 
ATOM      2  C1  UNL d   1       1.489   4.660  -1.711  0.00  0.00    -0.074 A 
ATOM      3  C2  UNL d   1       1.189   3.617  -2.593  0.00  0.00    -0.005 A 
ATOM      4  C3  UNL d   1       0.792   2.373  -2.102  0.00  0.00     0.006 A 
ATOM      5  C4  UNL d   1       0.691   2.160  -0.726  0.00  0.00    -0.005 A 
ATOM      6  C5  UNL d   1       0.988   3.192   0.171  0.00  0.00    -0.074 A 
ATOM      7  C6  UNL d   1       0.894   2.977   1.652  0.00  0.00     0.077 C 
ATOM      8  C7  UNL d   1       1.393   4.436  -0.331  0.00  0.00    -0.001 A 
ENDROOT
TORSDOF 0
ENDMDL
