MODEL 1
REMARK minimizedAffinity 6.83057642
REMARK minimizedRMSD -1
REMARK  1 active torsions:
REMARK  status: ('A' for Active; 'I' for Inactive)
REMARK    1  A    between atoms: C1_2  and  C2_3 
ROOT
ATOM      1  C2  UNL d   1      -0.449  -1.694   5.158  0.00  0.00    -0.076 A 
ATOM      2  C3  UNL d   1       0.522  -1.124   5.999  0.00  0.00     0.004 A 
ATOM      3  C4  UNL d   1       1.869  -1.115   5.637  0.00  0.00    -0.003 A 
ATOM      4  C5  UNL d   1       2.265  -1.676   4.429  0.00  0.00     0.000 A 
ATOM      5  C6  UNL d   1       1.313  -2.231   3.574  0.00  0.00     0.000 A 
ATOM      6  C7  UNL d   1      -0.050  -2.233   3.916  0.00  0.00    -0.073 A 
ATOM      7  C8  UNL d   1      -1.034  -2.850   2.959  0.00  0.00     0.078 C 
ENDROOT
BRANCH   1   8
ATOM      8  C1  UNL d   1      -1.890  -1.698   5.615  0.00  0.00     0.053 C 
ATOM      9  C   UNL d   1      -2.618  -0.411   5.260  0.00  0.00     0.018 C 
ENDBRANCH   1   8
TORSDOF 1
ENDMDL
