MODEL 1
REMARK minimizedAffinity 14.2253761
REMARK minimizedRMSD -1
REMARK  1 active torsions:
REMARK  status: ('A' for Active; 'I' for Inactive)
REMARK    1  A    between atoms: C1_2  and  C2_3 
ROOT
ATOM      1  C2  UNL d   1       3.312   5.582  -2.841  0.00  0.00    -0.076 A 
ATOM      2  C3  UNL d   1       3.693   5.627  -1.489  0.00  0.00     0.004 A 
ATOM      3  C4  UNL d   1       5.025   5.817  -1.125  0.00  0.00    -0.003 A 
ATOM      4  C5  UNL d   1       5.998   5.966  -2.108  0.00  0.00     0.000 A 
ATOM      5  C6  UNL d   1       5.635   5.941  -3.454  0.00  0.00     0.000 A 
ATOM      6  C7  UNL d   1       4.294   5.767  -3.838  0.00  0.00    -0.073 A 
ATOM      7  C8  UNL d   1       3.960   5.742  -5.304  0.00  0.00     0.078 C 
ENDROOT
BRANCH   1   8
ATOM      8  C1  UNL d   1       1.856   5.346  -3.176  0.00  0.00     0.053 C 
ATOM      9  C   UNL d   1       0.916   5.961  -2.151  0.00  0.00     0.018 C 
ENDBRANCH   1   8
TORSDOF 1
ENDMDL
