MODEL 1
REMARK minimizedAffinity -0.116873458
REMARK minimizedRMSD -1
REMARK  1 active torsions:
REMARK  status: ('A' for Active; 'I' for Inactive)
REMARK    1  A    between atoms: C1_2  and  C2_3 
ROOT
ATOM      1  C2  UNL d   1       4.164   4.539  -2.807  0.00  0.00    -0.076 A 
ATOM      2  C3  UNL d   1       3.642   3.856  -3.920  0.00  0.00     0.004 A 
ATOM      3  C4  UNL d   1       4.283   3.903  -5.156  0.00  0.00    -0.003 A 
ATOM      4  C5  UNL d   1       5.458   4.633  -5.301  0.00  0.00     0.000 A 
ATOM      5  C6  UNL d   1       6.000   5.302  -4.203  0.00  0.00     0.000 A 
ATOM      6  C7  UNL d   1       5.374   5.252  -2.946  0.00  0.00    -0.073 A 
ATOM      7  C8  UNL d   1       5.999   5.997  -1.798  0.00  0.00     0.078 C 
ENDROOT
BRANCH   1   8
ATOM      8  C1  UNL d   1       3.410   4.474  -1.498  0.00  0.00     0.053 C 
ATOM      9  C   UNL d   1       1.950   4.870  -1.647  0.00  0.00     0.018 C 
ENDBRANCH   1   8
TORSDOF 1
ENDMDL
