MODEL 1
REMARK minimizedAffinity -1.15733039
REMARK minimizedRMSD -1
REMARK  1 active torsions:
REMARK  status: ('A' for Active; 'I' for Inactive)
REMARK    1  A    between atoms: C1_2  and  C2_3 
ROOT
ATOM      1  C2  UNL d   1       4.867   4.991  -3.171  0.00  0.00    -0.076 A 
ATOM      2  C3  UNL d   1       5.988   4.515  -3.873  0.00  0.00     0.004 A 
ATOM      3  C4  UNL d   1       6.000   4.475  -5.266  0.00  0.00    -0.003 A 
ATOM      4  C5  UNL d   1       4.890   4.911  -5.981  0.00  0.00     0.000 A 
ATOM      5  C6  UNL d   1       3.775   5.403  -5.302  0.00  0.00     0.000 A 
ATOM      6  C7  UNL d   1       3.754   5.465  -3.898  0.00  0.00    -0.073 A 
ATOM      7  C8  UNL d   1       2.523   5.999  -3.218  0.00  0.00     0.078 C 
ENDROOT
BRANCH   1   8
ATOM      8  C1  UNL d   1       4.902   4.985  -1.660  0.00  0.00     0.053 C 
ATOM      9  C   UNL d   1       6.000   5.875  -1.099  0.00  0.00     0.018 C 
ENDBRANCH   1   8
TORSDOF 1
ENDMDL
