MODEL 1
REMARK minimizedAffinity 12.2303181
REMARK minimizedRMSD -1
REMARK  1 active torsions:
REMARK  status: ('A' for Active; 'I' for Inactive)
REMARK    1  A    between atoms: C1_2  and  C2_3 
ROOT
ATOM      1  C2  UNL d   1      -0.506  -3.504  -3.373  0.00  0.00    -0.076 A 
ATOM      2  C3  UNL d   1      -0.995  -3.645  -2.063  0.00  0.00     0.004 A 
ATOM      3  C4  UNL d   1      -0.799  -2.644  -1.112  0.00  0.00    -0.003 A 
ATOM      4  C5  UNL d   1      -0.111  -1.486  -1.456  0.00  0.00     0.000 A 
ATOM      5  C6  UNL d   1       0.366  -1.322  -2.756  0.00  0.00     0.000 A 
ATOM      6  C7  UNL d   1       0.163  -2.314  -3.731  0.00  0.00    -0.073 A 
ATOM      7  C8  UNL d   1       0.705  -2.086  -5.115  0.00  0.00     0.078 C 
ENDROOT
BRANCH   1   8
ATOM      8  C1  UNL d   1      -0.725  -4.634  -4.353  0.00  0.00     0.053 C 
ATOM      9  C   UNL d   1      -0.699  -5.999  -3.684  0.00  0.00     0.018 C 
ENDBRANCH   1   8
TORSDOF 1
ENDMDL
