MODEL 1
REMARK minimizedAffinity 8.70355129
REMARK minimizedRMSD -1
REMARK  1 active torsions:
REMARK  status: ('A' for Active; 'I' for Inactive)
REMARK    1  A    between atoms: C1_2  and  C2_3 
ROOT
ATOM      1  C2  UNL d   1      -1.182  -2.688  -1.570  0.00  0.00    -0.076 A 
ATOM      2  C3  UNL d   1      -1.126  -3.705  -2.539  0.00  0.00     0.004 A 
ATOM      3  C4  UNL d   1      -0.121  -3.720  -3.505  0.00  0.00    -0.003 A 
ATOM      4  C5  UNL d   1       0.844  -2.719  -3.518  0.00  0.00     0.000 A 
ATOM      5  C6  UNL d   1       0.814  -1.713  -2.553  0.00  0.00     0.000 A 
ATOM      6  C7  UNL d   1      -0.183  -1.692  -1.562  0.00  0.00    -0.073 A 
ATOM      7  C8  UNL d   1      -0.171  -0.579  -0.550  0.00  0.00     0.078 C 
ENDROOT
BRANCH   1   8
ATOM      8  C1  UNL d   1      -2.310  -2.709  -0.564  0.00  0.00     0.053 C 
ATOM      9  C   UNL d   1      -1.901  -3.341   0.758  0.00  0.00     0.018 C 
ENDBRANCH   1   8
TORSDOF 1
ENDMDL
