MODEL 1
REMARK minimizedAffinity 1.81661654
REMARK minimizedRMSD -1
REMARK  1 active torsions:
REMARK  status: ('A' for Active; 'I' for Inactive)
REMARK    1  A    between atoms: C1_2  and  C2_3 
ROOT
ATOM      1  C2  UNL d   1       3.913   4.894  -2.497  0.00  0.00    -0.076 A 
ATOM      2  C3  UNL d   1       3.311   4.148  -3.525  0.00  0.00     0.004 A 
ATOM      3  C4  UNL d   1       4.039   3.753  -4.646  0.00  0.00    -0.003 A 
ATOM      4  C5  UNL d   1       5.382   4.097  -4.757  0.00  0.00     0.000 A 
ATOM      5  C6  UNL d   1       6.000   4.822  -3.739  0.00  0.00     0.000 A 
ATOM      6  C7  UNL d   1       5.285   5.214  -2.595  0.00  0.00    -0.073 A 
ATOM      7  C8  UNL d   1       6.000   6.000  -1.530  0.00  0.00     0.078 C 
ENDROOT
BRANCH   1   8
ATOM      8  C1  UNL d   1       3.067   5.318  -1.318  0.00  0.00     0.053 C 
ATOM      9  C   UNL d   1       1.882   4.393  -1.089  0.00  0.00     0.018 C 
ENDBRANCH   1   8
TORSDOF 1
ENDMDL
