MODEL 1
REMARK minimizedAffinity 5.72621727
REMARK minimizedRMSD -1
REMARK  1 active torsions:
REMARK  status: ('A' for Active; 'I' for Inactive)
REMARK    1  A    between atoms: C1_2  and  C2_3 
ROOT
ATOM      1  C2  UNL d   1      -0.326  -3.486  -1.338  0.00  0.00    -0.076 A 
ATOM      2  C3  UNL d   1      -0.446  -2.197  -1.885  0.00  0.00     0.004 A 
ATOM      3  C4  UNL d   1      -0.406  -1.996  -3.264  0.00  0.00    -0.003 A 
ATOM      4  C5  UNL d   1      -0.245  -3.081  -4.118  0.00  0.00     0.000 A 
ATOM      5  C6  UNL d   1      -0.142  -4.369  -3.593  0.00  0.00     0.000 A 
ATOM      6  C7  UNL d   1      -0.197  -4.591  -2.206  0.00  0.00    -0.073 A 
ATOM      7  C8  UNL d   1      -0.074  -6.000  -1.695  0.00  0.00     0.078 C 
ENDROOT
BRANCH   1   8
ATOM      8  C1  UNL d   1      -0.350  -3.640   0.166  0.00  0.00     0.053 C 
ATOM      9  C   UNL d   1      -1.056  -2.485   0.859  0.00  0.00     0.018 C 
ENDBRANCH   1   8
TORSDOF 1
ENDMDL
