MODEL 1
REMARK minimizedAffinity 1.93343759
REMARK minimizedRMSD -1
REMARK  1 active torsions:
REMARK  status: ('A' for Active; 'I' for Inactive)
REMARK    1  A    between atoms: C1_2  and  C2_3 
ROOT
ATOM      1  C2  UNL d   1       3.977  -1.900   5.144  0.00  0.00    -0.076 A 
ATOM      2  C3  UNL d   1       5.067  -2.147   5.997  0.00  0.00     0.004 A 
ATOM      3  C4  UNL d   1       5.960  -3.185   5.738  0.00  0.00    -0.003 A 
ATOM      4  C5  UNL d   1       5.779  -3.993   4.621  0.00  0.00     0.000 A 
ATOM      5  C6  UNL d   1       4.714  -3.750   3.753  0.00  0.00     0.000 A 
ATOM      6  C7  UNL d   1       3.813  -2.698   3.992  0.00  0.00    -0.073 A 
ATOM      7  C8  UNL d   1       2.679  -2.485   3.027  0.00  0.00     0.078 C 
ENDROOT
BRANCH   1   8
ATOM      8  C1  UNL d   1       3.026  -0.777   5.491  0.00  0.00     0.053 C 
ATOM      9  C   UNL d   1       1.686  -1.285   5.999  0.00  0.00     0.018 C 
ENDBRANCH   1   8
TORSDOF 1
ENDMDL
