MODEL 1
REMARK minimizedAffinity 7.89704084
REMARK minimizedRMSD -1
REMARK  1 active torsions:
REMARK  status: ('A' for Active; 'I' for Inactive)
REMARK    1  A    between atoms: C1_2  and  C2_3 
ROOT
ATOM      1  C2  UNL d   1      -0.789  -2.144  -0.086  0.00  0.00    -0.076 A 
ATOM      2  C3  UNL d   1       0.550  -1.767  -0.291  0.00  0.00     0.004 A 
ATOM      3  C4  UNL d   1       1.124  -1.817  -1.560  0.00  0.00    -0.003 A 
ATOM      4  C5  UNL d   1       0.367  -2.245  -2.646  0.00  0.00     0.000 A 
ATOM      5  C6  UNL d   1      -0.967  -2.605  -2.465  0.00  0.00     0.000 A 
ATOM      6  C7  UNL d   1      -1.566  -2.545  -1.194  0.00  0.00    -0.073 A 
ATOM      7  C8  UNL d   1      -3.007  -2.951  -1.055  0.00  0.00     0.078 C 
ENDROOT
BRANCH   1   8
ATOM      8  C1  UNL d   1      -1.349  -2.094   1.317  0.00  0.00     0.053 C 
ATOM      9  C   UNL d   1      -1.035  -3.351   2.114  0.00  0.00     0.018 C 
ENDBRANCH   1   8
TORSDOF 1
ENDMDL
