MODEL 1
REMARK minimizedAffinity 5.51997948
REMARK minimizedRMSD -1
REMARK  1 active torsions:
REMARK  status: ('A' for Active; 'I' for Inactive)
REMARK    1  A    between atoms: C1_2  and  C2_3 
ROOT
ATOM      1  C2  UNL d   1       1.101  -1.908  -1.274  0.00  0.00    -0.076 A 
ATOM      2  C3  UNL d   1       1.776  -1.801  -2.502  0.00  0.00     0.004 A 
ATOM      3  C4  UNL d   1       1.190  -2.248  -3.685  0.00  0.00    -0.003 A 
ATOM      4  C5  UNL d   1      -0.082  -2.809  -3.659  0.00  0.00     0.000 A 
ATOM      5  C6  UNL d   1      -0.774  -2.907  -2.452  0.00  0.00     0.000 A 
ATOM      6  C7  UNL d   1      -0.203  -2.446  -1.253  0.00  0.00    -0.073 A 
ATOM      7  C8  UNL d   1      -0.992  -2.583   0.021  0.00  0.00     0.078 C 
ENDROOT
BRANCH   1   8
ATOM      8  C1  UNL d   1       1.799  -1.431  -0.020  0.00  0.00     0.053 C 
ATOM      9  C   UNL d   1       3.303  -1.653  -0.070  0.00  0.00     0.018 C 
ENDBRANCH   1   8
TORSDOF 1
ENDMDL
