MODEL 1
REMARK minimizedAffinity 1.76340079
REMARK minimizedRMSD -1
REMARK  1 active torsions:
REMARK  status: ('A' for Active; 'I' for Inactive)
REMARK    1  A    between atoms: C1_2  and  C2_3 
ROOT
ATOM      1  C2  UNL d   1       0.167  -2.065  -1.903  0.00  0.00    -0.076 A 
ATOM      2  C3  UNL d   1       0.157  -0.987  -1.001  0.00  0.00     0.004 A 
ATOM      3  C4  UNL d   1      -0.593  -1.040   0.172  0.00  0.00    -0.003 A 
ATOM      4  C5  UNL d   1      -1.344  -2.174   0.464  0.00  0.00     0.000 A 
ATOM      5  C6  UNL d   1      -1.332  -3.260  -0.410  0.00  0.00     0.000 A 
ATOM      6  C7  UNL d   1      -0.569  -3.228  -1.590  0.00  0.00    -0.073 A 
ATOM      7  C8  UNL d   1      -0.597  -4.426  -2.500  0.00  0.00     0.078 C 
ENDROOT
BRANCH   1   8
ATOM      8  C1  UNL d   1       0.977  -1.939  -3.174  0.00  0.00     0.053 C 
ATOM      9  C   UNL d   1       2.473  -2.043  -2.923  0.00  0.00     0.018 C 
ENDBRANCH   1   8
TORSDOF 1
ENDMDL
