MODEL 1
REMARK minimizedAffinity 3.01824331
REMARK minimizedRMSD -1
REMARK  1 active torsions:
REMARK  status: ('A' for Active; 'I' for Inactive)
REMARK    1  A    between atoms: C1_2  and  C2_3 
ROOT
ATOM      1  C2  UNL d   1       4.061   5.446  -3.477  0.00  0.00    -0.076 A 
ATOM      2  C3  UNL d   1       4.089   5.997  -2.184  0.00  0.00     0.004 A 
ATOM      3  C4  UNL d   1       5.050   5.600  -1.256  0.00  0.00    -0.003 A 
ATOM      4  C5  UNL d   1       5.999   4.646  -1.606  0.00  0.00     0.000 A 
ATOM      5  C6  UNL d   1       5.998   4.102  -2.890  0.00  0.00     0.000 A 
ATOM      6  C7  UNL d   1       5.046   4.504  -3.843  0.00  0.00    -0.073 A 
ATOM      7  C8  UNL d   1       5.087   3.880  -5.211  0.00  0.00     0.078 C 
ENDROOT
BRANCH   1   8
ATOM      8  C1  UNL d   1       2.979   5.895  -4.433  0.00  0.00     0.053 C 
ATOM      9  C   UNL d   1       3.474   6.000  -5.867  0.00  0.00     0.018 C 
ENDBRANCH   1   8
TORSDOF 1
ENDMDL
