MODEL 1
REMARK minimizedAffinity -0.40993014
REMARK minimizedRMSD -1
REMARK  1 active torsions:
REMARK  status: ('A' for Active; 'I' for Inactive)
REMARK    1  A    between atoms: C1_2  and  C2_3 
ROOT
ATOM      1  C2  UNL d   1       4.994   4.900  -3.385  0.00  0.00    -0.076 A 
ATOM      2  C3  UNL d   1       5.999   4.153  -4.024  0.00  0.00     0.004 A 
ATOM      3  C4  UNL d   1       5.821   3.673  -5.320  0.00  0.00    -0.003 A 
ATOM      4  C5  UNL d   1       4.635   3.931  -5.999  0.00  0.00     0.000 A 
ATOM      5  C6  UNL d   1       3.635   4.685  -5.387  0.00  0.00     0.000 A 
ATOM      6  C7  UNL d   1       3.804   5.191  -4.087  0.00  0.00    -0.073 A 
ATOM      7  C8  UNL d   1       2.690   5.994  -3.474  0.00  0.00     0.078 C 
ENDROOT
BRANCH   1   8
ATOM      8  C1  UNL d   1       5.232   5.372  -1.969  0.00  0.00     0.053 C 
ATOM      9  C   UNL d   1       5.997   4.355  -1.136  0.00  0.00     0.018 C 
ENDBRANCH   1   8
TORSDOF 1
ENDMDL
