MODEL 1
REMARK minimizedAffinity 4.1054244
REMARK minimizedRMSD -1
REMARK  1 active torsions:
REMARK  status: ('A' for Active; 'I' for Inactive)
REMARK    1  A    between atoms: C1_2  and  C2_3 
ROOT
ATOM      1  C2  UNL d   1       0.887  -2.429  -1.870  0.00  0.00    -0.076 A 
ATOM      2  C3  UNL d   1       0.076  -1.936  -2.908  0.00  0.00     0.004 A 
ATOM      3  C4  UNL d   1      -1.298  -1.783  -2.733  0.00  0.00    -0.003 A 
ATOM      4  C5  UNL d   1      -1.884  -2.119  -1.517  0.00  0.00     0.000 A 
ATOM      5  C6  UNL d   1      -1.092  -2.593  -0.472  0.00  0.00     0.000 A 
ATOM      6  C7  UNL d   1       0.297  -2.738  -0.626  0.00  0.00    -0.073 A 
ATOM      7  C8  UNL d   1       1.102  -3.258   0.533  0.00  0.00     0.078 C 
ENDROOT
BRANCH   1   8
ATOM      8  C1  UNL d   1       2.367  -2.599  -2.127  0.00  0.00     0.053 C 
ATOM      9  C   UNL d   1       2.776  -2.132  -3.516  0.00  0.00     0.018 C 
ENDBRANCH   1   8
TORSDOF 1
ENDMDL
