MODEL 1
REMARK minimizedAffinity 4.06918955
REMARK minimizedRMSD -1
REMARK  0 active torsions:
REMARK  status: ('A' for Active; 'I' for Inactive)
ROOT
ATOM      1  C1  BNZ d   1       2.375  -2.954   3.864  0.00  0.00     0.000 A 
ATOM      2  C2  BNZ d   1       2.368  -2.529   2.562  0.00  0.00     0.000 A 
ATOM      3  C3  BNZ d   1       1.347  -1.756   2.083  0.00  0.00     0.000 A 
ATOM      4  C4  BNZ d   1       0.316  -1.442   2.894  0.00  0.00     0.000 A 
ATOM      5  C5  BNZ d   1       0.304  -1.871   4.207  0.00  0.00     0.000 A 
ATOM      6  C6  BNZ d   1       1.352  -2.616   4.696  0.00  0.00     0.000 A 
ENDROOT
TORSDOF 0
ENDMDL
