MODEL 1
REMARK minimizedAffinity 3.65642738
REMARK minimizedRMSD -1
REMARK  0 active torsions:
REMARK  status: ('A' for Active; 'I' for Inactive)
ROOT
ATOM      1  C1  BNZ d   1       2.349   0.875   1.615  0.00  0.00     0.000 A 
ATOM      2  C2  BNZ d   1       2.486  -0.402   1.140  0.00  0.00     0.000 A 
ATOM      3  C3  BNZ d   1       1.758  -1.429   1.673  0.00  0.00     0.000 A 
ATOM      4  C4  BNZ d   1       0.924  -1.185   2.704  0.00  0.00     0.000 A 
ATOM      5  C5  BNZ d   1       0.782   0.096   3.200  0.00  0.00     0.000 A 
ATOM      6  C6  BNZ d   1       1.488   1.134   2.636  0.00  0.00     0.000 A 
ENDROOT
TORSDOF 0
ENDMDL
