MODEL 1
REMARK minimizedAffinity 7.97827625
REMARK minimizedRMSD -1
REMARK  0 active torsions:
REMARK  status: ('A' for Active; 'I' for Inactive)
ROOT
ATOM      1  C1  BNZ d   1       0.871   0.396   1.687  0.00  0.00     0.000 A 
ATOM      2  C2  BNZ d   1       0.231  -0.791   1.925  0.00  0.00     0.000 A 
ATOM      3  C3  BNZ d   1       0.936  -1.958   2.025  0.00  0.00     0.000 A 
ATOM      4  C4  BNZ d   1       2.273  -1.943   1.847  0.00  0.00     0.000 A 
ATOM      5  C5  BNZ d   1       2.931  -0.755   1.597  0.00  0.00     0.000 A 
ATOM      6  C6  BNZ d   1       2.223   0.423   1.536  0.00  0.00     0.000 A 
ENDROOT
TORSDOF 0
ENDMDL
