MODEL 1
REMARK minimizedAffinity 4.71310997
REMARK minimizedRMSD -1
REMARK  0 active torsions:
REMARK  status: ('A' for Active; 'I' for Inactive)
ROOT
ATOM      1  C1  BNZ d   1       3.637   5.849  -3.412  0.00  0.00     0.000 A 
ATOM      2  C2  BNZ d   1       3.635   5.876  -4.781  0.00  0.00     0.000 A 
ATOM      3  C3  BNZ d   1       4.807   5.931  -5.482  0.00  0.00     0.000 A 
ATOM      4  C4  BNZ d   1       5.977   5.998  -4.813  0.00  0.00     0.000 A 
ATOM      5  C5  BNZ d   1       5.995   5.981  -3.433  0.00  0.00     0.000 A 
ATOM      6  C6  BNZ d   1       4.815   5.887  -2.731  0.00  0.00     0.000 A 
ENDROOT
TORSDOF 0
ENDMDL
