MODEL 1
REMARK minimizedAffinity -1.1773932
REMARK minimizedRMSD -1
REMARK  0 active torsions:
REMARK  status: ('A' for Active; 'I' for Inactive)
ROOT
ATOM      1  C   UNL d   1       1.495  -0.560   1.524  0.00  0.00     0.172 C 
ATOM      2  N   UNL d   1       0.753  -0.955   2.698  0.00  0.00    -0.070 N 
ATOM      3  C1  UNL d   1       1.280  -1.556   3.810  0.00  0.00    -0.004 A 
ATOM      4  C2  UNL d   1       0.250  -1.769   4.702  0.00  0.00    -0.047 A 
ATOM      5  C3  UNL d   1      -0.936  -1.281   4.104  0.00  0.00    -0.047 A 
ATOM      6  C4  UNL d   1      -0.596  -0.783   2.864  0.00  0.00    -0.004 A 
ENDROOT
TORSDOF 0
ENDMDL
