MODEL 1
REMARK minimizedAffinity -0.418504447
REMARK minimizedRMSD -1
REMARK  0 active torsions:
REMARK  status: ('A' for Active; 'I' for Inactive)
ROOT
ATOM      1  C   UNL d   1       2.467  -1.021   2.406  0.00  0.00     0.172 C 
ATOM      2  N   UNL d   1       1.056  -0.715   2.418  0.00  0.00    -0.070 N 
ATOM      3  C1  UNL d   1       0.165  -1.093   3.388  0.00  0.00    -0.004 A 
ATOM      4  C2  UNL d   1      -1.075  -0.608   3.033  0.00  0.00    -0.047 A 
ATOM      5  C3  UNL d   1      -0.925   0.084   1.808  0.00  0.00    -0.047 A 
ATOM      6  C4  UNL d   1       0.404   0.002   1.450  0.00  0.00    -0.004 A 
ENDROOT
TORSDOF 0
ENDMDL
