MODEL 1
REMARK minimizedAffinity 0.228526622
REMARK minimizedRMSD -1
REMARK  0 active torsions:
REMARK  status: ('A' for Active; 'I' for Inactive)
ROOT
ATOM      1  C   UNL d   1       1.113  -1.897   4.118  0.00  0.00     0.172 C 
ATOM      2  N   UNL d   1       0.289  -1.214   3.148  0.00  0.00    -0.070 N 
ATOM      3  C1  UNL d   1      -1.072  -1.080   3.209  0.00  0.00    -0.004 A 
ATOM      4  C2  UNL d   1      -1.476  -0.367   2.101  0.00  0.00    -0.047 A 
ATOM      5  C3  UNL d   1      -0.318  -0.063   1.347  0.00  0.00    -0.047 A 
ATOM      6  C4  UNL d   1       0.761  -0.599   2.018  0.00  0.00    -0.004 A 
ENDROOT
TORSDOF 0
ENDMDL
