MODEL 1
REMARK minimizedAffinity 0.0799512044
REMARK minimizedRMSD -1
REMARK  0 active torsions:
REMARK  status: ('A' for Active; 'I' for Inactive)
ROOT
ATOM      1  C   UNL d   1      -2.235  -1.079   2.502  0.00  0.00     0.172 C 
ATOM      2  N   UNL d   1      -0.855  -1.152   2.922  0.00  0.00    -0.070 N 
ATOM      3  C1  UNL d   1       0.093  -0.185   2.718  0.00  0.00    -0.004 A 
ATOM      4  C2  UNL d   1       1.276  -0.632   3.264  0.00  0.00    -0.047 A 
ATOM      5  C3  UNL d   1       1.031  -1.913   3.815  0.00  0.00    -0.047 A 
ATOM      6  C4  UNL d   1      -0.296  -2.210   3.589  0.00  0.00    -0.004 A 
ENDROOT
TORSDOF 0
ENDMDL
