MODEL 1
REMARK minimizedAffinity -3.56069279
REMARK minimizedRMSD -1
REMARK  0 active torsions:
REMARK  status: ('A' for Active; 'I' for Inactive)
ROOT
ATOM      1  C   UNL d   1       0.750  -2.328   4.443  0.00  0.00     0.172 C 
ATOM      2  N   UNL d   1       0.446  -1.403   3.377  0.00  0.00    -0.070 N 
ATOM      3  C1  UNL d   1       1.334  -0.945   2.441  0.00  0.00    -0.004 A 
ATOM      4  C2  UNL d   1       0.657  -0.085   1.603  0.00  0.00    -0.047 A 
ATOM      5  C3  UNL d   1      -0.684  -0.024   2.051  0.00  0.00    -0.047 A 
ATOM      6  C4  UNL d   1      -0.787  -0.850   3.151  0.00  0.00    -0.004 A 
ENDROOT
TORSDOF 0
ENDMDL
