MODEL 1
REMARK minimizedAffinity 1.7528621
REMARK minimizedRMSD -1
REMARK  0 active torsions:
REMARK  status: ('A' for Active; 'I' for Inactive)
ROOT
ATOM      1  C   UNL d   1      -4.266  -5.685  -2.106  0.00  0.00     0.172 C 
ATOM      2  N   UNL d   1      -4.272  -4.244  -2.011  0.00  0.00    -0.070 N 
ATOM      3  C1  UNL d   1      -3.376  -3.487  -1.303  0.00  0.00    -0.004 A 
ATOM      4  C2  UNL d   1      -3.722  -2.163  -1.466  0.00  0.00    -0.047 A 
ATOM      5  C3  UNL d   1      -4.866  -2.123  -2.299  0.00  0.00    -0.047 A 
ATOM      6  C4  UNL d   1      -5.184  -3.425  -2.621  0.00  0.00    -0.004 A 
ENDROOT
TORSDOF 0
ENDMDL
