MODEL 1
REMARK minimizedAffinity -2.30390072
REMARK minimizedRMSD -1
REMARK  0 active torsions:
REMARK  status: ('A' for Active; 'I' for Inactive)
ROOT
ATOM      1  C   UNL d   1       1.896  -2.683   4.668  0.00  0.00     0.172 C 
ATOM      2  N   UNL d   1       1.273  -1.691   3.823  0.00  0.00    -0.070 N 
ATOM      3  C1  UNL d   1       1.401  -0.334   3.956  0.00  0.00    -0.004 A 
ATOM      4  C2  UNL d   1       0.656   0.260   2.960  0.00  0.00    -0.047 A 
ATOM      5  C3  UNL d   1       0.060  -0.776   2.202  0.00  0.00    -0.047 A 
ATOM      6  C4  UNL d   1       0.459  -1.973   2.758  0.00  0.00    -0.004 A 
ENDROOT
TORSDOF 0
ENDMDL
