MODEL 1
REMARK minimizedAffinity 1.06496775
REMARK minimizedRMSD -1
REMARK  0 active torsions:
REMARK  status: ('A' for Active; 'I' for Inactive)
ROOT
ATOM      1  C   UNL d   1       1.824  -0.844   2.682  0.00  0.00     0.172 C 
ATOM      2  N   UNL d   1       2.735   0.258   2.884  0.00  0.00    -0.070 N 
ATOM      3  C1  UNL d   1       3.505   0.463   3.997  0.00  0.00    -0.004 A 
ATOM      4  C2  UNL d   1       4.232   1.618   3.800  0.00  0.00    -0.047 A 
ATOM      5  C3  UNL d   1       3.886   2.124   2.525  0.00  0.00    -0.047 A 
ATOM      6  C4  UNL d   1       2.957   1.262   1.979  0.00  0.00    -0.004 A 
ENDROOT
TORSDOF 0
ENDMDL
