MODEL 1
REMARK minimizedAffinity -2.77744102
REMARK minimizedRMSD -1
REMARK  0 active torsions:
REMARK  status: ('A' for Active; 'I' for Inactive)
ROOT
ATOM      1  C4' PXY d   1      -1.402   2.785   1.975  0.00  0.00     0.077 C 
ATOM      2  C1' PXY d   1       1.003  -1.329  -1.298  0.00  0.00     0.077 C 
ATOM      3  C1  PXY d   1       0.375  -0.257  -0.429  0.00  0.00    -0.082 A 
ATOM      4  C2  PXY d   1      -0.482   0.599  -0.963  0.00  0.00     0.003 A 
ATOM      5  C3  PXY d   1      -1.035   1.594  -0.198  0.00  0.00     0.003 A 
ATOM      6  C4  PXY d   1      -0.750   1.681   1.138  0.00  0.00    -0.082 A 
ATOM      7  C5  PXY d   1       0.115   0.805   1.692  0.00  0.00     0.003 A 
ATOM      8  C6  PXY d   1       0.697  -0.173   0.890  0.00  0.00     0.003 A 
ENDROOT
TORSDOF 0
ENDMDL
