MODEL 1
REMARK minimizedAffinity 2.32842755
REMARK minimizedRMSD -1
REMARK  0 active torsions:
REMARK  status: ('A' for Active; 'I' for Inactive)
ROOT
ATOM      1  C4' PXY d   1      -0.323   2.576   1.927  0.00  0.00     0.077 C 
ATOM      2  C1' PXY d   1       0.781  -2.552  -0.504  0.00  0.00     0.077 C 
ATOM      3  C1  PXY d   1       0.494  -1.212   0.145  0.00  0.00    -0.082 A 
ATOM      4  C2  PXY d   1      -0.306  -0.350  -0.460  0.00  0.00     0.003 A 
ATOM      5  C3  PXY d   1      -0.551   0.879   0.098  0.00  0.00     0.003 A 
ATOM      6  C4  PXY d   1      -0.013   1.208   1.313  0.00  0.00    -0.082 A 
ATOM      7  C5  PXY d   1       0.796   0.329   1.942  0.00  0.00     0.003 A 
ATOM      8  C6  PXY d   1       1.065  -0.897   1.340  0.00  0.00     0.003 A 
ENDROOT
TORSDOF 0
ENDMDL
