MODEL 1
REMARK minimizedAffinity -4.42622709
REMARK minimizedRMSD -1
REMARK  0 active torsions:
REMARK  status: ('A' for Active; 'I' for Inactive)
ROOT
ATOM      1  C4' PXY d   1      -0.069  -3.455  -0.791  0.00  0.00     0.077 C 
ATOM      2  C1' PXY d   1      -0.208   1.470   2.232  0.00  0.00     0.077 C 
ATOM      3  C1  PXY d   1      -0.172   0.186   1.428  0.00  0.00    -0.082 A 
ATOM      4  C2  PXY d   1      -0.587  -0.943   1.979  0.00  0.00     0.003 A 
ATOM      5  C3  PXY d   1      -0.532  -2.119   1.278  0.00  0.00     0.003 A 
ATOM      6  C4  PXY d   1      -0.096  -2.132  -0.020  0.00  0.00    -0.082 A 
ATOM      7  C5  PXY d   1       0.320  -0.983  -0.594  0.00  0.00     0.003 A 
ATOM      8  C6  PXY d   1       0.294   0.194   0.149  0.00  0.00     0.003 A 
ENDROOT
TORSDOF 0
ENDMDL
