MODEL 1
REMARK minimizedAffinity -4.43057251
REMARK minimizedRMSD -1
REMARK  0 active torsions:
REMARK  status: ('A' for Active; 'I' for Inactive)
ROOT
ATOM      1  C4' PXY d   1       0.233   1.378   1.877  0.00  0.00     0.077 C 
ATOM      2  C1' PXY d   1      -0.665  -3.083  -1.687  0.00  0.00     0.077 C 
ATOM      3  C1  PXY d   1      -0.417  -1.913  -0.756  0.00  0.00    -0.082 A 
ATOM      4  C2  PXY d   1      -1.219  -1.718   0.278  0.00  0.00     0.003 A 
ATOM      5  C3  PXY d   1      -1.028  -0.647   1.112  0.00  0.00     0.003 A 
ATOM      6  C4  PXY d   1       0.026   0.205   0.916  0.00  0.00    -0.082 A 
ATOM      7  C5  PXY d   1       0.856   0.007  -0.130  0.00  0.00     0.003 A 
ATOM      8  C6  PXY d   1       0.620  -1.063  -0.989  0.00  0.00     0.003 A 
ENDROOT
TORSDOF 0
ENDMDL
