MODEL 1
REMARK minimizedAffinity -0.0591945313
REMARK minimizedRMSD -1
REMARK  0 active torsions:
REMARK  status: ('A' for Active; 'I' for Inactive)
ROOT
ATOM      1  C4' PXY d   1       0.166   4.131  -0.224  0.00  0.00     0.077 C 
ATOM      2  C1' PXY d   1      -0.309  -1.618   0.143  0.00  0.00     0.077 C 
ATOM      3  C1  PXY d   1      -0.189  -0.110   0.059  0.00  0.00    -0.082 A 
ATOM      4  C2  PXY d   1      -0.219   0.484  -1.123  0.00  0.00     0.003 A 
ATOM      5  C3  PXY d   1      -0.080   1.845  -1.220  0.00  0.00     0.003 A 
ATOM      6  C4  PXY d   1       0.039   2.611  -0.091  0.00  0.00    -0.082 A 
ATOM      7  C5  PXY d   1       0.060   2.013   1.119  0.00  0.00     0.003 A 
ATOM      8  C6  PXY d   1      -0.042   0.627   1.193  0.00  0.00     0.003 A 
ENDROOT
TORSDOF 0
ENDMDL
