MODEL 1
REMARK minimizedAffinity 6.75899458
REMARK minimizedRMSD -1
REMARK  0 active torsions:
REMARK  status: ('A' for Active; 'I' for Inactive)
ROOT
ATOM      1  C4' PXY d   1       1.131  -2.340   0.337  0.00  0.00     0.077 C 
ATOM      2  C1' PXY d   1       0.394   3.112   2.111  0.00  0.00     0.077 C 
ATOM      3  C1  PXY d   1       0.591   1.679   1.658  0.00  0.00    -0.082 A 
ATOM      4  C2  PXY d   1       0.864   1.426   0.388  0.00  0.00     0.003 A 
ATOM      5  C3  PXY d   1       1.013   0.133  -0.045  0.00  0.00     0.003 A 
ATOM      6  C4  PXY d   1       0.934  -0.907   0.841  0.00  0.00    -0.082 A 
ATOM      7  C5  PXY d   1       0.667  -0.657   2.140  0.00  0.00     0.003 A 
ATOM      8  C6  PXY d   1       0.478   0.659   2.552  0.00  0.00     0.003 A 
ENDROOT
TORSDOF 0
ENDMDL
