MODEL 1
REMARK minimizedAffinity 3.82555389
REMARK minimizedRMSD -1
REMARK  0 active torsions:
REMARK  status: ('A' for Active; 'I' for Inactive)
ROOT
ATOM      1  C4' PXY d   1      -0.190   1.329  -1.212  0.00  0.00     0.077 C 
ATOM      2  C1' PXY d   1       1.135  -1.101   3.863  0.00  0.00     0.077 C 
ATOM      3  C1  PXY d   1       0.780  -0.455   2.538  0.00  0.00    -0.082 A 
ATOM      4  C2  PXY d   1       0.911  -1.146   1.417  0.00  0.00     0.003 A 
ATOM      5  C3  PXY d   1       0.625  -0.567   0.208  0.00  0.00     0.003 A 
ATOM      6  C4  PXY d   1       0.148   0.715   0.149  0.00  0.00    -0.082 A 
ATOM      7  C5  PXY d   1       0.001   1.423   1.289  0.00  0.00     0.003 A 
ATOM      8  C6  PXY d   1       0.337   0.831   2.503  0.00  0.00     0.003 A 
ENDROOT
TORSDOF 0
ENDMDL
