MODEL 1
REMARK minimizedAffinity -4.4553318
REMARK minimizedRMSD -1
REMARK  0 active torsions:
REMARK  status: ('A' for Active; 'I' for Inactive)
ROOT
ATOM      1  C4' PXY d   1      -0.479  -2.095  -0.772  0.00  0.00     0.077 C 
ATOM      2  C1' PXY d   1      -1.272   3.185   1.443  0.00  0.00     0.077 C 
ATOM      3  C1  PXY d   1      -1.064   1.806   0.850  0.00  0.00    -0.082 A 
ATOM      4  C2  PXY d   1      -1.408   0.735   1.548  0.00  0.00     0.003 A 
ATOM      5  C3  PXY d   1      -1.197  -0.521   1.040  0.00  0.00     0.003 A 
ATOM      6  C4  PXY d   1      -0.679  -0.682  -0.217  0.00  0.00    -0.082 A 
ATOM      7  C5  PXY d   1      -0.336   0.405  -0.940  0.00  0.00     0.003 A 
ATOM      8  C6  PXY d   1      -0.519   1.671  -0.390  0.00  0.00     0.003 A 
ENDROOT
TORSDOF 0
ENDMDL
