MODEL 1
REMARK minimizedAffinity 8.19601917
REMARK minimizedRMSD -1
REMARK  0 active torsions:
REMARK  status: ('A' for Active; 'I' for Inactive)
ROOT
ATOM      1  C4' PXY d   1      -2.158   0.839   0.800  0.00  0.00     0.077 C 
ATOM      2  C1' PXY d   1       2.011   4.248   2.902  0.00  0.00     0.077 C 
ATOM      3  C1  PXY d   1       0.927   3.347   2.344  0.00  0.00    -0.082 A 
ATOM      4  C2  PXY d   1      -0.325   3.776   2.306  0.00  0.00     0.003 A 
ATOM      5  C3  PXY d   1      -1.323   2.963   1.835  0.00  0.00     0.003 A 
ATOM      6  C4  PXY d   1      -1.029   1.717   1.346  0.00  0.00    -0.082 A 
ATOM      7  C5  PXY d   1       0.247   1.277   1.371  0.00  0.00     0.003 A 
ATOM      8  C6  PXY d   1       1.239   2.102   1.892  0.00  0.00     0.003 A 
ENDROOT
TORSDOF 0
ENDMDL
