MODEL 1
REMARK minimizedAffinity 3.21398115
REMARK minimizedRMSD -1
REMARK  0 active torsions:
REMARK  status: ('A' for Active; 'I' for Inactive)
ROOT
ATOM      1  C4' PXY d   1      -1.223  -4.199  -2.194  0.00  0.00     0.077 C 
ATOM      2  C1' PXY d   1      -0.897   1.571  -2.083  0.00  0.00     0.077 C 
ATOM      3  C1  PXY d   1      -0.995   0.059  -2.110  0.00  0.00    -0.082 A 
ATOM      4  C2  PXY d   1       0.075  -0.672  -1.839  0.00  0.00     0.003 A 
ATOM      5  C3  PXY d   1       0.011  -2.040  -1.890  0.00  0.00     0.003 A 
ATOM      6  C4  PXY d   1      -1.173  -2.669  -2.169  0.00  0.00    -0.082 A 
ATOM      7  C5  PXY d   1      -2.271  -1.931  -2.437  0.00  0.00     0.003 A 
ATOM      8  C6  PXY d   1      -2.176  -0.543  -2.420  0.00  0.00     0.003 A 
ENDROOT
TORSDOF 0
ENDMDL
