MODEL 1
REMARK minimizedAffinity 5.23278332
REMARK minimizedRMSD -1
REMARK  0 active torsions:
REMARK  status: ('A' for Active; 'I' for Inactive)
ROOT
ATOM      1  C4' PXY d   1       3.000  -5.920  -3.993  0.00  0.00     0.077 C 
ATOM      2  C1' PXY d   1       6.000  -1.882  -1.145  0.00  0.00     0.077 C 
ATOM      3  C1  PXY d   1       5.211  -2.947  -1.881  0.00  0.00    -0.082 A 
ATOM      4  C2  PXY d   1       5.381  -3.104  -3.184  0.00  0.00     0.003 A 
ATOM      5  C3  PXY d   1       4.653  -4.041  -3.870  0.00  0.00     0.003 A 
ATOM      6  C4  PXY d   1       3.781  -4.863  -3.207  0.00  0.00    -0.082 A 
ATOM      7  C5  PXY d   1       3.610  -4.716  -1.876  0.00  0.00     0.003 A 
ATOM      8  C6  PXY d   1       4.328  -3.731  -1.205  0.00  0.00     0.003 A 
ENDROOT
TORSDOF 0
ENDMDL
