MODEL 1
REMARK minimizedAffinity 3.68680358
REMARK minimizedRMSD -1
REMARK  0 active torsions:
REMARK  status: ('A' for Active; 'I' for Inactive)
ROOT
ATOM      1  C4' PXY d   1      -1.237   3.183  -1.338  0.00  0.00     0.077 C 
ATOM      2  C1' PXY d   1       0.302   1.062   3.814  0.00  0.00     0.077 C 
ATOM      3  C1  PXY d   1      -0.114   1.619   2.467  0.00  0.00    -0.082 A 
ATOM      4  C2  PXY d   1       0.607   1.340   1.393  0.00  0.00     0.003 A 
ATOM      5  C3  PXY d   1       0.263   1.861   0.172  0.00  0.00     0.003 A 
ATOM      6  C4  PXY d   1      -0.860   2.634   0.041  0.00  0.00    -0.082 A 
ATOM      7  C5  PXY d   1      -1.606   2.915   1.130  0.00  0.00     0.003 A 
ATOM      8  C6  PXY d   1      -1.217   2.409   2.367  0.00  0.00     0.003 A 
ENDROOT
TORSDOF 0
ENDMDL
