MODEL 1
REMARK minimizedAffinity 2.27230167
REMARK minimizedRMSD -1
REMARK  1 active torsions:
REMARK  status: ('A' for Active; 'I' for Inactive)
REMARK    1  A    between atoms: C3_4  and  O_7 
ROOT
ATOM      1  C   UNL d   1       1.906  -1.621  -2.603  0.00  0.00    -0.033 A 
ATOM      2  C1  UNL d   1       1.488  -0.300  -2.778  0.00  0.00     0.039 A 
ATOM      3  C2  UNL d   1       1.763   0.656  -1.798  0.00  0.00    -0.080 A 
ATOM      4  C3  UNL d   1       2.456   0.280  -0.651  0.00  0.00     0.150 A 
ATOM      5  C4  UNL d   1       2.878  -1.033  -0.472  0.00  0.00    -0.007 A 
ATOM      6  C5  UNL d   1       2.602  -1.987  -1.451  0.00  0.00     0.039 A 
ENDROOT
BRANCH   4   7
ATOM      7  O   UNL d   1       2.743   1.177   0.335  0.00  0.00    -0.526 OA
ATOM      8  H5  UNL d   1       2.364   2.037   0.088  0.00  0.00     0.418 HD
ENDBRANCH   4   7
TORSDOF 1
ENDMDL
