MODEL 1
REMARK minimizedAffinity -3.12959695
REMARK minimizedRMSD -1
REMARK  1 active torsions:
REMARK  status: ('A' for Active; 'I' for Inactive)
REMARK    1  A    between atoms: C3_4  and  O_7 
ROOT
ATOM      1  C   UNL d   1       0.419   2.146   0.197  0.00  0.00    -0.033 A 
ATOM      2  C1  UNL d   1       1.813   2.117   0.265  0.00  0.00     0.039 A 
ATOM      3  C2  UNL d   1       2.538   3.311   0.282  0.00  0.00    -0.080 A 
ATOM      4  C3  UNL d   1       1.857   4.524   0.231  0.00  0.00     0.150 A 
ATOM      5  C4  UNL d   1       0.468   4.560   0.167  0.00  0.00    -0.007 A 
ATOM      6  C5  UNL d   1      -0.254   3.368   0.150  0.00  0.00     0.039 A 
ENDROOT
BRANCH   4   7
ATOM      7  O   UNL d   1       2.522   5.715   0.240  0.00  0.00    -0.526 OA
ATOM      8  H5  UNL d   1       3.476   5.534   0.257  0.00  0.00     0.418 HD
ENDBRANCH   4   7
TORSDOF 1
ENDMDL
