MODEL 1
REMARK minimizedAffinity 1.75844169
REMARK minimizedRMSD -1
REMARK  1 active torsions:
REMARK  status: ('A' for Active; 'I' for Inactive)
REMARK    1  A    between atoms: C3_4  and  O_7 
ROOT
ATOM      1  C   UNL d   1      -0.256   2.246   0.890  0.00  0.00    -0.033 A 
ATOM      2  C1  UNL d   1      -1.057   3.142   0.180  0.00  0.00     0.039 A 
ATOM      3  C2  UNL d   1      -2.374   2.803  -0.139  0.00  0.00    -0.080 A 
ATOM      4  C3  UNL d   1      -2.876   1.567   0.259  0.00  0.00     0.150 A 
ATOM      5  C4  UNL d   1      -2.085   0.671   0.970  0.00  0.00    -0.007 A 
ATOM      6  C5  UNL d   1      -0.770   1.011   1.286  0.00  0.00     0.039 A 
ENDROOT
BRANCH   4   7
ATOM      7  O   UNL d   1      -4.154   1.190  -0.033  0.00  0.00    -0.526 OA
ATOM      8  H5  UNL d   1      -4.572   1.897  -0.552  0.00  0.00     0.418 HD
ENDBRANCH   4   7
TORSDOF 1
ENDMDL
