MODEL 1
REMARK minimizedAffinity 0.53789115
REMARK minimizedRMSD -1
REMARK  1 active torsions:
REMARK  status: ('A' for Active; 'I' for Inactive)
REMARK    1  A    between atoms: C3_4  and  O_7 
ROOT
ATOM      1  C   UNL d   1       0.154   3.004   0.692  0.00  0.00    -0.033 A 
ATOM      2  C1  UNL d   1       0.521   1.756   0.184  0.00  0.00     0.039 A 
ATOM      3  C2  UNL d   1       0.260   0.597   0.918  0.00  0.00    -0.080 A 
ATOM      4  C3  UNL d   1      -0.368   0.700   2.156  0.00  0.00     0.150 A 
ATOM      5  C4  UNL d   1      -0.740   1.940   2.666  0.00  0.00    -0.007 A 
ATOM      6  C5  UNL d   1      -0.478   3.095   1.932  0.00  0.00     0.039 A 
ENDROOT
BRANCH   4   7
ATOM      7  O   UNL d   1      -0.639  -0.402   2.912  0.00  0.00    -0.526 OA
ATOM      8  H5  UNL d   1      -0.300  -1.185   2.446  0.00  0.00     0.418 HD
ENDBRANCH   4   7
TORSDOF 1
ENDMDL
