MODEL 1
REMARK minimizedAffinity 3.81536293
REMARK minimizedRMSD -1
REMARK  1 active torsions:
REMARK  status: ('A' for Active; 'I' for Inactive)
REMARK    1  A    between atoms: C3_4  and  O_7 
ROOT
ATOM      1  C   UNL d   1       2.443   0.089  -0.042  0.00  0.00    -0.033 A 
ATOM      2  C1  UNL d   1       1.620  -1.008  -0.307  0.00  0.00     0.039 A 
ATOM      3  C2  UNL d   1       0.967  -1.113  -1.536  0.00  0.00    -0.080 A 
ATOM      4  C3  UNL d   1       1.145  -0.117  -2.492  0.00  0.00     0.150 A 
ATOM      5  C4  UNL d   1       1.966   0.977  -2.237  0.00  0.00    -0.007 A 
ATOM      6  C5  UNL d   1       2.617   1.080  -1.008  0.00  0.00     0.039 A 
ENDROOT
BRANCH   4   7
ATOM      7  O   UNL d   1       0.525  -0.173  -3.704  0.00  0.00    -0.526 OA
ATOM      8  H5  UNL d   1      -0.032  -0.969  -3.728  0.00  0.00     0.418 HD
ENDBRANCH   4   7
TORSDOF 1
ENDMDL
