MODEL 1
REMARK minimizedAffinity 0.160993278
REMARK minimizedRMSD -1
REMARK  1 active torsions:
REMARK  status: ('A' for Active; 'I' for Inactive)
REMARK    1  A    between atoms: C3_4  and  O_7 
ROOT
ATOM      1  C   UNL d   1      -4.326   0.803   1.821  0.00  0.00    -0.033 A 
ATOM      2  C1  UNL d   1      -2.951   0.704   1.597  0.00  0.00     0.039 A 
ATOM      3  C2  UNL d   1      -2.298   1.665   0.821  0.00  0.00    -0.080 A 
ATOM      4  C3  UNL d   1      -3.029   2.717   0.278  0.00  0.00     0.150 A 
ATOM      5  C4  UNL d   1      -4.398   2.823   0.500  0.00  0.00    -0.007 A 
ATOM      6  C5  UNL d   1      -5.049   1.863   1.274  0.00  0.00     0.039 A 
ENDROOT
BRANCH   4   7
ATOM      7  O   UNL d   1      -2.436   3.675  -0.489  0.00  0.00    -0.526 OA
ATOM      8  H5  UNL d   1      -1.494   3.457  -0.581  0.00  0.00     0.418 HD
ENDBRANCH   4   7
TORSDOF 1
ENDMDL
