MODEL 1
REMARK minimizedAffinity 5.13558912
REMARK minimizedRMSD -1
REMARK  1 active torsions:
REMARK  status: ('A' for Active; 'I' for Inactive)
REMARK    1  A    between atoms: C3_4  and  O_7 
ROOT
ATOM      1  C   UNL d   1      -5.196   0.947   1.548  0.00  0.00    -0.033 A 
ATOM      2  C1  UNL d   1      -3.876   0.492   1.504  0.00  0.00     0.039 A 
ATOM      3  C2  UNL d   1      -2.879   1.290   0.942  0.00  0.00    -0.080 A 
ATOM      4  C3  UNL d   1      -3.213   2.540   0.428  0.00  0.00     0.150 A 
ATOM      5  C4  UNL d   1      -4.524   3.002   0.472  0.00  0.00    -0.007 A 
ATOM      6  C5  UNL d   1      -5.519   2.203   1.033  0.00  0.00     0.039 A 
ENDROOT
BRANCH   4   7
ATOM      7  O   UNL d   1      -2.274   3.353  -0.135  0.00  0.00    -0.526 OA
ATOM      8  H5  UNL d   1      -1.419   2.892  -0.121  0.00  0.00     0.418 HD
ENDBRANCH   4   7
TORSDOF 1
ENDMDL
