MODEL 1
REMARK minimizedAffinity -0.508161902
REMARK minimizedRMSD -1
REMARK  1 active torsions:
REMARK  status: ('A' for Active; 'I' for Inactive)
REMARK    1  A    between atoms: C3_4  and  O_7 
ROOT
ATOM      1  C   UNL d   1       1.221  -3.337   1.361  0.00  0.00    -0.033 A 
ATOM      2  C1  UNL d   1       2.242  -2.634   0.719  0.00  0.00     0.039 A 
ATOM      3  C2  UNL d   1       3.392  -3.301   0.294  0.00  0.00    -0.080 A 
ATOM      4  C3  UNL d   1       3.508  -4.671   0.514  0.00  0.00     0.150 A 
ATOM      5  C4  UNL d   1       2.493  -5.379   1.149  0.00  0.00    -0.007 A 
ATOM      6  C5  UNL d   1       1.346  -4.711   1.574  0.00  0.00     0.039 A 
ENDROOT
BRANCH   4   7
ATOM      7  O   UNL d   1       4.613  -5.365   0.121  0.00  0.00    -0.526 OA
ATOM      8  H5  UNL d   1       5.243  -4.741  -0.278  0.00  0.00     0.418 HD
ENDBRANCH   4   7
TORSDOF 1
ENDMDL
