MODEL 1
REMARK minimizedAffinity 2.91312265
REMARK minimizedRMSD -1
REMARK  1 active torsions:
REMARK  status: ('A' for Active; 'I' for Inactive)
REMARK    1  A    between atoms: C3_4  and  O_7 
ROOT
ATOM      1  C   UNL d   1       3.044   1.263  -0.061  0.00  0.00    -0.033 A 
ATOM      2  C1  UNL d   1       1.731   1.152  -0.525  0.00  0.00     0.039 A 
ATOM      3  C2  UNL d   1       1.486   0.840  -1.863  0.00  0.00    -0.080 A 
ATOM      4  C3  UNL d   1       2.560   0.641  -2.726  0.00  0.00     0.150 A 
ATOM      5  C4  UNL d   1       3.870   0.746  -2.271  0.00  0.00    -0.007 A 
ATOM      6  C5  UNL d   1       4.113   1.059  -0.934  0.00  0.00     0.039 A 
ENDROOT
BRANCH   4   7
ATOM      7  O   UNL d   1       2.370   0.340  -4.042  0.00  0.00    -0.526 OA
ATOM      8  H5  UNL d   1       1.415   0.328  -4.221  0.00  0.00     0.418 HD
ENDBRANCH   4   7
TORSDOF 1
ENDMDL
