MODEL 1
REMARK minimizedAffinity 0.428825766
REMARK minimizedRMSD -1
REMARK  1 active torsions:
REMARK  status: ('A' for Active; 'I' for Inactive)
REMARK    1  A    between atoms: C3_4  and  O_7 
ROOT
ATOM      1  C   UNL d   1      -0.080   1.898   0.791  0.00  0.00    -0.033 A 
ATOM      2  C1  UNL d   1      -0.809   0.888   1.422  0.00  0.00     0.039 A 
ATOM      3  C2  UNL d   1      -2.177   0.756   1.177  0.00  0.00    -0.080 A 
ATOM      4  C3  UNL d   1      -2.803   1.637   0.301  0.00  0.00     0.150 A 
ATOM      5  C4  UNL d   1      -2.082   2.644  -0.334  0.00  0.00    -0.007 A 
ATOM      6  C5  UNL d   1      -0.716   2.775  -0.088  0.00  0.00     0.039 A 
ENDROOT
BRANCH   4   7
ATOM      7  O   UNL d   1      -4.137   1.551   0.035  0.00  0.00    -0.526 OA
ATOM      8  H5  UNL d   1      -4.511   0.828   0.566  0.00  0.00     0.418 HD
ENDBRANCH   4   7
TORSDOF 1
ENDMDL
