MODEL 1
REMARK minimizedAffinity -1.17198288
REMARK minimizedRMSD -1
REMARK  1 active torsions:
REMARK  status: ('A' for Active; 'I' for Inactive)
REMARK    1  A    between atoms: C3_4  and  O_7 
ROOT
ATOM      1  C   UNL d   1       3.591   2.258   0.144  0.00  0.00    -0.033 A 
ATOM      2  C1  UNL d   1       2.914   3.391  -0.312  0.00  0.00     0.039 A 
ATOM      3  C2  UNL d   1       1.546   3.532  -0.071  0.00  0.00    -0.080 A 
ATOM      4  C3  UNL d   1       0.868   2.536   0.626  0.00  0.00     0.150 A 
ATOM      5  C4  UNL d   1       1.538   1.407   1.087  0.00  0.00    -0.007 A 
ATOM      6  C5  UNL d   1       2.904   1.267   0.845  0.00  0.00     0.039 A 
ENDROOT
BRANCH   4   7
ATOM      7  O   UNL d   1      -0.468   2.627   0.881  0.00  0.00    -0.526 OA
ATOM      8  H5  UNL d   1      -0.803   3.445   0.479  0.00  0.00     0.418 HD
ENDBRANCH   4   7
TORSDOF 1
ENDMDL
