MODEL 1
REMARK minimizedAffinity 1.5582068
REMARK minimizedRMSD -1
REMARK  1 active torsions:
REMARK  status: ('A' for Active; 'I' for Inactive)
REMARK    1  A    between atoms: C3_4  and  O_7 
ROOT
ATOM      1  C   UNL d   1       0.005   2.831   0.036  0.00  0.00    -0.033 A 
ATOM      2  C1  UNL d   1      -0.465   1.883   0.946  0.00  0.00     0.039 A 
ATOM      3  C2  UNL d   1      -1.804   1.487   0.915  0.00  0.00    -0.080 A 
ATOM      4  C3  UNL d   1      -2.660   2.045  -0.030  0.00  0.00     0.150 A 
ATOM      5  C4  UNL d   1      -2.197   2.987  -0.943  0.00  0.00    -0.007 A 
ATOM      6  C5  UNL d   1      -0.860   3.382  -0.910  0.00  0.00     0.039 A 
ENDROOT
BRANCH   4   7
ATOM      7  O   UNL d   1      -3.975   1.693  -0.096  0.00  0.00    -0.526 OA
ATOM      8  H5  UNL d   1      -4.159   1.055   0.614  0.00  0.00     0.418 HD
ENDBRANCH   4   7
TORSDOF 1
ENDMDL
