MODEL 1
REMARK minimizedAffinity 1.60635412
REMARK minimizedRMSD -1
REMARK  1 active torsions:
REMARK  status: ('A' for Active; 'I' for Inactive)
REMARK    1  A    between atoms: C3_4  and  O_7 
ROOT
ATOM      1  C   UNL d   1       0.647   3.285   0.947  0.00  0.00    -0.033 A 
ATOM      2  C1  UNL d   1       1.040   2.975   2.250  0.00  0.00     0.039 A 
ATOM      3  C2  UNL d   1       2.213   2.250   2.473  0.00  0.00    -0.080 A 
ATOM      4  C3  UNL d   1       2.981   1.843   1.386  0.00  0.00     0.150 A 
ATOM      5  C4  UNL d   1       2.597   2.152   0.086  0.00  0.00    -0.007 A 
ATOM      6  C5  UNL d   1       1.426   2.875  -0.135  0.00  0.00     0.039 A 
ENDROOT
BRANCH   4   7
ATOM      7  O   UNL d   1       4.131   1.129   1.554  0.00  0.00    -0.526 OA
ATOM      8  H5  UNL d   1       4.255   0.965   2.504  0.00  0.00     0.418 HD
ENDBRANCH   4   7
TORSDOF 1
ENDMDL
