MODEL 1
REMARK minimizedAffinity 5.80517817
REMARK minimizedRMSD -1
REMARK  1 active torsions:
REMARK  status: ('A' for Active; 'I' for Inactive)
REMARK    1  A    between atoms: C3_4  and  O_7 
ROOT
ATOM      1  C   UNL d   1      -0.744   3.371   0.487  0.00  0.00    -0.033 A 
ATOM      2  C1  UNL d   1       0.385   3.790  -0.220  0.00  0.00     0.039 A 
ATOM      3  C2  UNL d   1       1.616   3.168  -0.004  0.00  0.00    -0.080 A 
ATOM      4  C3  UNL d   1       1.705   2.130   0.919  0.00  0.00     0.150 A 
ATOM      5  C4  UNL d   1       0.583   1.705   1.624  0.00  0.00    -0.007 A 
ATOM      6  C5  UNL d   1      -0.645   2.327   1.407  0.00  0.00     0.039 A 
ENDROOT
BRANCH   4   7
ATOM      7  O   UNL d   1       2.886   1.496   1.167  0.00  0.00    -0.526 OA
ATOM      8  H5  UNL d   1       3.579   1.914   0.630  0.00  0.00     0.418 HD
ENDBRANCH   4   7
TORSDOF 1
ENDMDL
