MODEL 1
REMARK minimizedAffinity 2.2994988
REMARK minimizedRMSD -1
REMARK  1 active torsions:
REMARK  status: ('A' for Active; 'I' for Inactive)
REMARK    1  A    between atoms: C3_4  and  O_7 
ROOT
ATOM      1  C   UNL d   1       1.276   2.607   0.475  0.00  0.00    -0.033 A 
ATOM      2  C1  UNL d   1       1.116   2.321   1.833  0.00  0.00     0.039 A 
ATOM      3  C2  UNL d   1       2.236   2.122   2.643  0.00  0.00    -0.080 A 
ATOM      4  C3  UNL d   1       3.508   2.214   2.085  0.00  0.00     0.150 A 
ATOM      5  C4  UNL d   1       3.675   2.503   0.735  0.00  0.00    -0.007 A 
ATOM      6  C5  UNL d   1       2.556   2.700  -0.073  0.00  0.00     0.039 A 
ENDROOT
BRANCH   4   7
ATOM      7  O   UNL d   1       4.630   2.024   2.835  0.00  0.00    -0.526 OA
ATOM      8  H5  UNL d   1       4.361   1.804   3.742  0.00  0.00     0.418 HD
ENDBRANCH   4   7
TORSDOF 1
ENDMDL
