MODEL 1
REMARK minimizedAffinity -0.352038562
REMARK minimizedRMSD -1
REMARK  1 active torsions:
REMARK  status: ('A' for Active; 'I' for Inactive)
REMARK    1  A    between atoms: C3_4  and  O_7 
ROOT
ATOM      1  C   UNL d   1      -1.153  -5.407   1.928  0.00  0.00    -0.033 A 
ATOM      2  C1  UNL d   1      -2.165  -4.445   1.972  0.00  0.00     0.039 A 
ATOM      3  C2  UNL d   1      -2.827  -4.072   0.801  0.00  0.00    -0.080 A 
ATOM      4  C3  UNL d   1      -2.470  -4.668  -0.405  0.00  0.00     0.150 A 
ATOM      5  C4  UNL d   1      -1.466  -5.630  -0.456  0.00  0.00    -0.007 A 
ATOM      6  C5  UNL d   1      -0.805  -6.000   0.715  0.00  0.00     0.039 A 
ENDROOT
BRANCH   4   7
ATOM      7  O   UNL d   1      -3.084  -4.333  -1.575  0.00  0.00    -0.526 OA
ATOM      8  H5  UNL d   1      -3.737  -3.637  -1.392  0.00  0.00     0.418 HD
ENDBRANCH   4   7
TORSDOF 1
ENDMDL
