MODEL 1
REMARK minimizedAffinity 7.02501011
REMARK minimizedRMSD -1
REMARK  1 active torsions:
REMARK  status: ('A' for Active; 'I' for Inactive)
REMARK    1  A    between atoms: C3_4  and  O_7 
ROOT
ATOM      1  C   UNL d   1       1.811  -0.895  -2.414  0.00  0.00    -0.033 A 
ATOM      2  C1  UNL d   1       2.277  -1.259  -1.150  0.00  0.00     0.039 A 
ATOM      3  C2  UNL d   1       2.483  -0.284  -0.172  0.00  0.00    -0.080 A 
ATOM      4  C3  UNL d   1       2.218   1.050  -0.470  0.00  0.00     0.150 A 
ATOM      5  C4  UNL d   1       1.750   1.419  -1.727  0.00  0.00    -0.007 A 
ATOM      6  C5  UNL d   1       1.546   0.444  -2.703  0.00  0.00     0.039 A 
ENDROOT
BRANCH   4   7
ATOM      7  O   UNL d   1       2.408   2.037   0.450  0.00  0.00    -0.526 OA
ATOM      8  H5  UNL d   1       2.761   1.637   1.262  0.00  0.00     0.418 HD
ENDBRANCH   4   7
TORSDOF 1
ENDMDL
