MODEL 1
REMARK minimizedAffinity -5.55545712
REMARK minimizedRMSD -1
REMARK  1 active torsions:
REMARK  status: ('A' for Active; 'I' for Inactive)
REMARK    1  A    between atoms: C1_2  and  C2_3 
ROOT
ATOM      1  C2  UNL d   1       0.155   0.210   0.062  0.00  0.00    -0.077 A 
ATOM      2  C3  UNL d   1       1.403   0.783  -0.217  0.00  0.00     0.002 A 
ATOM      3  C4  UNL d   1       1.547   2.171  -0.273  0.00  0.00     0.002 A 
ATOM      4  C5  UNL d   1       0.447   2.996  -0.046  0.00  0.00    -0.004 A 
ATOM      5  C6  UNL d   1      -0.799   2.435   0.231  0.00  0.00     0.002 A 
ATOM      6  C7  UNL d   1      -0.945   1.048   0.285  0.00  0.00     0.002 A 
ENDROOT
BRANCH   1   7
ATOM      7  C1  UNL d   1       0.009  -1.286   0.171  0.00  0.00     0.055 C 
ATOM      8  C   UNL d   1       0.022  -1.944  -1.201  0.00  0.00     0.019 C 
ENDBRANCH   1   7
TORSDOF 1
ENDMDL
