MODEL 1
REMARK minimizedAffinity -3.52193522
REMARK minimizedRMSD -1
REMARK  1 active torsions:
REMARK  status: ('A' for Active; 'I' for Inactive)
REMARK    1  A    between atoms: C1_2  and  C2_3 
ROOT
ATOM      1  C2  UNL d   1      -0.131   1.754   0.415  0.00  0.00    -0.077 A 
ATOM      2  C3  UNL d   1      -1.254   1.196   1.041  0.00  0.00     0.002 A 
ATOM      3  C4  UNL d   1      -1.341  -0.184   1.237  0.00  0.00     0.002 A 
ATOM      4  C5  UNL d   1      -0.306  -1.016   0.815  0.00  0.00    -0.004 A 
ATOM      5  C6  UNL d   1       0.814  -0.471   0.190  0.00  0.00     0.002 A 
ATOM      6  C7  UNL d   1       0.902   0.908  -0.009  0.00  0.00     0.002 A 
ENDROOT
BRANCH   1   7
ATOM      7  C1  UNL d   1      -0.013   3.246   0.246  0.00  0.00     0.055 C 
ATOM      8  C   UNL d   1       1.315   3.760   0.781  0.00  0.00     0.019 C 
ENDBRANCH   1   7
TORSDOF 1
ENDMDL
