MODEL 1
REMARK minimizedAffinity -5.65949678
REMARK minimizedRMSD -1
REMARK  1 active torsions:
REMARK  status: ('A' for Active; 'I' for Inactive)
REMARK    1  A    between atoms: C1_2  and  C2_3 
ROOT
ATOM      1  C2  UNL d   1       0.665   0.701   0.333  0.00  0.00    -0.077 A 
ATOM      2  C3  UNL d   1       0.330   2.039   0.586  0.00  0.00     0.002 A 
ATOM      3  C4  UNL d   1       1.315   2.955   0.958  0.00  0.00     0.002 A 
ATOM      4  C5  UNL d   1       2.642   2.546   1.076  0.00  0.00    -0.004 A 
ATOM      5  C6  UNL d   1       2.985   1.217   0.829  0.00  0.00     0.002 A 
ATOM      6  C7  UNL d   1       2.001   0.299   0.458  0.00  0.00     0.002 A 
ENDROOT
BRANCH   1   7
ATOM      7  C1  UNL d   1      -0.388  -0.278  -0.116  0.00  0.00     0.055 C 
ATOM      8  C   UNL d   1      -1.253  -0.733   1.050  0.00  0.00     0.019 C 
ENDBRANCH   1   7
TORSDOF 1
ENDMDL
