MODEL 1
REMARK minimizedAffinity -6.11861515
REMARK minimizedRMSD -1
REMARK  1 active torsions:
REMARK  status: ('A' for Active; 'I' for Inactive)
REMARK    1  A    between atoms: C1_2  and  C2_3 
ROOT
ATOM      1  C2  UNL d   1       0.635   0.608   0.085  0.00  0.00    -0.077 A 
ATOM      2  C3  UNL d   1       2.027   0.536   0.237  0.00  0.00     0.002 A 
ATOM      3  C4  UNL d   1       2.783   1.700   0.379  0.00  0.00     0.002 A 
ATOM      4  C5  UNL d   1       2.157   2.945   0.374  0.00  0.00    -0.004 A 
ATOM      5  C6  UNL d   1       0.774   3.028   0.221  0.00  0.00     0.002 A 
ATOM      6  C7  UNL d   1       0.016   1.865   0.078  0.00  0.00     0.002 A 
ENDROOT
BRANCH   1   7
ATOM      7  C1  UNL d   1      -0.188  -0.649  -0.018  0.00  0.00     0.055 C 
ATOM      8  C   UNL d   1       0.692  -1.890  -0.001  0.00  0.00     0.019 C 
ENDBRANCH   1   7
TORSDOF 1
ENDMDL
