MODEL 1
REMARK minimizedAffinity -3.30452967
REMARK minimizedRMSD -1
REMARK  1 active torsions:
REMARK  status: ('A' for Active; 'I' for Inactive)
REMARK    1  A    between atoms: C1_2  and  C2_3 
ROOT
ATOM      1  C2  UNL d   1      -0.345   1.091   0.274  0.00  0.00    -0.077 A 
ATOM      2  C3  UNL d   1       0.851   1.249  -0.440  0.00  0.00     0.002 A 
ATOM      3  C4  UNL d   1       1.606   2.416  -0.304  0.00  0.00     0.002 A 
ATOM      4  C5  UNL d   1       1.175   3.431   0.548  0.00  0.00    -0.004 A 
ATOM      5  C6  UNL d   1      -0.014   3.284   1.261  0.00  0.00     0.002 A 
ATOM      6  C7  UNL d   1      -0.770   2.120   1.125  0.00  0.00     0.002 A 
ENDROOT
BRANCH   1   7
ATOM      7  C1  UNL d   1      -1.136  -0.186   0.167  0.00  0.00     0.055 C 
ATOM      8  C   UNL d   1      -0.243  -1.360  -0.210  0.00  0.00     0.019 C 
ENDBRANCH   1   7
TORSDOF 1
ENDMDL
