MODEL 1
REMARK minimizedAffinity -5.22471666
REMARK minimizedRMSD -1
REMARK  1 active torsions:
REMARK  status: ('A' for Active; 'I' for Inactive)
REMARK    1  A    between atoms: C1_2  and  C2_3 
ROOT
ATOM      1  C2  UNL d   1       0.235   0.074   0.190  0.00  0.00    -0.077 A 
ATOM      2  C3  UNL d   1      -0.731   1.009   0.587  0.00  0.00     0.002 A 
ATOM      3  C4  UNL d   1      -0.525   2.372   0.369  0.00  0.00     0.002 A 
ATOM      4  C5  UNL d   1       0.643   2.812  -0.251  0.00  0.00    -0.004 A 
ATOM      5  C6  UNL d   1       1.610   1.890  -0.647  0.00  0.00     0.002 A 
ATOM      6  C7  UNL d   1       1.407   0.527  -0.429  0.00  0.00     0.002 A 
ENDROOT
BRANCH   1   7
ATOM      7  C1  UNL d   1      -0.006  -1.401   0.381  0.00  0.00     0.055 C 
ATOM      8  C   UNL d   1      -0.086  -2.126  -0.955  0.00  0.00     0.019 C 
ENDBRANCH   1   7
TORSDOF 1
ENDMDL
