MODEL 1
REMARK minimizedAffinity -2.24655271
REMARK minimizedRMSD -1
REMARK  1 active torsions:
REMARK  status: ('A' for Active; 'I' for Inactive)
REMARK    1  A    between atoms: C1_2  and  C2_3 
ROOT
ATOM      1  C2  UNL d   1       0.008   1.480   0.355  0.00  0.00    -0.077 A 
ATOM      2  C3  UNL d   1      -1.031   0.542   0.299  0.00  0.00     0.002 A 
ATOM      3  C4  UNL d   1      -0.749  -0.817   0.141  0.00  0.00     0.002 A 
ATOM      4  C5  UNL d   1       0.572  -1.249   0.043  0.00  0.00    -0.004 A 
ATOM      5  C6  UNL d   1       1.613  -0.323   0.095  0.00  0.00     0.002 A 
ATOM      6  C7  UNL d   1       1.333   1.035   0.252  0.00  0.00     0.002 A 
ENDROOT
BRANCH   1   7
ATOM      7  C1  UNL d   1      -0.292   2.940   0.574  0.00  0.00     0.055 C 
ATOM      8  C   UNL d   1       0.882   3.654   1.228  0.00  0.00     0.019 C 
ENDBRANCH   1   7
TORSDOF 1
ENDMDL
