MODEL 1
REMARK minimizedAffinity -4.6896019
REMARK minimizedRMSD -1
REMARK  1 active torsions:
REMARK  status: ('A' for Active; 'I' for Inactive)
REMARK    1  A    between atoms: C1_2  and  C2_3 
ROOT
ATOM      1  C2  UNL d   1      -0.101  -0.498   0.381  0.00  0.00    -0.077 A 
ATOM      2  C3  UNL d   1      -1.303  -0.032   0.933  0.00  0.00     0.002 A 
ATOM      3  C4  UNL d   1      -1.573   1.337   0.984  0.00  0.00     0.002 A 
ATOM      4  C5  UNL d   1      -0.648   2.250   0.481  0.00  0.00    -0.004 A 
ATOM      5  C6  UNL d   1       0.551   1.797  -0.068  0.00  0.00     0.002 A 
ATOM      6  C7  UNL d   1       0.823   0.429  -0.118  0.00  0.00     0.002 A 
ENDROOT
BRANCH   1   7
ATOM      7  C1  UNL d   1       0.170  -1.976   0.281  0.00  0.00     0.055 C 
ATOM      8  C   UNL d   1       0.020  -2.470  -1.151  0.00  0.00     0.019 C 
ENDBRANCH   1   7
TORSDOF 1
ENDMDL
