MODEL 1
REMARK minimizedAffinity -5.99856949
REMARK minimizedRMSD -1
REMARK  1 active torsions:
REMARK  status: ('A' for Active; 'I' for Inactive)
REMARK    1  A    between atoms: C1_2  and  C2_3 
ROOT
ATOM      1  C2  UNL d   1      -0.012   1.546   0.098  0.00  0.00    -0.077 A 
ATOM      2  C3  UNL d   1       1.349   1.213   0.050  0.00  0.00     0.002 A 
ATOM      3  C4  UNL d   1       2.321   2.215   0.041  0.00  0.00     0.002 A 
ATOM      4  C5  UNL d   1       1.944   3.555   0.084  0.00  0.00    -0.004 A 
ATOM      5  C6  UNL d   1       0.593   3.897   0.130  0.00  0.00     0.002 A 
ATOM      6  C7  UNL d   1      -0.381   2.897   0.138  0.00  0.00     0.002 A 
ENDROOT
BRANCH   1   7
ATOM      7  C1  UNL d   1      -1.061   0.466   0.158  0.00  0.00     0.055 C 
ATOM      8  C   UNL d   1      -0.429  -0.915   0.248  0.00  0.00     0.019 C 
ENDBRANCH   1   7
TORSDOF 1
ENDMDL
