MODEL 1
REMARK minimizedAffinity -5.15933466
REMARK minimizedRMSD -1
REMARK  1 active torsions:
REMARK  status: ('A' for Active; 'I' for Inactive)
REMARK    1  A    between atoms: C1_2  and  C2_3 
ROOT
ATOM      1  C2  UNL d   1       0.015   1.185   0.363  0.00  0.00    -0.077 A 
ATOM      2  C3  UNL d   1       1.383   1.251   0.664  0.00  0.00     0.002 A 
ATOM      3  C4  UNL d   1       2.046   2.479   0.675  0.00  0.00     0.002 A 
ATOM      4  C5  UNL d   1       1.349   3.651   0.389  0.00  0.00    -0.004 A 
ATOM      5  C6  UNL d   1      -0.011   3.596   0.086  0.00  0.00     0.002 A 
ATOM      6  C7  UNL d   1      -0.675   2.369   0.074  0.00  0.00     0.002 A 
ENDROOT
BRANCH   1   7
ATOM      7  C1  UNL d   1      -0.712  -0.133   0.400  0.00  0.00     0.055 C 
ATOM      8  C   UNL d   1       0.259  -1.303   0.343  0.00  0.00     0.019 C 
ENDBRANCH   1   7
TORSDOF 1
ENDMDL
