MODEL 1
REMARK minimizedAffinity -4.19243479
REMARK minimizedRMSD -1
REMARK  1 active torsions:
REMARK  status: ('A' for Active; 'I' for Inactive)
REMARK    1  A    between atoms: C1_2  and  C2_3 
ROOT
ATOM      1  C2  UNL d   1      -0.232   0.415  -0.534  0.00  0.00    -0.077 A 
ATOM      2  C3  UNL d   1       0.536   1.552  -0.822  0.00  0.00     0.002 A 
ATOM      3  C4  UNL d   1       0.291   2.756  -0.159  0.00  0.00     0.002 A 
ATOM      4  C5  UNL d   1      -0.717   2.833   0.800  0.00  0.00    -0.004 A 
ATOM      5  C6  UNL d   1      -1.488   1.708   1.092  0.00  0.00     0.002 A 
ATOM      6  C7  UNL d   1      -1.246   0.505   0.429  0.00  0.00     0.002 A 
ENDROOT
BRANCH   1   7
ATOM      7  C1  UNL d   1       0.062  -0.897  -1.213  0.00  0.00     0.055 C 
ATOM      8  C   UNL d   1       0.097  -2.043  -0.212  0.00  0.00     0.019 C 
ENDBRANCH   1   7
TORSDOF 1
ENDMDL
