MODEL 1
REMARK minimizedAffinity 1.27585733
REMARK minimizedRMSD -1
REMARK  1 active torsions:
REMARK  status: ('A' for Active; 'I' for Inactive)
REMARK    1  A    between atoms: C1_2  and  C2_3 
ROOT
ATOM      1  C2  UNL d   1      -0.021   3.059  -5.937  0.00  0.00    -0.081 A 
ATOM      2  C3  UNL d   1      -1.360   2.655  -5.994  0.00  0.00     0.006 A 
ATOM      3  C4  UNL d   1      -2.386   3.603  -6.000  0.00  0.00     0.002 A 
ATOM      4  C5  UNL d   1      -2.090   4.970  -5.958  0.00  0.00    -0.080 A 
ATOM      5  C6  UNL d   1      -3.180   5.998  -5.995  0.00  0.00     0.076 C 
ATOM      6  C7  UNL d   1      -0.752   5.373  -5.884  0.00  0.00     0.002 A 
ATOM      7  C8  UNL d   1       0.274   4.425  -5.877  0.00  0.00     0.006 A 
ENDROOT
BRANCH   1   8
ATOM      8  C1  UNL d   1       1.090   2.041  -5.995  0.00  0.00     0.054 C 
ATOM      9  C   UNL d   1       2.456   2.712  -5.996  0.00  0.00     0.018 C 
ENDBRANCH   1   8
TORSDOF 1
ENDMDL
