MODEL 1
REMARK minimizedAffinity 7.52076912
REMARK minimizedRMSD -1
REMARK  1 active torsions:
REMARK  status: ('A' for Active; 'I' for Inactive)
REMARK    1  A    between atoms: C1_2  and  C2_3 
ROOT
ATOM      1  C2  UNL d   1      -1.488  -5.264  -2.637  0.00  0.00    -0.081 A 
ATOM      2  C3  UNL d   1      -1.240  -4.490  -1.496  0.00  0.00     0.006 A 
ATOM      3  C4  UNL d   1      -2.162  -4.461  -0.447  0.00  0.00     0.002 A 
ATOM      4  C5  UNL d   1      -3.341  -5.210  -0.517  0.00  0.00    -0.080 A 
ATOM      5  C6  UNL d   1      -4.324  -5.211   0.616  0.00  0.00     0.076 C 
ATOM      6  C7  UNL d   1      -3.597  -5.969  -1.663  0.00  0.00     0.002 A 
ATOM      7  C8  UNL d   1      -2.676  -5.998  -2.713  0.00  0.00     0.006 A 
ENDROOT
BRANCH   1   8
ATOM      8  C1  UNL d   1      -0.466  -5.349  -3.742  0.00  0.00     0.054 C 
ATOM      9  C   UNL d   1       0.456  -4.138  -3.737  0.00  0.00     0.018 C 
ENDBRANCH   1   8
TORSDOF 1
ENDMDL
