MODEL 1
REMARK minimizedAffinity 6.14562559
REMARK minimizedRMSD -1
REMARK  1 active torsions:
REMARK  status: ('A' for Active; 'I' for Inactive)
REMARK    1  A    between atoms: C1_2  and  C2_3 
ROOT
ATOM      1  C2  UNL d   1      -2.299   4.333  -5.941  0.00  0.00    -0.081 A 
ATOM      2  C3  UNL d   1      -2.628   2.973  -5.968  0.00  0.00     0.006 A 
ATOM      3  C4  UNL d   1      -1.625   2.001  -5.999  0.00  0.00     0.002 A 
ATOM      4  C5  UNL d   1      -0.276   2.374  -5.995  0.00  0.00    -0.080 A 
ATOM      5  C6  UNL d   1       0.811   1.340  -5.997  0.00  0.00     0.076 C 
ATOM      6  C7  UNL d   1       0.053   3.733  -5.986  0.00  0.00     0.002 A 
ATOM      7  C8  UNL d   1      -0.950   4.705  -5.956  0.00  0.00     0.006 A 
ENDROOT
BRANCH   1   8
ATOM      8  C1  UNL d   1      -3.377   5.381  -5.843  0.00  0.00     0.054 C 
ATOM      9  C   UNL d   1      -3.423   6.000  -4.453  0.00  0.00     0.018 C 
ENDBRANCH   1   8
TORSDOF 1
ENDMDL
