MODEL 1
REMARK minimizedAffinity -3.92821026
REMARK minimizedRMSD -1
REMARK  1 active torsions:
REMARK  status: ('A' for Active; 'I' for Inactive)
REMARK    1  A    between atoms: C1_2  and  C2_3 
ROOT
ATOM      1  C2  UNL d   1       1.436   3.317  -5.991  0.00  0.00    -0.081 A 
ATOM      2  C3  UNL d   1       0.963   4.635  -5.997  0.00  0.00     0.006 A 
ATOM      3  C4  UNL d   1      -0.409   4.895  -5.999  0.00  0.00     0.002 A 
ATOM      4  C5  UNL d   1      -1.331   3.844  -5.988  0.00  0.00    -0.080 A 
ATOM      5  C6  UNL d   1      -2.807   4.110  -5.959  0.00  0.00     0.076 C 
ATOM      6  C7  UNL d   1      -0.860   2.527  -6.000  0.00  0.00     0.002 A 
ATOM      7  C8  UNL d   1       0.512   2.265  -5.998  0.00  0.00     0.006 A 
ENDROOT
BRANCH   1   8
ATOM      8  C1  UNL d   1       2.914   3.032  -5.923  0.00  0.00     0.054 C 
ATOM      9  C   UNL d   1       3.710   4.302  -5.655  0.00  0.00     0.018 C 
ENDBRANCH   1   8
TORSDOF 1
ENDMDL
