MODEL 1
REMARK minimizedAffinity 0.82053721
REMARK minimizedRMSD -1
REMARK  1 active torsions:
REMARK  status: ('A' for Active; 'I' for Inactive)
REMARK    1  A    between atoms: C1_2  and  C2_3 
ROOT
ATOM      1  C2  UNL d   1       0.222   2.949  -5.930  0.00  0.00    -0.081 A 
ATOM      2  C3  UNL d   1       0.571   4.303  -5.999  0.00  0.00     0.006 A 
ATOM      3  C4  UNL d   1      -0.410   5.293  -5.900  0.00  0.00     0.002 A 
ATOM      4  C5  UNL d   1      -1.753   4.947  -5.722  0.00  0.00    -0.080 A 
ATOM      5  C6  UNL d   1      -2.812   6.000  -5.583  0.00  0.00     0.076 C 
ATOM      6  C7  UNL d   1      -2.104   3.593  -5.670  0.00  0.00     0.002 A 
ATOM      7  C8  UNL d   1      -1.125   2.603  -5.771  0.00  0.00     0.006 A 
ENDROOT
BRANCH   1   8
ATOM      8  C1  UNL d   1       1.284   1.881  -5.973  0.00  0.00     0.054 C 
ATOM      9  C   UNL d   1       2.679   2.489  -6.000  0.00  0.00     0.018 C 
ENDBRANCH   1   8
TORSDOF 1
ENDMDL
