MODEL 1
REMARK minimizedAffinity 8.14732456
REMARK minimizedRMSD -1
REMARK  1 active torsions:
REMARK  status: ('A' for Active; 'I' for Inactive)
REMARK    1  A    between atoms: C1_2  and  C2_3 
ROOT
ATOM      1  C2  UNL d   1       0.408  -2.164  -1.177  0.00  0.00    -0.081 A 
ATOM      2  C3  UNL d   1      -0.875  -1.604  -1.201  0.00  0.00     0.006 A 
ATOM      3  C4  UNL d   1      -1.202  -0.544  -0.351  0.00  0.00     0.002 A 
ATOM      4  C5  UNL d   1      -0.249  -0.024   0.532  0.00  0.00    -0.080 A 
ATOM      5  C6  UNL d   1      -0.578   1.133   1.428  0.00  0.00     0.076 C 
ATOM      6  C7  UNL d   1       1.027  -0.595   0.569  0.00  0.00     0.002 A 
ATOM      7  C8  UNL d   1       1.354  -1.655  -0.281  0.00  0.00     0.006 A 
ENDROOT
BRANCH   1   8
ATOM      8  C1  UNL d   1       0.782  -3.264  -2.138  0.00  0.00     0.054 C 
ATOM      9  C   UNL d   1      -0.432  -3.763  -2.907  0.00  0.00     0.018 C 
ENDBRANCH   1   8
TORSDOF 1
ENDMDL
