MODEL 1
REMARK minimizedAffinity -0.269855559
REMARK minimizedRMSD -1
REMARK  1 active torsions:
REMARK  status: ('A' for Active; 'I' for Inactive)
REMARK    1  A    between atoms: C1_2  and  C2_3 
ROOT
ATOM      1  C2  UNL d   1      -0.625   2.918  -5.999  0.00  0.00    -0.081 A 
ATOM      2  C3  UNL d   1      -0.258   4.269  -5.999  0.00  0.00     0.006 A 
ATOM      3  C4  UNL d   1      -1.234   5.268  -5.978  0.00  0.00     0.002 A 
ATOM      4  C5  UNL d   1      -2.592   4.934  -5.947  0.00  0.00    -0.080 A 
ATOM      5  C6  UNL d   1      -3.648   5.997  -5.893  0.00  0.00     0.076 C 
ATOM      6  C7  UNL d   1      -2.959   3.584  -5.965  0.00  0.00     0.002 A 
ATOM      7  C8  UNL d   1      -1.984   2.584  -5.987  0.00  0.00     0.006 A 
ENDROOT
BRANCH   1   8
ATOM      8  C1  UNL d   1       0.425   1.838  -5.957  0.00  0.00     0.054 C 
ATOM      9  C   UNL d   1       1.828   2.428  -5.987  0.00  0.00     0.018 C 
ENDBRANCH   1   8
TORSDOF 1
ENDMDL
