MODEL 1
REMARK minimizedAffinity 2.64160728
REMARK minimizedRMSD -1
REMARK  1 active torsions:
REMARK  status: ('A' for Active; 'I' for Inactive)
REMARK    1  A    between atoms: C1_2  and  C2_3 
ROOT
ATOM      1  C2  UNL d   1       0.305   0.371   0.726  0.00  0.00    -0.081 A 
ATOM      2  C3  UNL d   1      -0.727  -0.527   1.024  0.00  0.00     0.006 A 
ATOM      3  C4  UNL d   1      -2.058  -0.100   1.027  0.00  0.00     0.002 A 
ATOM      4  C5  UNL d   1      -2.378   1.228   0.724  0.00  0.00    -0.080 A 
ATOM      5  C6  UNL d   1      -3.804   1.691   0.693  0.00  0.00     0.076 C 
ATOM      6  C7  UNL d   1      -1.345   2.128   0.443  0.00  0.00     0.002 A 
ATOM      7  C8  UNL d   1      -0.015   1.703   0.441  0.00  0.00     0.006 A 
ENDROOT
BRANCH   1   8
ATOM      8  C1  UNL d   1       1.735  -0.101   0.659  0.00  0.00     0.054 C 
ATOM      9  C   UNL d   1       2.042  -0.747  -0.684  0.00  0.00     0.018 C 
ENDBRANCH   1   8
TORSDOF 1
ENDMDL
