MODEL 1
REMARK minimizedAffinity -0.697239101
REMARK minimizedRMSD -1
REMARK  1 active torsions:
REMARK  status: ('A' for Active; 'I' for Inactive)
REMARK    1  A    between atoms: C1_2  and  C2_3 
ROOT
ATOM      1  C2  UNL d   1      -0.531   3.678  -5.988  0.00  0.00    -0.081 A 
ATOM      2  C3  UNL d   1      -0.488   5.077  -5.946  0.00  0.00     0.006 A 
ATOM      3  C4  UNL d   1      -1.670   5.821  -5.905  0.00  0.00     0.002 A 
ATOM      4  C5  UNL d   1      -2.913   5.179  -5.898  0.00  0.00    -0.080 A 
ATOM      5  C6  UNL d   1      -4.188   5.965  -5.824  0.00  0.00     0.076 C 
ATOM      6  C7  UNL d   1      -2.956   3.782  -5.958  0.00  0.00     0.002 A 
ATOM      7  C8  UNL d   1      -1.775   3.038  -5.999  0.00  0.00     0.006 A 
ENDROOT
BRANCH   1   8
ATOM      8  C1  UNL d   1       0.742   2.871  -5.966  0.00  0.00     0.054 C 
ATOM      9  C   UNL d   1       1.164   2.541  -4.542  0.00  0.00     0.018 C 
ENDBRANCH   1   8
TORSDOF 1
ENDMDL
