MODEL 1
REMARK minimizedAffinity -2.16999459
REMARK minimizedRMSD -1
REMARK  1 active torsions:
REMARK  status: ('A' for Active; 'I' for Inactive)
REMARK    1  A    between atoms: C1_2  and  C2_3 
ROOT
ATOM      1  C2  UNL d   1      -0.939   2.974  -5.995  0.00  0.00    -0.081 A 
ATOM      2  C3  UNL d   1      -0.596   4.332  -6.000  0.00  0.00     0.006 A 
ATOM      3  C4  UNL d   1      -1.591   5.313  -5.998  0.00  0.00     0.002 A 
ATOM      4  C5  UNL d   1      -2.943   4.953  -5.983  0.00  0.00    -0.080 A 
ATOM      5  C6  UNL d   1      -4.020   5.997  -5.950  0.00  0.00     0.076 C 
ATOM      6  C7  UNL d   1      -3.285   3.597  -5.996  0.00  0.00     0.002 A 
ATOM      7  C8  UNL d   1      -2.291   2.616  -5.998  0.00  0.00     0.006 A 
ENDROOT
BRANCH   1   8
ATOM      8  C1  UNL d   1       0.131   1.914  -5.931  0.00  0.00     0.054 C 
ATOM      9  C   UNL d   1       1.486   2.515  -5.583  0.00  0.00     0.018 C 
ENDBRANCH   1   8
TORSDOF 1
ENDMDL
