MODEL 1
REMARK minimizedAffinity 9.14780712
REMARK minimizedRMSD -1
REMARK  1 active torsions:
REMARK  status: ('A' for Active; 'I' for Inactive)
REMARK    1  A    between atoms: C1_2  and  C2_3 
ROOT
ATOM      1  C2  UNL d   1       0.561   2.805  -5.994  0.00  0.00    -0.081 A 
ATOM      2  C3  UNL d   1       0.247   4.170  -5.985  0.00  0.00     0.006 A 
ATOM      3  C4  UNL d   1      -1.085   4.591  -5.971  0.00  0.00     0.002 A 
ATOM      4  C5  UNL d   1      -2.125   3.655  -5.958  0.00  0.00    -0.080 A 
ATOM      5  C6  UNL d   1      -3.558   4.093  -5.913  0.00  0.00     0.076 C 
ATOM      6  C7  UNL d   1      -1.812   2.292  -5.985  0.00  0.00     0.002 A 
ATOM      7  C8  UNL d   1      -0.480   1.870  -6.000  0.00  0.00     0.006 A 
ENDROOT
BRANCH   1   8
ATOM      8  C1  UNL d   1       1.996   2.348  -5.943  0.00  0.00     0.054 C 
ATOM      9  C   UNL d   1       2.094   0.830  -5.967  0.00  0.00     0.018 C 
ENDBRANCH   1   8
TORSDOF 1
ENDMDL
