MODEL 1
REMARK minimizedAffinity -2.02735257
REMARK minimizedRMSD -1
REMARK  1 active torsions:
REMARK  status: ('A' for Active; 'I' for Inactive)
REMARK    1  A    between atoms: C1_2  and  C2_3 
ROOT
ATOM      1  C2  UNL d   1      -0.036   2.673  -5.925  0.00  0.00    -0.081 A 
ATOM      2  C3  UNL d   1      -1.416   2.445  -5.987  0.00  0.00     0.006 A 
ATOM      3  C4  UNL d   1      -2.311   3.518  -5.999  0.00  0.00     0.002 A 
ATOM      4  C5  UNL d   1      -1.841   4.835  -5.957  0.00  0.00    -0.080 A 
ATOM      5  C6  UNL d   1      -2.789   5.996  -6.000  0.00  0.00     0.076 C 
ATOM      6  C7  UNL d   1      -0.463   5.062  -5.877  0.00  0.00     0.002 A 
ATOM      7  C8  UNL d   1       0.433   3.990  -5.864  0.00  0.00     0.006 A 
ENDROOT
BRANCH   1   8
ATOM      8  C1  UNL d   1       0.935   1.521  -5.977  0.00  0.00     0.054 C 
ATOM      9  C   UNL d   1       2.376   2.010  -5.977  0.00  0.00     0.018 C 
ENDBRANCH   1   8
TORSDOF 1
ENDMDL
