MODEL 1
REMARK minimizedAffinity -2.74806952
REMARK minimizedRMSD -1
REMARK  1 active torsions:
REMARK  status: ('A' for Active; 'I' for Inactive)
REMARK    1  A    between atoms: C1_2  and  C2_3 
ROOT
ATOM      1  C2  UNL d   1      -0.191   3.833  -5.911  0.00  0.00    -0.081 A 
ATOM      2  C3  UNL d   1      -0.942   2.653  -5.982  0.00  0.00     0.006 A 
ATOM      3  C4  UNL d   1      -2.338   2.702  -5.997  0.00  0.00     0.002 A 
ATOM      4  C5  UNL d   1      -3.006   3.931  -5.951  0.00  0.00    -0.080 A 
ATOM      5  C6  UNL d   1      -4.503   3.999  -5.997  0.00  0.00     0.076 C 
ATOM      6  C7  UNL d   1      -2.256   5.108  -5.862  0.00  0.00     0.002 A 
ATOM      7  C8  UNL d   1      -0.860   5.060  -5.846  0.00  0.00     0.006 A 
ENDROOT
BRANCH   1   8
ATOM      8  C1  UNL d   1       1.315   3.786  -5.959  0.00  0.00     0.054 C 
ATOM      9  C   UNL d   1       1.823   2.352  -5.998  0.00  0.00     0.018 C 
ENDBRANCH   1   8
TORSDOF 1
ENDMDL
