MODEL 1
REMARK minimizedAffinity -2.28222394
REMARK minimizedRMSD -1
REMARK  1 active torsions:
REMARK  status: ('A' for Active; 'I' for Inactive)
REMARK    1  A    between atoms: C1_2  and  C2_3 
ROOT
ATOM      1  C2  UNL d   1       0.629   3.171  -5.996  0.00  0.00    -0.081 A 
ATOM      2  C3  UNL d   1       0.865   4.552  -6.000  0.00  0.00     0.006 A 
ATOM      3  C4  UNL d   1      -0.202   5.453  -5.997  0.00  0.00     0.002 A 
ATOM      4  C5  UNL d   1      -1.522   4.990  -5.983  0.00  0.00    -0.080 A 
ATOM      5  C6  UNL d   1      -2.676   5.947  -5.950  0.00  0.00     0.076 C 
ATOM      6  C7  UNL d   1      -1.758   3.611  -5.997  0.00  0.00     0.002 A 
ATOM      7  C8  UNL d   1      -0.692   2.709  -6.000  0.00  0.00     0.006 A 
ENDROOT
BRANCH   1   8
ATOM      8  C1  UNL d   1       1.778   2.197  -5.933  0.00  0.00     0.054 C 
ATOM      9  C   UNL d   1       3.117   2.919  -5.960  0.00  0.00     0.018 C 
ENDBRANCH   1   8
TORSDOF 1
ENDMDL
