MODEL 1
REMARK minimizedAffinity -0.355988771
REMARK minimizedRMSD -1
REMARK  0 active torsions:
REMARK  status: ('A' for Active; 'I' for Inactive)
ROOT
ATOM      1  C1  BNZ d   1       3.532   5.998   3.569  0.00  0.00     0.000 A 
ATOM      2  C2  BNZ d   1       2.904   5.993   4.786  0.00  0.00     0.000 A 
ATOM      3  C3  BNZ d   1       3.627   5.999   5.946  0.00  0.00     0.000 A 
ATOM      4  C4  BNZ d   1       4.974   5.971   5.889  0.00  0.00     0.000 A 
ATOM      5  C5  BNZ d   1       5.622   5.966   4.670  0.00  0.00     0.000 A 
ATOM      6  C6  BNZ d   1       4.892   5.999   3.504  0.00  0.00     0.000 A 
ENDROOT
TORSDOF 0
ENDMDL
