MODEL 1
REMARK minimizedAffinity 0.450139731
REMARK minimizedRMSD -1
REMARK  0 active torsions:
REMARK  status: ('A' for Active; 'I' for Inactive)
ROOT
ATOM      1  C1  BNZ d   1      -4.712   1.133   0.752  0.00  0.00     0.000 A 
ATOM      2  C2  BNZ d   1      -4.284  -0.081   1.218  0.00  0.00     0.000 A 
ATOM      3  C3  BNZ d   1      -2.952  -0.388   1.250  0.00  0.00     0.000 A 
ATOM      4  C4  BNZ d   1      -2.055   0.502   0.779  0.00  0.00     0.000 A 
ATOM      5  C5  BNZ d   1      -2.472   1.727   0.298  0.00  0.00     0.000 A 
ATOM      6  C6  BNZ d   1      -3.810   2.048   0.303  0.00  0.00     0.000 A 
ENDROOT
TORSDOF 0
ENDMDL
