MODEL 1
REMARK minimizedAffinity 2.22737598
REMARK minimizedRMSD -1
REMARK  0 active torsions:
REMARK  status: ('A' for Active; 'I' for Inactive)
ROOT
ATOM      1  C1  BNZ d   1      -2.177   1.816  -0.486  0.00  0.00     0.000 A 
ATOM      2  C2  BNZ d   1      -2.564   1.351   0.742  0.00  0.00     0.000 A 
ATOM      3  C3  BNZ d   1      -3.887   1.269   1.074  0.00  0.00     0.000 A 
ATOM      4  C4  BNZ d   1      -4.819   1.691   0.195  0.00  0.00     0.000 A 
ATOM      5  C5  BNZ d   1      -4.444   2.172  -1.044  0.00  0.00     0.000 A 
ATOM      6  C6  BNZ d   1      -3.113   2.216  -1.390  0.00  0.00     0.000 A 
ENDROOT
TORSDOF 0
ENDMDL
