MODEL 1
REMARK minimizedAffinity 5.88100624
REMARK minimizedRMSD -1
REMARK  0 active torsions:
REMARK  status: ('A' for Active; 'I' for Inactive)
ROOT
ATOM      1  C1  BNZ d   1      -2.675  -5.105  -0.663  0.00  0.00     0.000 A 
ATOM      2  C2  BNZ d   1      -2.661  -4.792  -1.997  0.00  0.00     0.000 A 
ATOM      3  C3  BNZ d   1      -2.327  -3.536  -2.417  0.00  0.00     0.000 A 
ATOM      4  C4  BNZ d   1      -2.047  -2.583  -1.504  0.00  0.00     0.000 A 
ATOM      5  C5  BNZ d   1      -2.066  -2.880  -0.156  0.00  0.00     0.000 A 
ATOM      6  C6  BNZ d   1      -2.365  -4.157   0.262  0.00  0.00     0.000 A 
ENDROOT
TORSDOF 0
ENDMDL
