MODEL 1
REMARK minimizedAffinity -3.38023424
REMARK minimizedRMSD -1
REMARK  0 active torsions:
REMARK  status: ('A' for Active; 'I' for Inactive)
ROOT
ATOM      1  C1  BNZ d   1      -4.889   2.098   1.008  0.00  0.00     0.000 A 
ATOM      2  C2  BNZ d   1      -3.523   2.077   0.911  0.00  0.00     0.000 A 
ATOM      3  C3  BNZ d   1      -2.821   0.931   1.162  0.00  0.00     0.000 A 
ATOM      4  C4  BNZ d   1      -3.482  -0.180   1.548  0.00  0.00     0.000 A 
ATOM      5  C5  BNZ d   1      -4.858  -0.172   1.659  0.00  0.00     0.000 A 
ATOM      6  C6  BNZ d   1      -5.564   0.972   1.368  0.00  0.00     0.000 A 
ENDROOT
TORSDOF 0
ENDMDL
