MODEL 1
REMARK minimizedAffinity 2.30646944
REMARK minimizedRMSD -1
REMARK  0 active torsions:
REMARK  status: ('A' for Active; 'I' for Inactive)
ROOT
ATOM      1  C1  BNZ d   1      -2.779  -0.028   0.814  0.00  0.00     0.000 A 
ATOM      2  C2  BNZ d   1      -2.349   1.083   0.139  0.00  0.00     0.000 A 
ATOM      3  C3  BNZ d   1      -3.222   2.081  -0.194  0.00  0.00     0.000 A 
ATOM      4  C4  BNZ d   1      -4.529   1.948   0.112  0.00  0.00     0.000 A 
ATOM      5  C5  BNZ d   1      -4.979   0.829   0.785  0.00  0.00     0.000 A 
ATOM      6  C6  BNZ d   1      -4.091  -0.155   1.153  0.00  0.00     0.000 A 
ENDROOT
TORSDOF 0
ENDMDL
