MODEL 1
REMARK minimizedAffinity 10.5547724
REMARK minimizedRMSD -1
REMARK  0 active torsions:
REMARK  status: ('A' for Active; 'I' for Inactive)
ROOT
ATOM      1  C1  BNZ d   1       2.116   1.661  -1.923  0.00  0.00     0.000 A 
ATOM      2  C2  BNZ d   1       2.603   2.819  -1.376  0.00  0.00     0.000 A 
ATOM      3  C3  BNZ d   1       3.665   2.794  -0.515  0.00  0.00     0.000 A 
ATOM      4  C4  BNZ d   1       4.212   1.610  -0.171  0.00  0.00     0.000 A 
ATOM      5  C5  BNZ d   1       3.726   0.434  -0.706  0.00  0.00     0.000 A 
ATOM      6  C6  BNZ d   1       2.683   0.466  -1.602  0.00  0.00     0.000 A 
ENDROOT
TORSDOF 0
ENDMDL
