MODEL 1
REMARK minimizedAffinity -1.7779994
REMARK minimizedRMSD -1
REMARK  0 active torsions:
REMARK  status: ('A' for Active; 'I' for Inactive)
ROOT
ATOM      1  C1  BNZ d   1       2.218  -5.409  -3.025  0.00  0.00     0.000 A 
ATOM      2  C2  BNZ d   1       1.260  -4.869  -2.209  0.00  0.00     0.000 A 
ATOM      3  C3  BNZ d   1      -0.061  -4.913  -2.557  0.00  0.00     0.000 A 
ATOM      4  C4  BNZ d   1      -0.418  -5.459  -3.737  0.00  0.00     0.000 A 
ATOM      5  C5  BNZ d   1       0.537  -6.000  -4.575  0.00  0.00     0.000 A 
ATOM      6  C6  BNZ d   1       1.862  -5.989  -4.203  0.00  0.00     0.000 A 
ENDROOT
TORSDOF 0
ENDMDL
