MODEL 1
REMARK minimizedAffinity 1.77396786
REMARK minimizedRMSD -1
REMARK  0 active torsions:
REMARK  status: ('A' for Active; 'I' for Inactive)
ROOT
ATOM      1  C1  BNZ d   1       1.209   0.459   0.458  0.00  0.00     0.000 A 
ATOM      2  C2  BNZ d   1       1.993   1.283   1.220  0.00  0.00     0.000 A 
ATOM      3  C3  BNZ d   1       1.460   2.376   1.844  0.00  0.00     0.000 A 
ATOM      4  C4  BNZ d   1       0.154   2.665   1.674  0.00  0.00     0.000 A 
ATOM      5  C5  BNZ d   1      -0.648   1.849   0.902  0.00  0.00     0.000 A 
ATOM      6  C6  BNZ d   1      -0.116   0.728   0.306  0.00  0.00     0.000 A 
ENDROOT
TORSDOF 0
ENDMDL
