MODEL 1
REMARK minimizedAffinity 3.22954607
REMARK minimizedRMSD -1
REMARK  0 active torsions:
REMARK  status: ('A' for Active; 'I' for Inactive)
ROOT
ATOM      1  C1  BNZ d   1       0.036  -3.983   4.355  0.00  0.00     0.000 A 
ATOM      2  C2  BNZ d   1       0.884  -5.002   4.699  0.00  0.00     0.000 A 
ATOM      3  C3  BNZ d   1       1.176  -6.000   3.812  0.00  0.00     0.000 A 
ATOM      4  C4  BNZ d   1       0.590  -5.999   2.598  0.00  0.00     0.000 A 
ATOM      5  C5  BNZ d   1      -0.274  -4.984   2.238  0.00  0.00     0.000 A 
ATOM      6  C6  BNZ d   1      -0.535  -3.961   3.120  0.00  0.00     0.000 A 
ENDROOT
TORSDOF 0
ENDMDL
