MODEL 1
REMARK minimizedAffinity 6.11450863
REMARK minimizedRMSD -1
REMARK  0 active torsions:
REMARK  status: ('A' for Active; 'I' for Inactive)
ROOT
ATOM      1  C1  BNZ d   1       2.066   2.267   1.692  0.00  0.00     0.000 A 
ATOM      2  C2  BNZ d   1       2.693   1.272   0.989  0.00  0.00     0.000 A 
ATOM      3  C3  BNZ d   1       1.969   0.338   0.303  0.00  0.00     0.000 A 
ATOM      4  C4  BNZ d   1       0.622   0.375   0.353  0.00  0.00     0.000 A 
ATOM      5  C5  BNZ d   1      -0.025   1.365   1.065  0.00  0.00     0.000 A 
ATOM      6  C6  BNZ d   1       0.707   2.327   1.723  0.00  0.00     0.000 A 
ENDROOT
TORSDOF 0
ENDMDL
