MODEL 1
REMARK minimizedAffinity -1.98874331
REMARK minimizedRMSD -1
REMARK  0 active torsions:
REMARK  status: ('A' for Active; 'I' for Inactive)
ROOT
ATOM      1  C1  BNZ d   1      -0.818   1.779   0.768  0.00  0.00     0.000 A 
ATOM      2  C2  BNZ d   1      -0.024   0.885   0.100  0.00  0.00     0.000 A 
ATOM      3  C3  BNZ d   1       1.322   0.834   0.332  0.00  0.00     0.000 A 
ATOM      4  C4  BNZ d   1       1.878   1.703   1.201  0.00  0.00     0.000 A 
ATOM      5  C5  BNZ d   1       1.093   2.617   1.875  0.00  0.00     0.000 A 
ATOM      6  C6  BNZ d   1      -0.267   2.639   1.668  0.00  0.00     0.000 A 
ENDROOT
TORSDOF 0
ENDMDL
