MODEL 1
REMARK minimizedAffinity 0.0378914997
REMARK minimizedRMSD -1
REMARK  0 active torsions:
REMARK  status: ('A' for Active; 'I' for Inactive)
ROOT
ATOM      1  C1  BNZ d   1      -0.325   1.837   1.144  0.00  0.00     0.000 A 
ATOM      2  C2  BNZ d   1       0.174   2.549   2.202  0.00  0.00     0.000 A 
ATOM      3  C3  BNZ d   1       1.510   2.527   2.492  0.00  0.00     0.000 A 
ATOM      4  C4  BNZ d   1       2.337   1.763   1.751  0.00  0.00     0.000 A 
ATOM      5  C5  BNZ d   1       1.848   1.031   0.687  0.00  0.00     0.000 A 
ATOM      6  C6  BNZ d   1       0.509   1.087   0.373  0.00  0.00     0.000 A 
ENDROOT
TORSDOF 0
ENDMDL
