MODEL 1
REMARK minimizedAffinity 0.649486959
REMARK minimizedRMSD -1
REMARK  0 active torsions:
REMARK  status: ('A' for Active; 'I' for Inactive)
ROOT
ATOM      1  C1  BNZ d   1      -0.047   2.246   1.015  0.00  0.00     0.000 A 
ATOM      2  C2  BNZ d   1       0.641   3.052   1.882  0.00  0.00     0.000 A 
ATOM      3  C3  BNZ d   1       1.965   2.830   2.143  0.00  0.00     0.000 A 
ATOM      4  C4  BNZ d   1       2.586   1.780   1.569  0.00  0.00     0.000 A 
ATOM      5  C5  BNZ d   1       1.903   0.952   0.701  0.00  0.00     0.000 A 
ATOM      6  C6  BNZ d   1       0.582   1.202   0.410  0.00  0.00     0.000 A 
ENDROOT
TORSDOF 0
ENDMDL
