MODEL 1
REMARK minimizedAffinity 4.77750778
REMARK minimizedRMSD -1
REMARK  0 active torsions:
REMARK  status: ('A' for Active; 'I' for Inactive)
ROOT
ATOM      1  C1  BNZ d   1      -3.530  -5.993   1.598  0.00  0.00     0.000 A 
ATOM      2  C2  BNZ d   1      -2.627  -5.402   0.755  0.00  0.00     0.000 A 
ATOM      3  C3  BNZ d   1      -3.037  -4.805  -0.404  0.00  0.00     0.000 A 
ATOM      4  C4  BNZ d   1      -4.343  -4.834  -0.739  0.00  0.00     0.000 A 
ATOM      5  C5  BNZ d   1      -5.265  -5.434   0.096  0.00  0.00     0.000 A 
ATOM      6  C6  BNZ d   1      -4.854  -6.000   1.281  0.00  0.00     0.000 A 
ENDROOT
TORSDOF 0
ENDMDL
