MODEL 1
REMARK minimizedAffinity 6.36196375
REMARK minimizedRMSD -1
REMARK  0 active torsions:
REMARK  status: ('A' for Active; 'I' for Inactive)
ROOT
ATOM      1  C2' OXE d   1       1.559  -2.411   4.933  0.00  0.00     0.078 C 
ATOM      2  C1' OXE d   1       2.530   0.200   4.590  0.00  0.00     0.078 C 
ATOM      3  C1  OXE d   1       1.290  -0.195   3.828  0.00  0.00    -0.078 A 
ATOM      4  C2  OXE d   1       0.849  -1.489   3.965  0.00  0.00    -0.078 A 
ATOM      5  C3  OXE d   1      -0.321  -1.890   3.327  0.00  0.00     0.003 A 
ATOM      6  C4  OXE d   1      -0.966  -1.034   2.426  0.00  0.00    -0.002 A 
ATOM      7  C5  OXE d   1      -0.510   0.276   2.241  0.00  0.00    -0.002 A 
ATOM      8  C6  OXE d   1       0.589   0.724   2.965  0.00  0.00     0.003 A 
ENDROOT
TORSDOF 0
ENDMDL
