MODEL 1
REMARK minimizedAffinity 13.3134928
REMARK minimizedRMSD -1
REMARK  0 active torsions:
REMARK  status: ('A' for Active; 'I' for Inactive)
ROOT
ATOM      1  C2' OXE d   1       4.872   1.140   5.250  0.00  0.00     0.078 C 
ATOM      2  C1' OXE d   1       5.649   3.739   4.528  0.00  0.00     0.078 C 
ATOM      3  C1  OXE d   1       5.632   2.684   3.449  0.00  0.00    -0.078 A 
ATOM      4  C2  OXE d   1       5.296   1.405   3.821  0.00  0.00    -0.078 A 
ATOM      5  C3  OXE d   1       5.212   0.406   2.856  0.00  0.00     0.003 A 
ATOM      6  C4  OXE d   1       5.615   0.657   1.539  0.00  0.00    -0.002 A 
ATOM      7  C5  OXE d   1       6.000   1.944   1.147  0.00  0.00    -0.002 A 
ATOM      8  C6  OXE d   1       5.973   2.976   2.079  0.00  0.00     0.003 A 
ENDROOT
TORSDOF 0
ENDMDL
