MODEL 1
REMARK minimizedAffinity 19.5890522
REMARK minimizedRMSD -1
REMARK  0 active torsions:
REMARK  status: ('A' for Active; 'I' for Inactive)
ROOT
ATOM      1  C2' OXE d   1       1.668  -0.293  -4.127  0.00  0.00     0.078 C 
ATOM      2  C1' OXE d   1      -0.373  -0.743  -6.000  0.00  0.00     0.078 C 
ATOM      3  C1  OXE d   1      -0.574  -1.271  -4.601  0.00  0.00    -0.078 A 
ATOM      4  C2  OXE d   1       0.451  -1.087  -3.704  0.00  0.00    -0.078 A 
ATOM      5  C3  OXE d   1       0.295  -1.506  -2.385  0.00  0.00     0.003 A 
ATOM      6  C4  OXE d   1      -0.829  -2.248  -2.005  0.00  0.00    -0.002 A 
ATOM      7  C5  OXE d   1      -1.867  -2.480  -2.914  0.00  0.00    -0.002 A 
ATOM      8  C6  OXE d   1      -1.774  -1.963  -4.202  0.00  0.00     0.003 A 
ENDROOT
TORSDOF 0
ENDMDL
