MODEL 1
REMARK minimizedAffinity 12.4706821
REMARK minimizedRMSD -1
REMARK  0 active torsions:
REMARK  status: ('A' for Active; 'I' for Inactive)
ROOT
ATOM      1  C2' OXE d   1      -2.383   1.244   2.231  0.00  0.00     0.078 C 
ATOM      2  C1' OXE d   1      -3.037  -1.408   2.879  0.00  0.00     0.078 C 
ATOM      3  C1  OXE d   1      -1.626  -0.947   3.144  0.00  0.00    -0.078 A 
ATOM      4  C2  OXE d   1      -1.302   0.338   2.780  0.00  0.00    -0.078 A 
ATOM      5  C3  OXE d   1      -0.029   0.832   3.052  0.00  0.00     0.003 A 
ATOM      6  C4  OXE d   1       0.968  -0.016   3.551  0.00  0.00    -0.002 A 
ATOM      7  C5  OXE d   1       0.670  -1.340   3.891  0.00  0.00    -0.002 A 
ATOM      8  C6  OXE d   1      -0.630  -1.807   3.733  0.00  0.00     0.003 A 
ENDROOT
TORSDOF 0
ENDMDL
