MODEL 1
REMARK minimizedAffinity 13.2308407
REMARK minimizedRMSD -1
REMARK  0 active torsions:
REMARK  status: ('A' for Active; 'I' for Inactive)
ROOT
ATOM      1  C2' OXE d   1       3.906  -3.457  -4.865  0.00  0.00     0.078 C 
ATOM      2  C1' OXE d   1       1.495  -4.414  -5.938  0.00  0.00     0.078 C 
ATOM      3  C1  OXE d   1       1.479  -3.065  -5.264  0.00  0.00    -0.078 A 
ATOM      4  C2  OXE d   1       2.653  -2.625  -4.701  0.00  0.00    -0.078 A 
ATOM      5  C3  OXE d   1       2.706  -1.364  -4.115  0.00  0.00     0.003 A 
ATOM      6  C4  OXE d   1       1.540  -0.605  -3.958  0.00  0.00    -0.002 A 
ATOM      7  C5  OXE d   1       0.326  -1.052  -4.490  0.00  0.00    -0.002 A 
ATOM      8  C6  OXE d   1       0.287  -2.257  -5.182  0.00  0.00     0.003 A 
ENDROOT
TORSDOF 0
ENDMDL
