MODEL 1
REMARK minimizedAffinity 15.563755
REMARK minimizedRMSD -1
REMARK  0 active torsions:
REMARK  status: ('A' for Active; 'I' for Inactive)
ROOT
ATOM      1  C2' OXE d   1       2.062  -0.223  -4.049  0.00  0.00     0.078 C 
ATOM      2  C1' OXE d   1       0.161  -0.904  -5.999  0.00  0.00     0.078 C 
ATOM      3  C1  OXE d   1      -0.221  -1.084  -4.551  0.00  0.00    -0.078 A 
ATOM      4  C2  OXE d   1       0.732  -0.793  -3.605  0.00  0.00    -0.078 A 
ATOM      5  C3  OXE d   1       0.413  -0.889  -2.254  0.00  0.00     0.003 A 
ATOM      6  C4  OXE d   1      -0.816  -1.426  -1.852  0.00  0.00    -0.002 A 
ATOM      7  C5  OXE d   1      -1.786  -1.767  -2.800  0.00  0.00    -0.002 A 
ATOM      8  C6  OXE d   1      -1.521  -1.563  -4.150  0.00  0.00     0.003 A 
ENDROOT
TORSDOF 0
ENDMDL
