MODEL 1
REMARK minimizedAffinity 14.1448917
REMARK minimizedRMSD -1
REMARK  0 active torsions:
REMARK  status: ('A' for Active; 'I' for Inactive)
ROOT
ATOM      1  C2' OXE d   1      -0.825  -2.265  -1.362  0.00  0.00     0.078 C 
ATOM      2  C1' OXE d   1      -2.360  -0.872  -3.255  0.00  0.00     0.078 C 
ATOM      3  C1  OXE d   1      -0.868  -0.933  -3.467  0.00  0.00    -0.078 A 
ATOM      4  C2  OXE d   1      -0.120  -1.577  -2.511  0.00  0.00    -0.078 A 
ATOM      5  C3  OXE d   1       1.255  -1.710  -2.685  0.00  0.00     0.003 A 
ATOM      6  C4  OXE d   1       1.901  -1.062  -3.745  0.00  0.00    -0.002 A 
ATOM      7  C5  OXE d   1       1.162  -0.367  -4.709  0.00  0.00    -0.002 A 
ATOM      8  C6  OXE d   1      -0.225  -0.330  -4.608  0.00  0.00     0.003 A 
ENDROOT
TORSDOF 0
ENDMDL
