MODEL 1
REMARK minimizedAffinity 12.6773529
REMARK minimizedRMSD -1
REMARK  0 active torsions:
REMARK  status: ('A' for Active; 'I' for Inactive)
ROOT
ATOM      1  C2' OXE d   1      -0.949   1.834   2.745  0.00  0.00     0.078 C 
ATOM      2  C1' OXE d   1      -1.545  -0.714   1.729  0.00  0.00     0.078 C 
ATOM      3  C1  OXE d   1      -0.280  -0.556   2.535  0.00  0.00    -0.078 A 
ATOM      4  C2  OXE d   1       0.028   0.704   2.989  0.00  0.00    -0.078 A 
ATOM      5  C3  OXE d   1       1.154   0.894   3.784  0.00  0.00     0.003 A 
ATOM      6  C4  OXE d   1       2.057  -0.155   3.996  0.00  0.00    -0.002 A 
ATOM      7  C5  OXE d   1       1.783  -1.437   3.509  0.00  0.00    -0.002 A 
ATOM      8  C6  OXE d   1       0.600  -1.664   2.815  0.00  0.00     0.003 A 
ENDROOT
TORSDOF 0
ENDMDL
