MODEL 1
REMARK minimizedAffinity 15.320857
REMARK minimizedRMSD -1
REMARK  0 active torsions:
REMARK  status: ('A' for Active; 'I' for Inactive)
ROOT
ATOM      1  C2' OXE d   1       6.000   1.978   0.443  0.00  0.00     0.078 C 
ATOM      2  C1' OXE d   1       4.182   3.963   1.238  0.00  0.00     0.078 C 
ATOM      3  C1  OXE d   1       4.645   2.976   2.280  0.00  0.00    -0.078 A 
ATOM      4  C2  OXE d   1       5.499   1.980   1.871  0.00  0.00    -0.078 A 
ATOM      5  C3  OXE d   1       6.000   1.076   2.803  0.00  0.00     0.003 A 
ATOM      6  C4  OXE d   1       5.524   1.078   4.120  0.00  0.00    -0.002 A 
ATOM      7  C5  OXE d   1       4.624   2.060   4.547  0.00  0.00    -0.002 A 
ATOM      8  C6  OXE d   1       4.209   3.040   3.652  0.00  0.00     0.003 A 
ENDROOT
TORSDOF 0
ENDMDL
