MODEL 1
REMARK minimizedAffinity 6.54381323
REMARK minimizedRMSD -1
REMARK  2 active torsions:
REMARK  status: ('A' for Active; 'I' for Inactive)
REMARK    1  A    between atoms: C2'_3  and  C1'_4 
REMARK    2  A    between atoms: C1'_4  and  C1_5 
ROOT
ATOM      1  C1  I4B d   1      -4.923   4.308   3.481  0.00  0.00    -0.075 A 
ATOM      2  C2  I4B d   1      -5.905   5.235   3.726  0.00  0.00     0.003 A 
ATOM      3  C3  I4B d   1      -6.000   5.855   4.995  0.00  0.00     0.002 A 
ATOM      4  C4  I4B d   1      -5.129   5.483   5.999  0.00  0.00    -0.004 A 
ATOM      5  C5  I4B d   1      -4.120   4.560   5.743  0.00  0.00     0.002 A 
ATOM      6  C6  I4B d   1      -4.008   3.978   4.472  0.00  0.00     0.003 A 
ENDROOT
BRANCH   1   7
ATOM      7  C1' I4B d   1      -4.873   3.649   2.139  0.00  0.00     0.060 C 
BRANCH   7   8
ATOM      8  C2' I4B d   1      -5.550   4.567   1.142  0.00  0.00    -0.013 C 
ATOM      9  C4' I4B d   1      -4.634   5.687   0.723  0.00  0.00     0.013 C 
ATOM     10  C3' I4B d   1      -5.970   3.741  -0.037  0.00  0.00     0.013 C 
ENDBRANCH   7   8
ENDBRANCH   1   7
TORSDOF 2
ENDMDL
