MODEL 1
REMARK minimizedAffinity -1.69964218
REMARK minimizedRMSD -1
REMARK  2 active torsions:
REMARK  status: ('A' for Active; 'I' for Inactive)
REMARK    1  A    between atoms: C2'_3  and  C1'_4 
REMARK    2  A    between atoms: C1'_4  and  C1_5 
ROOT
ATOM      1  C1  I4B d   1      -5.816   4.047   3.893  0.00  0.00    -0.075 A 
ATOM      2  C2  I4B d   1      -5.731   3.216   2.804  0.00  0.00     0.003 A 
ATOM      3  C3  I4B d   1      -5.706   3.756   1.495  0.00  0.00     0.002 A 
ATOM      4  C4  I4B d   1      -5.816   5.121   1.321  0.00  0.00    -0.004 A 
ATOM      5  C5  I4B d   1      -5.878   5.963   2.428  0.00  0.00     0.002 A 
ATOM      6  C6  I4B d   1      -5.865   5.424   3.722  0.00  0.00     0.003 A 
ENDROOT
BRANCH   1   7
ATOM      7  C1' I4B d   1      -5.874   3.440   5.259  0.00  0.00     0.060 C 
BRANCH   7   8
ATOM      8  C2' I4B d   1      -5.014   2.193   5.254  0.00  0.00    -0.013 C 
ATOM      9  C4' I4B d   1      -3.666   2.456   5.871  0.00  0.00     0.013 C 
ATOM     10  C3' I4B d   1      -5.751   1.120   5.999  0.00  0.00     0.013 C 
ENDBRANCH   7   8
ENDBRANCH   1   7
TORSDOF 2
ENDMDL
