MODEL 1
REMARK minimizedAffinity -2.66260934
REMARK minimizedRMSD -1
REMARK  2 active torsions:
REMARK  status: ('A' for Active; 'I' for Inactive)
REMARK    1  A    between atoms: C2'_3  and  C1'_4 
REMARK    2  A    between atoms: C1'_4  and  C1_5 
ROOT
ATOM      1  C1  I4B d   1      -4.313   3.378   3.470  0.00  0.00    -0.075 A 
ATOM      2  C2  I4B d   1      -5.246   2.961   4.387  0.00  0.00     0.003 A 
ATOM      3  C3  I4B d   1      -4.842   2.556   5.682  0.00  0.00     0.002 A 
ATOM      4  C4  I4B d   1      -3.499   2.535   6.000  0.00  0.00    -0.004 A 
ATOM      5  C5  I4B d   1      -2.556   2.979   5.077  0.00  0.00     0.002 A 
ATOM      6  C6  I4B d   1      -2.966   3.415   3.809  0.00  0.00     0.003 A 
ENDROOT
BRANCH   1   7
ATOM      7  C1' I4B d   1      -4.771   3.767   2.101  0.00  0.00     0.060 C 
BRANCH   7   8
ATOM      8  C2' I4B d   1      -4.714   5.278   2.002  0.00  0.00    -0.013 C 
ATOM      9  C4' I4B d   1      -4.491   5.723   0.580  0.00  0.00     0.013 C 
ATOM     10  C3' I4B d   1      -5.998   5.827   2.547  0.00  0.00     0.013 C 
ENDBRANCH   7   8
ENDBRANCH   1   7
TORSDOF 2
ENDMDL
