MODEL 1
REMARK minimizedAffinity -2.92366576
REMARK minimizedRMSD -1
REMARK  2 active torsions:
REMARK  status: ('A' for Active; 'I' for Inactive)
REMARK    1  A    between atoms: C2'_3  and  C1'_4 
REMARK    2  A    between atoms: C1'_4  and  C1_5 
ROOT
ATOM      1  C1  I4B d   1      -5.391   4.414   4.572  0.00  0.00    -0.075 A 
ATOM      2  C2  I4B d   1      -4.244   4.599   5.302  0.00  0.00     0.003 A 
ATOM      3  C3  I4B d   1      -3.659   3.513   5.998  0.00  0.00     0.002 A 
ATOM      4  C4  I4B d   1      -4.279   2.280   5.978  0.00  0.00    -0.004 A 
ATOM      5  C5  I4B d   1      -5.429   2.089   5.219  0.00  0.00     0.002 A 
ATOM      6  C6  I4B d   1      -5.983   3.159   4.501  0.00  0.00     0.003 A 
ENDROOT
BRANCH   1   7
ATOM      7  C1' I4B d   1      -6.000   5.590   3.875  0.00  0.00     0.060 C 
BRANCH   7   8
ATOM      8  C2' I4B d   1      -5.569   5.547   2.423  0.00  0.00    -0.013 C 
ATOM      9  C4' I4B d   1      -4.129   5.963   2.269  0.00  0.00     0.013 C 
ATOM     10  C3' I4B d   1      -5.787   4.152   1.917  0.00  0.00     0.013 C 
ENDBRANCH   7   8
ENDBRANCH   1   7
TORSDOF 2
ENDMDL
