MODEL 1
REMARK minimizedAffinity -2.42575502
REMARK minimizedRMSD -1
REMARK  2 active torsions:
REMARK  status: ('A' for Active; 'I' for Inactive)
REMARK    1  A    between atoms: C2'_3  and  C1'_4 
REMARK    2  A    between atoms: C1'_4  and  C1_5 
ROOT
ATOM      1  C1  I4B d   1      -5.394   4.993   4.171  0.00  0.00    -0.075 A 
ATOM      2  C2  I4B d   1      -4.464   5.415   5.088  0.00  0.00     0.003 A 
ATOM      3  C3  I4B d   1      -3.894   4.493   6.000  0.00  0.00     0.002 A 
ATOM      4  C4  I4B d   1      -4.318   3.180   5.993  0.00  0.00    -0.004 A 
ATOM      5  C5  I4B d   1      -5.244   2.750   5.047  0.00  0.00     0.002 A 
ATOM      6  C6  I4B d   1      -5.777   3.659   4.122  0.00  0.00     0.003 A 
ENDROOT
BRANCH   1   7
ATOM      7  C1' I4B d   1      -6.000   6.000   3.244  0.00  0.00     0.060 C 
BRANCH   7   8
ATOM      8  C2' I4B d   1      -5.632   5.611   1.827  0.00  0.00    -0.013 C 
ATOM      9  C4' I4B d   1      -4.212   5.996   1.507  0.00  0.00     0.013 C 
ATOM     10  C3' I4B d   1      -5.836   4.132   1.685  0.00  0.00     0.013 C 
ENDBRANCH   7   8
ENDBRANCH   1   7
TORSDOF 2
ENDMDL
