MODEL 1
REMARK minimizedAffinity -1.39623332
REMARK minimizedRMSD -1
REMARK  2 active torsions:
REMARK  status: ('A' for Active; 'I' for Inactive)
REMARK    1  A    between atoms: C2'_3  and  C1'_4 
REMARK    2  A    between atoms: C1'_4  and  C1_5 
ROOT
ATOM      1  C1  I4B d   1      -5.444   4.620   4.037  0.00  0.00    -0.075 A 
ATOM      2  C2  I4B d   1      -5.797   3.607   3.181  0.00  0.00     0.003 A 
ATOM      3  C3  I4B d   1      -5.512   3.710   1.798  0.00  0.00     0.002 A 
ATOM      4  C4  I4B d   1      -4.921   4.858   1.310  0.00  0.00    -0.004 A 
ATOM      5  C5  I4B d   1      -4.543   5.874   2.182  0.00  0.00     0.002 A 
ATOM      6  C6  I4B d   1      -4.795   5.750   3.556  0.00  0.00     0.003 A 
ENDROOT
BRANCH   1   7
ATOM      7  C1' I4B d   1      -5.790   4.493   5.487  0.00  0.00     0.060 C 
BRANCH   7   8
ATOM      8  C2' I4B d   1      -5.186   3.201   5.999  0.00  0.00    -0.013 C 
ATOM      9  C4' I4B d   1      -5.997   2.009   5.563  0.00  0.00     0.013 C 
ATOM     10  C3' I4B d   1      -3.779   3.114   5.489  0.00  0.00     0.013 C 
ENDBRANCH   7   8
ENDBRANCH   1   7
TORSDOF 2
ENDMDL
