MODEL 1
REMARK minimizedAffinity -1.90714526
REMARK minimizedRMSD -1
REMARK  2 active torsions:
REMARK  status: ('A' for Active; 'I' for Inactive)
REMARK    1  A    between atoms: C2'_3  and  C1'_4 
REMARK    2  A    between atoms: C1'_4  and  C1_5 
ROOT
ATOM      1  C1  I4B d   1      -5.631   4.023   3.994  0.00  0.00    -0.075 A 
ATOM      2  C2  I4B d   1      -6.000   5.342   3.904  0.00  0.00     0.003 A 
ATOM      3  C3  I4B d   1      -6.000   5.999   2.650  0.00  0.00     0.002 A 
ATOM      4  C4  I4B d   1      -5.578   5.318   1.526  0.00  0.00    -0.004 A 
ATOM      5  C5  I4B d   1      -5.226   3.974   1.615  0.00  0.00     0.002 A 
ATOM      6  C6  I4B d   1      -5.264   3.319   2.855  0.00  0.00     0.003 A 
ENDROOT
BRANCH   1   7
ATOM      7  C1' I4B d   1      -5.611   3.370   5.340  0.00  0.00     0.060 C 
BRANCH   7   8
ATOM      8  C2' I4B d   1      -4.287   3.700   5.999  0.00  0.00    -0.013 C 
ATOM      9  C4' I4B d   1      -3.336   2.535   5.925  0.00  0.00     0.013 C 
ATOM     10  C3' I4B d   1      -3.718   4.908   5.316  0.00  0.00     0.013 C 
ENDBRANCH   7   8
ENDBRANCH   1   7
TORSDOF 2
ENDMDL
