MODEL 1
REMARK minimizedAffinity 2.79282045
REMARK minimizedRMSD -1
REMARK  2 active torsions:
REMARK  status: ('A' for Active; 'I' for Inactive)
REMARK    1  A    between atoms: C2'_3  and  C1'_4 
REMARK    2  A    between atoms: C1'_4  and  C1_5 
ROOT
ATOM      1  C1  I4B d   1      -0.465  -0.562  -0.119  0.00  0.00    -0.075 A 
ATOM      2  C2  I4B d   1      -0.398  -0.138   1.184  0.00  0.00     0.003 A 
ATOM      3  C3  I4B d   1      -1.554  -0.156   2.001  0.00  0.00     0.002 A 
ATOM      4  C4  I4B d   1      -2.760  -0.555   1.462  0.00  0.00    -0.004 A 
ATOM      5  C5  I4B d   1      -2.822  -1.007   0.147  0.00  0.00     0.002 A 
ATOM      6  C6  I4B d   1      -1.666  -1.022  -0.645  0.00  0.00     0.003 A 
ENDROOT
BRANCH   1   7
ATOM      7  C1' I4B d   1       0.768  -0.499  -0.963  0.00  0.00     0.060 C 
BRANCH   7   8
ATOM      8  C2' I4B d   1       0.675   0.738  -1.833  0.00  0.00    -0.013 C 
ATOM      9  C4' I4B d   1      -0.010   0.435  -3.140  0.00  0.00     0.013 C 
ATOM     10  C3' I4B d   1      -0.066   1.791  -1.064  0.00  0.00     0.013 C 
ENDBRANCH   7   8
ENDBRANCH   1   7
TORSDOF 2
ENDMDL
