MODEL 1
REMARK minimizedAffinity 0.138843089
REMARK minimizedRMSD -1
REMARK  2 active torsions:
REMARK  status: ('A' for Active; 'I' for Inactive)
REMARK    1  A    between atoms: C2'_3  and  C1'_4 
REMARK    2  A    between atoms: C1'_4  and  C1_5 
ROOT
ATOM      1  C1  I4B d   1      -5.385   5.229   3.731  0.00  0.00    -0.075 A 
ATOM      2  C2  I4B d   1      -5.823   5.999   2.683  0.00  0.00     0.003 A 
ATOM      3  C3  I4B d   1      -5.738   5.512   1.356  0.00  0.00     0.002 A 
ATOM      4  C4  I4B d   1      -5.165   4.279   1.120  0.00  0.00    -0.004 A 
ATOM      5  C5  I4B d   1      -4.743   3.490   2.186  0.00  0.00     0.002 A 
ATOM      6  C6  I4B d   1      -4.865   3.962   3.501  0.00  0.00     0.003 A 
ENDROOT
BRANCH   1   7
ATOM      7  C1' I4B d   1      -5.460   5.788   5.116  0.00  0.00     0.060 C 
BRANCH   7   8
ATOM      8  C2' I4B d   1      -4.223   5.340   5.868  0.00  0.00    -0.013 C 
ATOM      9  C4' I4B d   1      -4.111   3.839   5.889  0.00  0.00     0.013 C 
ATOM     10  C3' I4B d   1      -3.029   5.963   5.206  0.00  0.00     0.013 C 
ENDBRANCH   7   8
ENDBRANCH   1   7
TORSDOF 2
ENDMDL
