MODEL 1
REMARK minimizedAffinity 1.88698101
REMARK minimizedRMSD -1
REMARK  2 active torsions:
REMARK  status: ('A' for Active; 'I' for Inactive)
REMARK    1  A    between atoms: C2'_3  and  C1'_4 
REMARK    2  A    between atoms: C1'_4  and  C1_5 
ROOT
ATOM      1  C1  I4B d   1      -0.103  -0.182  -1.283  0.00  0.00    -0.075 A 
ATOM      2  C2  I4B d   1       0.401  -0.325  -0.014  0.00  0.00     0.003 A 
ATOM      3  C3  I4B d   1      -0.391  -0.907   1.006  0.00  0.00     0.002 A 
ATOM      4  C4  I4B d   1      -1.689  -1.283   0.727  0.00  0.00    -0.004 A 
ATOM      5  C5  I4B d   1      -2.190  -1.158  -0.566  0.00  0.00     0.002 A 
ATOM      6  C6  I4B d   1      -1.388  -0.616  -1.580  0.00  0.00     0.003 A 
ENDROOT
BRANCH   1   7
ATOM      7  C1' I4B d   1       0.749   0.468  -2.327  0.00  0.00     0.060 C 
BRANCH   7   8
ATOM      8  C2' I4B d   1       0.034   0.342  -3.657  0.00  0.00    -0.013 C 
ATOM      9  C4' I4B d   1      -0.841   1.538  -3.921  0.00  0.00     0.013 C 
ATOM     10  C3' I4B d   1       1.073   0.184  -4.727  0.00  0.00     0.013 C 
ENDBRANCH   7   8
ENDBRANCH   1   7
TORSDOF 2
ENDMDL
