MODEL 1
REMARK minimizedAffinity 9.19306946
REMARK minimizedRMSD -1
REMARK  2 active torsions:
REMARK  status: ('A' for Active; 'I' for Inactive)
REMARK    1  A    between atoms: C2'_3  and  C1'_4 
REMARK    2  A    between atoms: C1'_4  and  C1_5 
ROOT
ATOM      1  C1  I4B d   1       0.026   1.299   0.130  0.00  0.00    -0.075 A 
ATOM      2  C2  I4B d   1      -0.496   0.832   1.311  0.00  0.00     0.003 A 
ATOM      3  C3  I4B d   1      -1.113  -0.442   1.363  0.00  0.00     0.002 A 
ATOM      4  C4  I4B d   1      -1.231  -1.188   0.209  0.00  0.00    -0.004 A 
ATOM      5  C5  I4B d   1      -0.682  -0.722  -0.983  0.00  0.00     0.002 A 
ATOM      6  C6  I4B d   1      -0.038   0.523  -1.020  0.00  0.00     0.003 A 
ENDROOT
BRANCH   1   7
ATOM      7  C1' I4B d   1       0.641   2.662   0.104  0.00  0.00     0.060 C 
BRANCH   7   8
ATOM      8  C2' I4B d   1       2.049   2.549   0.652  0.00  0.00    -0.013 C 
ATOM      9  C4' I4B d   1       3.038   3.257  -0.235  0.00  0.00     0.013 C 
ATOM     10  C3' I4B d   1       2.054   3.125   2.037  0.00  0.00     0.013 C 
ENDBRANCH   7   8
ENDBRANCH   1   7
TORSDOF 2
ENDMDL
