MODEL 1
REMARK minimizedAffinity -2.94881606
REMARK minimizedRMSD -1
REMARK  2 active torsions:
REMARK  status: ('A' for Active; 'I' for Inactive)
REMARK    1  A    between atoms: C2'_3  and  C1'_4 
REMARK    2  A    between atoms: C1'_4  and  C1_5 
ROOT
ATOM      1  C1  I4B d   1      -5.176   4.776   3.097  0.00  0.00    -0.075 A 
ATOM      2  C2  I4B d   1      -5.670   5.933   3.647  0.00  0.00     0.003 A 
ATOM      3  C3  I4B d   1      -5.999   5.984   5.023  0.00  0.00     0.002 A 
ATOM      4  C4  I4B d   1      -5.869   4.848   5.796  0.00  0.00    -0.004 A 
ATOM      5  C5  I4B d   1      -5.347   3.683   5.242  0.00  0.00     0.002 A 
ATOM      6  C6  I4B d   1      -4.987   3.649   3.887  0.00  0.00     0.003 A 
ENDROOT
BRANCH   1   7
ATOM      7  C1' I4B d   1      -4.870   4.747   1.634  0.00  0.00     0.060 C 
BRANCH   7   8
ATOM      8  C2' I4B d   1      -5.529   3.517   1.043  0.00  0.00    -0.013 C 
ATOM      9  C4' I4B d   1      -6.000   3.774  -0.364  0.00  0.00     0.013 C 
ATOM     10  C3' I4B d   1      -4.536   2.394   1.085  0.00  0.00     0.013 C 
ENDBRANCH   7   8
ENDBRANCH   1   7
TORSDOF 2
ENDMDL
