MODEL 1
REMARK minimizedAffinity -1.70636535
REMARK minimizedRMSD -1
REMARK  2 active torsions:
REMARK  status: ('A' for Active; 'I' for Inactive)
REMARK    1  A    between atoms: C2'_3  and  C1'_4 
REMARK    2  A    between atoms: C1'_4  and  C1_5 
ROOT
ATOM      1  C1  I4B d   1      -4.427   5.282   3.740  0.00  0.00    -0.075 A 
ATOM      2  C2  I4B d   1      -5.336   5.983   4.493  0.00  0.00     0.003 A 
ATOM      3  C3  I4B d   1      -5.897   5.402   5.656  0.00  0.00     0.002 A 
ATOM      4  C4  I4B d   1      -5.563   4.108   5.998  0.00  0.00    -0.004 A 
ATOM      5  C5  I4B d   1      -4.625   3.407   5.246  0.00  0.00     0.002 A 
ATOM      6  C6  I4B d   1      -4.044   4.001   4.117  0.00  0.00     0.003 A 
ENDROOT
BRANCH   1   7
ATOM      7  C1' I4B d   1      -3.879   5.913   2.500  0.00  0.00     0.060 C 
BRANCH   7   8
ATOM      8  C2' I4B d   1      -4.599   5.310   1.311  0.00  0.00    -0.013 C 
ATOM      9  C4' I4B d   1      -4.771   3.823   1.475  0.00  0.00     0.013 C 
ATOM     10  C3' I4B d   1      -5.926   5.996   1.176  0.00  0.00     0.013 C 
ENDBRANCH   7   8
ENDBRANCH   1   7
TORSDOF 2
ENDMDL
