MODEL 1
REMARK minimizedAffinity 5.89109945
REMARK minimizedRMSD -1
REMARK  2 active torsions:
REMARK  status: ('A' for Active; 'I' for Inactive)
REMARK    1  A    between atoms: C2'_3  and  C1'_4 
REMARK    2  A    between atoms: C1'_4  and  C1_5 
ROOT
ATOM      1  C1  I4B d   1      -0.453  -0.599   0.005  0.00  0.00    -0.075 A 
ATOM      2  C2  I4B d   1      -0.458  -0.149   1.301  0.00  0.00     0.003 A 
ATOM      3  C3  I4B d   1      -1.598  -0.340   2.119  0.00  0.00     0.002 A 
ATOM      4  C4  I4B d   1      -2.722  -0.938   1.587  0.00  0.00    -0.004 A 
ATOM      5  C5  I4B d   1      -2.708  -1.415   0.280  0.00  0.00     0.002 A 
ATOM      6  C6  I4B d   1      -1.562  -1.256  -0.513  0.00  0.00     0.003 A 
ENDROOT
BRANCH   1   7
ATOM      7  C1' I4B d   1       0.755  -0.351  -0.841  0.00  0.00     0.060 C 
BRANCH   7   8
ATOM      8  C2' I4B d   1       0.511   0.909  -1.645  0.00  0.00    -0.013 C 
ATOM      9  C4' I4B d   1       1.205   2.094  -1.026  0.00  0.00     0.013 C 
ATOM     10  C3' I4B d   1       0.997   0.668  -3.043  0.00  0.00     0.013 C 
ENDBRANCH   7   8
ENDBRANCH   1   7
TORSDOF 2
ENDMDL
