MODEL 1
REMARK minimizedAffinity 11.1206007
REMARK minimizedRMSD -1
REMARK  0 active torsions:
REMARK  status: ('A' for Active; 'I' for Inactive)
ROOT
ATOM      1  C   UNL d   1      -2.517   5.042  -3.027  0.00  0.00     0.077 C 
ATOM      2  C1  UNL d   1      -1.278   4.550  -2.340  0.00  0.00    -0.074 A 
ATOM      3  C2  UNL d   1      -0.009   4.845  -2.848  0.00  0.00    -0.005 A 
ATOM      4  C3  UNL d   1       1.134   4.388  -2.192  0.00  0.00     0.006 A 
ATOM      5  C4  UNL d   1       1.021   3.633  -1.025  0.00  0.00    -0.005 A 
ATOM      6  C5  UNL d   1      -0.240   3.328  -0.502  0.00  0.00    -0.074 A 
ATOM      7  C6  UNL d   1      -0.380   2.525   0.757  0.00  0.00     0.077 C 
ATOM      8  C7  UNL d   1      -1.384   3.797  -1.162  0.00  0.00    -0.001 A 
ENDROOT
TORSDOF 0
ENDMDL
