MODEL 1
REMARK minimizedAffinity 5.26068544
REMARK minimizedRMSD -1
REMARK  0 active torsions:
REMARK  status: ('A' for Active; 'I' for Inactive)
ROOT
ATOM      1  C   UNL d   1       2.323   1.963   1.397  0.00  0.00     0.077 C 
ATOM      2  C1  UNL d   1       1.328   2.670   0.526  0.00  0.00    -0.074 A 
ATOM      3  C2  UNL d   1      -0.041   2.615   0.807  0.00  0.00    -0.005 A 
ATOM      4  C3  UNL d   1      -0.954   3.285  -0.007  0.00  0.00     0.006 A 
ATOM      5  C4  UNL d   1      -0.508   4.016  -1.109  0.00  0.00    -0.005 A 
ATOM      6  C5  UNL d   1       0.857   4.083  -1.405  0.00  0.00    -0.074 A 
ATOM      7  C6  UNL d   1       1.354   4.873  -2.580  0.00  0.00     0.077 C 
ATOM      8  C7  UNL d   1       1.769   3.413  -0.578  0.00  0.00    -0.001 A 
ENDROOT
TORSDOF 0
ENDMDL
