MODEL 1
REMARK minimizedAffinity 12.9267349
REMARK minimizedRMSD -1
REMARK  0 active torsions:
REMARK  status: ('A' for Active; 'I' for Inactive)
ROOT
ATOM      1  C   UNL d   1      -4.432  -1.686  -5.740  0.00  0.00     0.077 C 
ATOM      2  C1  UNL d   1      -4.407  -3.186  -5.751  0.00  0.00    -0.074 A 
ATOM      3  C2  UNL d   1      -5.586  -3.923  -5.905  0.00  0.00    -0.005 A 
ATOM      4  C3  UNL d   1      -5.546  -5.317  -5.924  0.00  0.00     0.006 A 
ATOM      5  C4  UNL d   1      -4.330  -5.987  -5.787  0.00  0.00    -0.005 A 
ATOM      6  C5  UNL d   1      -3.141  -5.267  -5.632  0.00  0.00    -0.074 A 
ATOM      7  C6  UNL d   1      -1.824  -5.971  -5.495  0.00  0.00     0.077 C 
ATOM      8  C7  UNL d   1      -3.188  -3.866  -5.622  0.00  0.00    -0.001 A 
ENDROOT
TORSDOF 0
ENDMDL
