MODEL 1
REMARK minimizedAffinity 6.71480751
REMARK minimizedRMSD -1
REMARK  0 active torsions:
REMARK  status: ('A' for Active; 'I' for Inactive)
ROOT
ATOM      1  C   UNL d   1       5.621  -5.143  -0.273  0.00  0.00     0.077 C 
ATOM      2  C1  UNL d   1       4.475  -4.200  -0.483  0.00  0.00    -0.074 A 
ATOM      3  C2  UNL d   1       4.637  -2.821  -0.310  0.00  0.00    -0.005 A 
ATOM      4  C3  UNL d   1       3.564  -1.955  -0.519  0.00  0.00     0.006 A 
ATOM      5  C4  UNL d   1       2.320  -2.458  -0.901  0.00  0.00    -0.005 A 
ATOM      6  C5  UNL d   1       2.139  -3.833  -1.080  0.00  0.00    -0.074 A 
ATOM      7  C6  UNL d   1       0.810  -4.389  -1.501  0.00  0.00     0.077 C 
ATOM      8  C7  UNL d   1       3.224  -4.696  -0.875  0.00  0.00    -0.001 A 
ENDROOT
TORSDOF 0
ENDMDL
