MODEL 1
REMARK minimizedAffinity -1.33555174
REMARK minimizedRMSD -1
REMARK  0 active torsions:
REMARK  status: ('A' for Active; 'I' for Inactive)
ROOT
ATOM      1  C   UNL d   1      -4.793  -1.684  -5.990  0.00  0.00     0.077 C 
ATOM      2  C1  UNL d   1      -4.787  -3.184  -5.982  0.00  0.00    -0.074 A 
ATOM      3  C2  UNL d   1      -5.984  -3.907  -5.990  0.00  0.00    -0.005 A 
ATOM      4  C3  UNL d   1      -5.963  -5.302  -5.992  0.00  0.00     0.006 A 
ATOM      5  C4  UNL d   1      -4.747  -5.986  -5.987  0.00  0.00    -0.005 A 
ATOM      6  C5  UNL d   1      -3.540  -5.280  -5.980  0.00  0.00    -0.074 A 
ATOM      7  C6  UNL d   1      -2.225  -6.000  -5.983  0.00  0.00     0.077 C 
ATOM      8  C7  UNL d   1      -3.570  -3.878  -5.984  0.00  0.00    -0.001 A 
ENDROOT
TORSDOF 0
ENDMDL
