MODEL 1
REMARK minimizedAffinity 11.9724197
REMARK minimizedRMSD -1
REMARK  0 active torsions:
REMARK  status: ('A' for Active; 'I' for Inactive)
ROOT
ATOM      1  C   UNL d   1       0.011   1.903  -0.789  0.00  0.00     0.077 C 
ATOM      2  C1  UNL d   1      -0.320   3.285  -1.271  0.00  0.00    -0.074 A 
ATOM      3  C2  UNL d   1       0.691   4.198  -1.586  0.00  0.00    -0.005 A 
ATOM      4  C3  UNL d   1       0.368   5.476  -2.042  0.00  0.00     0.006 A 
ATOM      5  C4  UNL d   1      -0.968   5.853  -2.188  0.00  0.00    -0.005 A 
ATOM      6  C5  UNL d   1      -1.993   4.953  -1.879  0.00  0.00    -0.074 A 
ATOM      7  C6  UNL d   1      -3.433   5.339  -2.040  0.00  0.00     0.077 C 
ATOM      8  C7  UNL d   1      -1.660   3.668  -1.428  0.00  0.00    -0.001 A 
ENDROOT
TORSDOF 0
ENDMDL
