MODEL 1
REMARK minimizedAffinity 7.88327503
REMARK minimizedRMSD -1
REMARK  0 active torsions:
REMARK  status: ('A' for Active; 'I' for Inactive)
ROOT
ATOM      1  C   UNL d   1      -0.752   5.056  -1.575  0.00  0.00     0.077 C 
ATOM      2  C1  UNL d   1      -2.029   5.356  -0.847  0.00  0.00    -0.074 A 
ATOM      3  C2  UNL d   1      -3.244   5.445  -1.534  0.00  0.00    -0.005 A 
ATOM      4  C3  UNL d   1      -4.424   5.716  -0.842  0.00  0.00     0.006 A 
ATOM      5  C4  UNL d   1      -4.402   5.900   0.541  0.00  0.00    -0.005 A 
ATOM      6  C5  UNL d   1      -3.196   5.813   1.245  0.00  0.00    -0.074 A 
ATOM      7  C6  UNL d   1      -3.156   5.998   2.733  0.00  0.00     0.077 C 
ATOM      8  C7  UNL d   1      -2.015   5.534   0.543  0.00  0.00    -0.001 A 
ENDROOT
TORSDOF 0
ENDMDL
