MODEL 1
REMARK minimizedAffinity 14.7689104
REMARK minimizedRMSD -1
REMARK  0 active torsions:
REMARK  status: ('A' for Active; 'I' for Inactive)
ROOT
ATOM      1  C   UNL d   1       2.675  -2.315   0.473  0.00  0.00     0.077 C 
ATOM      2  C1  UNL d   1       2.141  -3.377  -0.442  0.00  0.00    -0.074 A 
ATOM      3  C2  UNL d   1       1.012  -4.125  -0.093  0.00  0.00    -0.005 A 
ATOM      4  C3  UNL d   1       0.521  -5.102  -0.959  0.00  0.00     0.006 A 
ATOM      5  C4  UNL d   1       1.152  -5.341  -2.180  0.00  0.00    -0.005 A 
ATOM      6  C5  UNL d   1       2.282  -4.602  -2.546  0.00  0.00    -0.074 A 
ATOM      7  C6  UNL d   1       2.967  -4.839  -3.859  0.00  0.00     0.077 C 
ATOM      8  C7  UNL d   1       2.765  -3.617  -1.674  0.00  0.00    -0.001 A 
ENDROOT
TORSDOF 0
ENDMDL
