MODEL 1
REMARK minimizedAffinity 9.77552795
REMARK minimizedRMSD -1
REMARK  0 active torsions:
REMARK  status: ('A' for Active; 'I' for Inactive)
ROOT
ATOM      1  C   UNL d   1       3.496  -5.801  -1.247  0.00  0.00     0.077 C 
ATOM      2  C1  UNL d   1       2.410  -4.866  -1.691  0.00  0.00    -0.074 A 
ATOM      3  C2  UNL d   1       1.307  -4.604  -0.872  0.00  0.00    -0.005 A 
ATOM      4  C3  UNL d   1       0.310  -3.726  -1.295  0.00  0.00     0.006 A 
ATOM      5  C4  UNL d   1       0.405  -3.101  -2.539  0.00  0.00    -0.005 A 
ATOM      6  C5  UNL d   1       1.501  -3.350  -3.372  0.00  0.00    -0.074 A 
ATOM      7  C6  UNL d   1       1.623  -2.680  -4.708  0.00  0.00     0.077 C 
ATOM      8  C7  UNL d   1       2.502  -4.229  -2.937  0.00  0.00    -0.001 A 
ENDROOT
TORSDOF 0
ENDMDL
