MODEL 1
REMARK minimizedAffinity 6.85056496
REMARK minimizedRMSD -1
REMARK  0 active torsions:
REMARK  status: ('A' for Active; 'I' for Inactive)
ROOT
ATOM      1  C   UNL d   1       0.128  -3.672  -1.178  0.00  0.00     0.077 C 
ATOM      2  C1  UNL d   1       0.934  -2.549  -0.596  0.00  0.00    -0.074 A 
ATOM      3  C2  UNL d   1       2.116  -2.801   0.108  0.00  0.00    -0.005 A 
ATOM      4  C3  UNL d   1       2.860  -1.746   0.635  0.00  0.00     0.006 A 
ATOM      5  C4  UNL d   1       2.431  -0.429   0.464  0.00  0.00    -0.005 A 
ATOM      6  C5  UNL d   1       1.252  -0.157  -0.239  0.00  0.00    -0.074 A 
ATOM      7  C6  UNL d   1       0.782   1.253  -0.441  0.00  0.00     0.077 C 
ATOM      8  C7  UNL d   1       0.514  -1.223  -0.771  0.00  0.00    -0.001 A 
ENDROOT
TORSDOF 0
ENDMDL
