MODEL 1
REMARK minimizedAffinity 9.82262993
REMARK minimizedRMSD -1
REMARK  0 active torsions:
REMARK  status: ('A' for Active; 'I' for Inactive)
ROOT
ATOM      1  C   UNL d   1       4.883  -5.999  -3.747  0.00  0.00     0.077 C 
ATOM      2  C1  UNL d   1       4.425  -5.491  -2.412  0.00  0.00    -0.074 A 
ATOM      3  C2  UNL d   1       5.340  -5.254  -1.380  0.00  0.00    -0.005 A 
ATOM      4  C3  UNL d   1       4.900  -4.773  -0.147  0.00  0.00     0.006 A 
ATOM      5  C4  UNL d   1       3.544  -4.524   0.067  0.00  0.00    -0.005 A 
ATOM      6  C5  UNL d   1       2.615  -4.754  -0.953  0.00  0.00    -0.074 A 
ATOM      7  C6  UNL d   1       1.155  -4.483  -0.743  0.00  0.00     0.077 C 
ATOM      8  C7  UNL d   1       3.065  -5.231  -2.191  0.00  0.00    -0.001 A 
ENDROOT
TORSDOF 0
ENDMDL
