MODEL 1
REMARK minimizedAffinity 7.08863783
REMARK minimizedRMSD -1
REMARK  0 active torsions:
REMARK  status: ('A' for Active; 'I' for Inactive)
ROOT
ATOM      1  C   UNL d   1       1.352   0.867  -0.092  0.00  0.00     0.077 C 
ATOM      2  C1  UNL d   1       0.743   2.214  -0.343  0.00  0.00    -0.074 A 
ATOM      3  C2  UNL d   1      -0.605   2.458  -0.058  0.00  0.00    -0.005 A 
ATOM      4  C3  UNL d   1      -1.155   3.719  -0.287  0.00  0.00     0.006 A 
ATOM      5  C4  UNL d   1      -0.365   4.747  -0.803  0.00  0.00    -0.005 A 
ATOM      6  C5  UNL d   1       0.984   4.522  -1.094  0.00  0.00    -0.074 A 
ATOM      7  C6  UNL d   1       1.850   5.619  -1.639  0.00  0.00     0.077 C 
ATOM      8  C7  UNL d   1       1.532   3.254  -0.854  0.00  0.00    -0.001 A 
ENDROOT
TORSDOF 0
ENDMDL
