MODEL 1
REMARK minimizedAffinity -3.44500804
REMARK minimizedRMSD -1
REMARK  0 active torsions:
REMARK  status: ('A' for Active; 'I' for Inactive)
ROOT
ATOM      1  C1  BNZ d   1      -0.981   3.356  -4.399  0.00  0.00     0.000 A 
ATOM      2  C2  BNZ d   1      -1.692   2.256  -4.001  0.00  0.00     0.000 A 
ATOM      3  C3  BNZ d   1      -1.814   1.944  -2.676  0.00  0.00     0.000 A 
ATOM      4  C4  BNZ d   1      -1.192   2.707  -1.755  0.00  0.00     0.000 A 
ATOM      5  C5  BNZ d   1      -0.463   3.815  -2.141  0.00  0.00     0.000 A 
ATOM      6  C6  BNZ d   1      -0.375   4.148  -3.473  0.00  0.00     0.000 A 
ENDROOT
TORSDOF 0
ENDMDL
