MODEL 1
REMARK minimizedAffinity -3.14676023
REMARK minimizedRMSD -1
REMARK  0 active torsions:
REMARK  status: ('A' for Active; 'I' for Inactive)
ROOT
ATOM      1  C1  BNZ d   1      -2.311   2.087  -4.220  0.00  0.00     0.000 A 
ATOM      2  C2  BNZ d   1      -1.625   3.191  -4.651  0.00  0.00     0.000 A 
ATOM      3  C3  BNZ d   1      -0.851   3.915  -3.789  0.00  0.00     0.000 A 
ATOM      4  C4  BNZ d   1      -0.795   3.560  -2.489  0.00  0.00     0.000 A 
ATOM      5  C5  BNZ d   1      -1.489   2.455  -2.036  0.00  0.00     0.000 A 
ATOM      6  C6  BNZ d   1      -2.236   1.705  -2.916  0.00  0.00     0.000 A 
ENDROOT
TORSDOF 0
ENDMDL
