MODEL 1
REMARK minimizedAffinity -0.729304135
REMARK minimizedRMSD -1
REMARK  0 active torsions:
REMARK  status: ('A' for Active; 'I' for Inactive)
ROOT
ATOM      1  C1  BNZ d   1      -1.200   0.418  -0.068  0.00  0.00     0.000 A 
ATOM      2  C2  BNZ d   1      -1.026  -0.926   0.127  0.00  0.00     0.000 A 
ATOM      3  C3  BNZ d   1       0.226  -1.475   0.143  0.00  0.00     0.000 A 
ATOM      4  C4  BNZ d   1       1.298  -0.687  -0.076  0.00  0.00     0.000 A 
ATOM      5  C5  BNZ d   1       1.138   0.669  -0.284  0.00  0.00     0.000 A 
ATOM      6  C6  BNZ d   1      -0.120   1.224  -0.261  0.00  0.00     0.000 A 
ENDROOT
TORSDOF 0
ENDMDL
