MODEL 1
REMARK minimizedAffinity -3.94676352
REMARK minimizedRMSD -1
REMARK  0 active torsions:
REMARK  status: ('A' for Active; 'I' for Inactive)
ROOT
ATOM      1  C1  BNZ d   1      -0.731   3.162  -2.351  0.00  0.00     0.000 A 
ATOM      2  C2  BNZ d   1      -1.078   2.530  -1.187  0.00  0.00     0.000 A 
ATOM      3  C3  BNZ d   1      -2.065   1.584  -1.171  0.00  0.00     0.000 A 
ATOM      4  C4  BNZ d   1      -2.731   1.302  -2.309  0.00  0.00     0.000 A 
ATOM      5  C5  BNZ d   1      -2.399   1.938  -3.489  0.00  0.00     0.000 A 
ATOM      6  C6  BNZ d   1      -1.378   2.860  -3.509  0.00  0.00     0.000 A 
ENDROOT
TORSDOF 0
ENDMDL
