MODEL 1
REMARK minimizedAffinity -2.0298264
REMARK minimizedRMSD -1
REMARK  0 active torsions:
REMARK  status: ('A' for Active; 'I' for Inactive)
ROOT
ATOM      1  C1  BNZ d   1       0.797   0.136  -0.399  0.00  0.00     0.000 A 
ATOM      2  C2  BNZ d   1       1.425  -0.988   0.067  0.00  0.00     0.000 A 
ATOM      3  C3  BNZ d   1       0.736  -1.933   0.775  0.00  0.00     0.000 A 
ATOM      4  C4  BNZ d   1      -0.569  -1.733   1.050  0.00  0.00     0.000 A 
ATOM      5  C5  BNZ d   1      -1.214  -0.601   0.596  0.00  0.00     0.000 A 
ATOM      6  C6  BNZ d   1      -0.527   0.329  -0.150  0.00  0.00     0.000 A 
ENDROOT
TORSDOF 0
ENDMDL
