MODEL 1
REMARK minimizedAffinity -3.91924024
REMARK minimizedRMSD -1
REMARK  0 active torsions:
REMARK  status: ('A' for Active; 'I' for Inactive)
ROOT
ATOM      1  C1  BNZ d   1       0.981   4.082   0.586  0.00  0.00     0.000 A 
ATOM      2  C2  BNZ d   1       2.246   4.559   0.362  0.00  0.00     0.000 A 
ATOM      3  C3  BNZ d   1       3.195   3.775  -0.231  0.00  0.00     0.000 A 
ATOM      4  C4  BNZ d   1       2.891   2.504  -0.564  0.00  0.00     0.000 A 
ATOM      5  C5  BNZ d   1       1.624   2.005  -0.337  0.00  0.00     0.000 A 
ATOM      6  C6  BNZ d   1       0.660   2.810   0.225  0.00  0.00     0.000 A 
ENDROOT
TORSDOF 0
ENDMDL
