MODEL 1
REMARK minimizedAffinity -3.6981113
REMARK minimizedRMSD -1
REMARK  0 active torsions:
REMARK  status: ('A' for Active; 'I' for Inactive)
ROOT
ATOM      1  C1  BNZ d   1      -1.197  -0.547   1.786  0.00  0.00     0.000 A 
ATOM      2  C2  BNZ d   1      -0.232  -1.484   1.528  0.00  0.00     0.000 A 
ATOM      3  C3  BNZ d   1       0.618  -1.339   0.467  0.00  0.00     0.000 A 
ATOM      4  C4  BNZ d   1       0.477  -0.281  -0.356  0.00  0.00     0.000 A 
ATOM      5  C5  BNZ d   1      -0.497   0.668  -0.115  0.00  0.00     0.000 A 
ATOM      6  C6  BNZ d   1      -1.326   0.539   0.976  0.00  0.00     0.000 A 
ENDROOT
TORSDOF 0
ENDMDL
