MODEL 1
REMARK minimizedAffinity -3.56415319
REMARK minimizedRMSD -1
REMARK  0 active torsions:
REMARK  status: ('A' for Active; 'I' for Inactive)
ROOT
ATOM      1  C1  BNZ d   1      -2.979   2.229  -4.254  0.00  0.00     0.000 A 
ATOM      2  C2  BNZ d   1      -2.228   3.347  -4.505  0.00  0.00     0.000 A 
ATOM      3  C3  BNZ d   1      -1.143   3.650  -3.731  0.00  0.00     0.000 A 
ATOM      4  C4  BNZ d   1      -0.835   2.859  -2.683  0.00  0.00     0.000 A 
ATOM      5  C5  BNZ d   1      -1.588   1.734  -2.411  0.00  0.00     0.000 A 
ATOM      6  C6  BNZ d   1      -2.656   1.411  -3.216  0.00  0.00     0.000 A 
ENDROOT
TORSDOF 0
ENDMDL
