MODEL 1
REMARK minimizedAffinity -3.35860658
REMARK minimizedRMSD -1
REMARK  0 active torsions:
REMARK  status: ('A' for Active; 'I' for Inactive)
ROOT
ATOM      1  C1  BNZ d   1      -0.409  -1.171   0.865  0.00  0.00     0.000 A 
ATOM      2  C2  BNZ d   1       0.137  -2.304   1.407  0.00  0.00     0.000 A 
ATOM      3  C3  BNZ d   1       1.388  -2.720   1.046  0.00  0.00     0.000 A 
ATOM      4  C4  BNZ d   1       2.075  -2.027   0.116  0.00  0.00     0.000 A 
ATOM      5  C5  BNZ d   1       1.535  -0.887  -0.447  0.00  0.00     0.000 A 
ATOM      6  C6  BNZ d   1       0.291  -0.450  -0.053  0.00  0.00     0.000 A 
ENDROOT
TORSDOF 0
ENDMDL
