MODEL 1
REMARK minimizedAffinity -3.5506041
REMARK minimizedRMSD -1
REMARK  0 active torsions:
REMARK  status: ('A' for Active; 'I' for Inactive)
ROOT
ATOM      1  C1  BNZ d   1       2.483  -1.415   0.806  0.00  0.00     0.000 A 
ATOM      2  C2  BNZ d   1       1.712  -2.366   1.420  0.00  0.00     0.000 A 
ATOM      3  C3  BNZ d   1       0.361  -2.408   1.221  0.00  0.00     0.000 A 
ATOM      4  C4  BNZ d   1      -0.223  -1.475   0.441  0.00  0.00     0.000 A 
ATOM      5  C5  BNZ d   1       0.539  -0.504  -0.177  0.00  0.00     0.000 A 
ATOM      6  C6  BNZ d   1       1.904  -0.489  -0.006  0.00  0.00     0.000 A 
ENDROOT
TORSDOF 0
ENDMDL
