MODEL 1
REMARK minimizedAffinity -4.92827225
REMARK minimizedRMSD -1
REMARK  0 active torsions:
REMARK  status: ('A' for Active; 'I' for Inactive)
ROOT
ATOM      1  C1  BNZ d   1      -0.671   3.945  -2.495  0.00  0.00     0.000 A 
ATOM      2  C2  BNZ d   1      -1.596   3.050  -2.025  0.00  0.00     0.000 A 
ATOM      3  C3  BNZ d   1      -2.409   2.368  -2.886  0.00  0.00     0.000 A 
ATOM      4  C4  BNZ d   1      -2.325   2.609  -4.210  0.00  0.00     0.000 A 
ATOM      5  C5  BNZ d   1      -1.404   3.515  -4.698  0.00  0.00     0.000 A 
ATOM      6  C6  BNZ d   1      -0.560   4.172  -3.832  0.00  0.00     0.000 A 
ENDROOT
TORSDOF 0
ENDMDL
