MODEL 1
REMARK minimizedAffinity -3.56941915
REMARK minimizedRMSD -1
REMARK  0 active torsions:
REMARK  status: ('A' for Active; 'I' for Inactive)
ROOT
ATOM      1  C1  BNZ d   1      -0.944  -0.872   1.762  0.00  0.00     0.000 A 
ATOM      2  C2  BNZ d   1       0.167  -1.616   1.464  0.00  0.00     0.000 A 
ATOM      3  C3  BNZ d   1       0.946  -1.310   0.384  0.00  0.00     0.000 A 
ATOM      4  C4  BNZ d   1       0.592  -0.286  -0.419  0.00  0.00     0.000 A 
ATOM      5  C5  BNZ d   1      -0.530   0.468  -0.138  0.00  0.00     0.000 A 
ATOM      6  C6  BNZ d   1      -1.290   0.181   0.973  0.00  0.00     0.000 A 
ENDROOT
TORSDOF 0
ENDMDL
