MODEL 1
REMARK minimizedAffinity -4.45334816
REMARK minimizedRMSD -1
REMARK  0 active torsions:
REMARK  status: ('A' for Active; 'I' for Inactive)
ROOT
ATOM      1  C1  BNZ d   1      -0.326  -1.484  -0.524  0.00  0.00     0.000 A 
ATOM      2  C2  BNZ d   1       0.145  -2.515   0.244  0.00  0.00     0.000 A 
ATOM      3  C3  BNZ d   1       1.243  -2.349   1.041  0.00  0.00     0.000 A 
ATOM      4  C4  BNZ d   1       1.891  -1.167   1.038  0.00  0.00     0.000 A 
ATOM      5  C5  BNZ d   1       1.434  -0.121   0.262  0.00  0.00     0.000 A 
ATOM      6  C6  BNZ d   1       0.306  -0.279  -0.509  0.00  0.00     0.000 A 
ENDROOT
TORSDOF 0
ENDMDL
