MODEL 1
REMARK minimizedAffinity -2.32821107
REMARK minimizedRMSD -1
REMARK  0 active torsions:
REMARK  status: ('A' for Active; 'I' for Inactive)
ROOT
ATOM      1  C1  BNZ d   1      -3.399   1.313  -2.097  0.00  0.00     0.000 A 
ATOM      2  C2  BNZ d   1      -3.388   2.564  -2.653  0.00  0.00     0.000 A 
ATOM      3  C3  BNZ d   1      -2.681   2.815  -3.796  0.00  0.00     0.000 A 
ATOM      4  C4  BNZ d   1      -1.955   1.827  -4.358  0.00  0.00     0.000 A 
ATOM      5  C5  BNZ d   1      -1.950   0.562  -3.803  0.00  0.00     0.000 A 
ATOM      6  C6  BNZ d   1      -2.693   0.303  -2.675  0.00  0.00     0.000 A 
ENDROOT
TORSDOF 0
ENDMDL
