MODEL 1
REMARK minimizedAffinity -5.17352962
REMARK minimizedRMSD -1
REMARK  0 active torsions:
REMARK  status: ('A' for Active; 'I' for Inactive)
ROOT
ATOM      1  C1  BNZ d   1       1.823  -0.365  -0.076  0.00  0.00     0.000 A 
ATOM      2  C2  BNZ d   1       0.468  -0.188   0.012  0.00  0.00     0.000 A 
ATOM      3  C3  BNZ d   1      -0.330  -1.153   0.562  0.00  0.00     0.000 A 
ATOM      4  C4  BNZ d   1       0.223  -2.308   0.986  0.00  0.00     0.000 A 
ATOM      5  C5  BNZ d   1       1.587  -2.505   0.895  0.00  0.00     0.000 A 
ATOM      6  C6  BNZ d   1       2.391  -1.516   0.376  0.00  0.00     0.000 A 
ENDROOT
TORSDOF 0
ENDMDL
