MODEL 1
REMARK minimizedAffinity -3.51953077
REMARK minimizedRMSD -1
REMARK  0 active torsions:
REMARK  status: ('A' for Active; 'I' for Inactive)
ROOT
ATOM      1  C1  BNZ d   1      -0.522  -0.765   0.339  0.00  0.00     0.000 A 
ATOM      2  C2  BNZ d   1       0.651  -1.471   0.344  0.00  0.00     0.000 A 
ATOM      3  C3  BNZ d   1       1.856  -0.829   0.273  0.00  0.00     0.000 A 
ATOM      4  C4  BNZ d   1       1.885   0.514   0.157  0.00  0.00     0.000 A 
ATOM      5  C5  BNZ d   1       0.711   1.240   0.142  0.00  0.00     0.000 A 
ATOM      6  C6  BNZ d   1      -0.499   0.593   0.252  0.00  0.00     0.000 A 
ENDROOT
TORSDOF 0
ENDMDL
