MODEL 1
REMARK minimizedAffinity -3.9063015
REMARK minimizedRMSD -1
REMARK  0 active torsions:
REMARK  status: ('A' for Active; 'I' for Inactive)
ROOT
ATOM      1  C1  BNZ d   1       0.358   0.849  -0.316  0.00  0.00     0.000 A 
ATOM      2  C2  BNZ d   1      -0.337   2.021  -0.177  0.00  0.00     0.000 A 
ATOM      3  C3  BNZ d   1       0.317   3.200   0.049  0.00  0.00     0.000 A 
ATOM      4  C4  BNZ d   1       1.659   3.200   0.175  0.00  0.00     0.000 A 
ATOM      5  C5  BNZ d   1       2.374   2.025   0.048  0.00  0.00     0.000 A 
ATOM      6  C6  BNZ d   1       1.715   0.847  -0.218  0.00  0.00     0.000 A 
ENDROOT
TORSDOF 0
ENDMDL
