MODEL 1
REMARK minimizedAffinity 13.0671425
REMARK minimizedRMSD -1
REMARK  1 active torsions:
REMARK  status: ('A' for Active; 'I' for Inactive)
REMARK    1  A    between atoms: C1_2  and  C2_3 
ROOT
ATOM      1  C2  UNL d   1       1.215  -2.563   1.575  0.00  0.00    -0.081 A 
ATOM      2  C3  UNL d   1       0.974  -3.920   1.824  0.00  0.00     0.006 A 
ATOM      3  C4  UNL d   1       1.725  -4.903   1.175  0.00  0.00     0.002 A 
ATOM      4  C5  UNL d   1       2.733  -4.546   0.273  0.00  0.00    -0.080 A 
ATOM      5  C6  UNL d   1       3.567  -5.591  -0.407  0.00  0.00     0.076 C 
ATOM      6  C7  UNL d   1       2.962  -3.191   0.011  0.00  0.00     0.002 A 
ATOM      7  C8  UNL d   1       2.211  -2.208   0.659  0.00  0.00     0.006 A 
ENDROOT
BRANCH   1   8
ATOM      8  C1  UNL d   1       0.451  -1.499   2.322  0.00  0.00     0.054 C 
ATOM      9  C   UNL d   1      -0.952  -1.972   2.676  0.00  0.00     0.018 C 
ENDBRANCH   1   8
TORSDOF 1
ENDMDL
