MODEL 1
REMARK minimizedAffinity 6.07135582
REMARK minimizedRMSD -1
REMARK  1 active torsions:
REMARK  status: ('A' for Active; 'I' for Inactive)
REMARK    1  A    between atoms: C1_2  and  C2_3 
ROOT
ATOM      1  C2  UNL d   1      -2.718   0.314   2.564  0.00  0.00    -0.081 A 
ATOM      2  C3  UNL d   1      -2.729  -0.680   1.578  0.00  0.00     0.006 A 
ATOM      3  C4  UNL d   1      -1.601  -1.474   1.359  0.00  0.00     0.002 A 
ATOM      4  C5  UNL d   1      -0.446  -1.293   2.128  0.00  0.00    -0.080 A 
ATOM      5  C6  UNL d   1       0.761  -2.159   1.924  0.00  0.00     0.076 C 
ATOM      6  C7  UNL d   1      -0.428  -0.289   3.102  0.00  0.00     0.002 A 
ATOM      7  C8  UNL d   1      -1.556   0.506   3.320  0.00  0.00     0.006 A 
ENDROOT
BRANCH   1   8
ATOM      8  C1  UNL d   1      -3.954   1.128   2.846  0.00  0.00     0.054 C 
ATOM      9  C   UNL d   1      -3.923   1.714   4.251  0.00  0.00     0.018 C 
ENDBRANCH   1   8
TORSDOF 1
ENDMDL
