MODEL 1
REMARK minimizedAffinity -2.17732453
REMARK minimizedRMSD -1
REMARK  0 active torsions:
REMARK  status: ('A' for Active; 'I' for Inactive)
ROOT
ATOM      1  C2' OXE d   1      -0.985  -0.390   0.842  0.00  0.00     0.078 C 
ATOM      2  C1' OXE d   1       1.662  -0.807   0.004  0.00  0.00     0.078 C 
ATOM      3  C1  OXE d   1       0.595  -1.712  -0.559  0.00  0.00    -0.078 A 
ATOM      4  C2  OXE d   1      -0.691  -1.531  -0.108  0.00  0.00    -0.078 A 
ATOM      5  C3  OXE d   1      -1.722  -2.302  -0.637  0.00  0.00     0.003 A 
ATOM      6  C4  OXE d   1      -1.440  -3.362  -1.508  0.00  0.00    -0.002 A 
ATOM      7  C5  OXE d   1      -0.132  -3.589  -1.949  0.00  0.00    -0.002 A 
ATOM      8  C6  OXE d   1       0.889  -2.748  -1.518  0.00  0.00     0.003 A 
ENDROOT
TORSDOF 0
ENDMDL
