MODEL 1
REMARK minimizedAffinity -4.76308441
REMARK minimizedRMSD -1
REMARK  0 active torsions:
REMARK  status: ('A' for Active; 'I' for Inactive)
ROOT
ATOM      1  C2' OXE d   1      -1.732   1.504  -0.082  0.00  0.00     0.078 C 
ATOM      2  C1' OXE d   1      -0.146  -0.798  -0.333  0.00  0.00     0.078 C 
ATOM      3  C1  OXE d   1       0.540   0.491   0.042  0.00  0.00    -0.078 A 
ATOM      4  C2  OXE d   1      -0.237   1.622   0.117  0.00  0.00    -0.078 A 
ATOM      5  C3  OXE d   1       0.337   2.827   0.513  0.00  0.00     0.003 A 
ATOM      6  C4  OXE d   1       1.722   2.930   0.685  0.00  0.00    -0.002 A 
ATOM      7  C5  OXE d   1       2.537   1.799   0.575  0.00  0.00    -0.002 A 
ATOM      8  C6  OXE d   1       1.958   0.566   0.296  0.00  0.00     0.003 A 
ENDROOT
TORSDOF 0
ENDMDL
