MODEL 1
REMARK minimizedAffinity -4.45009279
REMARK minimizedRMSD -1
REMARK  0 active torsions:
REMARK  status: ('A' for Active; 'I' for Inactive)
ROOT
ATOM      1  C2' OXE d   1       0.348  -1.149   0.224  0.00  0.00     0.078 C 
ATOM      2  C1' OXE d   1      -1.928   0.477   0.455  0.00  0.00     0.078 C 
ATOM      3  C1  OXE d   1      -0.583   1.155   0.381  0.00  0.00    -0.078 A 
ATOM      4  C2  OXE d   1       0.528   0.350   0.315  0.00  0.00    -0.078 A 
ATOM      5  C3  OXE d   1       1.790   0.926   0.190  0.00  0.00     0.003 A 
ATOM      6  C4  OXE d   1       1.948   2.314   0.286  0.00  0.00    -0.002 A 
ATOM      7  C5  OXE d   1       0.832   3.150   0.393  0.00  0.00    -0.002 A 
ATOM      8  C6  OXE d   1      -0.441   2.590   0.399  0.00  0.00     0.003 A 
ENDROOT
TORSDOF 0
ENDMDL
