MODEL 1
REMARK minimizedAffinity -5.38350487
REMARK minimizedRMSD -1
REMARK  0 active torsions:
REMARK  status: ('A' for Active; 'I' for Inactive)
ROOT
ATOM      1  C2' OXE d   1      -0.265  -1.545   0.150  0.00  0.00     0.078 C 
ATOM      2  C1' OXE d   1      -2.420   0.138   0.786  0.00  0.00     0.078 C 
ATOM      3  C1  OXE d   1      -1.104   0.784   0.430  0.00  0.00    -0.078 A 
ATOM      4  C2  OXE d   1      -0.042  -0.048   0.166  0.00  0.00    -0.078 A 
ATOM      5  C3  OXE d   1       1.179   0.495  -0.221  0.00  0.00     0.003 A 
ATOM      6  C4  OXE d   1       1.379   1.881  -0.193  0.00  0.00    -0.002 A 
ATOM      7  C5  OXE d   1       0.322   2.745   0.112  0.00  0.00    -0.002 A 
ATOM      8  C6  OXE d   1      -0.934   2.215   0.383  0.00  0.00     0.003 A 
ENDROOT
TORSDOF 0
ENDMDL
