MODEL 1
REMARK minimizedAffinity -5.47359037
REMARK minimizedRMSD -1
REMARK  0 active torsions:
REMARK  status: ('A' for Active; 'I' for Inactive)
ROOT
ATOM      1  C2' OXE d   1      -2.172   0.709   0.817  0.00  0.00     0.078 C 
ATOM      2  C1' OXE d   1      -0.202  -1.212   0.261  0.00  0.00     0.078 C 
ATOM      3  C1  OXE d   1       0.101   0.225  -0.081  0.00  0.00    -0.078 A 
ATOM      4  C2  OXE d   1      -0.887   1.152   0.152  0.00  0.00    -0.078 A 
ATOM      5  C3  OXE d   1      -0.639   2.499  -0.094  0.00  0.00     0.003 A 
ATOM      6  C4  OXE d   1       0.548   2.900  -0.719  0.00  0.00    -0.002 A 
ATOM      7  C5  OXE d   1       1.551   1.966  -1.001  0.00  0.00    -0.002 A 
ATOM      8  C6  OXE d   1       1.361   0.634  -0.650  0.00  0.00     0.003 A 
ENDROOT
TORSDOF 0
ENDMDL
