MODEL 1
REMARK minimizedAffinity -4.17912769
REMARK minimizedRMSD -1
REMARK  0 active torsions:
REMARK  status: ('A' for Active; 'I' for Inactive)
ROOT
ATOM      1  C2' OXE d   1       0.336  -0.934   0.274  0.00  0.00     0.078 C 
ATOM      2  C1' OXE d   1       2.404   0.875  -0.301  0.00  0.00     0.078 C 
ATOM      3  C1  OXE d   1       1.006   1.425  -0.166  0.00  0.00    -0.078 A 
ATOM      4  C2  OXE d   1      -0.007   0.526   0.069  0.00  0.00    -0.078 A 
ATOM      5  C3  OXE d   1      -1.307   0.986   0.255  0.00  0.00     0.003 A 
ATOM      6  C4  OXE d   1      -1.617   2.337   0.054  0.00  0.00    -0.002 A 
ATOM      7  C5  OXE d   1      -0.606   3.263  -0.225  0.00  0.00    -0.002 A 
ATOM      8  C6  OXE d   1       0.714   2.831  -0.296  0.00  0.00     0.003 A 
ENDROOT
TORSDOF 0
ENDMDL
