MODEL 1
REMARK minimizedAffinity -1.90830445
REMARK minimizedRMSD -1
REMARK  0 active torsions:
REMARK  status: ('A' for Active; 'I' for Inactive)
ROOT
ATOM      1  C2' OXE d   1      -2.078   0.148   1.225  0.00  0.00     0.078 C 
ATOM      2  C1' OXE d   1       0.070  -1.222   0.045  0.00  0.00     0.078 C 
ATOM      3  C1  OXE d   1       0.110   0.286   0.042  0.00  0.00    -0.078 A 
ATOM      4  C2  OXE d   1      -0.967   0.948   0.580  0.00  0.00    -0.078 A 
ATOM      5  C3  OXE d   1      -0.956   2.338   0.653  0.00  0.00     0.003 A 
ATOM      6  C4  OXE d   1       0.071   3.071   0.045  0.00  0.00    -0.002 A 
ATOM      7  C5  OXE d   1       1.158   2.417  -0.543  0.00  0.00    -0.002 A 
ATOM      8  C6  OXE d   1       1.214   1.028  -0.515  0.00  0.00     0.003 A 
ENDROOT
TORSDOF 0
ENDMDL
