MODEL 1
REMARK minimizedAffinity -2.15512466
REMARK minimizedRMSD -1
REMARK  0 active torsions:
REMARK  status: ('A' for Active; 'I' for Inactive)
ROOT
ATOM      1  C2' OXE d   1      -1.930   0.515   0.697  0.00  0.00     0.078 C 
ATOM      2  C1' OXE d   1       0.224  -0.740  -0.593  0.00  0.00     0.078 C 
ATOM      3  C1  OXE d   1       0.372   0.717  -0.232  0.00  0.00    -0.078 A 
ATOM      4  C2  OXE d   1      -0.704   1.335   0.357  0.00  0.00    -0.078 A 
ATOM      5  C3  OXE d   1      -0.601   2.663   0.760  0.00  0.00     0.003 A 
ATOM      6  C4  OXE d   1       0.532   3.417   0.433  0.00  0.00    -0.002 A 
ATOM      7  C5  OXE d   1       1.625   2.818  -0.202  0.00  0.00    -0.002 A 
ATOM      8  C6  OXE d   1       1.578   1.461  -0.503  0.00  0.00     0.003 A 
ENDROOT
TORSDOF 0
ENDMDL
