MODEL 1
REMARK minimizedAffinity -2.96411324
REMARK minimizedRMSD -1
REMARK  0 active torsions:
REMARK  status: ('A' for Active; 'I' for Inactive)
ROOT
ATOM      1  C2' OXE d   1       0.158  -1.055  -0.403  0.00  0.00     0.078 C 
ATOM      2  C1' OXE d   1      -2.300   0.248  -0.029  0.00  0.00     0.078 C 
ATOM      3  C1  OXE d   1      -1.059   1.100  -0.115  0.00  0.00    -0.078 A 
ATOM      4  C2  OXE d   1       0.145   0.451  -0.252  0.00  0.00    -0.078 A 
ATOM      5  C3  OXE d   1       1.316   1.192  -0.391  0.00  0.00     0.003 A 
ATOM      6  C4  OXE d   1       1.296   2.584  -0.239  0.00  0.00    -0.002 A 
ATOM      7  C5  OXE d   1       0.085   3.261  -0.060  0.00  0.00    -0.002 A 
ATOM      8  C6  OXE d   1      -1.103   2.539  -0.039  0.00  0.00     0.003 A 
ENDROOT
TORSDOF 0
ENDMDL
