MODEL 1
REMARK minimizedAffinity 1.45385885
REMARK minimizedRMSD -1
REMARK  0 active torsions:
REMARK  status: ('A' for Active; 'I' for Inactive)
ROOT
ATOM      1  C2' OXE d   1      -0.753   0.111  -0.381  0.00  0.00     0.078 C 
ATOM      2  C1' OXE d   1       0.880  -2.012   0.460  0.00  0.00     0.078 C 
ATOM      3  C1  OXE d   1      -0.228  -2.320  -0.516  0.00  0.00    -0.078 A 
ATOM      4  C2  OXE d   1      -1.051  -1.284  -0.886  0.00  0.00    -0.078 A 
ATOM      5  C3  OXE d   1      -2.054  -1.503  -1.826  0.00  0.00     0.003 A 
ATOM      6  C4  OXE d   1      -2.330  -2.798  -2.280  0.00  0.00    -0.002 A 
ATOM      7  C5  OXE d   1      -1.529  -3.874  -1.885  0.00  0.00    -0.002 A 
ATOM      8  C6  OXE d   1      -0.449  -3.646  -1.039  0.00  0.00     0.003 A 
ENDROOT
TORSDOF 0
ENDMDL
