MODEL 1
REMARK minimizedAffinity -4.49052
REMARK minimizedRMSD -1
REMARK  0 active torsions:
REMARK  status: ('A' for Active; 'I' for Inactive)
ROOT
ATOM      1  C2' OXE d   1      -2.045   0.296   0.675  0.00  0.00     0.078 C 
ATOM      2  C1' OXE d   1       0.111  -1.355  -0.038  0.00  0.00     0.078 C 
ATOM      3  C1  OXE d   1       0.333   0.137  -0.051  0.00  0.00    -0.078 A 
ATOM      4  C2  OXE d   1      -0.741   0.938   0.254  0.00  0.00    -0.078 A 
ATOM      5  C3  OXE d   1      -0.576   2.320   0.311  0.00  0.00     0.003 A 
ATOM      6  C4  OXE d   1       0.630   2.907  -0.090  0.00  0.00    -0.002 A 
ATOM      7  C5  OXE d   1       1.725   2.110  -0.442  0.00  0.00    -0.002 A 
ATOM      8  C6  OXE d   1       1.606   0.726  -0.387  0.00  0.00     0.003 A 
ENDROOT
TORSDOF 0
ENDMDL
