MODEL 1
REMARK minimizedAffinity -3.32328916
REMARK minimizedRMSD -1
REMARK  0 active torsions:
REMARK  status: ('A' for Active; 'I' for Inactive)
ROOT
ATOM      1  C2' OXE d   1      -2.288   1.492   0.290  0.00  0.00     0.078 C 
ATOM      2  C1' OXE d   1      -0.118   3.187  -0.257  0.00  0.00     0.078 C 
ATOM      3  C1  OXE d   1       0.168   1.719  -0.060  0.00  0.00    -0.078 A 
ATOM      4  C2  OXE d   1      -0.894   0.905   0.254  0.00  0.00    -0.078 A 
ATOM      5  C3  OXE d   1      -0.694  -0.466   0.392  0.00  0.00     0.003 A 
ATOM      6  C4  OXE d   1       0.600  -0.999   0.366  0.00  0.00    -0.002 A 
ATOM      7  C5  OXE d   1       1.700  -0.181   0.088  0.00  0.00    -0.002 A 
ATOM      8  C6  OXE d   1       1.497   1.170  -0.169  0.00  0.00     0.003 A 
ENDROOT
TORSDOF 0
ENDMDL
