MODEL 1
REMARK minimizedAffinity -3.62821722
REMARK minimizedRMSD -1
REMARK  0 active torsions:
REMARK  status: ('A' for Active; 'I' for Inactive)
ROOT
ATOM      1  C2' OXE d   1      -1.965   1.129   0.033  0.00  0.00     0.078 C 
ATOM      2  C1' OXE d   1       0.077   3.054  -0.040  0.00  0.00     0.078 C 
ATOM      3  C1  OXE d   1       0.480   1.605   0.061  0.00  0.00    -0.078 A 
ATOM      4  C2  OXE d   1      -0.526   0.673   0.143  0.00  0.00    -0.078 A 
ATOM      5  C3  OXE d   1      -0.209  -0.682   0.182  0.00  0.00     0.003 A 
ATOM      6  C4  OXE d   1       1.124  -1.096   0.294  0.00  0.00    -0.002 A 
ATOM      7  C5  OXE d   1       2.163  -0.160   0.252  0.00  0.00    -0.002 A 
ATOM      8  C6  OXE d   1       1.861   1.188   0.093  0.00  0.00     0.003 A 
ENDROOT
TORSDOF 0
ENDMDL
