MODEL 1
REMARK minimizedAffinity -2.15185857
REMARK minimizedRMSD -1
REMARK  0 active torsions:
REMARK  status: ('A' for Active; 'I' for Inactive)
ROOT
ATOM      1  C2' OXE d   1      -0.118  -0.894  -1.000  0.00  0.00     0.078 C 
ATOM      2  C1' OXE d   1      -1.381  -0.194   1.407  0.00  0.00     0.078 C 
ATOM      3  C1  OXE d   1      -0.620   0.881   0.674  0.00  0.00    -0.078 A 
ATOM      4  C2  OXE d   1       0.034   0.519  -0.479  0.00  0.00    -0.078 A 
ATOM      5  C3  OXE d   1       0.705   1.485  -1.224  0.00  0.00     0.003 A 
ATOM      6  C4  OXE d   1       0.849   2.787  -0.730  0.00  0.00    -0.002 A 
ATOM      7  C5  OXE d   1       0.224   3.167   0.463  0.00  0.00    -0.002 A 
ATOM      8  C6  OXE d   1      -0.548   2.240   1.153  0.00  0.00     0.003 A 
ENDROOT
TORSDOF 0
ENDMDL
