MODEL 1
REMARK minimizedAffinity 14.0302153
REMARK minimizedRMSD -1
REMARK  0 active torsions:
REMARK  status: ('A' for Active; 'I' for Inactive)
ROOT
ATOM      1  C2' OXE d   1       3.857  -3.094  -1.348  0.00  0.00     0.078 C 
ATOM      2  C1' OXE d   1       3.384  -5.594  -0.160  0.00  0.00     0.078 C 
ATOM      3  C1  OXE d   1       2.458  -5.154  -1.267  0.00  0.00    -0.078 A 
ATOM      4  C2  OXE d   1       2.669  -3.909  -1.810  0.00  0.00    -0.078 A 
ATOM      5  C3  OXE d   1       1.878  -3.478  -2.871  0.00  0.00     0.003 A 
ATOM      6  C4  OXE d   1       0.774  -4.233  -3.286  0.00  0.00    -0.002 A 
ATOM      7  C5  OXE d   1       0.518  -5.486  -2.719  0.00  0.00    -0.002 A 
ATOM      8  C6  OXE d   1       1.374  -5.979  -1.740  0.00  0.00     0.003 A 
ENDROOT
TORSDOF 0
ENDMDL
