MODEL 1
REMARK minimizedAffinity -4.86615658
REMARK minimizedRMSD -1
REMARK  0 active torsions:
REMARK  status: ('A' for Active; 'I' for Inactive)
ROOT
ATOM      1  C1  BNZ d   1       3.073   0.758   0.873  0.00  0.00     0.000 A 
ATOM      2  C2  BNZ d   1       1.770   1.155   0.734  0.00  0.00     0.000 A 
ATOM      3  C3  BNZ d   1       0.766   0.233   0.623  0.00  0.00     0.000 A 
ATOM      4  C4  BNZ d   1       1.070  -1.080   0.612  0.00  0.00     0.000 A 
ATOM      5  C5  BNZ d   1       2.380  -1.496   0.742  0.00  0.00     0.000 A 
ATOM      6  C6  BNZ d   1       3.384  -0.567   0.892  0.00  0.00     0.000 A 
ENDROOT
TORSDOF 0
ENDMDL
