MODEL 1
REMARK minimizedAffinity -4.60844946
REMARK minimizedRMSD -1
REMARK  0 active torsions:
REMARK  status: ('A' for Active; 'I' for Inactive)
ROOT
ATOM      1  C1  BNZ d   1       0.710   0.079   1.002  0.00  0.00     0.000 A 
ATOM      2  C2  BNZ d   1       0.264  -0.082  -0.283  0.00  0.00     0.000 A 
ATOM      3  C3  BNZ d   1       0.687  -1.136  -1.044  0.00  0.00     0.000 A 
ATOM      4  C4  BNZ d   1       1.585  -2.004  -0.534  0.00  0.00     0.000 A 
ATOM      5  C5  BNZ d   1       2.050  -1.850   0.757  0.00  0.00     0.000 A 
ATOM      6  C6  BNZ d   1       1.593  -0.810   1.533  0.00  0.00     0.000 A 
ENDROOT
TORSDOF 0
ENDMDL
