MODEL 1
REMARK minimizedAffinity -3.91331935
REMARK minimizedRMSD -1
REMARK  0 active torsions:
REMARK  status: ('A' for Active; 'I' for Inactive)
ROOT
ATOM      1  C1  BNZ d   1       1.415   1.203   0.793  0.00  0.00     0.000 A 
ATOM      2  C2  BNZ d   1       2.162   0.080   1.030  0.00  0.00     0.000 A 
ATOM      3  C3  BNZ d   1       1.754  -1.141   0.572  0.00  0.00     0.000 A 
ATOM      4  C4  BNZ d   1       0.581  -1.244  -0.087  0.00  0.00     0.000 A 
ATOM      5  C5  BNZ d   1      -0.187  -0.123  -0.325  0.00  0.00     0.000 A 
ATOM      6  C6  BNZ d   1       0.246   1.111   0.103  0.00  0.00     0.000 A 
ENDROOT
TORSDOF 0
ENDMDL
