MODEL 1
REMARK minimizedAffinity -4.45300531
REMARK minimizedRMSD -1
REMARK  0 active torsions:
REMARK  status: ('A' for Active; 'I' for Inactive)
ROOT
ATOM      1  C1  BNZ d   1      -3.799   1.234   1.882  0.00  0.00     0.000 A 
ATOM      2  C2  BNZ d   1      -4.731   0.232   1.845  0.00  0.00     0.000 A 
ATOM      3  C3  BNZ d   1      -4.759  -0.661   0.810  0.00  0.00     0.000 A 
ATOM      4  C4  BNZ d   1      -3.882  -0.526  -0.206  0.00  0.00     0.000 A 
ATOM      5  C5  BNZ d   1      -2.942   0.485  -0.188  0.00  0.00     0.000 A 
ATOM      6  C6  BNZ d   1      -2.892   1.358   0.875  0.00  0.00     0.000 A 
ENDROOT
TORSDOF 0
ENDMDL
