MODEL 1
REMARK minimizedAffinity -4.82219648
REMARK minimizedRMSD -1
REMARK  0 active torsions:
REMARK  status: ('A' for Active; 'I' for Inactive)
ROOT
ATOM      1  C1  BNZ d   1      -0.019  -0.355  -0.357  0.00  0.00     0.000 A 
ATOM      2  C2  BNZ d   1       0.588  -1.583  -0.369  0.00  0.00     0.000 A 
ATOM      3  C3  BNZ d   1       1.884  -1.727   0.042  0.00  0.00     0.000 A 
ATOM      4  C4  BNZ d   1       2.583  -0.639   0.425  0.00  0.00     0.000 A 
ATOM      5  C5  BNZ d   1       1.988   0.607   0.433  0.00  0.00     0.000 A 
ATOM      6  C6  BNZ d   1       0.672   0.742   0.056  0.00  0.00     0.000 A 
ENDROOT
TORSDOF 0
ENDMDL
