MODEL 1
REMARK minimizedAffinity -4.1852541
REMARK minimizedRMSD -1
REMARK  0 active torsions:
REMARK  status: ('A' for Active; 'I' for Inactive)
ROOT
ATOM      1  C1  BNZ d   1       2.203  -0.414   1.386  0.00  0.00     0.000 A 
ATOM      2  C2  BNZ d   1       2.671  -1.454   0.629  0.00  0.00     0.000 A 
ATOM      3  C3  BNZ d   1       1.971  -1.899  -0.458  0.00  0.00     0.000 A 
ATOM      4  C4  BNZ d   1       0.786  -1.331  -0.761  0.00  0.00     0.000 A 
ATOM      5  C5  BNZ d   1       0.296  -0.287  -0.002  0.00  0.00     0.000 A 
ATOM      6  C6  BNZ d   1       1.022   0.184   1.068  0.00  0.00     0.000 A 
ENDROOT
TORSDOF 0
ENDMDL
