MODEL 1
REMARK minimizedAffinity -2.48050284
REMARK minimizedRMSD -1
REMARK  0 active torsions:
REMARK  status: ('A' for Active; 'I' for Inactive)
ROOT
ATOM      1  C1  BNZ d   1       2.271  -0.903  -0.482  0.00  0.00     0.000 A 
ATOM      2  C2  BNZ d   1       3.441  -0.196  -0.409  0.00  0.00     0.000 A 
ATOM      3  C3  BNZ d   1       3.431   1.167  -0.312  0.00  0.00     0.000 A 
ATOM      4  C4  BNZ d   1       2.253   1.824  -0.329  0.00  0.00     0.000 A 
ATOM      5  C5  BNZ d   1       1.065   1.126  -0.412  0.00  0.00     0.000 A 
ATOM      6  C6  BNZ d   1       1.078  -0.249  -0.470  0.00  0.00     0.000 A 
ENDROOT
TORSDOF 0
ENDMDL
