MODEL 1
REMARK minimizedAffinity -4.47801971
REMARK minimizedRMSD -1
REMARK  0 active torsions:
REMARK  status: ('A' for Active; 'I' for Inactive)
ROOT
ATOM      1  C1  BNZ d   1       0.217   2.373  -0.483  0.00  0.00     0.000 A 
ATOM      2  C2  BNZ d   1       1.452   2.037   0.006  0.00  0.00     0.000 A 
ATOM      3  C3  BNZ d   1       1.576   1.178   1.062  0.00  0.00     0.000 A 
ATOM      4  C4  BNZ d   1       0.466   0.689   1.653  0.00  0.00     0.000 A 
ATOM      5  C5  BNZ d   1      -0.785   1.026   1.178  0.00  0.00     0.000 A 
ATOM      6  C6  BNZ d   1      -0.905   1.860   0.090  0.00  0.00     0.000 A 
ENDROOT
TORSDOF 0
ENDMDL
