MODEL 1
REMARK minimizedAffinity 6.44537687
REMARK minimizedRMSD -1
REMARK  2 active torsions:
REMARK  status: ('A' for Active; 'I' for Inactive)
REMARK    1  A    between atoms: C2'_3  and  C1'_4 
REMARK    2  A    between atoms: C1'_4  and  C1_5 
ROOT
ATOM      1  C1  I4B d   1       3.103   2.063  -0.403  0.00  0.00    -0.075 A 
ATOM      2  C2  I4B d   1       1.829   2.532  -0.602  0.00  0.00     0.003 A 
ATOM      3  C3  I4B d   1       0.858   2.416   0.423  0.00  0.00     0.002 A 
ATOM      4  C4  I4B d   1       1.189   1.784   1.604  0.00  0.00    -0.004 A 
ATOM      5  C5  I4B d   1       2.488   1.330   1.812  0.00  0.00     0.002 A 
ATOM      6  C6  I4B d   1       3.455   1.481   0.808  0.00  0.00     0.003 A 
ENDROOT
BRANCH   1   7
ATOM      7  C1' I4B d   1       4.094   2.173  -1.518  0.00  0.00     0.060 C 
BRANCH   7   8
ATOM      8  C2' I4B d   1       3.827   1.042  -2.492  0.00  0.00    -0.013 C 
ATOM      9  C4' I4B d   1       3.408   1.570  -3.838  0.00  0.00     0.013 C 
ATOM     10  C3' I4B d   1       5.075   0.218  -2.598  0.00  0.00     0.013 C 
ENDBRANCH   7   8
ENDBRANCH   1   7
TORSDOF 2
ENDMDL
