MODEL 1
REMARK minimizedAffinity 12.2538061
REMARK minimizedRMSD -1
REMARK  2 active torsions:
REMARK  status: ('A' for Active; 'I' for Inactive)
REMARK    1  A    between atoms: C2'_3  and  C1'_4 
REMARK    2  A    between atoms: C1'_4  and  C1_5 
ROOT
ATOM      1  C1  I4B d   1       2.342   2.070   1.705  0.00  0.00    -0.075 A 
ATOM      2  C2  I4B d   1       1.102   1.628   2.093  0.00  0.00     0.003 A 
ATOM      3  C3  I4B d   1      -0.056   2.055   1.399  0.00  0.00     0.002 A 
ATOM      4  C4  I4B d   1       0.067   2.957   0.361  0.00  0.00    -0.004 A 
ATOM      5  C5  I4B d   1       1.327   3.385  -0.046  0.00  0.00     0.002 A 
ATOM      6  C6  I4B d   1       2.473   2.929   0.622  0.00  0.00     0.003 A 
ENDROOT
BRANCH   1   7
ATOM      7  C1' I4B d   1       3.541   1.625   2.481  0.00  0.00     0.060 C 
BRANCH   7   8
ATOM      8  C2' I4B d   1       3.794   2.644   3.573  0.00  0.00    -0.013 C 
ATOM      9  C4' I4B d   1       2.909   2.395   4.767  0.00  0.00     0.013 C 
ATOM     10  C3' I4B d   1       5.244   2.569   3.950  0.00  0.00     0.013 C 
ENDBRANCH   7   8
ENDBRANCH   1   7
TORSDOF 2
ENDMDL
