MODEL 1
REMARK minimizedAffinity 12.7086802
REMARK minimizedRMSD -1
REMARK  2 active torsions:
REMARK  status: ('A' for Active; 'I' for Inactive)
REMARK    1  A    between atoms: C2'_3  and  C1'_4 
REMARK    2  A    between atoms: C1'_4  and  C1_5 
ROOT
ATOM      1  C1  I4B d   1       3.542  -5.582  -5.195  0.00  0.00    -0.075 A 
ATOM      2  C2  I4B d   1       2.429  -5.903  -5.930  0.00  0.00     0.003 A 
ATOM      3  C3  I4B d   1       1.160  -5.976  -5.306  0.00  0.00     0.002 A 
ATOM      4  C4  I4B d   1       1.058  -5.771  -3.945  0.00  0.00    -0.004 A 
ATOM      5  C5  I4B d   1       2.185  -5.423  -3.206  0.00  0.00     0.002 A 
ATOM      6  C6  I4B d   1       3.433  -5.315  -3.836  0.00  0.00     0.003 A 
ENDROOT
BRANCH   1   7
ATOM      7  C1' I4B d   1       4.872  -5.546  -5.879  0.00  0.00     0.060 C 
BRANCH   7   8
ATOM      8  C2' I4B d   1       5.885  -4.986  -4.902  0.00  0.00    -0.013 C 
ATOM      9  C4' I4B d   1       5.725  -3.497  -4.742  0.00  0.00     0.013 C 
ATOM     10  C3' I4B d   1       5.704  -5.694  -3.592  0.00  0.00     0.013 C 
ENDBRANCH   7   8
ENDBRANCH   1   7
TORSDOF 2
ENDMDL
