MODEL 1
REMARK minimizedAffinity 10.17805
REMARK minimizedRMSD -1
REMARK  2 active torsions:
REMARK  status: ('A' for Active; 'I' for Inactive)
REMARK    1  A    between atoms: C2'_3  and  C1'_4 
REMARK    2  A    between atoms: C1'_4  and  C1_5 
ROOT
ATOM      1  C1  I4B d   1      -0.325   0.543   1.102  0.00  0.00    -0.075 A 
ATOM      2  C2  I4B d   1       0.934   0.092   1.414  0.00  0.00     0.003 A 
ATOM      3  C3  I4B d   1       2.049   0.956   1.299  0.00  0.00     0.002 A 
ATOM      4  C4  I4B d   1       1.869   2.239   0.822  0.00  0.00    -0.004 A 
ATOM      5  C5  I4B d   1       0.590   2.701   0.527  0.00  0.00     0.002 A 
ATOM      6  C6  I4B d   1      -0.516   1.852   0.680  0.00  0.00     0.003 A 
ENDROOT
BRANCH   1   7
ATOM      7  C1' I4B d   1      -1.476  -0.406   1.204  0.00  0.00     0.060 C 
BRANCH   7   8
ATOM      8  C2' I4B d   1      -1.265  -1.508   0.186  0.00  0.00    -0.013 C 
ATOM      9  C4' I4B d   1      -2.373  -2.526   0.246  0.00  0.00     0.013 C 
ATOM     10  C3' I4B d   1      -1.184  -0.875  -1.171  0.00  0.00     0.013 C 
ENDBRANCH   7   8
ENDBRANCH   1   7
TORSDOF 2
ENDMDL
