MODEL 1
REMARK minimizedAffinity 16.1709824
REMARK minimizedRMSD -1
REMARK  2 active torsions:
REMARK  status: ('A' for Active; 'I' for Inactive)
REMARK    1  A    between atoms: C2'_3  and  C1'_4 
REMARK    2  A    between atoms: C1'_4  and  C1_5 
ROOT
ATOM      1  C1  I4B d   1       0.222   2.607   1.277  0.00  0.00    -0.075 A 
ATOM      2  C2  I4B d   1       0.668   3.743   0.648  0.00  0.00     0.003 A 
ATOM      3  C3  I4B d   1       2.051   3.932   0.414  0.00  0.00     0.002 A 
ATOM      4  C4  I4B d   1       2.952   2.990   0.868  0.00  0.00    -0.004 A 
ATOM      5  C5  I4B d   1       2.497   1.829   1.484  0.00  0.00     0.002 A 
ATOM      6  C6  I4B d   1       1.123   1.630   1.680  0.00  0.00     0.003 A 
ENDROOT
BRANCH   1   7
ATOM      7  C1' I4B d   1      -1.243   2.455   1.537  0.00  0.00     0.060 C 
BRANCH   7   8
ATOM      8  C2' I4B d   1      -1.414   1.935   2.950  0.00  0.00    -0.013 C 
ATOM      9  C4' I4B d   1      -2.080   2.960   3.831  0.00  0.00     0.013 C 
ATOM     10  C3' I4B d   1      -2.220   0.672   2.884  0.00  0.00     0.013 C 
ENDBRANCH   7   8
ENDBRANCH   1   7
TORSDOF 2
ENDMDL
