MODEL 1
REMARK minimizedAffinity 11.6308098
REMARK minimizedRMSD -1
REMARK  2 active torsions:
REMARK  status: ('A' for Active; 'I' for Inactive)
REMARK    1  A    between atoms: C2'_3  and  C1'_4 
REMARK    2  A    between atoms: C1'_4  and  C1_5 
ROOT
ATOM      1  C1  I4B d   1       2.934   1.245   3.745  0.00  0.00    -0.075 A 
ATOM      2  C2  I4B d   1       3.687   1.705   2.694  0.00  0.00     0.003 A 
ATOM      3  C3  I4B d   1       3.150   1.717   1.384  0.00  0.00     0.002 A 
ATOM      4  C4  I4B d   1       1.883   1.217   1.164  0.00  0.00    -0.004 A 
ATOM      5  C5  I4B d   1       1.112   0.772   2.234  0.00  0.00     0.002 A 
ATOM      6  C6  I4B d   1       1.636   0.798   3.535  0.00  0.00     0.003 A 
ENDROOT
BRANCH   1   7
ATOM      7  C1' I4B d   1       3.544   1.215   5.110  0.00  0.00     0.060 C 
BRANCH   7   8
ATOM      8  C2' I4B d   1       4.932   1.817   5.015  0.00  0.00    -0.013 C 
ATOM      9  C4' I4B d   1       5.059   3.035   5.892  0.00  0.00     0.013 C 
ATOM     10  C3' I4B d   1       5.922   0.761   5.406  0.00  0.00     0.013 C 
ENDBRANCH   7   8
ENDBRANCH   1   7
TORSDOF 2
ENDMDL
