MODEL 1
REMARK minimizedAffinity -3.94393325
REMARK minimizedRMSD -1
REMARK  2 active torsions:
REMARK  status: ('A' for Active; 'I' for Inactive)
REMARK    1  A    between atoms: C2'_3  and  C1'_4 
REMARK    2  A    between atoms: C1'_4  and  C1_5 
ROOT
ATOM      1  C1  I4B d   1       2.249   2.885  -4.471  0.00  0.00    -0.075 A 
ATOM      2  C2  I4B d   1       1.678   1.866  -3.750  0.00  0.00     0.003 A 
ATOM      3  C3  I4B d   1       0.441   1.310  -4.158  0.00  0.00     0.002 A 
ATOM      4  C4  I4B d   1      -0.210   1.833  -5.257  0.00  0.00    -0.004 A 
ATOM      5  C5  I4B d   1       0.382   2.850  -6.000  0.00  0.00     0.002 A 
ATOM      6  C6  I4B d   1       1.624   3.371  -5.613  0.00  0.00     0.003 A 
ENDROOT
BRANCH   1   7
ATOM      7  C1' I4B d   1       3.539   3.471  -3.993  0.00  0.00     0.060 C 
BRANCH   7   8
ATOM      8  C2' I4B d   1       4.422   3.705  -5.202  0.00  0.00    -0.013 C 
ATOM      9  C4' I4B d   1       5.806   4.134  -4.792  0.00  0.00     0.013 C 
ATOM     10  C3' I4B d   1       4.462   2.435  -5.999  0.00  0.00     0.013 C 
ENDBRANCH   7   8
ENDBRANCH   1   7
TORSDOF 2
ENDMDL
