MODEL 1
REMARK minimizedAffinity 10.1686687
REMARK minimizedRMSD -1
REMARK  2 active torsions:
REMARK  status: ('A' for Active; 'I' for Inactive)
REMARK    1  A    between atoms: C2'_3  and  C1'_4 
REMARK    2  A    between atoms: C1'_4  and  C1_5 
ROOT
ATOM      1  C1  I4B d   1       1.692   4.382   0.810  0.00  0.00    -0.075 A 
ATOM      2  C2  I4B d   1       2.215   3.342   1.538  0.00  0.00     0.003 A 
ATOM      3  C3  I4B d   1       1.505   2.122   1.650  0.00  0.00     0.002 A 
ATOM      4  C4  I4B d   1       0.261   2.004   1.065  0.00  0.00    -0.004 A 
ATOM      5  C5  I4B d   1      -0.257   3.051   0.308  0.00  0.00     0.002 A 
ATOM      6  C6  I4B d   1       0.468   4.243   0.169  0.00  0.00     0.003 A 
ENDROOT
BRANCH   1   7
ATOM      7  C1' I4B d   1       2.454   5.667   0.740  0.00  0.00     0.060 C 
BRANCH   7   8
ATOM      8  C2' I4B d   1       3.852   5.411   1.265  0.00  0.00    -0.013 C 
ATOM      9  C4' I4B d   1       4.894   6.000   0.350  0.00  0.00     0.013 C 
ATOM     10  C3' I4B d   1       3.945   5.999   2.641  0.00  0.00     0.013 C 
ENDBRANCH   7   8
ENDBRANCH   1   7
TORSDOF 2
ENDMDL
