MODEL 1
REMARK minimizedAffinity 14.5968561
REMARK minimizedRMSD -1
REMARK  2 active torsions:
REMARK  status: ('A' for Active; 'I' for Inactive)
REMARK    1  A    between atoms: C2'_3  and  C1'_4 
REMARK    2  A    between atoms: C1'_4  and  C1_5 
ROOT
ATOM      1  C1  I4B d   1       0.318   2.237   1.238  0.00  0.00    -0.075 A 
ATOM      2  C2  I4B d   1       0.645   1.209   0.389  0.00  0.00     0.003 A 
ATOM      3  C3  I4B d   1       1.974   0.724   0.335  0.00  0.00     0.002 A 
ATOM      4  C4  I4B d   1       2.949   1.326   1.105  0.00  0.00    -0.004 A 
ATOM      5  C5  I4B d   1       2.611   2.353   1.982  0.00  0.00     0.002 A 
ATOM      6  C6  I4B d   1       1.285   2.803   2.058  0.00  0.00     0.003 A 
ENDROOT
BRANCH   1   7
ATOM      7  C1' I4B d   1      -1.089   2.746   1.245  0.00  0.00     0.060 C 
BRANCH   7   8
ATOM      8  C2' I4B d   1      -1.733   2.318   2.548  0.00  0.00    -0.013 C 
ATOM      9  C4' I4B d   1      -2.604   1.105   2.353  0.00  0.00     0.013 C 
ATOM     10  C3' I4B d   1      -0.640   2.046   3.538  0.00  0.00     0.013 C 
ENDBRANCH   7   8
ENDBRANCH   1   7
TORSDOF 2
ENDMDL
