MODEL 1
REMARK minimizedAffinity 6.40086079
REMARK minimizedRMSD -1
REMARK  2 active torsions:
REMARK  status: ('A' for Active; 'I' for Inactive)
REMARK    1  A    between atoms: C2'_3  and  C1'_4 
REMARK    2  A    between atoms: C1'_4  and  C1_5 
ROOT
ATOM      1  C1  I4B d   1      -3.216   4.728  -5.853  0.00  0.00    -0.075 A 
ATOM      2  C2  I4B d   1      -3.874   5.932  -5.915  0.00  0.00     0.003 A 
ATOM      3  C3  I4B d   1      -5.289   5.969  -5.962  0.00  0.00     0.002 A 
ATOM      4  C4  I4B d   1      -5.999   4.786  -5.995  0.00  0.00    -0.004 A 
ATOM      5  C5  I4B d   1      -5.331   3.568  -5.909  0.00  0.00     0.002 A 
ATOM      6  C6  I4B d   1      -3.932   3.538  -5.825  0.00  0.00     0.003 A 
ENDROOT
BRANCH   1   7
ATOM      7  C1' I4B d   1      -1.720   4.725  -5.839  0.00  0.00     0.060 C 
BRANCH   7   8
ATOM      8  C2' I4B d   1      -1.268   4.116  -4.527  0.00  0.00    -0.013 C 
ATOM      9  C4' I4B d   1      -1.735   4.938  -3.355  0.00  0.00     0.013 C 
ATOM     10  C3' I4B d   1      -1.805   2.717  -4.456  0.00  0.00     0.013 C 
ENDBRANCH   7   8
ENDBRANCH   1   7
TORSDOF 2
ENDMDL
