MODEL 1
REMARK minimizedAffinity -3.62284136
REMARK minimizedRMSD -1
REMARK  1 active torsions:
REMARK  status: ('A' for Active; 'I' for Inactive)
REMARK    1  A    between atoms: C3_4  and  O_7 
ROOT
ATOM      1  C   UNL d   1       1.349  -1.910  -0.166  0.00  0.00    -0.033 A 
ATOM      2  C1  UNL d   1       0.301  -1.041   0.142  0.00  0.00     0.039 A 
ATOM      3  C2  UNL d   1       0.492   0.340   0.068  0.00  0.00    -0.080 A 
ATOM      4  C3  UNL d   1       1.735   0.838  -0.315  0.00  0.00     0.150 A 
ATOM      5  C4  UNL d   1       2.782  -0.023  -0.627  0.00  0.00    -0.007 A 
ATOM      6  C5  UNL d   1       2.589  -1.401  -0.552  0.00  0.00     0.039 A 
ENDROOT
BRANCH   4   7
ATOM      7  O   UNL d   1       1.971   2.178  -0.397  0.00  0.00    -0.526 OA
ATOM      8  H5  UNL d   1       1.166   2.650  -0.126  0.00  0.00     0.418 HD
ENDBRANCH   4   7
TORSDOF 1
ENDMDL
