MODEL 1
REMARK minimizedAffinity -4.24277306
REMARK minimizedRMSD -1
REMARK  1 active torsions:
REMARK  status: ('A' for Active; 'I' for Inactive)
REMARK    1  A    between atoms: C3_4  and  O_7 
ROOT
ATOM      1  C   UNL d   1       0.405   1.105  -0.009  0.00  0.00    -0.033 A 
ATOM      2  C1  UNL d   1       0.419  -0.170  -0.578  0.00  0.00     0.039 A 
ATOM      3  C2  UNL d   1       1.424  -1.077  -0.239  0.00  0.00    -0.080 A 
ATOM      4  C3  UNL d   1       2.408  -0.698   0.670  0.00  0.00     0.150 A 
ATOM      5  C4  UNL d   1       2.398   0.569   1.244  0.00  0.00    -0.007 A 
ATOM      6  C5  UNL d   1       1.394   1.474   0.904  0.00  0.00     0.039 A 
ENDROOT
BRANCH   4   7
ATOM      7  O   UNL d   1       3.412  -1.548   1.028  0.00  0.00    -0.526 OA
ATOM      8  H5  UNL d   1       3.307  -2.376   0.531  0.00  0.00     0.418 HD
ENDBRANCH   4   7
TORSDOF 1
ENDMDL
