MODEL 1
REMARK minimizedAffinity 0.0313670002
REMARK minimizedRMSD -1
REMARK  1 active torsions:
REMARK  status: ('A' for Active; 'I' for Inactive)
REMARK    1  A    between atoms: C3_4  and  O_7 
ROOT
ATOM      1  C   UNL d   1      -1.043  -3.003  -4.276  0.00  0.00    -0.033 A 
ATOM      2  C1  UNL d   1      -1.123  -2.010  -3.298  0.00  0.00     0.039 A 
ATOM      3  C2  UNL d   1      -1.278  -0.673  -3.670  0.00  0.00    -0.080 A 
ATOM      4  C3  UNL d   1      -1.353  -0.344  -5.021  0.00  0.00     0.150 A 
ATOM      5  C4  UNL d   1      -1.279  -1.329  -6.000  0.00  0.00    -0.007 A 
ATOM      6  C5  UNL d   1      -1.123  -2.663  -5.627  0.00  0.00     0.039 A 
ENDROOT
BRANCH   4   7
ATOM      7  O   UNL d   1      -1.500   0.947  -5.433  0.00  0.00    -0.526 OA
ATOM      8  H5  UNL d   1      -1.508   1.521  -4.649  0.00  0.00     0.418 HD
ENDBRANCH   4   7
TORSDOF 1
ENDMDL
