MODEL 1
REMARK minimizedAffinity -4.10621166
REMARK minimizedRMSD -1
REMARK  1 active torsions:
REMARK  status: ('A' for Active; 'I' for Inactive)
REMARK    1  A    between atoms: C3_4  and  O_7 
ROOT
ATOM      1  C   UNL d   1       2.509  -0.910   1.462  0.00  0.00    -0.033 A 
ATOM      2  C1  UNL d   1       2.948  -1.492   0.272  0.00  0.00     0.039 A 
ATOM      3  C2  UNL d   1       2.107  -1.527  -0.842  0.00  0.00    -0.080 A 
ATOM      4  C3  UNL d   1       0.832  -0.977  -0.753  0.00  0.00     0.150 A 
ATOM      5  C4  UNL d   1       0.389  -0.392   0.429  0.00  0.00    -0.007 A 
ATOM      6  C5  UNL d   1       1.229  -0.359   1.540  0.00  0.00     0.039 A 
ENDROOT
BRANCH   4   7
ATOM      7  O   UNL d   1      -0.026  -0.992  -1.812  0.00  0.00    -0.526 OA
ATOM      8  H5  UNL d   1       0.405  -1.453  -2.551  0.00  0.00     0.418 HD
ENDBRANCH   4   7
TORSDOF 1
ENDMDL
