MODEL 1
REMARK minimizedAffinity -2.63301063
REMARK minimizedRMSD -1
REMARK  1 active torsions:
REMARK  status: ('A' for Active; 'I' for Inactive)
REMARK    1  A    between atoms: C3_4  and  O_7 
ROOT
ATOM      1  C   UNL d   1      -0.752   0.186  -1.255  0.00  0.00    -0.033 A 
ATOM      2  C1  UNL d   1      -0.154   0.940  -0.244  0.00  0.00     0.039 A 
ATOM      3  C2  UNL d   1       0.932   0.423   0.465  0.00  0.00    -0.080 A 
ATOM      4  C3  UNL d   1       1.410  -0.846   0.153  0.00  0.00     0.150 A 
ATOM      5  C4  UNL d   1       0.822  -1.602  -0.856  0.00  0.00    -0.007 A 
ATOM      6  C5  UNL d   1      -0.264  -1.084  -1.562  0.00  0.00     0.039 A 
ENDROOT
BRANCH   4   7
ATOM      7  O   UNL d   1       2.465  -1.395   0.820  0.00  0.00    -0.526 OA
ATOM      8  H5  UNL d   1       2.752  -0.771   1.509  0.00  0.00     0.418 HD
ENDBRANCH   4   7
TORSDOF 1
ENDMDL
