MODEL 1
REMARK minimizedAffinity -4.09405708
REMARK minimizedRMSD -1
REMARK  1 active torsions:
REMARK  status: ('A' for Active; 'I' for Inactive)
REMARK    1  A    between atoms: C3_4  and  O_7 
ROOT
ATOM      1  C   UNL d   1       2.098  -0.993   1.314  0.00  0.00    -0.033 A 
ATOM      2  C1  UNL d   1       3.393  -1.363   0.943  0.00  0.00     0.039 A 
ATOM      3  C2  UNL d   1       4.081  -0.626  -0.022  0.00  0.00    -0.080 A 
ATOM      4  C3  UNL d   1       3.466   0.477  -0.608  0.00  0.00     0.150 A 
ATOM      5  C4  UNL d   1       2.178   0.853  -0.240  0.00  0.00    -0.007 A 
ATOM      6  C5  UNL d   1       1.492   0.116   0.724  0.00  0.00     0.039 A 
ENDROOT
BRANCH   4   7
ATOM      7  O   UNL d   1       4.096   1.224  -1.558  0.00  0.00    -0.526 OA
ATOM      8  H5  UNL d   1       4.967   0.830  -1.732  0.00  0.00     0.418 HD
ENDBRANCH   4   7
TORSDOF 1
ENDMDL
