MODEL 1
REMARK minimizedAffinity 1.01109564
REMARK minimizedRMSD -1
REMARK  1 active torsions:
REMARK  status: ('A' for Active; 'I' for Inactive)
REMARK    1  A    between atoms: C3_4  and  O_7 
ROOT
ATOM      1  C   UNL d   1      -4.593   1.013   2.060  0.00  0.00    -0.033 A 
ATOM      2  C1  UNL d   1      -4.499  -0.016   1.121  0.00  0.00     0.039 A 
ATOM      3  C2  UNL d   1      -3.268  -0.320   0.536  0.00  0.00    -0.080 A 
ATOM      4  C3  UNL d   1      -2.140   0.412   0.898  0.00  0.00     0.150 A 
ATOM      5  C4  UNL d   1      -2.226   1.436   1.835  0.00  0.00    -0.007 A 
ATOM      6  C5  UNL d   1      -3.456   1.738   2.418  0.00  0.00     0.039 A 
ENDROOT
BRANCH   4   7
ATOM      7  O   UNL d   1      -0.918   0.156   0.351  0.00  0.00    -0.526 OA
ATOM      8  H5  UNL d   1      -1.017  -0.558  -0.301  0.00  0.00     0.418 HD
ENDBRANCH   4   7
TORSDOF 1
ENDMDL
