MODEL 1
REMARK minimizedAffinity -1.77180207
REMARK minimizedRMSD -1
REMARK  1 active torsions:
REMARK  status: ('A' for Active; 'I' for Inactive)
REMARK    1  A    between atoms: C3_4  and  O_7 
ROOT
ATOM      1  C   UNL d   1      -0.135  -1.424  -0.599  0.00  0.00    -0.033 A 
ATOM      2  C1  UNL d   1      -0.762  -0.180  -0.683  0.00  0.00     0.039 A 
ATOM      3  C2  UNL d   1      -0.077   0.977  -0.306  0.00  0.00    -0.080 A 
ATOM      4  C3  UNL d   1       1.234   0.875   0.152  0.00  0.00     0.150 A 
ATOM      5  C4  UNL d   1       1.867  -0.361   0.234  0.00  0.00    -0.007 A 
ATOM      6  C5  UNL d   1       1.180  -1.515  -0.142  0.00  0.00     0.039 A 
ENDROOT
BRANCH   4   7
ATOM      7  O   UNL d   1       1.942   1.975   0.535  0.00  0.00    -0.526 OA
ATOM      8  H5  UNL d   1       1.369   2.755   0.452  0.00  0.00     0.418 HD
ENDBRANCH   4   7
TORSDOF 1
ENDMDL
