MODEL 1
REMARK minimizedAffinity -3.51253915
REMARK minimizedRMSD -1
REMARK  1 active torsions:
REMARK  status: ('A' for Active; 'I' for Inactive)
REMARK    1  A    between atoms: C3_4  and  O_7 
ROOT
ATOM      1  C   UNL d   1       1.162   0.365   0.954  0.00  0.00    -0.033 A 
ATOM      2  C1  UNL d   1       2.516   0.026   0.903  0.00  0.00     0.039 A 
ATOM      3  C2  UNL d   1       2.949  -1.001   0.064  0.00  0.00    -0.080 A 
ATOM      4  C3  UNL d   1       2.020  -1.681  -0.720  0.00  0.00     0.150 A 
ATOM      5  C4  UNL d   1       0.671  -1.346  -0.677  0.00  0.00    -0.007 A 
ATOM      6  C5  UNL d   1       0.240  -0.320   0.163  0.00  0.00     0.039 A 
ENDROOT
BRANCH   4   7
ATOM      7  O   UNL d   1       2.394  -2.694  -1.552  0.00  0.00    -0.526 OA
ATOM      8  H5  UNL d   1       3.351  -2.834  -1.455  0.00  0.00     0.418 HD
ENDBRANCH   4   7
TORSDOF 1
ENDMDL
