MODEL 1
REMARK minimizedAffinity -3.00640154
REMARK minimizedRMSD -1
REMARK  1 active torsions:
REMARK  status: ('A' for Active; 'I' for Inactive)
REMARK    1  A    between atoms: C3_4  and  O_7 
ROOT
ATOM      1  C   UNL d   1       0.647   0.226  -0.310  0.00  0.00    -0.033 A 
ATOM      2  C1  UNL d   1       1.241   0.710   0.857  0.00  0.00     0.039 A 
ATOM      3  C2  UNL d   1       2.381   0.090   1.372  0.00  0.00    -0.080 A 
ATOM      4  C3  UNL d   1       2.918  -1.011   0.710  0.00  0.00     0.150 A 
ATOM      5  C4  UNL d   1       2.334  -1.496  -0.455  0.00  0.00    -0.007 A 
ATOM      6  C5  UNL d   1       1.194  -0.877  -0.967  0.00  0.00     0.039 A 
ENDROOT
BRANCH   4   7
ATOM      7  O   UNL d   1       4.027  -1.652   1.177  0.00  0.00    -0.526 OA
ATOM      8  H5  UNL d   1       4.304  -1.224   2.004  0.00  0.00     0.418 HD
ENDBRANCH   4   7
TORSDOF 1
ENDMDL
