MODEL 1
REMARK minimizedAffinity -5.24458694
REMARK minimizedRMSD -1
REMARK  1 active torsions:
REMARK  status: ('A' for Active; 'I' for Inactive)
REMARK    1  A    between atoms: C1_2  and  C2_3 
ROOT
ATOM      1  C2  UNL d   1       0.035   0.030  -0.035  0.00  0.00    -0.073 A 
ATOM      2  C3  UNL d   1       1.325  -0.451  -0.282  0.00  0.00    -0.002 A 
ATOM      3  C4  UNL d   1       1.847  -1.495   0.484  0.00  0.00     0.004 A 
ATOM      4  C5  UNL d   1       1.082  -2.072   1.498  0.00  0.00    -0.004 A 
ATOM      5  C6  UNL d   1      -0.215  -1.612   1.752  0.00  0.00    -0.075 A 
ATOM      6  C7  UNL d   1      -1.050  -2.220   2.840  0.00  0.00     0.076 C 
ATOM      7  C8  UNL d   1      -0.730  -0.562   0.980  0.00  0.00     0.001 A 
ENDROOT
BRANCH   1   8
ATOM      8  C1  UNL d   1      -0.535   1.153  -0.864  0.00  0.00     0.053 C 
ATOM      9  C   UNL d   1      -1.776   0.723  -1.629  0.00  0.00     0.018 C 
ENDBRANCH   1   8
TORSDOF 1
ENDMDL
