MODEL 1
REMARK minimizedAffinity -5.18455648
REMARK minimizedRMSD -1
REMARK  1 active torsions:
REMARK  status: ('A' for Active; 'I' for Inactive)
REMARK    1  A    between atoms: C1_2  and  C2_3 
ROOT
ATOM      1  C2  UNL d   1       0.632  -0.680   0.407  0.00  0.00    -0.073 A 
ATOM      2  C3  UNL d   1       1.772  -1.491   0.426  0.00  0.00    -0.002 A 
ATOM      3  C4  UNL d   1       1.856  -2.568   1.309  0.00  0.00     0.004 A 
ATOM      4  C5  UNL d   1       0.800  -2.849   2.176  0.00  0.00    -0.004 A 
ATOM      5  C6  UNL d   1      -0.353  -2.057   2.164  0.00  0.00    -0.075 A 
ATOM      6  C7  UNL d   1      -1.496  -2.345   3.092  0.00  0.00     0.076 C 
ATOM      7  C8  UNL d   1      -0.428  -0.976   1.276  0.00  0.00     0.001 A 
ENDROOT
BRANCH   1   8
ATOM      8  C1  UNL d   1       0.534   0.481  -0.549  0.00  0.00     0.053 C 
ATOM      9  C   UNL d   1      -0.803   1.197  -0.441  0.00  0.00     0.018 C 
ENDBRANCH   1   8
TORSDOF 1
ENDMDL
