MODEL 1
REMARK minimizedAffinity -5.91294813
REMARK minimizedRMSD -1
REMARK  1 active torsions:
REMARK  status: ('A' for Active; 'I' for Inactive)
REMARK    1  A    between atoms: C1_2  and  C2_3 
ROOT
ATOM      1  C2  UNL d   1      -0.061   0.270   0.042  0.00  0.00    -0.073 A 
ATOM      2  C3  UNL d   1       1.239   0.573  -0.380  0.00  0.00    -0.002 A 
ATOM      3  C4  UNL d   1       2.306  -0.251  -0.021  0.00  0.00     0.004 A 
ATOM      4  C5  UNL d   1       2.085  -1.388   0.756  0.00  0.00    -0.004 A 
ATOM      5  C6  UNL d   1       0.792  -1.714   1.178  0.00  0.00    -0.075 A 
ATOM      6  C7  UNL d   1       0.538  -2.932   2.016  0.00  0.00     0.076 C 
ATOM      7  C8  UNL d   1      -0.274  -0.880   0.815  0.00  0.00     0.001 A 
ENDROOT
BRANCH   1   8
ATOM      8  C1  UNL d   1      -1.218   1.153  -0.348  0.00  0.00     0.053 C 
ATOM      9  C   UNL d   1      -1.635   0.939  -1.794  0.00  0.00     0.018 C 
ENDBRANCH   1   8
TORSDOF 1
ENDMDL
