MODEL 1
REMARK minimizedAffinity -3.40690494
REMARK minimizedRMSD -1
REMARK  1 active torsions:
REMARK  status: ('A' for Active; 'I' for Inactive)
REMARK    1  A    between atoms: C1_2  and  C2_3 
ROOT
ATOM      1  C2  UNL d   1      -0.614  -0.300   0.821  0.00  0.00    -0.073 A 
ATOM      2  C3  UNL d   1      -1.591  -0.380   1.820  0.00  0.00    -0.002 A 
ATOM      3  C4  UNL d   1      -1.539  -1.395   2.777  0.00  0.00     0.004 A 
ATOM      4  C5  UNL d   1      -0.508  -2.334   2.749  0.00  0.00    -0.004 A 
ATOM      5  C6  UNL d   1       0.484  -2.263   1.766  0.00  0.00    -0.075 A 
ATOM      6  C7  UNL d   1       1.599  -3.267   1.721  0.00  0.00     0.076 C 
ATOM      7  C8  UNL d   1       0.424  -1.243   0.807  0.00  0.00     0.001 A 
ENDROOT
BRANCH   1   8
ATOM      8  C1  UNL d   1      -0.662   0.798  -0.210  0.00  0.00     0.053 C 
ATOM      9  C   UNL d   1       0.724   1.165  -0.717  0.00  0.00     0.018 C 
ENDBRANCH   1   8
TORSDOF 1
ENDMDL
