MODEL 1
REMARK minimizedAffinity -6.01504755
REMARK minimizedRMSD -1
REMARK  1 active torsions:
REMARK  status: ('A' for Active; 'I' for Inactive)
REMARK    1  A    between atoms: C1_2  and  C2_3 
ROOT
ATOM      1  C2  UNL d   1       0.259  -0.647   0.293  0.00  0.00    -0.073 A 
ATOM      2  C3  UNL d   1       1.187  -1.695   0.290  0.00  0.00    -0.002 A 
ATOM      3  C4  UNL d   1       1.145  -2.676   1.281  0.00  0.00     0.004 A 
ATOM      4  C5  UNL d   1       0.172  -2.625   2.279  0.00  0.00    -0.004 A 
ATOM      5  C6  UNL d   1      -0.771  -1.592   2.292  0.00  0.00    -0.075 A 
ATOM      6  C7  UNL d   1      -1.823  -1.521   3.361  0.00  0.00     0.076 C 
ATOM      7  C8  UNL d   1      -0.721  -0.609   1.295  0.00  0.00     0.001 A 
ENDROOT
BRANCH   1   8
ATOM      8  C1  UNL d   1       0.296   0.412  -0.779  0.00  0.00     0.053 C 
ATOM      9  C   UNL d   1      -1.098   0.826  -1.220  0.00  0.00     0.018 C 
ENDBRANCH   1   8
TORSDOF 1
ENDMDL
