MODEL 1
REMARK minimizedAffinity -4.94011641
REMARK minimizedRMSD -1
REMARK  1 active torsions:
REMARK  status: ('A' for Active; 'I' for Inactive)
REMARK    1  A    between atoms: C1_2  and  C2_3 
ROOT
ATOM      1  C2  UNL d   1      -0.017   0.202   0.111  0.00  0.00    -0.073 A 
ATOM      2  C3  UNL d   1       1.198   0.678  -0.394  0.00  0.00    -0.002 A 
ATOM      3  C4  UNL d   1       2.330  -0.138  -0.394  0.00  0.00     0.004 A 
ATOM      4  C5  UNL d   1       2.258  -1.438   0.105  0.00  0.00    -0.004 A 
ATOM      5  C6  UNL d   1       1.050  -1.936   0.604  0.00  0.00    -0.075 A 
ATOM      6  C7  UNL d   1       0.957  -3.333   1.146  0.00  0.00     0.076 C 
ATOM      7  C8  UNL d   1      -0.082  -1.110   0.602  0.00  0.00     0.001 A 
ENDROOT
BRANCH   1   8
ATOM      8  C1  UNL d   1      -1.244   1.077   0.107  0.00  0.00     0.053 C 
ATOM      9  C   UNL d   1      -1.716   1.390  -1.304  0.00  0.00     0.018 C 
ENDBRANCH   1   8
TORSDOF 1
ENDMDL
