MODEL 1
REMARK minimizedAffinity -6.0662179
REMARK minimizedRMSD -1
REMARK  1 active torsions:
REMARK  status: ('A' for Active; 'I' for Inactive)
REMARK    1  A    between atoms: C1_2  and  C2_3 
ROOT
ATOM      1  C2  UNL d   1       0.392  -0.033  -0.410  0.00  0.00    -0.073 A 
ATOM      2  C3  UNL d   1       1.617  -0.650  -0.684  0.00  0.00    -0.002 A 
ATOM      3  C4  UNL d   1       2.068  -1.705   0.111  0.00  0.00     0.004 A 
ATOM      4  C5  UNL d   1       1.297  -2.157   1.181  0.00  0.00    -0.004 A 
ATOM      5  C6  UNL d   1       0.064  -1.560   1.464  0.00  0.00    -0.075 A 
ATOM      6  C7  UNL d   1      -0.776  -2.033   2.614  0.00  0.00     0.076 C 
ATOM      7  C8  UNL d   1      -0.381  -0.500   0.663  0.00  0.00     0.001 A 
ENDROOT
BRANCH   1   8
ATOM      8  C1  UNL d   1      -0.102   1.102  -1.269  0.00  0.00     0.053 C 
ATOM      9  C   UNL d   1      -1.549   0.907  -1.694  0.00  0.00     0.018 C 
ENDBRANCH   1   8
TORSDOF 1
ENDMDL
