MODEL 1
REMARK minimizedAffinity -6.21757603
REMARK minimizedRMSD -1
REMARK  1 active torsions:
REMARK  status: ('A' for Active; 'I' for Inactive)
REMARK    1  A    between atoms: C1_2  and  C2_3 
ROOT
ATOM      1  C2  UNL d   1       0.088   0.216   0.115  0.00  0.00    -0.073 A 
ATOM      2  C3  UNL d   1       1.322  -0.154  -0.432  0.00  0.00    -0.002 A 
ATOM      3  C4  UNL d   1       2.007  -1.266   0.061  0.00  0.00     0.004 A 
ATOM      4  C5  UNL d   1       1.463  -2.022   1.099  0.00  0.00    -0.004 A 
ATOM      5  C6  UNL d   1       0.226  -1.676   1.651  0.00  0.00    -0.075 A 
ATOM      6  C7  UNL d   1      -0.372  -2.478   2.769  0.00  0.00     0.076 C 
ATOM      7  C8  UNL d   1      -0.455  -0.556   1.152  0.00  0.00     0.001 A 
ENDROOT
BRANCH   1   8
ATOM      8  C1  UNL d   1      -0.658   1.411  -0.418  0.00  0.00     0.053 C 
ATOM      9  C   UNL d   1      -1.771   1.009  -1.372  0.00  0.00     0.018 C 
ENDBRANCH   1   8
TORSDOF 1
ENDMDL
