MODEL 1
REMARK minimizedAffinity -4.4450531
REMARK minimizedRMSD -1
REMARK  1 active torsions:
REMARK  status: ('A' for Active; 'I' for Inactive)
REMARK    1  A    between atoms: C1_2  and  C2_3 
ROOT
ATOM      1  C2  UNL d   1      -0.476   0.543  -0.210  0.00  0.00    -0.073 A 
ATOM      2  C3  UNL d   1       0.829   0.959  -0.499  0.00  0.00    -0.002 A 
ATOM      3  C4  UNL d   1       1.919   0.171  -0.125  0.00  0.00     0.004 A 
ATOM      4  C5  UNL d   1       1.715  -1.041   0.534  0.00  0.00    -0.004 A 
ATOM      5  C6  UNL d   1       0.418  -1.480   0.820  0.00  0.00    -0.075 A 
ATOM      6  C7  UNL d   1       0.183  -2.780   1.530  0.00  0.00     0.076 C 
ATOM      7  C8  UNL d   1      -0.671  -0.682   0.444  0.00  0.00     0.001 A 
ENDROOT
BRANCH   1   8
ATOM      8  C1  UNL d   1      -1.656   1.387  -0.618  0.00  0.00     0.053 C 
ATOM      9  C   UNL d   1      -1.324   2.306  -1.783  0.00  0.00     0.018 C 
ENDBRANCH   1   8
TORSDOF 1
ENDMDL
