MODEL 1
REMARK minimizedAffinity -5.99663353
REMARK minimizedRMSD -1
REMARK  1 active torsions:
REMARK  status: ('A' for Active; 'I' for Inactive)
REMARK    1  A    between atoms: C1_2  and  C2_3 
ROOT
ATOM      1  C2  UNL d   1       0.376  -0.784   0.456  0.00  0.00    -0.073 A 
ATOM      2  C3  UNL d   1       1.498  -1.584   0.703  0.00  0.00    -0.002 A 
ATOM      3  C4  UNL d   1       1.557  -2.381   1.847  0.00  0.00     0.004 A 
ATOM      4  C5  UNL d   1       0.495  -2.391   2.751  0.00  0.00    -0.004 A 
ATOM      5  C6  UNL d   1      -0.639  -1.607   2.516  0.00  0.00    -0.075 A 
ATOM      6  C7  UNL d   1      -1.790  -1.606   3.480  0.00  0.00     0.076 C 
ATOM      7  C8  UNL d   1      -0.690  -0.808   1.366  0.00  0.00     0.001 A 
ENDROOT
BRANCH   1   8
ATOM      8  C1  UNL d   1       0.305   0.073  -0.782  0.00  0.00     0.053 C 
ATOM      9  C   UNL d   1      -0.775   1.137  -0.676  0.00  0.00     0.018 C 
ENDBRANCH   1   8
TORSDOF 1
ENDMDL
