MODEL 1
REMARK minimizedAffinity -5.22698307
REMARK minimizedRMSD -1
REMARK  1 active torsions:
REMARK  status: ('A' for Active; 'I' for Inactive)
REMARK    1  A    between atoms: C1_2  and  C2_3 
ROOT
ATOM      1  C2  UNL d   1       0.765  -0.593   0.227  0.00  0.00    -0.073 A 
ATOM      2  C3  UNL d   1       1.788  -1.535   0.073  0.00  0.00    -0.002 A 
ATOM      3  C4  UNL d   1       1.858  -2.644   0.918  0.00  0.00     0.004 A 
ATOM      4  C5  UNL d   1       0.904  -2.825   1.919  0.00  0.00    -0.004 A 
ATOM      5  C6  UNL d   1      -0.133  -1.900   2.081  0.00  0.00    -0.075 A 
ATOM      6  C7  UNL d   1      -1.166  -2.079   3.155  0.00  0.00     0.076 C 
ATOM      7  C8  UNL d   1      -0.195  -0.788   1.230  0.00  0.00     0.001 A 
ENDROOT
BRANCH   1   8
ATOM      8  C1  UNL d   1       0.682   0.602  -0.687  0.00  0.00     0.053 C 
ATOM      9  C   UNL d   1      -0.713   1.207  -0.709  0.00  0.00     0.018 C 
ENDBRANCH   1   8
TORSDOF 1
ENDMDL
