MODEL 1
REMARK minimizedAffinity -5.99050188
REMARK minimizedRMSD -1
REMARK  1 active torsions:
REMARK  status: ('A' for Active; 'I' for Inactive)
REMARK    1  A    between atoms: C1_2  and  C2_3 
ROOT
ATOM      1  C2  UNL d   1       0.097   0.222   0.195  0.00  0.00    -0.073 A 
ATOM      2  C3  UNL d   1       1.318  -0.262  -0.286  0.00  0.00    -0.002 A 
ATOM      3  C4  UNL d   1       1.893  -1.405   0.271  0.00  0.00     0.004 A 
ATOM      4  C5  UNL d   1       1.249  -2.079   1.309  0.00  0.00    -0.004 A 
ATOM      5  C6  UNL d   1       0.022  -1.617   1.796  0.00  0.00    -0.075 A 
ATOM      6  C7  UNL d   1      -0.682  -2.329   2.913  0.00  0.00     0.076 C 
ATOM      7  C8  UNL d   1      -0.547  -0.467   1.232  0.00  0.00     0.001 A 
ENDROOT
BRANCH   1   8
ATOM      8  C1  UNL d   1      -0.530   1.453  -0.408  0.00  0.00     0.053 C 
ATOM      9  C   UNL d   1      -1.438   1.114  -1.580  0.00  0.00     0.018 C 
ENDBRANCH   1   8
TORSDOF 1
ENDMDL
