MODEL 1
REMARK minimizedAffinity 3.20701647
REMARK minimizedRMSD -1
REMARK  0 active torsions:
REMARK  status: ('A' for Active; 'I' for Inactive)
ROOT
ATOM      1  C   UNL d   1       5.251  -3.016   5.998  0.00  0.00     0.023 A 
ATOM      2  C1  UNL d   1       5.616  -3.650   4.811  0.00  0.00     0.003 A 
ATOM      3  C2  UNL d   1       4.951  -3.346   3.622  0.00  0.00     0.048 A 
ATOM      4  C3  UNL d   1       3.921  -2.406   3.627  0.00  0.00     0.023 A 
ATOM      5  C4  UNL d   1       3.553  -1.768   4.813  0.00  0.00     0.048 A 
ATOM      6  C5  UNL d   1       4.221  -2.076   6.000  0.00  0.00     0.003 A 
ATOM      7  I   UNL d   1       2.929  -1.950   1.859  0.00  0.00    -0.146 I 
ENDROOT
TORSDOF 0
ENDMDL
