MODEL 1
REMARK minimizedAffinity 8.1981678
REMARK minimizedRMSD -1
REMARK  0 active torsions:
REMARK  status: ('A' for Active; 'I' for Inactive)
ROOT
ATOM      1  C   UNL d   1       5.995   4.148  -3.776  0.00  0.00     0.023 A 
ATOM      2  C1  UNL d   1       4.862   3.435  -4.170  0.00  0.00     0.003 A 
ATOM      3  C2  UNL d   1       3.604   3.797  -3.685  0.00  0.00     0.048 A 
ATOM      4  C3  UNL d   1       3.485   4.874  -2.808  0.00  0.00     0.023 A 
ATOM      5  C4  UNL d   1       4.615   5.591  -2.412  0.00  0.00     0.048 A 
ATOM      6  C5  UNL d   1       5.871   5.224  -2.898  0.00  0.00     0.003 A 
ATOM      7  I   UNL d   1       1.613   5.416  -2.086  0.00  0.00    -0.146 I 
ENDROOT
TORSDOF 0
ENDMDL
