MODEL 1
REMARK minimizedAffinity 2.45785832
REMARK minimizedRMSD -1
REMARK  0 active torsions:
REMARK  status: ('A' for Active; 'I' for Inactive)
ROOT
ATOM      1  C   UNL d   1       4.110   4.246  -4.846  0.00  0.00     0.023 A 
ATOM      2  C1  UNL d   1       3.408   4.115  -3.647  0.00  0.00     0.003 A 
ATOM      3  C2  UNL d   1       3.948   4.617  -2.462  0.00  0.00     0.048 A 
ATOM      4  C3  UNL d   1       5.190   5.251  -2.482  0.00  0.00     0.023 A 
ATOM      5  C4  UNL d   1       5.896   5.386  -3.679  0.00  0.00     0.048 A 
ATOM      6  C5  UNL d   1       5.352   4.881  -4.862  0.00  0.00     0.003 A 
ATOM      7  I   UNL d   1       5.997   6.000  -0.719  0.00  0.00    -0.146 I 
ENDROOT
TORSDOF 0
ENDMDL
