MODEL 1
REMARK minimizedAffinity 3.32643223
REMARK minimizedRMSD -1
REMARK  0 active torsions:
REMARK  status: ('A' for Active; 'I' for Inactive)
ROOT
ATOM      1  C   UNL d   1       4.582   4.140  -5.681  0.00  0.00     0.023 A 
ATOM      2  C1  UNL d   1       3.984   5.254  -5.092  0.00  0.00     0.003 A 
ATOM      3  C2  UNL d   1       4.389   5.677  -3.825  0.00  0.00     0.048 A 
ATOM      4  C3  UNL d   1       5.394   4.982  -3.152  0.00  0.00     0.023 A 
ATOM      5  C4  UNL d   1       5.996   3.868  -3.738  0.00  0.00     0.048 A 
ATOM      6  C5  UNL d   1       5.587   3.448  -5.005  0.00  0.00     0.003 A 
ATOM      7  I   UNL d   1       5.999   5.611  -1.266  0.00  0.00    -0.146 I 
ENDROOT
TORSDOF 0
ENDMDL
