MODEL 1
REMARK minimizedAffinity 7.77355289
REMARK minimizedRMSD -1
REMARK  0 active torsions:
REMARK  status: ('A' for Active; 'I' for Inactive)
ROOT
ATOM      1  C   UNL d   1      -2.957  -3.472   0.962  0.00  0.00     0.023 A 
ATOM      2  C1  UNL d   1      -3.085  -3.657  -0.415  0.00  0.00     0.003 A 
ATOM      3  C2  UNL d   1      -2.124  -3.134  -1.283  0.00  0.00     0.048 A 
ATOM      4  C3  UNL d   1      -1.038  -2.427  -0.768  0.00  0.00     0.023 A 
ATOM      5  C4  UNL d   1      -0.906  -2.240   0.609  0.00  0.00     0.048 A 
ATOM      6  C5  UNL d   1      -1.869  -2.764   1.473  0.00  0.00     0.003 A 
ATOM      7  I   UNL d   1       0.393  -1.648  -2.058  0.00  0.00    -0.146 I 
ENDROOT
TORSDOF 0
ENDMDL
