MODEL 1
REMARK minimizedAffinity 0.188307971
REMARK minimizedRMSD -1
REMARK  0 active torsions:
REMARK  status: ('A' for Active; 'I' for Inactive)
ROOT
ATOM      1  C   UNL d   1       4.878  -3.368   6.000  0.00  0.00     0.023 A 
ATOM      2  C1  UNL d   1       5.535  -4.128   5.032  0.00  0.00     0.003 A 
ATOM      3  C2  UNL d   1       5.225  -3.959   3.681  0.00  0.00     0.048 A 
ATOM      4  C3  UNL d   1       4.258  -3.028   3.305  0.00  0.00     0.023 A 
ATOM      5  C4  UNL d   1       3.598  -2.265   4.269  0.00  0.00     0.048 A 
ATOM      6  C5  UNL d   1       3.910  -2.438   5.619  0.00  0.00     0.003 A 
ATOM      7  I   UNL d   1       3.795  -2.775   1.294  0.00  0.00    -0.146 I 
ENDROOT
TORSDOF 0
ENDMDL
