MODEL 1
REMARK minimizedAffinity 18.4935379
REMARK minimizedRMSD -1
REMARK  0 active torsions:
REMARK  status: ('A' for Active; 'I' for Inactive)
ROOT
ATOM      1  C   UNL d   1       2.989  -1.187   4.103  0.00  0.00     0.023 A 
ATOM      2  C1  UNL d   1       3.463  -2.220   3.295  0.00  0.00     0.003 A 
ATOM      3  C2  UNL d   1       4.284  -3.211   3.836  0.00  0.00     0.048 A 
ATOM      4  C3  UNL d   1       4.627  -3.164   5.187  0.00  0.00     0.023 A 
ATOM      5  C4  UNL d   1       4.154  -2.133   6.000  0.00  0.00     0.048 A 
ATOM      6  C5  UNL d   1       3.334  -1.144   5.454  0.00  0.00     0.003 A 
ATOM      7  I   UNL d   1       5.849  -4.639   5.994  0.00  0.00    -0.146 I 
ENDROOT
TORSDOF 0
ENDMDL
