MODEL 1
REMARK minimizedAffinity 2.85742879
REMARK minimizedRMSD -1
REMARK  0 active torsions:
REMARK  status: ('A' for Active; 'I' for Inactive)
ROOT
ATOM      1  C   UNL d   1       4.506   5.840  -1.922  0.00  0.00     0.023 A 
ATOM      2  C1  UNL d   1       3.754   6.000  -3.087  0.00  0.00     0.003 A 
ATOM      3  C2  UNL d   1       4.124   5.330  -4.255  0.00  0.00     0.048 A 
ATOM      4  C3  UNL d   1       5.246   4.501  -4.251  0.00  0.00     0.023 A 
ATOM      5  C4  UNL d   1       6.000   4.338  -3.088  0.00  0.00     0.048 A 
ATOM      6  C5  UNL d   1       5.627   5.011  -1.923  0.00  0.00     0.003 A 
ATOM      7  I   UNL d   1       5.798   3.503  -5.988  0.00  0.00    -0.146 I 
ENDROOT
TORSDOF 0
ENDMDL
