MODEL 1
REMARK minimizedAffinity 4.37344933
REMARK minimizedRMSD -1
REMARK  0 active torsions:
REMARK  status: ('A' for Active; 'I' for Inactive)
ROOT
ATOM      1  C   UNL d   1       3.856  -0.535   5.869  0.00  0.00     0.023 A 
ATOM      2  C1  UNL d   1       3.080  -1.694   5.835  0.00  0.00     0.003 A 
ATOM      3  C2  UNL d   1       3.694  -2.948   5.872  0.00  0.00     0.048 A 
ATOM      4  C3  UNL d   1       5.084  -3.035   5.944  0.00  0.00     0.023 A 
ATOM      5  C4  UNL d   1       5.864  -1.878   5.979  0.00  0.00     0.048 A 
ATOM      6  C5  UNL d   1       5.246  -0.627   5.940  0.00  0.00     0.003 A 
ATOM      7  I   UNL d   1       6.000  -4.900   6.000  0.00  0.00    -0.146 I 
ENDROOT
TORSDOF 0
ENDMDL
