MODEL 1
REMARK minimizedAffinity 2.33860183
REMARK minimizedRMSD -1
REMARK  0 active torsions:
REMARK  status: ('A' for Active; 'I' for Inactive)
ROOT
ATOM      1  C   UNL d   1      -0.113  -2.621  -3.055  0.00  0.00     0.023 A 
ATOM      2  C1  UNL d   1       0.301  -1.662  -2.130  0.00  0.00     0.003 A 
ATOM      3  C2  UNL d   1      -0.259  -1.636  -0.851  0.00  0.00     0.048 A 
ATOM      4  C3  UNL d   1      -1.231  -2.574  -0.503  0.00  0.00     0.023 A 
ATOM      5  C4  UNL d   1      -1.647  -3.536  -1.425  0.00  0.00     0.048 A 
ATOM      6  C5  UNL d   1      -1.085  -3.557  -2.703  0.00  0.00     0.003 A 
ATOM      7  I   UNL d   1      -2.065  -2.539   1.400  0.00  0.00    -0.146 I 
ENDROOT
TORSDOF 0
ENDMDL
