MODEL 1
REMARK minimizedAffinity 2.7674408
REMARK minimizedRMSD -1
REMARK  0 active torsions:
REMARK  status: ('A' for Active; 'I' for Inactive)
ROOT
ATOM      1  C   UNL d   1       4.464   4.122  -4.965  0.00  0.00     0.023 A 
ATOM      2  C1  UNL d   1       5.538   3.541  -4.291  0.00  0.00     0.003 A 
ATOM      3  C2  UNL d   1       5.964   4.067  -3.070  0.00  0.00     0.048 A 
ATOM      4  C3  UNL d   1       5.310   5.174  -2.528  0.00  0.00     0.023 A 
ATOM      5  C4  UNL d   1       4.235   5.758  -3.199  0.00  0.00     0.048 A 
ATOM      6  C5  UNL d   1       3.813   5.228  -4.420  0.00  0.00     0.003 A 
ATOM      7  I   UNL d   1       5.942   5.959  -0.710  0.00  0.00    -0.146 I 
ENDROOT
TORSDOF 0
ENDMDL
