MODEL 1
REMARK minimizedAffinity 4.6433363
REMARK minimizedRMSD -1
REMARK  0 active torsions:
REMARK  status: ('A' for Active; 'I' for Inactive)
ROOT
ATOM      1  C   UNL d   1      -0.315  -3.948  -6.000  0.00  0.00     0.023 A 
ATOM      2  C1  UNL d   1      -0.151  -4.838  -4.939  0.00  0.00     0.003 A 
ATOM      3  C2  UNL d   1      -0.109  -4.362  -3.627  0.00  0.00     0.048 A 
ATOM      4  C3  UNL d   1      -0.233  -2.995  -3.383  0.00  0.00     0.023 A 
ATOM      5  C4  UNL d   1      -0.398  -2.101  -4.441  0.00  0.00     0.048 A 
ATOM      6  C5  UNL d   1      -0.439  -2.581  -5.752  0.00  0.00     0.003 A 
ATOM      7  I   UNL d   1      -0.171  -2.285  -1.430  0.00  0.00    -0.146 I 
ENDROOT
TORSDOF 0
ENDMDL
