MODEL 1
REMARK minimizedAffinity 4.20463324
REMARK minimizedRMSD -1
REMARK  0 active torsions:
REMARK  status: ('A' for Active; 'I' for Inactive)
ROOT
ATOM      1  C   UNL d   1       5.994   3.866  -3.631  0.00  0.00     0.023 A 
ATOM      2  C1  UNL d   1       4.811   3.340  -4.149  0.00  0.00     0.003 A 
ATOM      3  C2  UNL d   1       3.589   3.950  -3.861  0.00  0.00     0.048 A 
ATOM      4  C3  UNL d   1       3.557   5.087  -3.054  0.00  0.00     0.023 A 
ATOM      5  C4  UNL d   1       4.739   5.618  -2.534  0.00  0.00     0.048 A 
ATOM      6  C5  UNL d   1       5.958   5.004  -2.825  0.00  0.00     0.003 A 
ATOM      7  I   UNL d   1       1.739   5.998  -2.624  0.00  0.00    -0.146 I 
ENDROOT
TORSDOF 0
ENDMDL
