MODEL 1
REMARK minimizedAffinity 3.05383921
REMARK minimizedRMSD -1
REMARK  0 active torsions:
REMARK  status: ('A' for Active; 'I' for Inactive)
ROOT
ATOM      1  C   UNL d   1      -1.621  -2.534  -0.920  0.00  0.00     0.023 A 
ATOM      2  C1  UNL d   1      -0.700  -1.505  -0.726  0.00  0.00     0.003 A 
ATOM      3  C2  UNL d   1      -0.739  -0.742   0.443  0.00  0.00     0.048 A 
ATOM      4  C3  UNL d   1      -1.702  -1.014   1.414  0.00  0.00     0.023 A 
ATOM      5  C4  UNL d   1      -2.625  -2.044   1.225  0.00  0.00     0.048 A 
ATOM      6  C5  UNL d   1      -2.583  -2.803   0.054  0.00  0.00     0.003 A 
ATOM      7  I   UNL d   1      -1.762   0.120   3.155  0.00  0.00    -0.146 I 
ENDROOT
TORSDOF 0
ENDMDL
