MODEL 1
REMARK minimizedAffinity 2.33761001
REMARK minimizedRMSD -1
REMARK  0 active torsions:
REMARK  status: ('A' for Active; 'I' for Inactive)
ROOT
ATOM      1  C   UNL d   1       3.990   5.317  -1.841  0.00  0.00     0.023 A 
ATOM      2  C1  UNL d   1       5.339   4.963  -1.875  0.00  0.00     0.003 A 
ATOM      3  C2  UNL d   1       5.917   4.525  -3.068  0.00  0.00     0.048 A 
ATOM      4  C3  UNL d   1       5.141   4.443  -4.223  0.00  0.00     0.023 A 
ATOM      5  C4  UNL d   1       3.791   4.796  -4.194  0.00  0.00     0.048 A 
ATOM      6  C5  UNL d   1       3.217   5.233  -2.999  0.00  0.00     0.003 A 
ATOM      7  I   UNL d   1       6.000   3.790  -6.000  0.00  0.00    -0.146 I 
ENDROOT
TORSDOF 0
ENDMDL
