MODEL 1
REMARK minimizedAffinity 5.12376165
REMARK minimizedRMSD -1
REMARK  0 active torsions:
REMARK  status: ('A' for Active; 'I' for Inactive)
ROOT
ATOM      1  C   UNL d   1       4.659   4.217  -5.841  0.00  0.00     0.023 A 
ATOM      2  C1  UNL d   1       4.283   5.503  -5.454  0.00  0.00     0.003 A 
ATOM      3  C2  UNL d   1       4.667   5.999  -4.206  0.00  0.00     0.048 A 
ATOM      4  C3  UNL d   1       5.427   5.203  -3.350  0.00  0.00     0.023 A 
ATOM      5  C4  UNL d   1       5.805   3.915  -3.733  0.00  0.00     0.048 A 
ATOM      6  C5  UNL d   1       5.419   3.423  -4.981  0.00  0.00     0.003 A 
ATOM      7  I   UNL d   1       5.999   5.938  -1.492  0.00  0.00    -0.146 I 
ENDROOT
TORSDOF 0
ENDMDL
