MODEL 1
REMARK minimizedAffinity 7.47609091
REMARK minimizedRMSD -1
REMARK  0 active torsions:
REMARK  status: ('A' for Active; 'I' for Inactive)
ROOT
ATOM      1  C   UNL d   1      -1.201  -2.839  -1.900  0.00  0.00     0.023 A 
ATOM      2  C1  UNL d   1      -0.505  -1.929  -1.105  0.00  0.00     0.003 A 
ATOM      3  C2  UNL d   1       0.813  -1.590  -1.419  0.00  0.00     0.048 A 
ATOM      4  C3  UNL d   1       1.429  -2.164  -2.530  0.00  0.00     0.023 A 
ATOM      5  C4  UNL d   1       0.736  -3.075  -3.329  0.00  0.00     0.048 A 
ATOM      6  C5  UNL d   1      -0.581  -3.412  -3.011  0.00  0.00     0.003 A 
ATOM      7  I   UNL d   1       3.390  -1.661  -3.000  0.00  0.00    -0.146 I 
ENDROOT
TORSDOF 0
ENDMDL
