MODEL 1
REMARK minimizedAffinity 5.15206051
REMARK minimizedRMSD -1
REMARK  0 active torsions:
REMARK  status: ('A' for Active; 'I' for Inactive)
ROOT
ATOM      1  C   UNL d   1      -2.820  -2.855   1.225  0.00  0.00     0.023 A 
ATOM      2  C1  UNL d   1      -3.338  -2.536  -0.030  0.00  0.00     0.003 A 
ATOM      3  C2  UNL d   1      -2.480  -2.372  -1.120  0.00  0.00     0.048 A 
ATOM      4  C3  UNL d   1      -1.105  -2.530  -0.947  0.00  0.00     0.023 A 
ATOM      5  C4  UNL d   1      -0.582  -2.850   0.307  0.00  0.00     0.048 A 
ATOM      6  C5  UNL d   1      -1.444  -3.012   1.394  0.00  0.00     0.003 A 
ATOM      7  I   UNL d   1       0.174  -2.287  -2.567  0.00  0.00    -0.146 I 
ENDROOT
TORSDOF 0
ENDMDL
