MODEL 1
REMARK minimizedAffinity -1.26499188
REMARK minimizedRMSD -1
REMARK  2 active torsions:
REMARK  status: ('A' for Active; 'I' for Inactive)
REMARK    1  A    between atoms: C2'_3  and  C1'_4 
REMARK    2  A    between atoms: C1'_4  and  C1_5 
ROOT
ATOM      1  C1  I4B d   1       0.642   0.265   1.206  0.00  0.00    -0.075 A 
ATOM      2  C2  I4B d   1       1.925  -0.028   0.815  0.00  0.00     0.003 A 
ATOM      3  C3  I4B d   1       2.157  -0.754  -0.379  0.00  0.00     0.002 A 
ATOM      4  C4  I4B d   1       1.085  -1.206  -1.119  0.00  0.00    -0.004 A 
ATOM      5  C5  I4B d   1      -0.214  -0.888  -0.733  0.00  0.00     0.002 A 
ATOM      6  C6  I4B d   1      -0.437  -0.137   0.430  0.00  0.00     0.003 A 
ENDROOT
BRANCH   1   7
ATOM      7  C1' I4B d   1       0.432   1.004   2.490  0.00  0.00     0.060 C 
BRANCH   7   8
ATOM      8  C2' I4B d   1      -0.328   0.094   3.433  0.00  0.00    -0.013 C 
ATOM      9  C4' I4B d   1       0.542  -1.035   3.920  0.00  0.00     0.013 C 
ATOM     10  C3' I4B d   1      -0.827   0.925   4.577  0.00  0.00     0.013 C 
ENDBRANCH   7   8
ENDBRANCH   1   7
TORSDOF 2
ENDMDL
