MODEL 1
REMARK minimizedAffinity -1.87930548
REMARK minimizedRMSD -1
REMARK  2 active torsions:
REMARK  status: ('A' for Active; 'I' for Inactive)
REMARK    1  A    between atoms: C2'_3  and  C1'_4 
REMARK    2  A    between atoms: C1'_4  and  C1_5 
ROOT
ATOM      1  C1  I4B d   1       0.180   1.150   3.805  0.00  0.00    -0.075 A 
ATOM      2  C2  I4B d   1       0.369   0.198   4.775  0.00  0.00     0.003 A 
ATOM      3  C3  I4B d   1      -0.218  -1.083   4.641  0.00  0.00     0.002 A 
ATOM      4  C4  I4B d   1      -1.023  -1.352   3.553  0.00  0.00    -0.004 A 
ATOM      5  C5  I4B d   1      -1.195  -0.393   2.558  0.00  0.00     0.002 A 
ATOM      6  C6  I4B d   1      -0.580   0.861   2.678  0.00  0.00     0.003 A 
ENDROOT
BRANCH   1   7
ATOM      7  C1' I4B d   1       0.788   2.504   3.994  0.00  0.00     0.060 C 
BRANCH   7   8
ATOM      8  C2' I4B d   1       1.403   2.928   2.676  0.00  0.00    -0.013 C 
ATOM      9  C4' I4B d   1       0.799   4.216   2.182  0.00  0.00     0.013 C 
ATOM     10  C3' I4B d   1       2.882   3.066   2.879  0.00  0.00     0.013 C 
ENDBRANCH   7   8
ENDBRANCH   1   7
TORSDOF 2
ENDMDL
