MODEL 1
REMARK minimizedAffinity -2.99172425
REMARK minimizedRMSD -1
REMARK  2 active torsions:
REMARK  status: ('A' for Active; 'I' for Inactive)
REMARK    1  A    between atoms: C2'_3  and  C1'_4 
REMARK    2  A    between atoms: C1'_4  and  C1_5 
ROOT
ATOM      1  C1  I4B d   1       0.058   0.582  -0.322  0.00  0.00    -0.075 A 
ATOM      2  C2  I4B d   1      -0.624  -0.191   0.584  0.00  0.00     0.003 A 
ATOM      3  C3  I4B d   1      -1.056   0.364   1.813  0.00  0.00     0.002 A 
ATOM      4  C4  I4B d   1      -0.742   1.674   2.114  0.00  0.00    -0.004 A 
ATOM      5  C5  I4B d   1      -0.071   2.463   1.185  0.00  0.00     0.002 A 
ATOM      6  C6  I4B d   1       0.321   1.917  -0.047  0.00  0.00     0.003 A 
ENDROOT
BRANCH   1   7
ATOM      7  C1' I4B d   1       0.527  -0.046  -1.596  0.00  0.00     0.060 C 
BRANCH   7   8
ATOM      8  C2' I4B d   1       0.939   1.065  -2.540  0.00  0.00    -0.013 C 
ATOM      9  C4' I4B d   1       2.399   0.965  -2.896  0.00  0.00     0.013 C 
ATOM     10  C3' I4B d   1       0.076   0.977  -3.763  0.00  0.00     0.013 C 
ENDBRANCH   7   8
ENDBRANCH   1   7
TORSDOF 2
ENDMDL
