MODEL 1
REMARK minimizedAffinity -0.889420092
REMARK minimizedRMSD -1
REMARK  2 active torsions:
REMARK  status: ('A' for Active; 'I' for Inactive)
REMARK    1  A    between atoms: C2'_3  and  C1'_4 
REMARK    2  A    between atoms: C1'_4  and  C1_5 
ROOT
ATOM      1  C1  I4B d   1      -1.006   0.402   0.799  0.00  0.00    -0.075 A 
ATOM      2  C2  I4B d   1      -1.665   0.128   1.971  0.00  0.00     0.003 A 
ATOM      3  C3  I4B d   1      -1.487   0.962   3.101  0.00  0.00     0.002 A 
ATOM      4  C4  I4B d   1      -0.609   2.024   3.030  0.00  0.00    -0.004 A 
ATOM      5  C5  I4B d   1       0.041   2.315   1.833  0.00  0.00     0.002 A 
ATOM      6  C6  I4B d   1      -0.169   1.506   0.707  0.00  0.00     0.003 A 
ENDROOT
BRANCH   1   7
ATOM      7  C1' I4B d   1      -1.192  -0.519  -0.365  0.00  0.00     0.060 C 
BRANCH   7   8
ATOM      8  C2' I4B d   1       0.181  -0.906  -0.877  0.00  0.00    -0.013 C 
ATOM      9  C4' I4B d   1       0.605  -0.023  -2.021  0.00  0.00     0.013 C 
ATOM     10  C3' I4B d   1       1.146  -0.811   0.267  0.00  0.00     0.013 C 
ENDBRANCH   7   8
ENDBRANCH   1   7
TORSDOF 2
ENDMDL
