MODEL 1
REMARK minimizedAffinity -5.23413038
REMARK minimizedRMSD -1
REMARK  2 active torsions:
REMARK  status: ('A' for Active; 'I' for Inactive)
REMARK    1  A    between atoms: C2'_3  and  C1'_4 
REMARK    2  A    between atoms: C1'_4  and  C1_5 
ROOT
ATOM      1  C1  I4B d   1       0.102  -0.106  -0.443  0.00  0.00    -0.075 A 
ATOM      2  C2  I4B d   1      -1.252   0.065  -0.587  0.00  0.00     0.003 A 
ATOM      3  C3  I4B d   1      -2.038   0.484   0.513  0.00  0.00     0.002 A 
ATOM      4  C4  I4B d   1      -1.441   0.672   1.743  0.00  0.00    -0.004 A 
ATOM      5  C5  I4B d   1      -0.065   0.521   1.881  0.00  0.00     0.002 A 
ATOM      6  C6  I4B d   1       0.715   0.142   0.779  0.00  0.00     0.003 A 
ENDROOT
BRANCH   1   7
ATOM      7  C1' I4B d   1       0.898  -0.581  -1.618  0.00  0.00     0.060 C 
BRANCH   7   8
ATOM      8  C2' I4B d   1       0.613   0.346  -2.781  0.00  0.00    -0.013 C 
ATOM      9  C4' I4B d   1       1.848   1.105  -3.189  0.00  0.00     0.013 C 
ATOM     10  C3' I4B d   1       0.087  -0.482  -3.915  0.00  0.00     0.013 C 
ENDBRANCH   7   8
ENDBRANCH   1   7
TORSDOF 2
ENDMDL
