MODEL 1
REMARK minimizedAffinity 3.58556509
REMARK minimizedRMSD -1
REMARK  0 active torsions:
REMARK  status: ('A' for Active; 'I' for Inactive)
ROOT
ATOM      1  N1  IND d   1      -3.815   2.610   2.154  0.00  0.00    -0.196 N 
ATOM      2  C2  IND d   1      -3.009   1.529   1.931  0.00  0.00     0.054 A 
ATOM      3  C3  IND d   1      -3.110   0.648   2.951  0.00  0.00    -0.031 A 
ATOM      4  C4  IND d   1      -4.614   0.731   5.040  0.00  0.00     0.051 A 
ATOM      5  C5  IND d   1      -5.497   1.538   5.700  0.00  0.00    -0.031 A 
ATOM      6  C6  IND d   1      -5.875   2.767   5.200  0.00  0.00     0.015 A 
ATOM      7  C7  IND d   1      -5.390   3.233   4.010  0.00  0.00    -0.016 A 
ATOM      8  C8  IND d   1      -4.487   2.419   3.341  0.00  0.00    -0.047 A 
ATOM      9  C9  IND d   1      -4.067   1.189   3.864  0.00  0.00    -0.096 A 
ATOM     10  HN1 IND d   1      -3.890   3.295   1.639  0.00  0.00     0.298 HD
ENDROOT
TORSDOF 0
ENDMDL
