MODEL 1
REMARK minimizedAffinity -2.33908367
REMARK minimizedRMSD -1
REMARK  0 active torsions:
REMARK  status: ('A' for Active; 'I' for Inactive)
ROOT
ATOM      1  N1  IND d   1      -2.636  -0.697  -5.999  0.00  0.00    -0.196 N 
ATOM      2  C2  IND d   1      -1.529  -1.500  -5.987  0.00  0.00     0.054 A 
ATOM      3  C3  IND d   1      -1.893  -2.802  -5.948  0.00  0.00    -0.031 A 
ATOM      4  C4  IND d   1      -4.246  -3.844  -6.000  0.00  0.00     0.051 A 
ATOM      5  C5  IND d   1      -5.572  -3.513  -5.974  0.00  0.00    -0.031 A 
ATOM      6  C6  IND d   1      -5.995  -2.200  -5.958  0.00  0.00     0.015 A 
ATOM      7  C7  IND d   1      -5.105  -1.164  -5.978  0.00  0.00    -0.016 A 
ATOM      8  C8  IND d   1      -3.758  -1.497  -5.997  0.00  0.00    -0.047 A 
ATOM      9  C9  IND d   1      -3.321  -2.828  -5.971  0.00  0.00    -0.096 A 
ATOM     10  HN1 IND d   1      -2.632   0.163  -6.006  0.00  0.00     0.298 HD
ENDROOT
TORSDOF 0
ENDMDL
