MODEL 1
REMARK minimizedAffinity 11.1910734
REMARK minimizedRMSD -1
REMARK  0 active torsions:
REMARK  status: ('A' for Active; 'I' for Inactive)
ROOT
ATOM      1  N1  IND d   1      -2.083   0.135  -4.895  0.00  0.00    -0.196 N 
ATOM      2  C2  IND d   1      -0.729  -0.012  -5.016  0.00  0.00     0.054 A 
ATOM      3  C3  IND d   1      -0.425  -1.271  -5.402  0.00  0.00    -0.031 A 
ATOM      4  C4  IND d   1      -1.995  -3.225  -5.990  0.00  0.00     0.051 A 
ATOM      5  C5  IND d   1      -3.314  -3.584  -5.996  0.00  0.00    -0.031 A 
ATOM      6  C6  IND d   1      -4.310  -2.702  -5.630  0.00  0.00     0.015 A 
ATOM      7  C7  IND d   1      -4.024  -1.420  -5.255  0.00  0.00    -0.016 A 
ATOM      8  C8  IND d   1      -2.686  -1.055  -5.241  0.00  0.00    -0.047 A 
ATOM      9  C9  IND d   1      -1.667  -1.958  -5.570  0.00  0.00    -0.096 A 
ATOM     10  HN1 IND d   1      -2.490   0.850  -4.646  0.00  0.00     0.298 HD
ENDROOT
TORSDOF 0
ENDMDL
