MODEL 1
REMARK minimizedAffinity 15.5582027
REMARK minimizedRMSD -1
REMARK  0 active torsions:
REMARK  status: ('A' for Active; 'I' for Inactive)
ROOT
ATOM      1  N1  IND d   1      -3.483  -3.417  -5.997  0.00  0.00    -0.196 N 
ATOM      2  C2  IND d   1      -4.620  -2.658  -5.975  0.00  0.00     0.054 A 
ATOM      3  C3  IND d   1      -4.307  -1.343  -5.934  0.00  0.00    -0.031 A 
ATOM      4  C4  IND d   1      -1.996  -0.210  -5.999  0.00  0.00     0.051 A 
ATOM      5  C5  IND d   1      -0.658  -0.489  -5.983  0.00  0.00    -0.031 A 
ATOM      6  C6  IND d   1      -0.184  -1.785  -5.974  0.00  0.00     0.015 A 
ATOM      7  C7  IND d   1      -1.034  -2.855  -5.991  0.00  0.00    -0.016 A 
ATOM      8  C8  IND d   1      -2.393  -2.575  -6.000  0.00  0.00    -0.047 A 
ATOM      9  C9  IND d   1      -2.881  -1.262  -5.966  0.00  0.00    -0.096 A 
ATOM     10  HN1 IND d   1      -3.454  -4.276  -6.006  0.00  0.00     0.298 HD
ENDROOT
TORSDOF 0
ENDMDL
