MODEL 1
REMARK minimizedAffinity 0.0368348919
REMARK minimizedRMSD -1
REMARK  0 active torsions:
REMARK  status: ('A' for Active; 'I' for Inactive)
ROOT
ATOM      1  N1  IND d   1      -5.093  -0.789  -5.920  0.00  0.00    -0.196 N 
ATOM      2  C2  IND d   1      -5.873  -1.911  -5.939  0.00  0.00     0.054 A 
ATOM      3  C3  IND d   1      -5.102  -3.020  -5.999  0.00  0.00    -0.031 A 
ATOM      4  C4  IND d   1      -2.536  -3.230  -5.972  0.00  0.00     0.051 A 
ATOM      5  C5  IND d   1      -1.394  -2.481  -5.998  0.00  0.00    -0.031 A 
ATOM      6  C6  IND d   1      -1.426  -1.101  -5.997  0.00  0.00     0.015 A 
ATOM      7  C7  IND d   1      -2.608  -0.417  -5.958  0.00  0.00    -0.016 A 
ATOM      8  C8  IND d   1      -3.770  -1.174  -5.938  0.00  0.00    -0.047 A 
ATOM      9  C9  IND d   1      -3.744  -2.574  -5.983  0.00  0.00    -0.096 A 
ATOM     10  HN1 IND d   1      -5.380   0.021  -5.901  0.00  0.00     0.298 HD
ENDROOT
TORSDOF 0
ENDMDL
