MODEL 1
REMARK minimizedAffinity 12.0796204
REMARK minimizedRMSD -1
REMARK  0 active torsions:
REMARK  status: ('A' for Active; 'I' for Inactive)
ROOT
ATOM      1  N1  IND d   1      -2.262  -4.147  -5.967  0.00  0.00    -0.196 N 
ATOM      2  C2  IND d   1      -3.627  -4.219  -5.994  0.00  0.00     0.054 A 
ATOM      3  C3  IND d   1      -4.164  -2.979  -5.974  0.00  0.00    -0.031 A 
ATOM      4  C4  IND d   1      -2.992  -0.687  -5.999  0.00  0.00     0.051 A 
ATOM      5  C5  IND d   1      -1.754  -0.110  -5.940  0.00  0.00    -0.031 A 
ATOM      6  C6  IND d   1      -0.600  -0.864  -5.888  0.00  0.00     0.015 A 
ATOM      7  C7  IND d   1      -0.639  -2.229  -5.906  0.00  0.00    -0.016 A 
ATOM      8  C8  IND d   1      -1.894  -2.819  -5.959  0.00  0.00    -0.047 A 
ATOM      9  C9  IND d   1      -3.071  -2.060  -5.968  0.00  0.00    -0.096 A 
ATOM     10  HN1 IND d   1      -1.724  -4.817  -5.956  0.00  0.00     0.298 HD
ENDROOT
TORSDOF 0
ENDMDL
