MODEL 1
REMARK minimizedAffinity 3.86631346
REMARK minimizedRMSD -1
REMARK  0 active torsions:
REMARK  status: ('A' for Active; 'I' for Inactive)
ROOT
ATOM      1  N1  IND d   1      -2.341  -0.269  -5.978  0.00  0.00    -0.196 N 
ATOM      2  C2  IND d   1      -1.190  -1.007  -5.951  0.00  0.00     0.054 A 
ATOM      3  C3  IND d   1      -1.478  -2.327  -5.917  0.00  0.00    -0.031 A 
ATOM      4  C4  IND d   1      -3.766  -3.505  -6.000  0.00  0.00     0.051 A 
ATOM      5  C5  IND d   1      -5.109  -3.251  -5.992  0.00  0.00    -0.031 A 
ATOM      6  C6  IND d   1      -5.608  -1.965  -5.982  0.00  0.00     0.015 A 
ATOM      7  C7  IND d   1      -4.779  -0.879  -5.990  0.00  0.00    -0.016 A 
ATOM      8  C8  IND d   1      -3.414  -1.133  -5.991  0.00  0.00    -0.047 A 
ATOM      9  C9  IND d   1      -2.902  -2.436  -5.959  0.00  0.00    -0.096 A 
ATOM     10  HN1 IND d   1      -2.387   0.589  -5.985  0.00  0.00     0.298 HD
ENDROOT
TORSDOF 0
ENDMDL
