MODEL 1
REMARK minimizedAffinity 0.923303425
REMARK minimizedRMSD -1
REMARK  0 active torsions:
REMARK  status: ('A' for Active; 'I' for Inactive)
ROOT
ATOM      1  N1  IND d   1      -5.498   0.778   4.861  0.00  0.00    -0.196 N 
ATOM      2  C2  IND d   1      -5.999   1.969   5.307  0.00  0.00     0.054 A 
ATOM      3  C3  IND d   1      -5.688   2.962   4.444  0.00  0.00    -0.031 A 
ATOM      4  C4  IND d   1      -4.453   2.843   2.188  0.00  0.00     0.051 A 
ATOM      5  C5  IND d   1      -3.775   1.978   1.376  0.00  0.00    -0.031 A 
ATOM      6  C6  IND d   1      -3.636   0.641   1.689  0.00  0.00     0.015 A 
ATOM      7  C7  IND d   1      -4.182   0.115   2.825  0.00  0.00    -0.016 A 
ATOM      8  C8  IND d   1      -4.866   0.992   3.656  0.00  0.00    -0.047 A 
ATOM      9  C9  IND d   1      -4.973   2.358   3.365  0.00  0.00    -0.096 A 
ATOM     10  HN1 IND d   1      -5.567   0.022   5.265  0.00  0.00     0.298 HD
ENDROOT
TORSDOF 0
ENDMDL
