MODEL 1
REMARK minimizedAffinity 3.37681127
REMARK minimizedRMSD -1
REMARK  0 active torsions:
REMARK  status: ('A' for Active; 'I' for Inactive)
ROOT
ATOM      1  N1  IND d   1      -3.670  -3.641  -5.978  0.00  0.00    -0.196 N 
ATOM      2  C2  IND d   1      -4.965  -3.203  -5.959  0.00  0.00     0.054 A 
ATOM      3  C3  IND d   1      -5.005  -1.853  -5.922  0.00  0.00    -0.031 A 
ATOM      4  C4  IND d   1      -3.069  -0.157  -5.990  0.00  0.00     0.051 A 
ATOM      5  C5  IND d   1      -1.705  -0.078  -5.974  0.00  0.00    -0.031 A 
ATOM      6  C6  IND d   1      -0.909  -1.206  -5.960  0.00  0.00     0.015 A 
ATOM      7  C7  IND d   1      -1.451  -2.460  -5.975  0.00  0.00    -0.016 A 
ATOM      8  C8  IND d   1      -2.837  -2.543  -5.984  0.00  0.00    -0.047 A 
ATOM      9  C9  IND d   1      -3.649  -1.403  -5.955  0.00  0.00    -0.096 A 
ATOM     10  HN1 IND d   1      -3.418  -4.463  -5.985  0.00  0.00     0.298 HD
ENDROOT
TORSDOF 0
ENDMDL
