MODEL 1
REMARK minimizedAffinity 3.30640197
REMARK minimizedRMSD -1
REMARK  0 active torsions:
REMARK  status: ('A' for Active; 'I' for Inactive)
ROOT
ATOM      1  N1  IND d   1      -4.400   2.056   1.885  0.00  0.00    -0.196 N 
ATOM      2  C2  IND d   1      -3.707   1.087   1.214  0.00  0.00     0.054 A 
ATOM      3  C3  IND d   1      -3.564  -0.011   1.990  0.00  0.00    -0.031 A 
ATOM      4  C4  IND d   1      -4.474  -0.475   4.353  0.00  0.00     0.051 A 
ATOM      5  C5  IND d   1      -5.136   0.123   5.389  0.00  0.00    -0.031 A 
ATOM      6  C6  IND d   1      -5.598   1.420   5.307  0.00  0.00     0.015 A 
ATOM      7  C7  IND d   1      -5.425   2.168   4.177  0.00  0.00    -0.016 A 
ATOM      8  C8  IND d   1      -4.747   1.567   3.126  0.00  0.00    -0.047 A 
ATOM      9  C9  IND d   1      -4.238   0.266   3.219  0.00  0.00    -0.096 A 
ATOM     10  HN1 IND d   1      -4.588   2.839   1.583  0.00  0.00     0.298 HD
ENDROOT
TORSDOF 0
ENDMDL
