MODEL 1
REMARK minimizedAffinity 2.78085804
REMARK minimizedRMSD -1
REMARK  0 active torsions:
REMARK  status: ('A' for Active; 'I' for Inactive)
ROOT
ATOM      1  N1  IND d   1       5.870  -4.571   4.625  0.00  0.00    -0.196 N 
ATOM      2  C2  IND d   1       6.000  -4.153   5.921  0.00  0.00     0.054 A 
ATOM      3  C3  IND d   1       5.845  -2.812   6.000  0.00  0.00    -0.031 A 
ATOM      4  C4  IND d   1       5.272  -1.120   4.146  0.00  0.00     0.051 A 
ATOM      5  C5  IND d   1       5.093  -1.021   2.795  0.00  0.00    -0.031 A 
ATOM      6  C6  IND d   1       5.163  -2.124   1.968  0.00  0.00     0.015 A 
ATOM      7  C7  IND d   1       5.404  -3.373   2.466  0.00  0.00    -0.016 A 
ATOM      8  C8  IND d   1       5.593  -3.476   3.837  0.00  0.00    -0.047 A 
ATOM      9  C9  IND d   1       5.566  -2.354   4.676  0.00  0.00    -0.096 A 
ATOM     10  HN1 IND d   1       5.949  -5.382   4.350  0.00  0.00     0.298 HD
ENDROOT
TORSDOF 0
ENDMDL
