MODEL 1
REMARK minimizedAffinity 13.1526413
REMARK minimizedRMSD -1
REMARK  0 active torsions:
REMARK  status: ('A' for Active; 'I' for Inactive)
ROOT
ATOM      1  N1  IND d   1       2.509  -0.401  -5.639  0.00  0.00    -0.196 N 
ATOM      2  C2  IND d   1       3.741   0.070  -5.998  0.00  0.00     0.054 A 
ATOM      3  C3  IND d   1       4.270   0.813  -5.000  0.00  0.00    -0.031 A 
ATOM      4  C4  IND d   1       3.332   1.304  -2.653  0.00  0.00     0.051 A 
ATOM      5  C5  IND d   1       2.223   1.120  -1.876  0.00  0.00    -0.031 A 
ATOM      6  C6  IND d   1       1.131   0.403  -2.322  0.00  0.00     0.015 A 
ATOM      7  C7  IND d   1       1.113  -0.169  -3.563  0.00  0.00    -0.016 A 
ATOM      8  C8  IND d   1       2.235   0.022  -4.357  0.00  0.00    -0.047 A 
ATOM      9  C9  IND d   1       3.328   0.784  -3.926  0.00  0.00    -0.096 A 
ATOM     10  HN1 IND d   1       1.992  -0.880  -6.131  0.00  0.00     0.298 HD
ENDROOT
TORSDOF 0
ENDMDL
