MODEL 1
REMARK minimizedAffinity -0.000965201878
REMARK minimizedRMSD -1
REMARK  0 active torsions:
REMARK  status: ('A' for Active; 'I' for Inactive)
ROOT
ATOM      1  N1  IND d   1      -4.340  -3.096  -6.000  0.00  0.00    -0.196 N 
ATOM      2  C2  IND d   1      -5.492  -2.360  -5.987  0.00  0.00     0.054 A 
ATOM      3  C3  IND d   1      -5.205  -1.039  -5.945  0.00  0.00    -0.031 A 
ATOM      4  C4  IND d   1      -2.917   0.140  -5.994  0.00  0.00     0.051 A 
ATOM      5  C5  IND d   1      -1.574  -0.113  -5.969  0.00  0.00    -0.031 A 
ATOM      6  C6  IND d   1      -1.074  -1.400  -5.955  0.00  0.00     0.015 A 
ATOM      7  C7  IND d   1      -1.903  -2.486  -5.978  0.00  0.00    -0.016 A 
ATOM      8  C8  IND d   1      -3.267  -2.233  -5.996  0.00  0.00    -0.047 A 
ATOM      9  C9  IND d   1      -3.780  -0.930  -5.967  0.00  0.00    -0.096 A 
ATOM     10  HN1 IND d   1      -4.294  -3.955  -6.009  0.00  0.00     0.298 HD
ENDROOT
TORSDOF 0
ENDMDL
