MODEL 1
REMARK minimizedAffinity 7.54811096
REMARK minimizedRMSD -1
REMARK  0 active torsions:
REMARK  status: ('A' for Active; 'I' for Inactive)
ROOT
ATOM      1  N1  IND d   1      -4.407  -3.240  -5.997  0.00  0.00    -0.196 N 
ATOM      2  C2  IND d   1      -5.462  -2.388  -5.819  0.00  0.00     0.054 A 
ATOM      3  C3  IND d   1      -5.019  -1.131  -5.593  0.00  0.00    -0.031 A 
ATOM      4  C4  IND d   1      -2.610  -0.225  -5.572  0.00  0.00     0.051 A 
ATOM      5  C5  IND d   1      -1.306  -0.629  -5.648  0.00  0.00    -0.031 A 
ATOM      6  C6  IND d   1      -0.963  -1.950  -5.852  0.00  0.00     0.015 A 
ATOM      7  C7  IND d   1      -1.915  -2.919  -5.998  0.00  0.00    -0.016 A 
ATOM      8  C8  IND d   1      -3.239  -2.514  -5.914  0.00  0.00    -0.047 A 
ATOM      9  C9  IND d   1      -3.593  -1.181  -5.666  0.00  0.00    -0.096 A 
ATOM     10  HN1 IND d   1      -4.464  -4.086  -6.137  0.00  0.00     0.298 HD
ENDROOT
TORSDOF 0
ENDMDL
