MODEL 1
REMARK minimizedAffinity 5.86491203
REMARK minimizedRMSD -1
REMARK  0 active torsions:
REMARK  status: ('A' for Active; 'I' for Inactive)
ROOT
ATOM      1  N1  IND d   1      -4.533  -3.923  -5.999  0.00  0.00    -0.196 N 
ATOM      2  C2  IND d   1      -5.832  -3.499  -5.967  0.00  0.00     0.054 A 
ATOM      3  C3  IND d   1      -5.884  -2.149  -5.916  0.00  0.00    -0.031 A 
ATOM      4  C4  IND d   1      -3.965  -0.434  -5.977  0.00  0.00     0.051 A 
ATOM      5  C5  IND d   1      -2.602  -0.342  -5.967  0.00  0.00    -0.031 A 
ATOM      6  C6  IND d   1      -1.796  -1.462  -5.971  0.00  0.00     0.015 A 
ATOM      7  C7  IND d   1      -2.326  -2.721  -5.996  0.00  0.00    -0.016 A 
ATOM      8  C8  IND d   1      -3.710  -2.818  -5.998  0.00  0.00    -0.047 A 
ATOM      9  C9  IND d   1      -4.533  -1.686  -5.951  0.00  0.00    -0.096 A 
ATOM     10  HN1 IND d   1      -4.273  -4.743  -6.016  0.00  0.00     0.298 HD
ENDROOT
TORSDOF 0
ENDMDL
