MODEL 1
REMARK minimizedAffinity 3.7349236
REMARK minimizedRMSD -1
REMARK  0 active torsions:
REMARK  status: ('A' for Active; 'I' for Inactive)
ROOT
ATOM      1  N1  IND d   1       0.722  -1.494  -4.339  0.00  0.00    -0.196 N 
ATOM      2  C2  IND d   1       1.051  -0.293  -3.775  0.00  0.00     0.054 A 
ATOM      3  C3  IND d   1       0.051   0.599  -3.952  0.00  0.00    -0.031 A 
ATOM      4  C4  IND d   1      -2.257   0.274  -5.045  0.00  0.00     0.051 A 
ATOM      5  C5  IND d   1      -3.003  -0.639  -5.735  0.00  0.00    -0.031 A 
ATOM      6  C6  IND d   1      -2.537  -1.911  -5.999  0.00  0.00     0.015 A 
ATOM      7  C7  IND d   1      -1.307  -2.322  -5.569  0.00  0.00    -0.016 A 
ATOM      8  C8  IND d   1      -0.544  -1.395  -4.874  0.00  0.00    -0.047 A 
ATOM      9  C9  IND d   1      -0.994  -0.089  -4.641  0.00  0.00    -0.096 A 
ATOM     10  HN1 IND d   1       1.221  -2.194  -4.356  0.00  0.00     0.298 HD
ENDROOT
TORSDOF 0
ENDMDL
