MODEL 1
REMARK minimizedAffinity 15.1784105
REMARK minimizedRMSD -1
REMARK  0 active torsions:
REMARK  status: ('A' for Active; 'I' for Inactive)
ROOT
ATOM      1  C1  DEN d   1       1.129   1.093  -5.874  0.00  0.00     0.130 A 
ATOM      2  C2  DEN d   1       2.390   1.828  -5.897  0.00  0.00    -0.031 A 
ATOM      3  C3  DEN d   1       2.077   3.270  -5.948  0.00  0.00     0.027 A 
ATOM      4  C4  DEN d   1      -0.227   4.430  -5.989  0.00  0.00     0.027 A 
ATOM      5  C5  DEN d   1      -1.588   4.221  -5.996  0.00  0.00    -0.003 A 
ATOM      6  C6  DEN d   1      -2.135   2.965  -5.997  0.00  0.00     0.001 A 
ATOM      7  C7  DEN d   1      -1.316   1.869  -5.946  0.00  0.00     0.017 A 
ATOM      8  C8  DEN d   1       0.058   2.070  -5.946  0.00  0.00    -0.094 A 
ATOM      9  C9  DEN d   1       0.591   3.348  -5.932  0.00  0.00    -0.072 A 
ENDROOT
TORSDOF 0
ENDMDL
