MODEL 1
REMARK minimizedAffinity 11.9712734
REMARK minimizedRMSD -1
REMARK  0 active torsions:
REMARK  status: ('A' for Active; 'I' for Inactive)
ROOT
ATOM      1  C1  DEN d   1      -4.658  -3.588   0.045  0.00  0.00     0.130 A 
ATOM      2  C2  DEN d   1      -3.802  -4.566   0.710  0.00  0.00    -0.031 A 
ATOM      3  C3  DEN d   1      -2.529  -4.640  -0.034  0.00  0.00     0.027 A 
ATOM      4  C4  DEN d   1      -1.801  -3.337  -2.138  0.00  0.00     0.027 A 
ATOM      5  C5  DEN d   1      -2.194  -2.403  -3.071  0.00  0.00    -0.003 A 
ATOM      6  C6  DEN d   1      -3.437  -1.828  -3.051  0.00  0.00     0.001 A 
ATOM      7  C7  DEN d   1      -4.317  -2.149  -2.052  0.00  0.00     0.017 A 
ATOM      8  C8  DEN d   1      -3.931  -3.095  -1.112  0.00  0.00    -0.094 A 
ATOM      9  C9  DEN d   1      -2.666  -3.656  -1.141  0.00  0.00    -0.072 A 
ENDROOT
TORSDOF 0
ENDMDL
