MODEL 1
REMARK minimizedAffinity 7.54041195
REMARK minimizedRMSD -1
REMARK  0 active torsions:
REMARK  status: ('A' for Active; 'I' for Inactive)
ROOT
ATOM      1  C1  DEN d   1       3.017   5.496   2.332  0.00  0.00     0.130 A 
ATOM      2  C2  DEN d   1       3.980   5.622   1.241  0.00  0.00    -0.031 A 
ATOM      3  C3  DEN d   1       5.322   5.789   1.834  0.00  0.00     0.027 A 
ATOM      4  C4  DEN d   1       6.000   5.860   4.322  0.00  0.00     0.027 A 
ATOM      5  C5  DEN d   1       5.529   5.806   5.615  0.00  0.00    -0.003 A 
ATOM      6  C6  DEN d   1       4.196   5.681   5.903  0.00  0.00     0.001 A 
ATOM      7  C7  DEN d   1       3.290   5.559   4.882  0.00  0.00     0.017 A 
ATOM      8  C8  DEN d   1       3.756   5.620   3.575  0.00  0.00    -0.094 A 
ATOM      9  C9  DEN d   1       5.109   5.734   3.305  0.00  0.00    -0.072 A 
ENDROOT
TORSDOF 0
ENDMDL
