MODEL 1
REMARK minimizedAffinity 3.96984839
REMARK minimizedRMSD -1
REMARK  0 active torsions:
REMARK  status: ('A' for Active; 'I' for Inactive)
ROOT
ATOM      1  C1  DEN d   1       2.889   5.996   4.950  0.00  0.00     0.130 A 
ATOM      2  C2  DEN d   1       3.951   5.955   5.951  0.00  0.00    -0.031 A 
ATOM      3  C3  DEN d   1       5.246   5.937   5.243  0.00  0.00     0.027 A 
ATOM      4  C4  DEN d   1       5.708   5.974   2.705  0.00  0.00     0.027 A 
ATOM      5  C5  DEN d   1       5.124   5.997   1.458  0.00  0.00    -0.003 A 
ATOM      6  C6  DEN d   1       3.765   5.987   1.288  0.00  0.00     0.001 A 
ATOM      7  C7  DEN d   1       2.944   5.999   2.385  0.00  0.00     0.017 A 
ATOM      8  C8  DEN d   1       3.525   5.968   3.645  0.00  0.00    -0.094 A 
ATOM      9  C9  DEN d   1       4.901   5.991   3.796  0.00  0.00    -0.072 A 
ENDROOT
TORSDOF 0
ENDMDL
