MODEL 1
REMARK minimizedAffinity 6.4160943
REMARK minimizedRMSD -1
REMARK  0 active torsions:
REMARK  status: ('A' for Active; 'I' for Inactive)
ROOT
ATOM      1  C1  DEN d   1      -1.400  -6.000   2.898  0.00  0.00     0.130 A 
ATOM      2  C2  DEN d   1      -0.408  -5.211   3.622  0.00  0.00    -0.031 A 
ATOM      3  C3  DEN d   1      -0.425  -3.840   3.072  0.00  0.00     0.027 A 
ATOM      4  C4  DEN d   1      -1.886  -2.868   1.182  0.00  0.00     0.027 A 
ATOM      5  C5  DEN d   1      -2.867  -3.158   0.260  0.00  0.00    -0.003 A 
ATOM      6  C6  DEN d   1      -3.399  -4.413   0.130  0.00  0.00     0.001 A 
ATOM      7  C7  DEN d   1      -2.986  -5.416   0.966  0.00  0.00     0.017 A 
ATOM      8  C8  DEN d   1      -1.992  -5.133   1.894  0.00  0.00    -0.094 A 
ATOM      9  C9  DEN d   1      -1.475  -3.855   2.018  0.00  0.00    -0.072 A 
ENDROOT
TORSDOF 0
ENDMDL
