MODEL 1
REMARK minimizedAffinity 14.3066292
REMARK minimizedRMSD -1
REMARK  0 active torsions:
REMARK  status: ('A' for Active; 'I' for Inactive)
ROOT
ATOM      1  C1  DEN d   1       1.560   1.101   1.886  0.00  0.00     0.130 A 
ATOM      2  C2  DEN d   1       2.763   1.907   1.693  0.00  0.00    -0.031 A 
ATOM      3  C3  DEN d   1       3.659   1.177   0.773  0.00  0.00     0.027 A 
ATOM      4  C4  DEN d   1       3.300  -1.108  -0.368  0.00  0.00     0.027 A 
ATOM      5  C5  DEN d   1       2.437  -2.174  -0.500  0.00  0.00    -0.003 A 
ATOM      6  C6  DEN d   1       1.247  -2.238   0.175  0.00  0.00     0.001 A 
ATOM      7  C7  DEN d   1       0.866  -1.196   0.979  0.00  0.00     0.017 A 
ATOM      8  C8  DEN d   1       1.733  -0.121   1.122  0.00  0.00    -0.094 A 
ATOM      9  C9  DEN d   1       2.927  -0.070   0.422  0.00  0.00    -0.072 A 
ENDROOT
TORSDOF 0
ENDMDL
