MODEL 1
REMARK minimizedAffinity 9.64120674
REMARK minimizedRMSD -1
REMARK  0 active torsions:
REMARK  status: ('A' for Active; 'I' for Inactive)
ROOT
ATOM      1  C1  DEN d   1       1.629  -2.811   2.037  0.00  0.00     0.130 A 
ATOM      2  C2  DEN d   1       0.805  -2.795   0.832  0.00  0.00    -0.031 A 
ATOM      3  C3  DEN d   1      -0.188  -3.883   0.943  0.00  0.00     0.027 A 
ATOM      4  C4  DEN d   1      -0.529  -5.579   2.855  0.00  0.00     0.027 A 
ATOM      5  C5  DEN d   1      -0.063  -5.995   4.083  0.00  0.00    -0.003 A 
ATOM      6  C6  DEN d   1       1.011  -5.406   4.695  0.00  0.00     0.001 A 
ATOM      7  C7  DEN d   1       1.629  -4.337   4.100  0.00  0.00     0.017 A 
ATOM      8  C8  DEN d   1       1.170  -3.917   2.859  0.00  0.00    -0.094 A 
ATOM      9  C9  DEN d   1       0.075  -4.518   2.262  0.00  0.00    -0.072 A 
ENDROOT
TORSDOF 0
ENDMDL
