MODEL 1
REMARK minimizedAffinity 1.11443508
REMARK minimizedRMSD -1
REMARK  0 active torsions:
REMARK  status: ('A' for Active; 'I' for Inactive)
ROOT
ATOM      1  C1  DEN d   1       1.960  -0.180   0.846  0.00  0.00     0.130 A 
ATOM      2  C2  DEN d   1       2.837   0.365  -0.186  0.00  0.00    -0.031 A 
ATOM      3  C3  DEN d   1       3.280  -0.751  -1.046  0.00  0.00     0.027 A 
ATOM      4  C4  DEN d   1       2.692  -3.257  -0.883  0.00  0.00     0.027 A 
ATOM      5  C5  DEN d   1       1.992  -4.201  -0.165  0.00  0.00    -0.003 A 
ATOM      6  C6  DEN d   1       1.266  -3.879   0.951  0.00  0.00     0.001 A 
ATOM      7  C7  DEN d   1       1.186  -2.573   1.356  0.00  0.00     0.017 A 
ATOM      8  C8  DEN d   1       1.895  -1.616   0.641  0.00  0.00    -0.094 A 
ATOM      9  C9  DEN d   1       2.614  -1.960  -0.491  0.00  0.00    -0.072 A 
ENDROOT
TORSDOF 0
ENDMDL
