MODEL 1
REMARK minimizedAffinity 7.61918497
REMARK minimizedRMSD -1
REMARK  0 active torsions:
REMARK  status: ('A' for Active; 'I' for Inactive)
ROOT
ATOM      1  C1  DEN d   1      -2.239   2.312  -3.769  0.00  0.00     0.130 A 
ATOM      2  C2  DEN d   1      -3.013   2.916  -4.849  0.00  0.00    -0.031 A 
ATOM      3  C3  DEN d   1      -2.073   3.318  -5.915  0.00  0.00     0.027 A 
ATOM      4  C4  DEN d   1       0.492   3.058  -5.999  0.00  0.00     0.027 A 
ATOM      5  C5  DEN d   1       1.598   2.614  -5.309  0.00  0.00    -0.003 A 
ATOM      6  C6  DEN d   1       1.508   2.074  -4.054  0.00  0.00     0.001 A 
ATOM      7  C7  DEN d   1       0.279   1.922  -3.467  0.00  0.00     0.017 A 
ATOM      8  C8  DEN d   1      -0.840   2.374  -4.154  0.00  0.00    -0.094 A 
ATOM      9  C9  DEN d   1      -0.729   2.906  -5.427  0.00  0.00    -0.072 A 
ENDROOT
TORSDOF 0
ENDMDL
