MODEL 1
REMARK minimizedAffinity -0.355222434
REMARK minimizedRMSD -1
REMARK  0 active torsions:
REMARK  status: ('A' for Active; 'I' for Inactive)
ROOT
ATOM      1  C1  DEN d   1      -2.201   2.534   2.464  0.00  0.00     0.130 A 
ATOM      2  C2  DEN d   1      -1.815   1.612   3.530  0.00  0.00    -0.031 A 
ATOM      3  C3  DEN d   1      -2.596   0.370   3.364  0.00  0.00     0.027 A 
ATOM      4  C4  DEN d   1      -4.353  -0.215   1.568  0.00  0.00     0.027 A 
ATOM      5  C5  DEN d   1      -5.024   0.252   0.460  0.00  0.00    -0.003 A 
ATOM      6  C6  DEN d   1      -4.828   1.515  -0.033  0.00  0.00     0.001 A 
ATOM      7  C7  DEN d   1      -3.906   2.339   0.556  0.00  0.00     0.017 A 
ATOM      8  C8  DEN d   1      -3.230   1.877   1.678  0.00  0.00    -0.094 A 
ATOM      9  C9  DEN d   1      -3.433   0.593   2.154  0.00  0.00    -0.072 A 
ENDROOT
TORSDOF 0
ENDMDL
