MODEL 1
REMARK minimizedAffinity 9.58375072
REMARK minimizedRMSD -1
REMARK  0 active torsions:
REMARK  status: ('A' for Active; 'I' for Inactive)
ROOT
ATOM      1  C1  DEN d   1      -0.767   3.729  -6.000  0.00  0.00     0.130 A 
ATOM      2  C2  DEN d   1      -1.823   3.788  -4.993  0.00  0.00    -0.031 A 
ATOM      3  C3  DEN d   1      -1.349   3.069  -3.793  0.00  0.00     0.027 A 
ATOM      4  C4  DEN d   1       0.906   1.883  -3.397  0.00  0.00     0.027 A 
ATOM      5  C5  DEN d   1       2.118   1.556  -3.965  0.00  0.00    -0.003 A 
ATOM      6  C6  DEN d   1       2.437   1.899  -5.252  0.00  0.00     0.001 A 
ATOM      7  C7  DEN d   1       1.551   2.629  -5.999  0.00  0.00     0.017 A 
ATOM      8  C8  DEN d   1       0.324   2.955  -5.436  0.00  0.00    -0.094 A 
ATOM      9  C9  DEN d   1       0.025   2.610  -4.129  0.00  0.00    -0.072 A 
ENDROOT
TORSDOF 0
ENDMDL
