MODEL 1
REMARK minimizedAffinity -3.94970345
REMARK minimizedRMSD -1
REMARK  0 active torsions:
REMARK  status: ('A' for Active; 'I' for Inactive)
ROOT
ATOM      1  C1  DEN d   1       1.634  -2.986   0.786  0.00  0.00     0.130 A 
ATOM      2  C2  DEN d   1       2.598  -3.550  -0.154  0.00  0.00    -0.031 A 
ATOM      3  C3  DEN d   1       1.860  -3.989  -1.356  0.00  0.00     0.027 A 
ATOM      4  C4  DEN d   1      -0.668  -3.846  -1.850  0.00  0.00     0.027 A 
ATOM      5  C5  DEN d   1      -1.889  -3.455  -1.348  0.00  0.00    -0.003 A 
ATOM      6  C6  DEN d   1      -2.026  -2.917  -0.096  0.00  0.00     0.001 A 
ATOM      7  C7  DEN d   1      -0.915  -2.712   0.680  0.00  0.00     0.017 A 
ATOM      8  C8  DEN d   1       0.319  -3.110   0.183  0.00  0.00    -0.094 A 
ATOM      9  C9  DEN d   1       0.438  -3.641  -1.090  0.00  0.00    -0.072 A 
ENDROOT
TORSDOF 0
ENDMDL
