MODEL 1
REMARK minimizedAffinity 9.82108402
REMARK minimizedRMSD -1
REMARK  0 active torsions:
REMARK  status: ('A' for Active; 'I' for Inactive)
ROOT
ATOM      1  C1  DEN d   1       0.777   2.248  -5.994  0.00  0.00     0.130 A 
ATOM      2  C2  DEN d   1       1.823   2.148  -4.980  0.00  0.00    -0.031 A 
ATOM      3  C3  DEN d   1       1.362   2.868  -3.776  0.00  0.00     0.027 A 
ATOM      4  C4  DEN d   1      -0.860   4.117  -3.384  0.00  0.00     0.027 A 
ATOM      5  C5  DEN d   1      -2.057   4.485  -3.958  0.00  0.00    -0.003 A 
ATOM      6  C6  DEN d   1      -2.377   4.165  -5.251  0.00  0.00     0.001 A 
ATOM      7  C7  DEN d   1      -1.507   3.417  -5.999  0.00  0.00     0.017 A 
ATOM      8  C8  DEN d   1      -0.295   3.048  -5.431  0.00  0.00    -0.094 A 
ATOM      9  C9  DEN d   1       0.004   3.371  -4.118  0.00  0.00    -0.072 A 
ENDROOT
TORSDOF 0
ENDMDL
