MODEL 1
REMARK minimizedAffinity -3.44974828
REMARK minimizedRMSD -1
REMARK  0 active torsions:
REMARK  status: ('A' for Active; 'I' for Inactive)
ROOT
ATOM      1  C1  DEN d   1      -4.762   1.959   0.026  0.00  0.00     0.130 A 
ATOM      2  C2  DEN d   1      -5.430   1.187   1.070  0.00  0.00    -0.031 A 
ATOM      3  C3  DEN d   1      -4.398   0.432   1.809  0.00  0.00     0.027 A 
ATOM      4  C4  DEN d   1      -1.845   0.388   1.443  0.00  0.00     0.027 A 
ATOM      5  C5  DEN d   1      -0.814   0.872   0.669  0.00  0.00    -0.003 A 
ATOM      6  C6  DEN d   1      -1.028   1.718  -0.386  0.00  0.00     0.001 A 
ATOM      7  C7  DEN d   1      -2.299   2.143  -0.669  0.00  0.00     0.017 A 
ATOM      8  C8  DEN d   1      -3.345   1.653   0.103  0.00  0.00    -0.094 A 
ATOM      9  C9  DEN d   1      -3.107   0.808   1.173  0.00  0.00    -0.072 A 
ENDROOT
TORSDOF 0
ENDMDL
