MODEL 1
REMARK minimizedAffinity 3.56856513
REMARK minimizedRMSD -1
REMARK  0 active torsions:
REMARK  status: ('A' for Active; 'I' for Inactive)
ROOT
ATOM      1  C1  DEN d   1      -3.788   2.664  -5.725  0.00  0.00     0.130 A 
ATOM      2  C2  DEN d   1      -4.791   3.715  -5.874  0.00  0.00    -0.031 A 
ATOM      3  C3  DEN d   1      -4.083   5.005  -6.000  0.00  0.00     0.027 A 
ATOM      4  C4  DEN d   1      -1.547   5.474  -5.983  0.00  0.00     0.027 A 
ATOM      5  C5  DEN d   1      -0.300   4.900  -5.870  0.00  0.00    -0.003 A 
ATOM      6  C6  DEN d   1      -0.131   3.556  -5.668  0.00  0.00     0.001 A 
ATOM      7  C7  DEN d   1      -1.226   2.734  -5.618  0.00  0.00     0.017 A 
ATOM      8  C8  DEN d   1      -2.486   3.306  -5.724  0.00  0.00    -0.094 A 
ATOM      9  C9  DEN d   1      -2.636   4.665  -5.940  0.00  0.00    -0.072 A 
ENDROOT
TORSDOF 0
ENDMDL
