MODEL 1
REMARK minimizedAffinity 22.6390953
REMARK minimizedRMSD -1
REMARK  0 active torsions:
REMARK  status: ('A' for Active; 'I' for Inactive)
ROOT
ATOM      1  C   UNL d   1       2.241   0.743  -0.258  0.00  0.00     0.124 A 
ATOM      2  C1  UNL d   1       3.614   0.928  -0.169  0.00  0.00     0.062 A 
ATOM      3  C2  UNL d   1       4.452  -0.156   0.079  0.00  0.00     0.162 A 
ATOM      4  C3  UNL d   1       3.919  -1.435   0.239  0.00  0.00    -0.034 A 
ATOM      5  C4  UNL d   1       2.538  -1.613   0.149  0.00  0.00     0.162 A 
ATOM      6  C5  UNL d   1       1.705  -0.527  -0.098  0.00  0.00     0.062 A 
ATOM      7  F   UNL d   1       0.379  -0.708  -0.184  0.00  0.00    -0.097 F 
ATOM      8  F1  UNL d   1       1.992  -2.829   0.298  0.00  0.00    -0.096 F 
ATOM      9  I   UNL d   1       5.169  -3.058   0.609  0.00  0.00    -0.060 I 
ATOM     10  F2  UNL d   1       5.775   0.052   0.159  0.00  0.00    -0.096 F 
ATOM     11  F3  UNL d   1       4.135   2.154  -0.321  0.00  0.00    -0.097 F 
ATOM     12  F4  UNL d   1       1.438   1.787  -0.495  0.00  0.00    -0.092 F 
ENDROOT
TORSDOF 0
ENDMDL
