MODEL 1
REMARK minimizedAffinity 8.83575821
REMARK minimizedRMSD -1
REMARK  0 active torsions:
REMARK  status: ('A' for Active; 'I' for Inactive)
ROOT
ATOM      1  C   UNL d   1      -4.163  -1.366  -3.668  0.00  0.00     0.124 A 
ATOM      2  C1  UNL d   1      -3.823  -0.790  -2.452  0.00  0.00     0.062 A 
ATOM      3  C2  UNL d   1      -3.467   0.554  -2.389  0.00  0.00     0.162 A 
ATOM      4  C3  UNL d   1      -3.451   1.333  -3.547  0.00  0.00    -0.034 A 
ATOM      5  C4  UNL d   1      -3.794   0.746  -4.766  0.00  0.00     0.162 A 
ATOM      6  C5  UNL d   1      -4.148  -0.598  -4.824  0.00  0.00     0.062 A 
ATOM      7  F   UNL d   1      -4.476  -1.153  -6.000  0.00  0.00    -0.097 F 
ATOM      8  F1  UNL d   1      -3.789   1.466  -5.898  0.00  0.00    -0.096 F 
ATOM      9  I   UNL d   1      -2.921   3.343  -3.457  0.00  0.00    -0.060 I 
ATOM     10  F2  UNL d   1      -3.143   1.085  -1.201  0.00  0.00    -0.096 F 
ATOM     11  F3  UNL d   1      -3.835  -1.530  -1.334  0.00  0.00    -0.097 F 
ATOM     12  F4  UNL d   1      -4.503  -2.660  -3.726  0.00  0.00    -0.092 F 
ENDROOT
TORSDOF 0
ENDMDL
