MODEL 1
REMARK minimizedAffinity 12.7433081
REMARK minimizedRMSD -1
REMARK  0 active torsions:
REMARK  status: ('A' for Active; 'I' for Inactive)
ROOT
ATOM      1  C   UNL d   1      -3.366   1.518  -2.375  0.00  0.00     0.124 A 
ATOM      2  C1  UNL d   1      -3.281   1.938  -3.695  0.00  0.00     0.062 A 
ATOM      3  C2  UNL d   1      -3.424   1.020  -4.732  0.00  0.00     0.162 A 
ATOM      4  C3  UNL d   1      -3.654  -0.327  -4.453  0.00  0.00    -0.034 A 
ATOM      5  C4  UNL d   1      -3.737  -0.742  -3.122  0.00  0.00     0.162 A 
ATOM      6  C5  UNL d   1      -3.594   0.179  -2.090  0.00  0.00     0.062 A 
ATOM      7  F   UNL d   1      -3.676  -0.228  -0.815  0.00  0.00    -0.097 F 
ATOM      8  F1  UNL d   1      -3.957  -2.029  -2.818  0.00  0.00    -0.096 F 
ATOM      9  I   UNL d   1      -3.867  -1.703  -6.000  0.00  0.00    -0.060 I 
ATOM     10  F2  UNL d   1      -3.337   1.453  -5.998  0.00  0.00    -0.096 F 
ATOM     11  F3  UNL d   1      -3.060   3.231  -3.974  0.00  0.00    -0.097 F 
ATOM     12  F4  UNL d   1      -3.228   2.403  -1.380  0.00  0.00    -0.092 F 
ENDROOT
TORSDOF 0
ENDMDL
