MODEL 1
REMARK minimizedAffinity -0.132516593
REMARK minimizedRMSD -1
REMARK  0 active torsions:
REMARK  status: ('A' for Active; 'I' for Inactive)
ROOT
ATOM      1  C   UNL d   1      -3.946  -1.573  -3.465  0.00  0.00     0.124 A 
ATOM      2  C1  UNL d   1      -3.838  -0.939  -4.695  0.00  0.00     0.062 A 
ATOM      3  C2  UNL d   1      -3.169   0.277  -4.799  0.00  0.00     0.162 A 
ATOM      4  C3  UNL d   1      -2.603   0.867  -3.669  0.00  0.00    -0.034 A 
ATOM      5  C4  UNL d   1      -2.717   0.224  -2.435  0.00  0.00     0.162 A 
ATOM      6  C5  UNL d   1      -3.386  -0.991  -2.336  0.00  0.00     0.062 A 
ATOM      7  F   UNL d   1      -3.490  -1.602  -1.147  0.00  0.00    -0.097 F 
ATOM      8  F1  UNL d   1      -2.184   0.764  -1.329  0.00  0.00    -0.096 F 
ATOM      9  I   UNL d   1      -1.602   2.686  -3.820  0.00  0.00    -0.060 I 
ATOM     10  F2  UNL d   1      -3.079   0.867  -6.000  0.00  0.00    -0.096 F 
ATOM     11  F3  UNL d   1      -4.379  -1.500  -5.786  0.00  0.00    -0.097 F 
ATOM     12  F4  UNL d   1      -4.591  -2.743  -3.367  0.00  0.00    -0.092 F 
ENDROOT
TORSDOF 0
ENDMDL
