MODEL 1
REMARK minimizedAffinity 14.0555143
REMARK minimizedRMSD -1
REMARK  0 active torsions:
REMARK  status: ('A' for Active; 'I' for Inactive)
ROOT
ATOM      1  C   UNL d   1      -2.743  -0.788  -5.255  0.00  0.00     0.124 A 
ATOM      2  C1  UNL d   1      -2.069   0.375  -5.603  0.00  0.00     0.062 A 
ATOM      3  C2  UNL d   1      -2.717   1.605  -5.542  0.00  0.00     0.162 A 
ATOM      4  C3  UNL d   1      -4.048   1.679  -5.130  0.00  0.00    -0.034 A 
ATOM      5  C4  UNL d   1      -4.720   0.505  -4.783  0.00  0.00     0.162 A 
ATOM      6  C5  UNL d   1      -4.067  -0.722  -4.846  0.00  0.00     0.062 A 
ATOM      7  F   UNL d   1      -4.720  -1.844  -4.510  0.00  0.00    -0.097 F 
ATOM      8  F1  UNL d   1      -5.999   0.540  -4.383  0.00  0.00    -0.096 F 
ATOM      9  I   UNL d   1      -5.021   3.516  -5.038  0.00  0.00    -0.060 I 
ATOM     10  F2  UNL d   1      -2.041   2.712  -5.883  0.00  0.00    -0.096 F 
ATOM     11  F3  UNL d   1      -0.789   0.313  -6.000  0.00  0.00    -0.097 F 
ATOM     12  F4  UNL d   1      -2.116  -1.970  -5.316  0.00  0.00    -0.092 F 
ENDROOT
TORSDOF 0
ENDMDL
