MODEL 1
REMARK minimizedAffinity -1.68903875
REMARK minimizedRMSD -1
REMARK  0 active torsions:
REMARK  status: ('A' for Active; 'I' for Inactive)
ROOT
ATOM      1  C   UNL d   1      -4.631  -1.125  -3.797  0.00  0.00     0.124 A 
ATOM      2  C1  UNL d   1      -3.660  -1.035  -2.810  0.00  0.00     0.062 A 
ATOM      3  C2  UNL d   1      -2.667  -0.062  -2.892  0.00  0.00     0.162 A 
ATOM      4  C3  UNL d   1      -2.641   0.829  -3.965  0.00  0.00    -0.034 A 
ATOM      5  C4  UNL d   1      -3.621   0.731  -4.954  0.00  0.00     0.162 A 
ATOM      6  C5  UNL d   1      -4.611  -0.243  -4.868  0.00  0.00     0.062 A 
ATOM      7  F   UNL d   1      -5.549  -0.328  -5.823  0.00  0.00    -0.097 F 
ATOM      8  F1  UNL d   1      -3.626   1.571  -5.999  0.00  0.00    -0.096 F 
ATOM      9  I   UNL d   1      -1.159   2.284  -4.090  0.00  0.00    -0.060 I 
ATOM     10  F2  UNL d   1      -1.741   0.002  -1.923  0.00  0.00    -0.096 F 
ATOM     11  F3  UNL d   1      -3.677  -1.887  -1.775  0.00  0.00    -0.097 F 
ATOM     12  F4  UNL d   1      -5.585  -2.062  -3.717  0.00  0.00    -0.092 F 
ENDROOT
TORSDOF 0
ENDMDL
