MODEL 1
REMARK minimizedAffinity 9.52827835
REMARK minimizedRMSD -1
REMARK  0 active torsions:
REMARK  status: ('A' for Active; 'I' for Inactive)
ROOT
ATOM      1  C   UNL d   1       2.748  -3.898   1.339  0.00  0.00     0.124 A 
ATOM      2  C1  UNL d   1       1.705  -3.017   1.088  0.00  0.00     0.062 A 
ATOM      3  C2  UNL d   1       1.962  -1.771   0.523  0.00  0.00     0.162 A 
ATOM      4  C3  UNL d   1       3.268  -1.399   0.205  0.00  0.00    -0.034 A 
ATOM      5  C4  UNL d   1       4.312  -2.290   0.461  0.00  0.00     0.162 A 
ATOM      6  C5  UNL d   1       4.050  -3.534   1.025  0.00  0.00     0.062 A 
ATOM      7  F   UNL d   1       5.059  -4.384   1.267  0.00  0.00    -0.097 F 
ATOM      8  F1  UNL d   1       5.579  -1.964   0.167  0.00  0.00    -0.096 F 
ATOM      9  I   UNL d   1       3.657   0.464  -0.639  0.00  0.00    -0.060 I 
ATOM     10  F2  UNL d   1       0.935  -0.940   0.292  0.00  0.00    -0.096 F 
ATOM     11  F3  UNL d   1       0.447  -3.367   1.391  0.00  0.00    -0.097 F 
ATOM     12  F4  UNL d   1       2.498  -5.096   1.883  0.00  0.00    -0.092 F 
ENDROOT
TORSDOF 0
ENDMDL
