MODEL 1
REMARK minimizedAffinity 8.35531425
REMARK minimizedRMSD -1
REMARK  0 active torsions:
REMARK  status: ('A' for Active; 'I' for Inactive)
ROOT
ATOM      1  C   UNL d   1      -3.715  -1.647  -4.305  0.00  0.00     0.124 A 
ATOM      2  C1  UNL d   1      -4.590  -1.105  -3.374  0.00  0.00     0.062 A 
ATOM      3  C2  UNL d   1      -4.698   0.276  -3.235  0.00  0.00     0.162 A 
ATOM      4  C3  UNL d   1      -3.929   1.125  -4.030  0.00  0.00    -0.034 A 
ATOM      5  C4  UNL d   1      -3.050   0.573  -4.964  0.00  0.00     0.162 A 
ATOM      6  C5  UNL d   1      -2.946  -0.807  -5.099  0.00  0.00     0.062 A 
ATOM      7  F   UNL d   1      -2.100  -1.329  -5.999  0.00  0.00    -0.097 F 
ATOM      8  F1  UNL d   1      -2.296   1.361  -5.745  0.00  0.00    -0.096 F 
ATOM      9  I   UNL d   1      -4.087   3.190  -3.826  0.00  0.00    -0.060 I 
ATOM     10  F2  UNL d   1      -5.552   0.772  -2.327  0.00  0.00    -0.096 F 
ATOM     11  F3  UNL d   1      -5.333  -1.914  -2.605  0.00  0.00    -0.097 F 
ATOM     12  F4  UNL d   1      -3.612  -2.975  -4.436  0.00  0.00    -0.092 F 
ENDROOT
TORSDOF 0
ENDMDL
