MODEL 1
REMARK minimizedAffinity 12.8189106
REMARK minimizedRMSD -1
REMARK  0 active torsions:
REMARK  status: ('A' for Active; 'I' for Inactive)
ROOT
ATOM      1  C   UNL d   1      -3.600  -0.618  -3.149  0.00  0.00     0.124 A 
ATOM      2  C1  UNL d   1      -4.499  -0.930  -4.160  0.00  0.00     0.062 A 
ATOM      3  C2  UNL d   1      -5.136   0.085  -4.868  0.00  0.00     0.162 A 
ATOM      4  C3  UNL d   1      -4.877   1.422  -4.568  0.00  0.00    -0.034 A 
ATOM      5  C4  UNL d   1      -3.972   1.728  -3.549  0.00  0.00     0.162 A 
ATOM      6  C5  UNL d   1      -3.338   0.710  -2.845  0.00  0.00     0.062 A 
ATOM      7  F   UNL d   1      -2.470   1.013  -1.868  0.00  0.00    -0.097 F 
ATOM      8  F1  UNL d   1      -3.700   3.003  -3.235  0.00  0.00    -0.096 F 
ATOM      9  I   UNL d   1      -5.828   2.943  -5.623  0.00  0.00    -0.060 I 
ATOM     10  F2  UNL d   1      -6.000  -0.246  -5.839  0.00  0.00    -0.096 F 
ATOM     11  F3  UNL d   1      -4.755  -2.213  -4.455  0.00  0.00    -0.097 F 
ATOM     12  F4  UNL d   1      -2.989  -1.597  -2.469  0.00  0.00    -0.092 F 
ENDROOT
TORSDOF 0
ENDMDL
