MODEL 1
REMARK minimizedAffinity 6.23260498
REMARK minimizedRMSD -1
REMARK  0 active torsions:
REMARK  status: ('A' for Active; 'I' for Inactive)
ROOT
ATOM      1  C   UNL d   1       2.969  -3.061   1.134  0.00  0.00     0.124 A 
ATOM      2  C1  UNL d   1       4.028  -3.956   1.196  0.00  0.00     0.062 A 
ATOM      3  C2  UNL d   1       4.767  -4.086   2.368  0.00  0.00     0.162 A 
ATOM      4  C3  UNL d   1       4.448  -3.321   3.490  0.00  0.00    -0.034 A 
ATOM      5  C4  UNL d   1       3.382  -2.423   3.420  0.00  0.00     0.162 A 
ATOM      6  C5  UNL d   1       2.646  -2.296   2.246  0.00  0.00     0.062 A 
ATOM      7  F   UNL d   1       1.623  -1.431   2.189  0.00  0.00    -0.097 F 
ATOM      8  F1  UNL d   1       3.048  -1.672   4.480  0.00  0.00    -0.096 F 
ATOM      9  I   UNL d   1       5.551  -3.513   5.245  0.00  0.00    -0.060 I 
ATOM     10  F2  UNL d   1       5.786  -4.959   2.399  0.00  0.00    -0.096 F 
ATOM     11  F3  UNL d   1       4.342  -4.696   0.122  0.00  0.00    -0.097 F 
ATOM     12  F4  UNL d   1       2.260  -2.937   0.005  0.00  0.00    -0.092 F 
ENDROOT
TORSDOF 0
ENDMDL
