MODEL 1
REMARK minimizedAffinity 0.330151916
REMARK minimizedRMSD -1
REMARK  3 active torsions:
REMARK  status: ('A' for Active; 'I' for Inactive)
REMARK    1  A    between atoms: C3'_2  and  C2'_3 
REMARK    2  A    between atoms: C2'_3  and  C1'_4 
REMARK    3  A    between atoms: C1'_4  and  C1_5 
ROOT
ATOM      1  C1  N4B d   1       0.093  -2.174  -1.008  0.00  0.00    -0.075 A 
ATOM      2  C2  N4B d   1       0.387  -3.304  -0.212  0.00  0.00     0.002 A 
ATOM      3  C3  N4B d   1      -0.372  -4.442  -0.329  0.00  0.00     0.002 A 
ATOM      4  C4  N4B d   1      -1.438  -4.468  -1.216  0.00  0.00    -0.004 A 
ATOM      5  C5  N4B d   1      -1.700  -3.381  -1.999  0.00  0.00     0.002 A 
ATOM      6  C6  N4B d   1      -0.942  -2.232  -1.895  0.00  0.00     0.002 A 
ENDROOT
BRANCH   1   7
ATOM      7  C1' N4B d   1       0.841  -0.878  -0.854  0.00  0.00     0.057 C 
BRANCH   7   8
ATOM      8  C2' N4B d   1       0.130  -0.008   0.178  0.00  0.00     0.009 C 
BRANCH   8   9
ATOM      9  C3' N4B d   1       0.743  -0.150   1.560  0.00  0.00     0.004 C 
ATOM     10  C4' N4B d   1       0.463   1.029   2.443  0.00  0.00     0.003 C 
ENDBRANCH   8   9
ENDBRANCH   7   8
ENDBRANCH   1   7
TORSDOF 3
ENDMDL
