MODEL 1
REMARK minimizedAffinity -4.7187686
REMARK minimizedRMSD -1
REMARK  3 active torsions:
REMARK  status: ('A' for Active; 'I' for Inactive)
REMARK    1  A    between atoms: C3'_2  and  C2'_3 
REMARK    2  A    between atoms: C2'_3  and  C1'_4 
REMARK    3  A    between atoms: C1'_4  and  C1_5 
ROOT
ATOM      1  C1  N4B d   1       0.340   0.943   0.251  0.00  0.00    -0.075 A 
ATOM      2  C2  N4B d   1       0.342   1.438  -1.072  0.00  0.00     0.002 A 
ATOM      3  C3  N4B d   1       0.071   2.763  -1.309  0.00  0.00     0.002 A 
ATOM      4  C4  N4B d   1      -0.222   3.605  -0.246  0.00  0.00    -0.004 A 
ATOM      5  C5  N4B d   1      -0.196   3.124   1.031  0.00  0.00     0.002 A 
ATOM      6  C6  N4B d   1       0.078   1.796   1.284  0.00  0.00     0.002 A 
ENDROOT
BRANCH   1   7
ATOM      7  C1' N4B d   1       0.545  -0.516   0.553  0.00  0.00     0.057 C 
BRANCH   7   8
ATOM      8  C2' N4B d   1      -0.507  -1.334  -0.189  0.00  0.00     0.009 C 
BRANCH   8   9
ATOM      9  C3' N4B d   1       0.121  -2.354  -1.124  0.00  0.00     0.004 C 
ATOM     10  C4' N4B d   1      -0.863  -3.372  -1.619  0.00  0.00     0.003 C 
ENDBRANCH   8   9
ENDBRANCH   7   8
ENDBRANCH   1   7
TORSDOF 3
ENDMDL
