MODEL 1
REMARK minimizedAffinity -2.95145082
REMARK minimizedRMSD -1
REMARK  3 active torsions:
REMARK  status: ('A' for Active; 'I' for Inactive)
REMARK    1  A    between atoms: C3'_2  and  C2'_3 
REMARK    2  A    between atoms: C2'_3  and  C1'_4 
REMARK    3  A    between atoms: C1'_4  and  C1_5 
ROOT
ATOM      1  C1  N4B d   1       0.229   0.027   0.219  0.00  0.00    -0.075 A 
ATOM      2  C2  N4B d   1       0.032   1.344  -0.250  0.00  0.00     0.002 A 
ATOM      3  C3  N4B d   1      -0.169   2.368   0.643  0.00  0.00     0.002 A 
ATOM      4  C4  N4B d   1      -0.194   2.097   2.002  0.00  0.00    -0.004 A 
ATOM      5  C5  N4B d   1       0.023   0.826   2.449  0.00  0.00     0.002 A 
ATOM      6  C6  N4B d   1       0.229  -0.212   1.563  0.00  0.00     0.002 A 
ENDROOT
BRANCH   1   7
ATOM      7  C1' N4B d   1       0.366  -1.139  -0.721  0.00  0.00     0.057 C 
BRANCH   7   8
ATOM      8  C2' N4B d   1      -0.898  -1.991  -0.651  0.00  0.00     0.009 C 
BRANCH   8   9
ATOM      9  C3' N4B d   1      -0.813  -3.209  -1.554  0.00  0.00     0.004 C 
ATOM     10  C4' N4B d   1      -1.201  -4.478  -0.855  0.00  0.00     0.003 C 
ENDBRANCH   8   9
ENDBRANCH   7   8
ENDBRANCH   1   7
TORSDOF 3
ENDMDL
