MODEL 1
REMARK minimizedAffinity 6.95458651
REMARK minimizedRMSD -1
REMARK  0 active torsions:
REMARK  status: ('A' for Active; 'I' for Inactive)
ROOT
ATOM      1  C4' PXY d   1       3.279  -3.084  -3.332  0.00  0.00     0.077 C 
ATOM      2  C1' PXY d   1       4.542   1.440   0.039  0.00  0.00     0.077 C 
ATOM      3  C1  PXY d   1       4.207   0.247  -0.835  0.00  0.00    -0.082 A 
ATOM      4  C2  PXY d   1       4.790   0.116  -2.015  0.00  0.00     0.003 A 
ATOM      5  C3  PXY d   1       4.475  -0.940  -2.831  0.00  0.00     0.003 A 
ATOM      6  C4  PXY d   1       3.593  -1.900  -2.412  0.00  0.00    -0.082 A 
ATOM      7  C5  PXY d   1       3.002  -1.780  -1.205  0.00  0.00     0.003 A 
ATOM      8  C6  PXY d   1       3.305  -0.679  -0.409  0.00  0.00     0.003 A 
ENDROOT
TORSDOF 0
ENDMDL
