MODEL 1
REMARK minimizedAffinity 10.2279234
REMARK minimizedRMSD -1
REMARK  0 active torsions:
REMARK  status: ('A' for Active; 'I' for Inactive)
ROOT
ATOM      1  C4' PXY d   1       0.252   0.394  -0.433  0.00  0.00     0.077 C 
ATOM      2  C1' PXY d   1       5.999  -0.221  -0.337  0.00  0.00     0.077 C 
ATOM      3  C1  PXY d   1       4.491  -0.072  -0.368  0.00  0.00    -0.082 A 
ATOM      4  C2  PXY d   1       3.953   1.137  -0.368  0.00  0.00     0.003 A 
ATOM      5  C3  PXY d   1       2.591   1.290  -0.363  0.00  0.00     0.003 A 
ATOM      6  C4  PXY d   1       1.770   0.195  -0.412  0.00  0.00    -0.082 A 
ATOM      7  C5  PXY d   1       2.311  -1.041  -0.422  0.00  0.00     0.003 A 
ATOM      8  C6  PXY d   1       3.696  -1.176  -0.385  0.00  0.00     0.003 A 
ENDROOT
TORSDOF 0
ENDMDL
