MODEL 1
REMARK minimizedAffinity 14.5496302
REMARK minimizedRMSD -1
REMARK  0 active torsions:
REMARK  status: ('A' for Active; 'I' for Inactive)
ROOT
ATOM      1  C4' PXY d   1      -1.510   1.879   1.278  0.00  0.00     0.077 C 
ATOM      2  C1' PXY d   1       3.459  -0.405  -0.594  0.00  0.00     0.077 C 
ATOM      3  C1  PXY d   1       2.157   0.187  -0.092  0.00  0.00    -0.082 A 
ATOM      4  C2  PXY d   1       1.282   0.671  -0.959  0.00  0.00     0.003 A 
ATOM      5  C3  PXY d   1       0.113   1.239  -0.520  0.00  0.00     0.003 A 
ATOM      6  C4  PXY d   1      -0.187   1.264   0.816  0.00  0.00    -0.082 A 
ATOM      7  C5  PXY d   1       0.696   0.762   1.705  0.00  0.00     0.003 A 
ATOM      8  C6  PXY d   1       1.895   0.227   1.242  0.00  0.00     0.003 A 
ENDROOT
TORSDOF 0
ENDMDL
