MODEL 1
REMARK minimizedAffinity 6.85733986
REMARK minimizedRMSD -1
REMARK  0 active torsions:
REMARK  status: ('A' for Active; 'I' for Inactive)
ROOT
ATOM      1  C4' PXY d   1       5.148   3.161  -1.418  0.00  0.00     0.077 C 
ATOM      2  C1' PXY d   1       3.751  -2.236   0.108  0.00  0.00     0.077 C 
ATOM      3  C1  PXY d   1       4.128  -0.821  -0.285  0.00  0.00    -0.082 A 
ATOM      4  C2  PXY d   1       3.183   0.031  -0.648  0.00  0.00     0.003 A 
ATOM      5  C3  PXY d   1       3.510   1.304  -1.038  0.00  0.00     0.003 A 
ATOM      6  C4  PXY d   1       4.812   1.726  -1.004  0.00  0.00    -0.082 A 
ATOM      7  C5  PXY d   1       5.781   0.866  -0.625  0.00  0.00     0.003 A 
ATOM      8  C6  PXY d   1       5.433  -0.435  -0.273  0.00  0.00     0.003 A 
ENDROOT
TORSDOF 0
ENDMDL
