MODEL 1
REMARK minimizedAffinity 17.9119511
REMARK minimizedRMSD -1
REMARK  0 active torsions:
REMARK  status: ('A' for Active; 'I' for Inactive)
ROOT
ATOM      1  C4' PXY d   1       5.869   2.846  -1.855  0.00  0.00     0.077 C 
ATOM      2  C1' PXY d   1       2.783  -1.257   0.801  0.00  0.00     0.077 C 
ATOM      3  C1  PXY d   1       3.597  -0.177   0.116  0.00  0.00    -0.082 A 
ATOM      4  C2  PXY d   1       3.236   0.252  -1.082  0.00  0.00     0.003 A 
ATOM      5  C3  PXY d   1       3.979   1.206  -1.730  0.00  0.00     0.003 A 
ATOM      6  C4  PXY d   1       5.072   1.764  -1.122  0.00  0.00    -0.082 A 
ATOM      7  C5  PXY d   1       5.440   1.338   0.105  0.00  0.00     0.003 A 
ATOM      8  C6  PXY d   1       4.696   0.340   0.729  0.00  0.00     0.003 A 
ENDROOT
TORSDOF 0
ENDMDL
