MODEL 1
REMARK minimizedAffinity 14.3073111
REMARK minimizedRMSD -1
REMARK  0 active torsions:
REMARK  status: ('A' for Active; 'I' for Inactive)
ROOT
ATOM      1  C4' PXY d   1       2.585  -0.250  -0.784  0.00  0.00     0.077 C 
ATOM      2  C1' PXY d   1      -2.036   2.595   1.207  0.00  0.00     0.077 C 
ATOM      3  C1  PXY d   1      -0.831   1.846   0.674  0.00  0.00    -0.082 A 
ATOM      4  C2  PXY d   1       0.050   1.338   1.520  0.00  0.00     0.003 A 
ATOM      5  C3  PXY d   1       1.163   0.686   1.054  0.00  0.00     0.003 A 
ATOM      6  C4  PXY d   1       1.348   0.506  -0.290  0.00  0.00    -0.082 A 
ATOM      7  C5  PXY d   1       0.448   1.012  -1.160  0.00  0.00     0.003 A 
ATOM      8  C6  PXY d   1      -0.653   1.707  -0.668  0.00  0.00     0.003 A 
ENDROOT
TORSDOF 0
ENDMDL
