MODEL 1
REMARK minimizedAffinity 9.02110577
REMARK minimizedRMSD -1
REMARK  1 active torsions:
REMARK  status: ('A' for Active; 'I' for Inactive)
REMARK    1  A    between atoms: C3_4  and  O_7 
ROOT
ATOM      1  C   UNL d   1       0.722  -2.075   0.806  0.00  0.00    -0.033 A 
ATOM      2  C1  UNL d   1      -0.193  -1.021   0.833  0.00  0.00     0.039 A 
ATOM      3  C2  UNL d   1       0.194   0.230   1.318  0.00  0.00    -0.080 A 
ATOM      4  C3  UNL d   1       1.498   0.413   1.772  0.00  0.00     0.150 A 
ATOM      5  C4  UNL d   1       2.416  -0.632   1.744  0.00  0.00    -0.007 A 
ATOM      6  C5  UNL d   1       2.026  -1.880   1.260  0.00  0.00     0.039 A 
ENDROOT
BRANCH   4   7
ATOM      7  O   UNL d   1       1.921   1.614   2.258  0.00  0.00    -0.526 OA
ATOM      8  H5  UNL d   1       1.172   2.233   2.244  0.00  0.00     0.418 HD
ENDBRANCH   4   7
TORSDOF 1
ENDMDL
