MODEL 1
REMARK minimizedAffinity 6.71611071
REMARK minimizedRMSD -1
REMARK  1 active torsions:
REMARK  status: ('A' for Active; 'I' for Inactive)
REMARK    1  A    between atoms: C3_4  and  O_7 
ROOT
ATOM      1  C   UNL d   1      -5.192  -5.991  -5.111  0.00  0.00    -0.033 A 
ATOM      2  C1  UNL d   1      -5.992  -5.271  -6.000  0.00  0.00     0.039 A 
ATOM      3  C2  UNL d   1      -5.961  -3.875  -5.996  0.00  0.00    -0.080 A 
ATOM      4  C3  UNL d   1      -5.126  -3.213  -5.100  0.00  0.00     0.150 A 
ATOM      5  C4  UNL d   1      -4.323  -3.924  -4.215  0.00  0.00    -0.007 A 
ATOM      6  C5  UNL d   1      -4.356  -5.318  -4.220  0.00  0.00     0.039 A 
ENDROOT
BRANCH   4   7
ATOM      7  O   UNL d   1      -5.065  -1.851  -5.055  0.00  0.00    -0.526 OA
ATOM      8  H5  UNL d   1      -5.695  -1.494  -5.703  0.00  0.00     0.418 HD
ENDBRANCH   4   7
TORSDOF 1
ENDMDL
