MODEL 1
REMARK minimizedAffinity 0.278643578
REMARK minimizedRMSD -1
REMARK  1 active torsions:
REMARK  status: ('A' for Active; 'I' for Inactive)
REMARK    1  A    between atoms: C3_4  and  O_7 
ROOT
ATOM      1  C   UNL d   1      -3.991  -2.214  -5.800  0.00  0.00    -0.033 A 
ATOM      2  C1  UNL d   1      -5.370  -2.301  -5.599  0.00  0.00     0.039 A 
ATOM      3  C2  UNL d   1      -6.000  -3.547  -5.600  0.00  0.00    -0.080 A 
ATOM      4  C3  UNL d   1      -5.241  -4.696  -5.802  0.00  0.00     0.150 A 
ATOM      5  C4  UNL d   1      -3.866  -4.617  -6.000  0.00  0.00    -0.007 A 
ATOM      6  C5  UNL d   1      -3.239  -3.372  -6.000  0.00  0.00     0.039 A 
ENDROOT
BRANCH   4   7
ATOM      7  O   UNL d   1      -5.812  -5.934  -5.816  0.00  0.00    -0.526 OA
ATOM      8  H5  UNL d   1      -6.770  -5.832  -5.696  0.00  0.00     0.418 HD
ENDBRANCH   4   7
TORSDOF 1
ENDMDL
