MODEL 1
REMARK minimizedAffinity 5.92162848
REMARK minimizedRMSD -1
REMARK  1 active torsions:
REMARK  status: ('A' for Active; 'I' for Inactive)
REMARK    1  A    between atoms: C3_4  and  O_7 
ROOT
ATOM      1  C   UNL d   1      -5.652  -5.581  -5.317  0.00  0.00    -0.033 A 
ATOM      2  C1  UNL d   1      -4.342  -5.964  -5.609  0.00  0.00     0.039 A 
ATOM      3  C2  UNL d   1      -3.364  -4.994  -5.839  0.00  0.00    -0.080 A 
ATOM      4  C3  UNL d   1      -3.708  -3.647  -5.772  0.00  0.00     0.150 A 
ATOM      5  C4  UNL d   1      -5.011  -3.258  -5.478  0.00  0.00    -0.007 A 
ATOM      6  C5  UNL d   1      -5.987  -4.228  -5.251  0.00  0.00     0.039 A 
ENDROOT
BRANCH   4   7
ATOM      7  O   UNL d   1      -2.789  -2.665  -5.994  0.00  0.00    -0.526 OA
ATOM      8  H5  UNL d   1      -1.940  -3.082  -6.214  0.00  0.00     0.418 HD
ENDBRANCH   4   7
TORSDOF 1
ENDMDL
