MODEL 1
REMARK minimizedAffinity 8.46189499
REMARK minimizedRMSD -1
REMARK  1 active torsions:
REMARK  status: ('A' for Active; 'I' for Inactive)
REMARK    1  A    between atoms: C3_4  and  O_7 
ROOT
ATOM      1  C   UNL d   1       1.951  -0.732   1.742  0.00  0.00    -0.033 A 
ATOM      2  C1  UNL d   1       2.862  -0.639   0.688  0.00  0.00     0.039 A 
ATOM      3  C2  UNL d   1       3.082   0.587   0.058  0.00  0.00    -0.080 A 
ATOM      4  C3  UNL d   1       2.385   1.712   0.492  0.00  0.00     0.150 A 
ATOM      5  C4  UNL d   1       1.479   1.628   1.543  0.00  0.00    -0.007 A 
ATOM      6  C5  UNL d   1       1.260   0.402   2.170  0.00  0.00     0.039 A 
ENDROOT
BRANCH   4   7
ATOM      7  O   UNL d   1       2.562   2.930  -0.095  0.00  0.00    -0.526 OA
ATOM      8  H5  UNL d   1       3.196   2.830  -0.825  0.00  0.00     0.418 HD
ENDBRANCH   4   7
TORSDOF 1
ENDMDL
