MODEL 1
REMARK minimizedAffinity 3.85550046
REMARK minimizedRMSD -1
REMARK  1 active torsions:
REMARK  status: ('A' for Active; 'I' for Inactive)
REMARK    1  A    between atoms: C3_4  and  O_7 
ROOT
ATOM      1  C   UNL d   1       1.214  -3.246   1.459  0.00  0.00    -0.033 A 
ATOM      2  C1  UNL d   1       0.493  -2.127   1.035  0.00  0.00     0.039 A 
ATOM      3  C2  UNL d   1       0.861  -0.852   1.470  0.00  0.00    -0.080 A 
ATOM      4  C3  UNL d   1       1.949  -0.709   2.326  0.00  0.00     0.150 A 
ATOM      5  C4  UNL d   1       2.674  -1.819   2.748  0.00  0.00    -0.007 A 
ATOM      6  C5  UNL d   1       2.305  -3.091   2.314  0.00  0.00     0.039 A 
ENDROOT
BRANCH   4   7
ATOM      7  O   UNL d   1       2.343   0.514   2.780  0.00  0.00    -0.526 OA
ATOM      8  H5  UNL d   1       1.732   1.184   2.429  0.00  0.00     0.418 HD
ENDBRANCH   4   7
TORSDOF 1
ENDMDL
