MODEL 1
REMARK minimizedAffinity 0.303291917
REMARK minimizedRMSD -1
REMARK  1 active torsions:
REMARK  status: ('A' for Active; 'I' for Inactive)
REMARK    1  A    between atoms: C3_4  and  O_7 
ROOT
ATOM      1  C   UNL d   1       4.779   0.012  -3.125  0.00  0.00    -0.033 A 
ATOM      2  C1  UNL d   1       3.614  -0.732  -3.324  0.00  0.00     0.039 A 
ATOM      3  C2  UNL d   1       3.640  -1.868  -4.136  0.00  0.00    -0.080 A 
ATOM      4  C3  UNL d   1       4.835  -2.248  -4.741  0.00  0.00     0.150 A 
ATOM      5  C4  UNL d   1       5.999  -1.513  -4.544  0.00  0.00    -0.007 A 
ATOM      6  C5  UNL d   1       5.971  -0.379  -3.734  0.00  0.00     0.039 A 
ENDROOT
BRANCH   4   7
ATOM      7  O   UNL d   1       4.908  -3.346  -5.546  0.00  0.00    -0.526 OA
ATOM      8  H5  UNL d   1       4.021  -3.738  -5.613  0.00  0.00     0.418 HD
ENDBRANCH   4   7
TORSDOF 1
ENDMDL
