MODEL 1
REMARK minimizedAffinity 3.67916441
REMARK minimizedRMSD -1
REMARK  1 active torsions:
REMARK  status: ('A' for Active; 'I' for Inactive)
REMARK    1  A    between atoms: C3_4  and  O_7 
ROOT
ATOM      1  C   UNL d   1      -5.483  -6.000  -5.055  0.00  0.00    -0.033 A 
ATOM      2  C1  UNL d   1      -5.999  -5.109  -5.998  0.00  0.00     0.039 A 
ATOM      3  C2  UNL d   1      -5.586  -3.775  -6.000  0.00  0.00    -0.080 A 
ATOM      4  C3  UNL d   1      -4.658  -3.346  -5.055  0.00  0.00     0.150 A 
ATOM      5  C4  UNL d   1      -4.137  -4.229  -4.115  0.00  0.00    -0.007 A 
ATOM      6  C5  UNL d   1      -4.551  -5.561  -4.115  0.00  0.00     0.039 A 
ENDROOT
BRANCH   4   7
ATOM      7  O   UNL d   1      -4.228  -2.053  -5.015  0.00  0.00    -0.526 OA
ATOM      8  H5  UNL d   1      -4.695  -1.552  -5.704  0.00  0.00     0.418 HD
ENDBRANCH   4   7
TORSDOF 1
ENDMDL
