MODEL 1
REMARK minimizedAffinity 1.84779501
REMARK minimizedRMSD -1
REMARK  1 active torsions:
REMARK  status: ('A' for Active; 'I' for Inactive)
REMARK    1  A    between atoms: C3_4  and  O_7 
ROOT
ATOM      1  C   UNL d   1       5.971  -3.517  -5.187  0.00  0.00    -0.033 A 
ATOM      2  C1  UNL d   1       5.057  -3.600  -4.134  0.00  0.00     0.039 A 
ATOM      3  C2  UNL d   1       4.173  -2.547  -3.890  0.00  0.00    -0.080 A 
ATOM      4  C3  UNL d   1       4.213  -1.419  -4.706  0.00  0.00     0.150 A 
ATOM      5  C4  UNL d   1       5.118  -1.332  -5.758  0.00  0.00    -0.007 A 
ATOM      6  C5  UNL d   1       6.000  -2.384  -6.000  0.00  0.00     0.039 A 
ENDROOT
BRANCH   4   7
ATOM      7  O   UNL d   1       3.374  -0.364  -4.503  0.00  0.00    -0.526 OA
ATOM      8  H5  UNL d   1       2.824  -0.552  -3.724  0.00  0.00     0.418 HD
ENDBRANCH   4   7
TORSDOF 1
ENDMDL
