MODEL 1
REMARK minimizedAffinity 3.70991397
REMARK minimizedRMSD -1
REMARK  0 active torsions:
REMARK  status: ('A' for Active; 'I' for Inactive)
ROOT
ATOM      1  N1  IND d   1      -1.557  -2.006   1.023  0.00  0.00    -0.196 N 
ATOM      2  C2  IND d   1      -0.666  -3.025   1.216  0.00  0.00     0.054 A 
ATOM      3  C3  IND d   1       0.589  -2.614   0.926  0.00  0.00    -0.031 A 
ATOM      4  C4  IND d   1       1.424  -0.285   0.216  0.00  0.00     0.051 A 
ATOM      5  C5  IND d   1       0.978   0.961  -0.128  0.00  0.00    -0.031 A 
ATOM      6  C6  IND d   1      -0.362   1.288  -0.102  0.00  0.00     0.015 A 
ATOM      7  C7  IND d   1      -1.310   0.382   0.281  0.00  0.00    -0.016 A 
ATOM      8  C8  IND d   1      -0.862  -0.886   0.624  0.00  0.00    -0.047 A 
ATOM      9  C9  IND d   1       0.493  -1.237   0.559  0.00  0.00    -0.096 A 
ATOM     10  HN1 IND d   1      -2.408  -2.056   1.133  0.00  0.00     0.298 HD
ENDROOT
TORSDOF 0
ENDMDL
