MODEL 1
REMARK minimizedAffinity -0.0599768758
REMARK minimizedRMSD -1
REMARK  0 active torsions:
REMARK  status: ('A' for Active; 'I' for Inactive)
ROOT
ATOM      1  N1  IND d   1      -1.404  -0.759   1.218  0.00  0.00    -0.196 N 
ATOM      2  C2  IND d   1      -0.093  -0.961   0.888  0.00  0.00     0.054 A 
ATOM      3  C3  IND d   1       0.537   0.223   0.721  0.00  0.00    -0.031 A 
ATOM      4  C4  IND d   1      -0.362   2.614   1.039  0.00  0.00     0.051 A 
ATOM      5  C5  IND d   1      -1.510   3.307   1.302  0.00  0.00    -0.031 A 
ATOM      6  C6  IND d   1      -2.706   2.667   1.558  0.00  0.00     0.015 A 
ATOM      7  C7  IND d   1      -2.795   1.304   1.572  0.00  0.00    -0.016 A 
ATOM      8  C8  IND d   1      -1.632   0.597   1.299  0.00  0.00    -0.047 A 
ATOM      9  C9  IND d   1      -0.426   1.242   0.996  0.00  0.00    -0.096 A 
ATOM     10  HN1 IND d   1      -1.988  -1.376   1.352  0.00  0.00     0.298 HD
ENDROOT
TORSDOF 0
ENDMDL
