MODEL 1
REMARK minimizedAffinity 0.0404641069
REMARK minimizedRMSD -1
REMARK  0 active torsions:
REMARK  status: ('A' for Active; 'I' for Inactive)
ROOT
ATOM      1  N1  IND d   1      -1.446  -2.018   0.258  0.00  0.00    -0.196 N 
ATOM      2  C2  IND d   1      -0.337  -1.370   0.725  0.00  0.00     0.054 A 
ATOM      3  C3  IND d   1       0.043  -0.403  -0.141  0.00  0.00    -0.031 A 
ATOM      4  C4  IND d   1      -1.069   0.356  -2.335  0.00  0.00     0.051 A 
ATOM      5  C5  IND d   1      -2.085   0.040  -3.193  0.00  0.00    -0.031 A 
ATOM      6  C6  IND d   1      -2.959  -0.996  -2.938  0.00  0.00     0.015 A 
ATOM      7  C7  IND d   1      -2.856  -1.753  -1.805  0.00  0.00    -0.016 A 
ATOM      8  C8  IND d   1      -1.822  -1.440  -0.935  0.00  0.00    -0.047 A 
ATOM      9  C9  IND d   1      -0.906  -0.416  -1.209  0.00  0.00    -0.096 A 
ATOM     10  HN1 IND d   1      -1.842  -2.676   0.643  0.00  0.00     0.298 HD
ENDROOT
TORSDOF 0
ENDMDL
