MODEL 1
REMARK minimizedAffinity -4.35674238
REMARK minimizedRMSD -1
REMARK  0 active torsions:
REMARK  status: ('A' for Active; 'I' for Inactive)
ROOT
ATOM      1  N1  IND d   1       0.613   1.511   0.896  0.00  0.00    -0.196 N 
ATOM      2  C2  IND d   1      -0.451   1.091   0.147  0.00  0.00     0.054 A 
ATOM      3  C3  IND d   1      -0.200  -0.127  -0.385  0.00  0.00    -0.031 A 
ATOM      4  C4  IND d   1       1.848  -1.656  -0.075  0.00  0.00     0.051 A 
ATOM      5  C5  IND d   1       3.092  -1.690   0.490  0.00  0.00    -0.031 A 
ATOM      6  C6  IND d   1       3.582  -0.638   1.237  0.00  0.00     0.015 A 
ATOM      7  C7  IND d   1       2.838   0.487   1.457  0.00  0.00    -0.016 A 
ATOM      8  C8  IND d   1       1.578   0.528   0.878  0.00  0.00    -0.047 A 
ATOM      9  C9  IND d   1       1.092  -0.519   0.084  0.00  0.00    -0.096 A 
ATOM     10  HN1 IND d   1       0.670   2.263   1.308  0.00  0.00     0.298 HD
ENDROOT
TORSDOF 0
ENDMDL
