MODEL 1
REMARK minimizedAffinity -3.03314471
REMARK minimizedRMSD -1
REMARK  0 active torsions:
REMARK  status: ('A' for Active; 'I' for Inactive)
ROOT
ATOM      1  N1  IND d   1      -0.729   3.510   1.787  0.00  0.00    -0.196 N 
ATOM      2  C2  IND d   1      -2.089   3.424   1.899  0.00  0.00     0.054 A 
ATOM      3  C3  IND d   1      -2.532   2.263   1.368  0.00  0.00    -0.031 A 
ATOM      4  C4  IND d   1      -1.194   0.312   0.353  0.00  0.00     0.051 A 
ATOM      5  C5  IND d   1       0.074  -0.055  -0.001  0.00  0.00    -0.031 A 
ATOM      6  C6  IND d   1       1.162   0.763   0.230  0.00  0.00     0.015 A 
ATOM      7  C7  IND d   1       1.022   1.979   0.837  0.00  0.00    -0.016 A 
ATOM      8  C8  IND d   1      -0.265   2.358   1.191  0.00  0.00    -0.047 A 
ATOM      9  C9  IND d   1      -1.377   1.551   0.921  0.00  0.00    -0.096 A 
ATOM     10  HN1 IND d   1      -0.245   4.172   2.045  0.00  0.00     0.298 HD
ENDROOT
TORSDOF 0
ENDMDL
