MODEL 1
REMARK minimizedAffinity -3.19716048
REMARK minimizedRMSD -1
REMARK  0 active torsions:
REMARK  status: ('A' for Active; 'I' for Inactive)
ROOT
ATOM      1  N1  IND d   1      -0.862   0.827   0.387  0.00  0.00    -0.196 N 
ATOM      2  C2  IND d   1       0.005   1.834   0.064  0.00  0.00     0.054 A 
ATOM      3  C3  IND d   1       1.274   1.369   0.030  0.00  0.00    -0.031 A 
ATOM      4  C4  IND d   1       2.147  -1.029   0.372  0.00  0.00     0.051 A 
ATOM      5  C5  IND d   1       1.738  -2.284   0.724  0.00  0.00    -0.031 A 
ATOM      6  C6  IND d   1       0.414  -2.573   0.985  0.00  0.00     0.015 A 
ATOM      7  C7  IND d   1      -0.556  -1.616   0.891  0.00  0.00    -0.016 A 
ATOM      8  C8  IND d   1      -0.143  -0.338   0.541  0.00  0.00    -0.047 A 
ATOM      9  C9  IND d   1       1.205  -0.029   0.317  0.00  0.00    -0.096 A 
ATOM     10  HN1 IND d   1      -1.713   0.908   0.480  0.00  0.00     0.298 HD
ENDROOT
TORSDOF 0
ENDMDL
