MODEL 1
REMARK minimizedAffinity 6.17633343
REMARK minimizedRMSD -1
REMARK  0 active torsions:
REMARK  status: ('A' for Active; 'I' for Inactive)
ROOT
ATOM      1  C   UNL d   1       1.932   1.432  -0.094  0.00  0.00     0.078 C 
ATOM      2  C1  UNL d   1       2.949   0.941   0.894  0.00  0.00    -0.077 A 
ATOM      3  C2  UNL d   1       4.272   1.399   0.855  0.00  0.00    -0.001 A 
ATOM      4  C3  UNL d   1       5.210   0.926   1.774  0.00  0.00     0.003 A 
ATOM      5  C4  UNL d   1       4.835  -0.008   2.738  0.00  0.00    -0.005 A 
ATOM      6  C5  UNL d   1       3.522  -0.471   2.783  0.00  0.00     0.003 A 
ATOM      7  C6  UNL d   1       2.583   0.001   1.865  0.00  0.00    -0.001 A 
ENDROOT
TORSDOF 0
ENDMDL
