MODEL 1
REMARK minimizedAffinity -3.33090305
REMARK minimizedRMSD -1
REMARK  0 active torsions:
REMARK  status: ('A' for Active; 'I' for Inactive)
ROOT
ATOM      1  C   UNL d   1       1.951  -2.595   2.832  0.00  0.00     0.078 C 
ATOM      2  C1  UNL d   1       2.447  -1.366   2.130  0.00  0.00    -0.077 A 
ATOM      3  C2  UNL d   1       1.685  -0.750   1.130  0.00  0.00    -0.001 A 
ATOM      4  C3  UNL d   1       2.163   0.388   0.478  0.00  0.00     0.003 A 
ATOM      5  C4  UNL d   1       3.406   0.919   0.819  0.00  0.00    -0.005 A 
ATOM      6  C5  UNL d   1       4.172   0.312   1.811  0.00  0.00     0.003 A 
ATOM      7  C6  UNL d   1       3.696  -0.826   2.464  0.00  0.00    -0.001 A 
ENDROOT
TORSDOF 0
ENDMDL
