MODEL 1
REMARK minimizedAffinity 1.84121108
REMARK minimizedRMSD -1
REMARK  0 active torsions:
REMARK  status: ('A' for Active; 'I' for Inactive)
ROOT
ATOM      1  C   UNL d   1      -3.024  -0.920   6.000  0.00  0.00     0.078 C 
ATOM      2  C1  UNL d   1      -3.642  -2.096   5.306  0.00  0.00    -0.077 A 
ATOM      3  C2  UNL d   1      -3.917  -3.281   6.000  0.00  0.00    -0.001 A 
ATOM      4  C3  UNL d   1      -4.484  -4.371   5.338  0.00  0.00     0.003 A 
ATOM      5  C4  UNL d   1      -4.780  -4.288   3.979  0.00  0.00    -0.005 A 
ATOM      6  C5  UNL d   1      -4.508  -3.115   3.279  0.00  0.00     0.003 A 
ATOM      7  C6  UNL d   1      -3.941  -2.023   3.939  0.00  0.00    -0.001 A 
ENDROOT
TORSDOF 0
ENDMDL
