MODEL 1
REMARK minimizedAffinity 5.41168594
REMARK minimizedRMSD -1
REMARK  0 active torsions:
REMARK  status: ('A' for Active; 'I' for Inactive)
ROOT
ATOM      1  C   UNL d   1      -4.665   1.578   5.815  0.00  0.00     0.078 C 
ATOM      2  C1  UNL d   1      -4.730   3.076   5.855  0.00  0.00    -0.077 A 
ATOM      3  C2  UNL d   1      -5.955   3.748   5.770  0.00  0.00    -0.001 A 
ATOM      4  C3  UNL d   1      -5.999   5.142   5.799  0.00  0.00     0.003 A 
ATOM      5  C4  UNL d   1      -4.821   5.877   5.912  0.00  0.00    -0.005 A 
ATOM      6  C5  UNL d   1      -3.596   5.218   5.995  0.00  0.00     0.003 A 
ATOM      7  C6  UNL d   1      -3.550   3.823   5.966  0.00  0.00    -0.001 A 
ENDROOT
TORSDOF 0
ENDMDL
