MODEL 1
REMARK minimizedAffinity 5.75435209
REMARK minimizedRMSD -1
REMARK  0 active torsions:
REMARK  status: ('A' for Active; 'I' for Inactive)
ROOT
ATOM      1  C   UNL d   1      -5.810   3.032   2.514  0.00  0.00     0.078 C 
ATOM      2  C1  UNL d   1      -5.203   3.681   3.721  0.00  0.00    -0.077 A 
ATOM      3  C2  UNL d   1      -3.840   4.001   3.760  0.00  0.00    -0.001 A 
ATOM      4  C3  UNL d   1      -3.286   4.596   4.895  0.00  0.00     0.003 A 
ATOM      5  C4  UNL d   1      -4.088   4.875   6.000  0.00  0.00    -0.005 A 
ATOM      6  C5  UNL d   1      -5.444   4.559   5.972  0.00  0.00     0.003 A 
ATOM      7  C6  UNL d   1      -6.000   3.964   4.838  0.00  0.00    -0.001 A 
ENDROOT
TORSDOF 0
ENDMDL
