MODEL 1
REMARK minimizedAffinity 4.62280655
REMARK minimizedRMSD -1
REMARK  0 active torsions:
REMARK  status: ('A' for Active; 'I' for Inactive)
ROOT
ATOM      1  C   UNL d   1      -5.981   4.426   5.991  0.00  0.00     0.078 C 
ATOM      2  C1  UNL d   1      -4.483   4.360   6.000  0.00  0.00    -0.077 A 
ATOM      3  C2  UNL d   1      -3.710   5.527   5.996  0.00  0.00    -0.001 A 
ATOM      4  C3  UNL d   1      -2.316   5.451   5.995  0.00  0.00     0.003 A 
ATOM      5  C4  UNL d   1      -1.684   4.210   5.996  0.00  0.00    -0.005 A 
ATOM      6  C5  UNL d   1      -2.445   3.042   5.998  0.00  0.00     0.003 A 
ATOM      7  C6  UNL d   1      -3.839   3.117   5.999  0.00  0.00    -0.001 A 
ENDROOT
TORSDOF 0
ENDMDL
