MODEL 1
REMARK minimizedAffinity 9.81557655
REMARK minimizedRMSD -1
REMARK  0 active torsions:
REMARK  status: ('A' for Active; 'I' for Inactive)
ROOT
ATOM      1  C   UNL d   1      -3.382  -0.764   0.543  0.00  0.00     0.078 C 
ATOM      2  C1  UNL d   1      -4.255   0.195   1.297  0.00  0.00    -0.077 A 
ATOM      3  C2  UNL d   1      -5.183  -0.263   2.240  0.00  0.00    -0.001 A 
ATOM      4  C3  UNL d   1      -5.995   0.640   2.927  0.00  0.00     0.003 A 
ATOM      5  C4  UNL d   1      -5.888   2.007   2.679  0.00  0.00    -0.005 A 
ATOM      6  C5  UNL d   1      -4.969   2.472   1.741  0.00  0.00     0.003 A 
ATOM      7  C6  UNL d   1      -4.156   1.570   1.052  0.00  0.00    -0.001 A 
ENDROOT
TORSDOF 0
ENDMDL
