MODEL 1
REMARK minimizedAffinity 0.891507089
REMARK minimizedRMSD -1
REMARK  0 active torsions:
REMARK  status: ('A' for Active; 'I' for Inactive)
ROOT
ATOM      1  C   UNL d   1       4.116   1.843   0.013  0.00  0.00     0.078 C 
ATOM      2  C1  UNL d   1       3.822   0.786   1.035  0.00  0.00    -0.077 A 
ATOM      3  C2  UNL d   1       2.504   0.423   1.339  0.00  0.00    -0.001 A 
ATOM      4  C3  UNL d   1       2.245  -0.556   2.299  0.00  0.00     0.003 A 
ATOM      5  C4  UNL d   1       3.299  -1.180   2.965  0.00  0.00    -0.005 A 
ATOM      6  C5  UNL d   1       4.613  -0.824   2.671  0.00  0.00     0.003 A 
ATOM      7  C6  UNL d   1       4.874   0.155   1.710  0.00  0.00    -0.001 A 
ENDROOT
TORSDOF 0
ENDMDL
