MODEL 1
REMARK minimizedAffinity 0.35835284
REMARK minimizedRMSD -1
REMARK  0 active torsions:
REMARK  status: ('A' for Active; 'I' for Inactive)
ROOT
ATOM      1  C   UNL d   1       5.218  -0.202   2.952  0.00  0.00     0.078 C 
ATOM      2  C1  UNL d   1       3.966   0.103   2.186  0.00  0.00    -0.077 A 
ATOM      3  C2  UNL d   1       2.731  -0.425   2.582  0.00  0.00    -0.001 A 
ATOM      4  C3  UNL d   1       1.575  -0.140   1.854  0.00  0.00     0.003 A 
ATOM      5  C4  UNL d   1       1.643   0.671   0.723  0.00  0.00    -0.005 A 
ATOM      6  C5  UNL d   1       2.867   1.199   0.319  0.00  0.00     0.003 A 
ATOM      7  C6  UNL d   1       4.024   0.916   1.047  0.00  0.00    -0.001 A 
ENDROOT
TORSDOF 0
ENDMDL
