MODEL 1
REMARK minimizedAffinity 7.048738
REMARK minimizedRMSD -1
REMARK  0 active torsions:
REMARK  status: ('A' for Active; 'I' for Inactive)
ROOT
ATOM      1  C   UNL d   1      -3.009  -0.674   6.000  0.00  0.00     0.078 C 
ATOM      2  C1  UNL d   1      -3.449  -1.880   5.226  0.00  0.00    -0.077 A 
ATOM      3  C2  UNL d   1      -3.640  -1.818   3.840  0.00  0.00    -0.001 A 
ATOM      4  C3  UNL d   1      -4.059  -2.947   3.133  0.00  0.00     0.003 A 
ATOM      5  C4  UNL d   1      -4.292  -4.145   3.804  0.00  0.00    -0.005 A 
ATOM      6  C5  UNL d   1      -4.107  -4.217   5.184  0.00  0.00     0.003 A 
ATOM      7  C6  UNL d   1      -3.688  -3.089   5.892  0.00  0.00    -0.001 A 
ENDROOT
TORSDOF 0
ENDMDL
