MODEL 1
REMARK minimizedAffinity 1.98272455
REMARK minimizedRMSD -1
REMARK  0 active torsions:
REMARK  status: ('A' for Active; 'I' for Inactive)
ROOT
ATOM      1  C   UNL d   1       1.815  -1.205   2.923  0.00  0.00     0.078 C 
ATOM      2  C1  UNL d   1       2.969  -0.447   2.339  0.00  0.00    -0.077 A 
ATOM      3  C2  UNL d   1       4.288  -0.760   2.688  0.00  0.00    -0.001 A 
ATOM      4  C3  UNL d   1       5.352  -0.039   2.144  0.00  0.00     0.003 A 
ATOM      5  C4  UNL d   1       5.108   0.999   1.247  0.00  0.00    -0.005 A 
ATOM      6  C5  UNL d   1       3.799   1.319   0.895  0.00  0.00     0.003 A 
ATOM      7  C6  UNL d   1       2.733   0.599   1.438  0.00  0.00    -0.001 A 
ENDROOT
TORSDOF 0
ENDMDL
