MODEL 1
REMARK minimizedAffinity -1.25622094
REMARK minimizedRMSD -1
REMARK  0 active torsions:
REMARK  status: ('A' for Active; 'I' for Inactive)
ROOT
ATOM      1  C   UNL d   1       6.000  -0.011   3.000  0.00  0.00     0.078 C 
ATOM      2  C1  UNL d   1       4.689  -0.120   2.280  0.00  0.00    -0.077 A 
ATOM      3  C2  UNL d   1       3.717  -1.043   2.687  0.00  0.00    -0.001 A 
ATOM      4  C3  UNL d   1       2.505  -1.140   2.001  0.00  0.00     0.003 A 
ATOM      5  C4  UNL d   1       2.254  -0.319   0.904  0.00  0.00    -0.005 A 
ATOM      6  C5  UNL d   1       3.216   0.601   0.491  0.00  0.00     0.003 A 
ATOM      7  C6  UNL d   1       4.428   0.700   1.175  0.00  0.00    -0.001 A 
ENDROOT
TORSDOF 0
ENDMDL
