MODEL 1
REMARK minimizedAffinity 0.418857485
REMARK minimizedRMSD -1
REMARK  0 active torsions:
REMARK  status: ('A' for Active; 'I' for Inactive)
ROOT
ATOM      1  C   UNL d   1      -5.642   1.501   2.472  0.00  0.00     0.078 C 
ATOM      2  C1  UNL d   1      -5.624   2.438   3.643  0.00  0.00    -0.077 A 
ATOM      3  C2  UNL d   1      -5.247   1.994   4.916  0.00  0.00    -0.001 A 
ATOM      4  C3  UNL d   1      -5.244   2.875   5.999  0.00  0.00     0.003 A 
ATOM      5  C4  UNL d   1      -5.618   4.205   5.820  0.00  0.00    -0.005 A 
ATOM      6  C5  UNL d   1      -5.996   4.656   4.557  0.00  0.00     0.003 A 
ATOM      7  C6  UNL d   1      -6.000   3.777   3.473  0.00  0.00    -0.001 A 
ENDROOT
TORSDOF 0
ENDMDL
