MODEL 1
REMARK minimizedAffinity 2.92610645
REMARK minimizedRMSD -1
REMARK  0 active torsions:
REMARK  status: ('A' for Active; 'I' for Inactive)
ROOT
ATOM      1  C   UNL d   1       5.999  -0.205   2.623  0.00  0.00     0.078 C 
ATOM      2  C1  UNL d   1       4.589  -0.015   2.149  0.00  0.00    -0.077 A 
ATOM      3  C2  UNL d   1       4.311   0.718   0.989  0.00  0.00    -0.001 A 
ATOM      4  C3  UNL d   1       2.993   0.895   0.565  0.00  0.00     0.003 A 
ATOM      5  C4  UNL d   1       1.943   0.344   1.295  0.00  0.00    -0.005 A 
ATOM      6  C5  UNL d   1       2.209  -0.385   2.452  0.00  0.00     0.003 A 
ATOM      7  C6  UNL d   1       3.526  -0.564   2.878  0.00  0.00    -0.001 A 
ENDROOT
TORSDOF 0
ENDMDL
