MODEL 1
REMARK minimizedAffinity 1.59447396
REMARK minimizedRMSD -1
REMARK  0 active torsions:
REMARK  status: ('A' for Active; 'I' for Inactive)
ROOT
ATOM      1  C   UNL d   1       5.999   0.371  -1.413  0.00  0.00     0.078 C 
ATOM      2  C1  UNL d   1       4.820  -0.224  -2.124  0.00  0.00    -0.077 A 
ATOM      3  C2  UNL d   1       4.419   0.250  -3.379  0.00  0.00    -0.001 A 
ATOM      4  C3  UNL d   1       3.314  -0.307  -4.024  0.00  0.00     0.003 A 
ATOM      5  C4  UNL d   1       2.599  -1.340  -3.422  0.00  0.00    -0.005 A 
ATOM      6  C5  UNL d   1       2.989  -1.817  -2.172  0.00  0.00     0.003 A 
ATOM      7  C6  UNL d   1       4.094  -1.261  -1.525  0.00  0.00    -0.001 A 
ENDROOT
TORSDOF 0
ENDMDL
