MODEL 1
REMARK minimizedAffinity 0.456812769
REMARK minimizedRMSD -1
REMARK  0 active torsions:
REMARK  status: ('A' for Active; 'I' for Inactive)
ROOT
ATOM      1  C   UNL d   1      -4.513   0.922   5.712  0.00  0.00     0.078 C 
ATOM      2  C1  UNL d   1      -4.899   0.720   4.277  0.00  0.00    -0.077 A 
ATOM      3  C2  UNL d   1      -5.638   1.689   3.586  0.00  0.00    -0.001 A 
ATOM      4  C3  UNL d   1      -5.999   1.483   2.254  0.00  0.00     0.003 A 
ATOM      5  C4  UNL d   1      -5.627   0.309   1.601  0.00  0.00    -0.005 A 
ATOM      6  C5  UNL d   1      -4.894  -0.661   2.282  0.00  0.00     0.003 A 
ATOM      7  C6  UNL d   1      -4.532  -0.457   3.614  0.00  0.00    -0.001 A 
ENDROOT
TORSDOF 0
ENDMDL
