MODEL 1
REMARK minimizedAffinity 0.0932432786
REMARK minimizedRMSD -1
REMARK  0 active torsions:
REMARK  status: ('A' for Active; 'I' for Inactive)
ROOT
ATOM      1  C   UNL d   1      -4.110   0.699   6.000  0.00  0.00     0.078 C 
ATOM      2  C1  UNL d   1      -3.921  -0.611   5.295  0.00  0.00    -0.077 A 
ATOM      3  C2  UNL d   1      -3.547  -1.762   6.000  0.00  0.00    -0.001 A 
ATOM      4  C3  UNL d   1      -3.366  -2.972   5.329  0.00  0.00     0.003 A 
ATOM      5  C4  UNL d   1      -3.555  -3.044   3.951  0.00  0.00    -0.005 A 
ATOM      6  C5  UNL d   1      -3.925  -1.903   3.241  0.00  0.00     0.003 A 
ATOM      7  C6  UNL d   1      -4.107  -0.692   3.909  0.00  0.00    -0.001 A 
ENDROOT
TORSDOF 0
ENDMDL
