MODEL 1
REMARK minimizedAffinity 0.134041041
REMARK minimizedRMSD -1
REMARK  0 active torsions:
REMARK  status: ('A' for Active; 'I' for Inactive)
ROOT
ATOM      1  C   UNL d   1      -5.953   0.135   2.474  0.00  0.00     0.078 C 
ATOM      2  C1  UNL d   1      -5.611   1.298   3.357  0.00  0.00    -0.077 A 
ATOM      3  C2  UNL d   1      -5.186   1.102   4.676  0.00  0.00    -0.001 A 
ATOM      4  C3  UNL d   1      -4.880   2.194   5.490  0.00  0.00     0.003 A 
ATOM      5  C4  UNL d   1      -4.997   3.491   4.993  0.00  0.00    -0.005 A 
ATOM      6  C5  UNL d   1      -5.421   3.696   3.682  0.00  0.00     0.003 A 
ATOM      7  C6  UNL d   1      -5.727   2.605   2.867  0.00  0.00    -0.001 A 
ENDROOT
TORSDOF 0
ENDMDL
