MODEL 1
REMARK minimizedAffinity -1.01790631
REMARK minimizedRMSD -1
REMARK  1 active torsions:
REMARK  status: ('A' for Active; 'I' for Inactive)
REMARK    1  A    between atoms: C1_2  and  C2_3 
ROOT
ATOM      1  C2  UNL d   1      -0.609  -0.535  -1.331  0.00  0.00    -0.081 A 
ATOM      2  C3  UNL d   1       0.610  -0.301  -0.683  0.00  0.00     0.006 A 
ATOM      3  C4  UNL d   1       0.635   0.228   0.610  0.00  0.00     0.002 A 
ATOM      4  C5  UNL d   1      -0.557   0.524   1.279  0.00  0.00    -0.080 A 
ATOM      5  C6  UNL d   1      -0.546   1.064   2.678  0.00  0.00     0.076 C 
ATOM      6  C7  UNL d   1      -1.775   0.306   0.625  0.00  0.00     0.002 A 
ATOM      7  C8  UNL d   1      -1.800  -0.222  -0.668  0.00  0.00     0.006 A 
ENDROOT
BRANCH   1   8
ATOM      8  C1  UNL d   1      -0.640  -1.166  -2.699  0.00  0.00     0.054 C 
ATOM      9  C   UNL d   1       0.034  -0.277  -3.734  0.00  0.00     0.018 C 
ENDBRANCH   1   8
TORSDOF 1
ENDMDL
