MODEL 1
REMARK minimizedAffinity -4.09565735
REMARK minimizedRMSD -1
REMARK  1 active torsions:
REMARK  status: ('A' for Active; 'I' for Inactive)
REMARK    1  A    between atoms: C1_2  and  C2_3 
ROOT
ATOM      1  C2  UNL d   1       0.011  -0.315  -0.752  0.00  0.00    -0.081 A 
ATOM      2  C3  UNL d   1      -1.341  -0.142  -0.435  0.00  0.00     0.006 A 
ATOM      3  C4  UNL d   1      -1.716   0.417   0.789  0.00  0.00     0.002 A 
ATOM      4  C5  UNL d   1      -0.745   0.820   1.712  0.00  0.00    -0.080 A 
ATOM      5  C6  UNL d   1      -1.132   1.449   3.017  0.00  0.00     0.076 C 
ATOM      6  C7  UNL d   1       0.607   0.631   1.403  0.00  0.00     0.002 A 
ATOM      7  C8  UNL d   1       0.981   0.071   0.179  0.00  0.00     0.006 A 
ENDROOT
BRANCH   1   8
ATOM      8  C1  UNL d   1       0.420  -0.858  -2.098  0.00  0.00     0.054 C 
ATOM      9  C   UNL d   1       0.887   0.255  -3.025  0.00  0.00     0.018 C 
ENDBRANCH   1   8
TORSDOF 1
ENDMDL
