MODEL 1
REMARK minimizedAffinity 12.9715767
REMARK minimizedRMSD -1
REMARK  0 active torsions:
REMARK  status: ('A' for Active; 'I' for Inactive)
ROOT
ATOM      1  C   UNL d   1      -2.232   2.898   1.362  0.00  0.00     0.077 C 
ATOM      2  C1  UNL d   1      -1.675   2.602   0.001  0.00  0.00    -0.074 A 
ATOM      3  C2  UNL d   1      -0.350   2.182  -0.157  0.00  0.00    -0.005 A 
ATOM      4  C3  UNL d   1       0.152   1.901  -1.427  0.00  0.00     0.006 A 
ATOM      5  C4  UNL d   1      -0.664   2.036  -2.551  0.00  0.00    -0.005 A 
ATOM      6  C5  UNL d   1      -1.992   2.454  -2.413  0.00  0.00    -0.074 A 
ATOM      7  C6  UNL d   1      -2.885   2.596  -3.609  0.00  0.00     0.077 C 
ATOM      8  C7  UNL d   1      -2.491   2.728  -1.132  0.00  0.00    -0.001 A 
ENDROOT
TORSDOF 0
ENDMDL
