MODEL 1
REMARK minimizedAffinity 3.50607634
REMARK minimizedRMSD -1
REMARK  0 active torsions:
REMARK  status: ('A' for Active; 'I' for Inactive)
ROOT
ATOM      1  C   UNL d   1      -1.742  -5.298  -4.817  0.00  0.00     0.077 C 
ATOM      2  C1  UNL d   1      -3.224  -5.533  -4.802  0.00  0.00    -0.074 A 
ATOM      3  C2  UNL d   1      -3.944  -5.654  -5.995  0.00  0.00    -0.005 A 
ATOM      4  C3  UNL d   1      -5.320  -5.883  -5.965  0.00  0.00     0.006 A 
ATOM      5  C4  UNL d   1      -5.988  -5.991  -4.745  0.00  0.00    -0.005 A 
ATOM      6  C5  UNL d   1      -5.284  -5.874  -3.542  0.00  0.00    -0.074 A 
ATOM      7  C6  UNL d   1      -5.985  -5.998  -2.222  0.00  0.00     0.077 C 
ATOM      8  C7  UNL d   1      -3.900  -5.652  -3.580  0.00  0.00    -0.001 A 
ENDROOT
TORSDOF 0
ENDMDL
