MODEL 1
REMARK minimizedAffinity 6.31420612
REMARK minimizedRMSD -1
REMARK  0 active torsions:
REMARK  status: ('A' for Active; 'I' for Inactive)
ROOT
ATOM      1  C   UNL d   1       0.407   0.273   3.307  0.00  0.00     0.077 C 
ATOM      2  C1  UNL d   1       0.463   1.555   2.531  0.00  0.00    -0.074 A 
ATOM      3  C2  UNL d   1       1.055   2.700   3.074  0.00  0.00    -0.005 A 
ATOM      4  C3  UNL d   1       1.108   3.882   2.336  0.00  0.00     0.006 A 
ATOM      5  C4  UNL d   1       0.571   3.932   1.049  0.00  0.00    -0.005 A 
ATOM      6  C5  UNL d   1      -0.024   2.797   0.489  0.00  0.00    -0.074 A 
ATOM      7  C6  UNL d   1      -0.597   2.830  -0.897  0.00  0.00     0.077 C 
ATOM      8  C7  UNL d   1      -0.067   1.610   1.234  0.00  0.00    -0.001 A 
ENDROOT
TORSDOF 0
ENDMDL
