MODEL 1
REMARK minimizedAffinity 4.76157951
REMARK minimizedRMSD -1
REMARK  0 active torsions:
REMARK  status: ('A' for Active; 'I' for Inactive)
ROOT
ATOM      1  C   UNL d   1       2.446   3.367   3.972  0.00  0.00     0.077 C 
ATOM      2  C1  UNL d   1       1.303   2.911   3.114  0.00  0.00    -0.074 A 
ATOM      3  C2  UNL d   1       0.456   1.881   3.533  0.00  0.00    -0.005 A 
ATOM      4  C3  UNL d   1      -0.609   1.474   2.728  0.00  0.00     0.006 A 
ATOM      5  C4  UNL d   1      -0.836   2.093   1.498  0.00  0.00    -0.005 A 
ATOM      6  C5  UNL d   1       0.000   3.126   1.063  0.00  0.00    -0.074 A 
ATOM      7  C6  UNL d   1      -0.236   3.808  -0.252  0.00  0.00     0.077 C 
ATOM      8  C7  UNL d   1       1.064   3.533   1.880  0.00  0.00    -0.001 A 
ENDROOT
TORSDOF 0
ENDMDL
