MODEL 1
REMARK minimizedAffinity 3.57091045
REMARK minimizedRMSD -1
REMARK  0 active torsions:
REMARK  status: ('A' for Active; 'I' for Inactive)
ROOT
ATOM      1  C   UNL d   1      -0.391   3.387  -1.286  0.00  0.00     0.077 C 
ATOM      2  C1  UNL d   1      -0.293   3.234   0.203  0.00  0.00    -0.074 A 
ATOM      3  C2  UNL d   1      -1.238   2.486   0.912  0.00  0.00    -0.005 A 
ATOM      4  C3  UNL d   1      -1.128   2.344   2.296  0.00  0.00     0.006 A 
ATOM      5  C4  UNL d   1      -0.074   2.948   2.982  0.00  0.00    -0.005 A 
ATOM      6  C5  UNL d   1       0.881   3.699   2.290  0.00  0.00    -0.074 A 
ATOM      7  C6  UNL d   1       2.025   4.347   3.011  0.00  0.00     0.077 C 
ATOM      8  C7  UNL d   1       0.767   3.831   0.899  0.00  0.00    -0.001 A 
ENDROOT
TORSDOF 0
ENDMDL
