MODEL 1
REMARK minimizedAffinity 5.19161701
REMARK minimizedRMSD -1
REMARK  0 active torsions:
REMARK  status: ('A' for Active; 'I' for Inactive)
ROOT
ATOM      1  C   UNL d   1      -5.346  -1.210   1.774  0.00  0.00     0.077 C 
ATOM      2  C1  UNL d   1      -5.568  -1.364   3.249  0.00  0.00    -0.074 A 
ATOM      3  C2  UNL d   1      -5.763  -0.247   4.067  0.00  0.00    -0.005 A 
ATOM      4  C3  UNL d   1      -5.978  -0.407   5.436  0.00  0.00     0.006 A 
ATOM      5  C4  UNL d   1      -6.000  -1.683   6.000  0.00  0.00    -0.005 A 
ATOM      6  C5  UNL d   1      -5.808  -2.812   5.197  0.00  0.00    -0.074 A 
ATOM      7  C6  UNL d   1      -5.838  -4.191   5.785  0.00  0.00     0.077 C 
ATOM      8  C7  UNL d   1      -5.599  -2.644   3.821  0.00  0.00    -0.001 A 
ENDROOT
TORSDOF 0
ENDMDL
