MODEL 1
REMARK minimizedAffinity -2.35314488
REMARK minimizedRMSD -1
REMARK  0 active torsions:
REMARK  status: ('A' for Active; 'I' for Inactive)
ROOT
ATOM      1  C   UNL d   1       5.213  -5.550  -1.603  0.00  0.00     0.077 C 
ATOM      2  C1  UNL d   1       4.534  -4.228  -1.396  0.00  0.00    -0.074 A 
ATOM      3  C2  UNL d   1       3.436  -3.854  -2.176  0.00  0.00    -0.005 A 
ATOM      4  C3  UNL d   1       2.809  -2.626  -1.966  0.00  0.00     0.006 A 
ATOM      5  C4  UNL d   1       3.273  -1.761  -0.975  0.00  0.00    -0.005 A 
ATOM      6  C5  UNL d   1       4.370  -2.118  -0.183  0.00  0.00    -0.074 A 
ATOM      7  C6  UNL d   1       4.875  -1.204   0.893  0.00  0.00     0.077 C 
ATOM      8  C7  UNL d   1       4.990  -3.357  -0.396  0.00  0.00    -0.001 A 
ENDROOT
TORSDOF 0
ENDMDL
