MODEL 1
REMARK minimizedAffinity 10.4773235
REMARK minimizedRMSD -1
REMARK  0 active torsions:
REMARK  status: ('A' for Active; 'I' for Inactive)
ROOT
ATOM      1  C   UNL d   1       5.543  -5.639   0.009  0.00  0.00     0.077 C 
ATOM      2  C1  UNL d   1       5.160  -4.798  -1.173  0.00  0.00    -0.074 A 
ATOM      3  C2  UNL d   1       5.169  -3.402  -1.094  0.00  0.00    -0.005 A 
ATOM      4  C3  UNL d   1       4.819  -2.633  -2.204  0.00  0.00     0.006 A 
ATOM      5  C4  UNL d   1       4.456  -3.251  -3.401  0.00  0.00    -0.005 A 
ATOM      6  C5  UNL d   1       4.442  -4.646  -3.499  0.00  0.00    -0.074 A 
ATOM      7  C6  UNL d   1       4.064  -5.327  -4.781  0.00  0.00     0.077 C 
ATOM      8  C7  UNL d   1       4.802  -5.412  -2.381  0.00  0.00    -0.001 A 
ENDROOT
TORSDOF 0
ENDMDL
