MODEL 1
REMARK minimizedAffinity -2.63356876
REMARK minimizedRMSD -1
REMARK  0 active torsions:
REMARK  status: ('A' for Active; 'I' for Inactive)
ROOT
ATOM      1  C   UNL d   1       0.334   0.287  -1.713  0.00  0.00     0.078 C 
ATOM      2  C1  UNL d   1       0.038   0.293  -0.243  0.00  0.00    -0.077 A 
ATOM      3  C2  UNL d   1       1.043   0.034   0.697  0.00  0.00    -0.001 A 
ATOM      4  C3  UNL d   1       0.750   0.034   2.062  0.00  0.00     0.003 A 
ATOM      5  C4  UNL d   1      -0.548   0.291   2.499  0.00  0.00    -0.005 A 
ATOM      6  C5  UNL d   1      -1.555   0.548   1.571  0.00  0.00     0.003 A 
ATOM      7  C6  UNL d   1      -1.264   0.549   0.206  0.00  0.00    -0.001 A 
ENDROOT
TORSDOF 0
ENDMDL
