MODEL 1
REMARK minimizedAffinity -2.36602187
REMARK minimizedRMSD -1
REMARK  0 active torsions:
REMARK  status: ('A' for Active; 'I' for Inactive)
ROOT
ATOM      1  C   UNL d   1       0.166   0.487  -1.848  0.00  0.00     0.078 C 
ATOM      2  C1  UNL d   1       0.137   0.357  -0.354  0.00  0.00    -0.077 A 
ATOM      3  C2  UNL d   1       1.305   0.497   0.405  0.00  0.00    -0.001 A 
ATOM      4  C3  UNL d   1       1.265   0.364   1.794  0.00  0.00     0.003 A 
ATOM      5  C4  UNL d   1       0.059   0.089   2.436  0.00  0.00    -0.005 A 
ATOM      6  C5  UNL d   1      -1.108  -0.054   1.689  0.00  0.00     0.003 A 
ATOM      7  C6  UNL d   1      -1.070   0.079   0.300  0.00  0.00    -0.001 A 
ENDROOT
TORSDOF 0
ENDMDL
