MODEL 1
REMARK minimizedAffinity -5.06551075
REMARK minimizedRMSD -1
REMARK  0 active torsions:
REMARK  status: ('A' for Active; 'I' for Inactive)
ROOT
ATOM      1  C   UNL d   1      -1.013  -0.766   3.121  0.00  0.00     0.078 C 
ATOM      2  C1  UNL d   1      -0.976  -0.355   1.679  0.00  0.00    -0.077 A 
ATOM      3  C2  UNL d   1      -2.157  -0.120   0.965  0.00  0.00    -0.001 A 
ATOM      4  C3  UNL d   1      -2.107   0.253  -0.379  0.00  0.00     0.003 A 
ATOM      5  C4  UNL d   1      -0.879   0.392  -1.022  0.00  0.00    -0.005 A 
ATOM      6  C5  UNL d   1       0.302   0.158  -0.320  0.00  0.00     0.003 A 
ATOM      7  C6  UNL d   1       0.254  -0.214   1.024  0.00  0.00    -0.001 A 
ENDROOT
TORSDOF 0
ENDMDL
