MODEL 1
REMARK minimizedAffinity -5.03356743
REMARK minimizedRMSD -1
REMARK  0 active torsions:
REMARK  status: ('A' for Active; 'I' for Inactive)
ROOT
ATOM      1  C   UNL d   1       0.385  -0.262  -0.018  0.00  0.00     0.078 C 
ATOM      2  C1  UNL d   1      -0.604  -0.083   1.096  0.00  0.00    -0.077 A 
ATOM      3  C2  UNL d   1      -1.915   0.332   0.835  0.00  0.00    -0.001 A 
ATOM      4  C3  UNL d   1      -2.822   0.504   1.882  0.00  0.00     0.003 A 
ATOM      5  C4  UNL d   1      -2.427   0.265   3.197  0.00  0.00    -0.005 A 
ATOM      6  C5  UNL d   1      -1.123  -0.146   3.466  0.00  0.00     0.003 A 
ATOM      7  C6  UNL d   1      -0.215  -0.319   2.420  0.00  0.00    -0.001 A 
ENDROOT
TORSDOF 0
ENDMDL
