MODEL 1
REMARK minimizedAffinity -3.54163527
REMARK minimizedRMSD -1
REMARK  0 active torsions:
REMARK  status: ('A' for Active; 'I' for Inactive)
ROOT
ATOM      1  C   UNL d   1      -2.686   0.966   1.814  0.00  0.00     0.078 C 
ATOM      2  C1  UNL d   1      -1.241   0.721   1.496  0.00  0.00    -0.077 A 
ATOM      3  C2  UNL d   1      -0.789   0.689   0.171  0.00  0.00    -0.001 A 
ATOM      4  C3  UNL d   1       0.557   0.450  -0.109  0.00  0.00     0.003 A 
ATOM      5  C4  UNL d   1       1.462   0.240   0.929  0.00  0.00    -0.005 A 
ATOM      6  C5  UNL d   1       1.021   0.267   2.251  0.00  0.00     0.003 A 
ATOM      7  C6  UNL d   1      -0.325   0.506   2.533  0.00  0.00    -0.001 A 
ENDROOT
TORSDOF 0
ENDMDL
