MODEL 1
REMARK minimizedAffinity -4.93291903
REMARK minimizedRMSD -1
REMARK  0 active torsions:
REMARK  status: ('A' for Active; 'I' for Inactive)
ROOT
ATOM      1  C   UNL d   1       0.283   0.256   0.398  0.00  0.00     0.078 C 
ATOM      2  C1  UNL d   1      -0.806   0.306   1.428  0.00  0.00    -0.077 A 
ATOM      3  C2  UNL d   1      -0.577  -0.122   2.741  0.00  0.00    -0.001 A 
ATOM      4  C3  UNL d   1      -1.603  -0.079   3.687  0.00  0.00     0.003 A 
ATOM      5  C4  UNL d   1      -2.865   0.390   3.329  0.00  0.00    -0.005 A 
ATOM      6  C5  UNL d   1      -3.103   0.816   2.024  0.00  0.00     0.003 A 
ATOM      7  C6  UNL d   1      -2.079   0.773   1.077  0.00  0.00    -0.001 A 
ENDROOT
TORSDOF 0
ENDMDL
