MODEL 1
REMARK minimizedAffinity -2.73812127
REMARK minimizedRMSD -1
REMARK  0 active torsions:
REMARK  status: ('A' for Active; 'I' for Inactive)
ROOT
ATOM      1  C   UNL d   1       0.456  -1.464  -3.841  0.00  0.00     0.078 C 
ATOM      2  C1  UNL d   1       0.569  -0.739  -2.533  0.00  0.00    -0.077 A 
ATOM      3  C2  UNL d   1       0.809   0.640  -2.491  0.00  0.00    -0.001 A 
ATOM      4  C3  UNL d   1       0.921   1.300  -1.266  0.00  0.00     0.003 A 
ATOM      5  C4  UNL d   1       0.795   0.589  -0.074  0.00  0.00    -0.005 A 
ATOM      6  C5  UNL d   1       0.559  -0.784  -0.106  0.00  0.00     0.003 A 
ATOM      7  C6  UNL d   1       0.447  -1.446  -1.330  0.00  0.00    -0.001 A 
ENDROOT
TORSDOF 0
ENDMDL
