MODEL 1
REMARK minimizedAffinity -2.61498213
REMARK minimizedRMSD -1
REMARK  0 active torsions:
REMARK  status: ('A' for Active; 'I' for Inactive)
ROOT
ATOM      1  C   UNL d   1      -1.084   0.044   3.399  0.00  0.00     0.078 C 
ATOM      2  C1  UNL d   1      -0.390   0.187   2.078  0.00  0.00    -0.077 A 
ATOM      3  C2  UNL d   1       0.940   0.621   2.005  0.00  0.00    -0.001 A 
ATOM      4  C3  UNL d   1       1.570   0.759   0.767  0.00  0.00     0.003 A 
ATOM      5  C4  UNL d   1       0.879   0.466  -0.407  0.00  0.00    -0.005 A 
ATOM      6  C5  UNL d   1      -0.445   0.036  -0.344  0.00  0.00     0.003 A 
ATOM      7  C6  UNL d   1      -1.077  -0.102   0.892  0.00  0.00    -0.001 A 
ENDROOT
TORSDOF 0
ENDMDL
