MODEL 1
REMARK minimizedAffinity -0.857047617
REMARK minimizedRMSD -1
REMARK  0 active torsions:
REMARK  status: ('A' for Active; 'I' for Inactive)
ROOT
ATOM      1  C   UNL d   1      -1.809  -1.107   2.232  0.00  0.00     0.078 C 
ATOM      2  C1  UNL d   1      -1.238  -0.640   0.926  0.00  0.00    -0.077 A 
ATOM      3  C2  UNL d   1       0.005  -1.104   0.476  0.00  0.00    -0.001 A 
ATOM      4  C3  UNL d   1       0.529  -0.654  -0.736  0.00  0.00     0.003 A 
ATOM      5  C4  UNL d   1      -0.181   0.263  -1.509  0.00  0.00    -0.005 A 
ATOM      6  C5  UNL d   1      -1.417   0.732  -1.068  0.00  0.00     0.003 A 
ATOM      7  C6  UNL d   1      -1.943   0.283   0.145  0.00  0.00    -0.001 A 
ENDROOT
TORSDOF 0
ENDMDL
