MODEL 1
REMARK minimizedAffinity -4.8073163
REMARK minimizedRMSD -1
REMARK  0 active torsions:
REMARK  status: ('A' for Active; 'I' for Inactive)
ROOT
ATOM      1  C   UNL d   1       1.399   0.406  -0.005  0.00  0.00     0.078 C 
ATOM      2  C1  UNL d   1       0.255  -0.025   0.863  0.00  0.00    -0.077 A 
ATOM      3  C2  UNL d   1       0.306   0.129   2.253  0.00  0.00    -0.001 A 
ATOM      4  C3  UNL d   1      -0.763  -0.285   3.050  0.00  0.00     0.003 A 
ATOM      5  C4  UNL d   1      -1.890  -0.859   2.464  0.00  0.00    -0.005 A 
ATOM      6  C5  UNL d   1      -1.949  -1.019   1.082  0.00  0.00     0.003 A 
ATOM      7  C6  UNL d   1      -0.881  -0.605   0.284  0.00  0.00    -0.001 A 
ENDROOT
TORSDOF 0
ENDMDL
