MODEL 1
REMARK minimizedAffinity -2.57775879
REMARK minimizedRMSD -1
REMARK  0 active torsions:
REMARK  status: ('A' for Active; 'I' for Inactive)
ROOT
ATOM      1  C   UNL d   1       1.101  -2.349  -1.389  0.00  0.00     0.078 C 
ATOM      2  C1  UNL d   1       0.384  -1.861  -0.166  0.00  0.00    -0.077 A 
ATOM      3  C2  UNL d   1      -0.486  -2.698   0.543  0.00  0.00    -0.001 A 
ATOM      4  C3  UNL d   1      -1.153  -2.227   1.674  0.00  0.00     0.003 A 
ATOM      5  C4  UNL d   1      -0.959  -0.917   2.106  0.00  0.00    -0.005 A 
ATOM      6  C5  UNL d   1      -0.097  -0.075   1.406  0.00  0.00     0.003 A 
ATOM      7  C6  UNL d   1       0.572  -0.545   0.274  0.00  0.00    -0.001 A 
ENDROOT
TORSDOF 0
ENDMDL
