MODEL 1
REMARK minimizedAffinity -4.25937366
REMARK minimizedRMSD -1
REMARK  0 active torsions:
REMARK  status: ('A' for Active; 'I' for Inactive)
ROOT
ATOM      1  C   UNL d   1       0.966  -0.415  -1.979  0.00  0.00     0.078 C 
ATOM      2  C1  UNL d   1       0.418  -0.139  -0.611  0.00  0.00    -0.077 A 
ATOM      3  C2  UNL d   1       1.121  -0.519   0.539  0.00  0.00    -0.001 A 
ATOM      4  C3  UNL d   1       0.595  -0.264   1.806  0.00  0.00     0.003 A 
ATOM      5  C4  UNL d   1      -0.639   0.372   1.936  0.00  0.00    -0.005 A 
ATOM      6  C5  UNL d   1      -1.347   0.752   0.798  0.00  0.00     0.003 A 
ATOM      7  C6  UNL d   1      -0.822   0.498  -0.470  0.00  0.00    -0.001 A 
ENDROOT
TORSDOF 0
ENDMDL
