MODEL 1
REMARK minimizedAffinity -3.08212614
REMARK minimizedRMSD -1
REMARK  0 active torsions:
REMARK  status: ('A' for Active; 'I' for Inactive)
ROOT
ATOM      1  C   UNL d   1       0.658  -0.207  -1.817  0.00  0.00     0.078 C 
ATOM      2  C1  UNL d   1       0.706   0.014  -0.334  0.00  0.00    -0.077 A 
ATOM      3  C2  UNL d   1       1.817   0.615   0.270  0.00  0.00    -0.001 A 
ATOM      4  C3  UNL d   1       1.851   0.806   1.652  0.00  0.00     0.003 A 
ATOM      5  C4  UNL d   1       0.778   0.397   2.442  0.00  0.00    -0.005 A 
ATOM      6  C5  UNL d   1      -0.331  -0.203   1.850  0.00  0.00     0.003 A 
ATOM      7  C6  UNL d   1      -0.367  -0.395   0.468  0.00  0.00    -0.001 A 
ENDROOT
TORSDOF 0
ENDMDL
