MODEL 1
REMARK minimizedAffinity -2.87178493
REMARK minimizedRMSD -1
REMARK  0 active torsions:
REMARK  status: ('A' for Active; 'I' for Inactive)
ROOT
ATOM      1  C   UNL d   1      -0.425   0.317   3.374  0.00  0.00     0.078 C 
ATOM      2  C1  UNL d   1      -0.431   0.322   1.874  0.00  0.00    -0.077 A 
ATOM      3  C2  UNL d   1       0.754   0.150   1.148  0.00  0.00    -0.001 A 
ATOM      4  C3  UNL d   1       0.734   0.166  -0.248  0.00  0.00     0.003 A 
ATOM      5  C4  UNL d   1      -0.467   0.355  -0.929  0.00  0.00    -0.005 A 
ATOM      6  C5  UNL d   1      -1.650   0.529  -0.214  0.00  0.00     0.003 A 
ATOM      7  C6  UNL d   1      -1.633   0.513   1.181  0.00  0.00    -0.001 A 
ENDROOT
TORSDOF 0
ENDMDL
