MODEL 1
REMARK minimizedAffinity -2.69066954
REMARK minimizedRMSD -1
REMARK  0 active torsions:
REMARK  status: ('A' for Active; 'I' for Inactive)
ROOT
ATOM      1  C   UNL d   1       0.895  -0.195  -1.800  0.00  0.00     0.078 C 
ATOM      2  C1  UNL d   1       0.305   0.009  -0.437  0.00  0.00    -0.077 A 
ATOM      3  C2  UNL d   1       1.105  -0.055   0.711  0.00  0.00    -0.001 A 
ATOM      4  C3  UNL d   1       0.541   0.128   1.975  0.00  0.00     0.003 A 
ATOM      5  C4  UNL d   1      -0.824   0.374   2.103  0.00  0.00    -0.005 A 
ATOM      6  C5  UNL d   1      -1.628   0.437   0.967  0.00  0.00     0.003 A 
ATOM      7  C6  UNL d   1      -1.066   0.255  -0.298  0.00  0.00    -0.001 A 
ENDROOT
TORSDOF 0
ENDMDL
