MODEL 1
REMARK minimizedAffinity 2.94809937
REMARK minimizedRMSD -1
REMARK  1 active torsions:
REMARK  status: ('A' for Active; 'I' for Inactive)
REMARK    1  A    between atoms: C1_2  and  C2_3 
ROOT
ATOM      1  C2  UNL d   1       2.586  -5.930  -3.063  0.00  0.00    -0.081 A 
ATOM      2  C3  UNL d   1       3.815  -5.916  -2.392  0.00  0.00     0.006 A 
ATOM      3  C4  UNL d   1       3.860  -5.922  -0.996  0.00  0.00     0.002 A 
ATOM      4  C5  UNL d   1       2.678  -5.951  -0.248  0.00  0.00    -0.080 A 
ATOM      5  C6  UNL d   1       2.713  -5.989   1.251  0.00  0.00     0.076 C 
ATOM      6  C7  UNL d   1       1.450  -5.948  -0.918  0.00  0.00     0.002 A 
ATOM      7  C8  UNL d   1       1.404  -5.941  -2.314  0.00  0.00     0.006 A 
ENDROOT
BRANCH   1   8
ATOM      8  C1  UNL d   1       2.535  -5.989  -4.568  0.00  0.00     0.054 C 
ATOM      9  C   UNL d   1       3.921  -5.826  -5.176  0.00  0.00     0.018 C 
ENDBRANCH   1   8
TORSDOF 1
ENDMDL
