MODEL 1
REMARK minimizedAffinity 3.52668977
REMARK minimizedRMSD -1
REMARK  1 active torsions:
REMARK  status: ('A' for Active; 'I' for Inactive)
REMARK    1  A    between atoms: C1_2  and  C2_3 
ROOT
ATOM      1  C2  UNL d   1       5.294  -4.685  -3.848  0.00  0.00    -0.081 A 
ATOM      2  C3  UNL d   1       5.277  -3.591  -2.975  0.00  0.00     0.006 A 
ATOM      3  C4  UNL d   1       4.681  -3.699  -1.716  0.00  0.00     0.002 A 
ATOM      4  C5  UNL d   1       4.100  -4.905  -1.307  0.00  0.00    -0.080 A 
ATOM      5  C6  UNL d   1       3.484  -5.044   0.053  0.00  0.00     0.076 C 
ATOM      6  C7  UNL d   1       4.103  -5.993  -2.187  0.00  0.00     0.002 A 
ATOM      7  C8  UNL d   1       4.698  -5.885  -3.446  0.00  0.00     0.006 A 
ENDROOT
BRANCH   1   8
ATOM      8  C1  UNL d   1       5.993  -4.590  -5.181  0.00  0.00     0.054 C 
ATOM      9  C   UNL d   1       5.817  -5.868  -5.990  0.00  0.00     0.018 C 
ENDBRANCH   1   8
TORSDOF 1
ENDMDL
