MODEL 1
REMARK minimizedAffinity 3.79028225
REMARK minimizedRMSD -1
REMARK  1 active torsions:
REMARK  status: ('A' for Active; 'I' for Inactive)
REMARK    1  A    between atoms: C1_2  and  C2_3 
ROOT
ATOM      1  C2  UNL d   1       3.789  -5.935  -4.384  0.00  0.00    -0.081 A 
ATOM      2  C3  UNL d   1       2.430  -5.960  -4.048  0.00  0.00     0.006 A 
ATOM      3  C4  UNL d   1       2.031  -5.993  -2.710  0.00  0.00     0.002 A 
ATOM      4  C5  UNL d   1       2.984  -5.994  -1.686  0.00  0.00    -0.080 A 
ATOM      5  C6  UNL d   1       2.570  -6.000  -0.244  0.00  0.00     0.076 C 
ATOM      6  C7  UNL d   1       4.343  -5.987  -2.022  0.00  0.00     0.002 A 
ATOM      7  C8  UNL d   1       4.741  -5.954  -3.360  0.00  0.00     0.006 A 
ENDROOT
BRANCH   1   8
ATOM      8  C1  UNL d   1       4.220  -5.833  -5.825  0.00  0.00     0.054 C 
ATOM      9  C   UNL d   1       5.728  -5.661  -5.940  0.00  0.00     0.018 C 
ENDBRANCH   1   8
TORSDOF 1
ENDMDL
