MODEL 1
REMARK minimizedAffinity -0.892266631
REMARK minimizedRMSD -1
REMARK  1 active torsions:
REMARK  status: ('A' for Active; 'I' for Inactive)
REMARK    1  A    between atoms: C1_2  and  C2_3 
ROOT
ATOM      1  C2  UNL d   1       2.508  -5.988  -4.182  0.00  0.00    -0.081 A 
ATOM      2  C3  UNL d   1       1.436  -5.998  -3.281  0.00  0.00     0.006 A 
ATOM      3  C4  UNL d   1       1.668  -5.997  -1.904  0.00  0.00     0.002 A 
ATOM      4  C5  UNL d   1       2.975  -5.979  -1.405  0.00  0.00    -0.080 A 
ATOM      5  C6  UNL d   1       3.239  -5.948   0.072  0.00  0.00     0.076 C 
ATOM      6  C7  UNL d   1       4.046  -5.987  -2.305  0.00  0.00     0.002 A 
ATOM      7  C8  UNL d   1       3.814  -5.988  -3.682  0.00  0.00     0.006 A 
ENDROOT
BRANCH   1   8
ATOM      8  C1  UNL d   1       2.260  -5.923  -5.668  0.00  0.00     0.054 C 
ATOM      9  C   UNL d   1       0.772  -5.988  -5.984  0.00  0.00     0.018 C 
ENDBRANCH   1   8
TORSDOF 1
ENDMDL
