MODEL 1
REMARK minimizedAffinity 2.54295111
REMARK minimizedRMSD -1
REMARK  1 active torsions:
REMARK  status: ('A' for Active; 'I' for Inactive)
REMARK    1  A    between atoms: C1_2  and  C2_3 
ROOT
ATOM      1  C2  UNL d   1       3.876  -4.867  -3.722  0.00  0.00    -0.081 A 
ATOM      2  C3  UNL d   1       3.421  -5.050  -2.411  0.00  0.00     0.006 A 
ATOM      3  C4  UNL d   1       3.410  -3.983  -1.509  0.00  0.00     0.002 A 
ATOM      4  C5  UNL d   1       3.847  -2.715  -1.906  0.00  0.00    -0.080 A 
ATOM      5  C6  UNL d   1       3.812  -1.554  -0.956  0.00  0.00     0.076 C 
ATOM      6  C7  UNL d   1       4.318  -2.535  -3.211  0.00  0.00     0.002 A 
ATOM      7  C8  UNL d   1       4.329  -3.602  -4.112  0.00  0.00     0.006 A 
ENDROOT
BRANCH   1   8
ATOM      8  C1  UNL d   1       3.828  -5.999  -4.716  0.00  0.00     0.054 C 
ATOM      9  C   UNL d   1       2.548  -5.960  -5.539  0.00  0.00     0.018 C 
ENDBRANCH   1   8
TORSDOF 1
ENDMDL
