MODEL 1
REMARK minimizedAffinity 3.01455379
REMARK minimizedRMSD -1
REMARK  1 active torsions:
REMARK  status: ('A' for Active; 'I' for Inactive)
REMARK    1  A    between atoms: C1_2  and  C2_3 
ROOT
ATOM      1  C2  UNL d   1       3.119  -5.917  -3.800  0.00  0.00    -0.081 A 
ATOM      2  C3  UNL d   1       4.324  -5.863  -3.088  0.00  0.00     0.006 A 
ATOM      3  C4  UNL d   1       4.323  -5.877  -1.691  0.00  0.00     0.002 A 
ATOM      4  C5  UNL d   1       3.118  -5.953  -0.983  0.00  0.00    -0.080 A 
ATOM      5  C6  UNL d   1       3.104  -6.000   0.516  0.00  0.00     0.076 C 
ATOM      6  C7  UNL d   1       1.914  -5.989  -1.694  0.00  0.00     0.002 A 
ATOM      7  C8  UNL d   1       1.915  -5.975  -3.091  0.00  0.00     0.006 A 
ENDROOT
BRANCH   1   8
ATOM      8  C1  UNL d   1       3.121  -5.967  -5.306  0.00  0.00     0.054 C 
ATOM      9  C   UNL d   1       1.709  -5.862  -5.865  0.00  0.00     0.018 C 
ENDBRANCH   1   8
TORSDOF 1
ENDMDL
