MODEL 1
REMARK minimizedAffinity 14.535059
REMARK minimizedRMSD -1
REMARK  1 active torsions:
REMARK  status: ('A' for Active; 'I' for Inactive)
REMARK    1  A    between atoms: C1_2  and  C2_3 
ROOT
ATOM      1  C2  UNL d   1       1.472  -4.652   3.913  0.00  0.00    -0.081 A 
ATOM      2  C3  UNL d   1       0.737  -3.507   4.245  0.00  0.00     0.006 A 
ATOM      3  C4  UNL d   1       1.054  -2.272   3.673  0.00  0.00     0.002 A 
ATOM      4  C5  UNL d   1       2.104  -2.164   2.755  0.00  0.00    -0.080 A 
ATOM      5  C6  UNL d   1       2.435  -0.850   2.110  0.00  0.00     0.076 C 
ATOM      6  C7  UNL d   1       2.849  -3.304   2.437  0.00  0.00     0.002 A 
ATOM      7  C8  UNL d   1       2.533  -4.539   3.009  0.00  0.00     0.006 A 
ENDROOT
BRANCH   1   8
ATOM      8  C1  UNL d   1       1.092  -5.996   4.479  0.00  0.00     0.054 C 
ATOM      9  C   UNL d   1       0.695  -5.888   5.945  0.00  0.00     0.018 C 
ENDBRANCH   1   8
TORSDOF 1
ENDMDL
