MODEL 1
REMARK minimizedAffinity 3.66590452
REMARK minimizedRMSD -1
REMARK  1 active torsions:
REMARK  status: ('A' for Active; 'I' for Inactive)
REMARK    1  A    between atoms: C1_2  and  C2_3 
ROOT
ATOM      1  C2  UNL d   1      -1.153  -3.055  -0.532  0.00  0.00    -0.081 A 
ATOM      2  C3  UNL d   1      -2.186  -3.967  -0.781  0.00  0.00     0.006 A 
ATOM      3  C4  UNL d   1      -3.186  -3.669  -1.710  0.00  0.00     0.002 A 
ATOM      4  C5  UNL d   1      -3.164  -2.458  -2.412  0.00  0.00    -0.080 A 
ATOM      5  C6  UNL d   1      -4.214  -2.139  -3.434  0.00  0.00     0.076 C 
ATOM      6  C7  UNL d   1      -2.142  -1.540  -2.151  0.00  0.00     0.002 A 
ATOM      7  C8  UNL d   1      -1.143  -1.837  -1.221  0.00  0.00     0.006 A 
ENDROOT
BRANCH   1   8
ATOM      8  C1  UNL d   1      -0.039  -3.401   0.422  0.00  0.00     0.054 C 
ATOM      9  C   UNL d   1       0.551  -2.151   1.060  0.00  0.00     0.018 C 
ENDBRANCH   1   8
TORSDOF 1
ENDMDL
