MODEL 1
REMARK minimizedAffinity 3.74726725
REMARK minimizedRMSD -1
REMARK  0 active torsions:
REMARK  status: ('A' for Active; 'I' for Inactive)
ROOT
ATOM      1  C   UNL d   1       5.480   4.407  -5.995  0.00  0.00     0.020 A 
ATOM      2  C1  UNL d   1       4.100   4.604  -5.996  0.00  0.00     0.020 A 
ATOM      3  C2  UNL d   1       3.238   3.505  -5.998  0.00  0.00     0.034 A 
ATOM      4  C3  UNL d   1       3.756   2.205  -5.998  0.00  0.00     0.017 A 
ATOM      5  C4  UNL d   1       5.141   2.008  -5.997  0.00  0.00     0.017 A 
ATOM      6  C5  UNL d   1       6.000   3.112  -5.996  0.00  0.00     0.034 A 
ATOM      7 Cl   UNL d   1       5.854   0.434  -5.998  0.00  0.00    -0.070 Cl
ATOM      8 Cl1  UNL d   1       2.631   0.893  -6.000  0.00  0.00    -0.070 Cl
ENDROOT
TORSDOF 0
ENDMDL
