MODEL 1
REMARK minimizedAffinity 11.1981401
REMARK minimizedRMSD -1
REMARK  0 active torsions:
REMARK  status: ('A' for Active; 'I' for Inactive)
ROOT
ATOM      1  C   UNL d   1       4.713   2.040  -5.898  0.00  0.00     0.020 A 
ATOM      2  C1  UNL d   1       5.271   0.766  -6.000  0.00  0.00     0.020 A 
ATOM      3  C2  UNL d   1       5.549   0.032  -4.845  0.00  0.00     0.034 A 
ATOM      4  C3  UNL d   1       5.271   0.571  -3.584  0.00  0.00     0.017 A 
ATOM      5  C4  UNL d   1       4.711   1.850  -3.483  0.00  0.00     0.017 A 
ATOM      6  C5  UNL d   1       4.434   2.581  -4.643  0.00  0.00     0.034 A 
ATOM      7 Cl   UNL d   1       4.340   2.582  -1.962  0.00  0.00    -0.070 Cl
ATOM      8 Cl1  UNL d   1       5.641  -0.392  -2.198  0.00  0.00    -0.070 Cl
ENDROOT
TORSDOF 0
ENDMDL
