MODEL 1
REMARK minimizedAffinity 3.72525287
REMARK minimizedRMSD -1
REMARK  0 active torsions:
REMARK  status: ('A' for Active; 'I' for Inactive)
ROOT
ATOM      1  C   UNL d   1       0.095   3.734   0.840  0.00  0.00     0.020 A 
ATOM      2  C1  UNL d   1      -0.791   4.352  -0.041  0.00  0.00     0.020 A 
ATOM      3  C2  UNL d   1      -2.106   3.894  -0.144  0.00  0.00     0.034 A 
ATOM      4  C3  UNL d   1      -2.539   2.815   0.634  0.00  0.00     0.017 A 
ATOM      5  C4  UNL d   1      -1.649   2.195   1.519  0.00  0.00     0.017 A 
ATOM      6  C5  UNL d   1      -0.333   2.658   1.618  0.00  0.00     0.034 A 
ATOM      7 Cl   UNL d   1      -2.110   0.858   2.513  0.00  0.00    -0.070 Cl
ATOM      8 Cl1  UNL d   1      -4.179   2.301   0.455  0.00  0.00    -0.070 Cl
ENDROOT
TORSDOF 0
ENDMDL
