MODEL 1
REMARK minimizedAffinity -1.37978029
REMARK minimizedRMSD -1
REMARK  0 active torsions:
REMARK  status: ('A' for Active; 'I' for Inactive)
ROOT
ATOM      1  C   UNL d   1       5.997   0.297  -5.951  0.00  0.00     0.020 A 
ATOM      2  C1  UNL d   1       6.000  -0.400  -4.744  0.00  0.00     0.020 A 
ATOM      3  C2  UNL d   1       5.664   0.256  -3.558  0.00  0.00     0.034 A 
ATOM      4  C3  UNL d   1       5.325   1.614  -3.576  0.00  0.00     0.017 A 
ATOM      5  C4  UNL d   1       5.323   2.313  -4.789  0.00  0.00     0.017 A 
ATOM      6  C5  UNL d   1       5.659   1.651  -5.973  0.00  0.00     0.034 A 
ATOM      7 Cl   UNL d   1       4.915   3.990  -4.891  0.00  0.00    -0.070 Cl
ATOM      8 Cl1  UNL d   1       4.921   2.362  -2.072  0.00  0.00    -0.070 Cl
ENDROOT
TORSDOF 0
ENDMDL
