MODEL 1
REMARK minimizedAffinity 10.3876467
REMARK minimizedRMSD -1
REMARK  0 active torsions:
REMARK  status: ('A' for Active; 'I' for Inactive)
ROOT
ATOM      1  C   UNL d   1      -1.770  -3.903  -1.273  0.00  0.00     0.020 A 
ATOM      2  C1  UNL d   1      -0.713  -3.276  -1.930  0.00  0.00     0.020 A 
ATOM      3  C2  UNL d   1       0.004  -2.262  -1.290  0.00  0.00     0.034 A 
ATOM      4  C3  UNL d   1      -0.337  -1.873   0.011  0.00  0.00     0.017 A 
ATOM      5  C4  UNL d   1      -1.399  -2.503   0.669  0.00  0.00     0.017 A 
ATOM      6  C5  UNL d   1      -2.112  -3.518   0.024  0.00  0.00     0.034 A 
ATOM      7 Cl   UNL d   1      -1.878  -2.077   2.274  0.00  0.00    -0.070 Cl
ATOM      8 Cl1  UNL d   1       0.592  -0.612   0.741  0.00  0.00    -0.070 Cl
ENDROOT
TORSDOF 0
ENDMDL
