MODEL 1
REMARK minimizedAffinity 6.3467021
REMARK minimizedRMSD -1
REMARK  0 active torsions:
REMARK  status: ('A' for Active; 'I' for Inactive)
ROOT
ATOM      1  C   UNL d   1       1.750   2.248   1.880  0.00  0.00     0.020 A 
ATOM      2  C1  UNL d   1       1.442   3.081   0.805  0.00  0.00     0.020 A 
ATOM      3  C2  UNL d   1       0.109   3.358   0.496  0.00  0.00     0.034 A 
ATOM      4  C3  UNL d   1      -0.921   2.802   1.263  0.00  0.00     0.017 A 
ATOM      5  C4  UNL d   1      -0.611   1.966   2.342  0.00  0.00     0.017 A 
ATOM      6  C5  UNL d   1       0.726   1.692   2.647  0.00  0.00     0.034 A 
ATOM      7 Cl   UNL d   1      -1.828   1.243   3.334  0.00  0.00    -0.070 Cl
ATOM      8 Cl1  UNL d   1      -2.548   3.187   0.824  0.00  0.00    -0.070 Cl
ENDROOT
TORSDOF 0
ENDMDL
