MODEL 1
REMARK minimizedAffinity 14.5505438
REMARK minimizedRMSD -1
REMARK  0 active torsions:
REMARK  status: ('A' for Active; 'I' for Inactive)
ROOT
ATOM      1  C   UNL d   1       1.600   2.639   0.791  0.00  0.00     0.020 A 
ATOM      2  C1  UNL d   1       1.614   1.300   1.181  0.00  0.00     0.020 A 
ATOM      3  C2  UNL d   1       0.426   0.671   1.558  0.00  0.00     0.034 A 
ATOM      4  C3  UNL d   1      -0.781   1.380   1.546  0.00  0.00     0.017 A 
ATOM      5  C4  UNL d   1      -0.793   2.724   1.154  0.00  0.00     0.017 A 
ATOM      6  C5  UNL d   1       0.399   3.349   0.778  0.00  0.00     0.034 A 
ATOM      7 Cl   UNL d   1      -2.243   3.664   1.114  0.00  0.00    -0.070 Cl
ATOM      8 Cl1  UNL d   1      -2.212   0.539   2.024  0.00  0.00    -0.070 Cl
ENDROOT
TORSDOF 0
ENDMDL
