MODEL 1
REMARK minimizedAffinity 9.35278702
REMARK minimizedRMSD -1
REMARK  0 active torsions:
REMARK  status: ('A' for Active; 'I' for Inactive)
ROOT
ATOM      1  C   UNL d   1      -1.351   4.371  -2.736  0.00  0.00     0.020 A 
ATOM      2  C1  UNL d   1      -1.807   3.053  -2.752  0.00  0.00     0.020 A 
ATOM      3  C2  UNL d   1      -2.663   2.623  -3.769  0.00  0.00     0.034 A 
ATOM      4  C3  UNL d   1      -3.065   3.511  -4.773  0.00  0.00     0.017 A 
ATOM      5  C4  UNL d   1      -2.607   4.833  -4.756  0.00  0.00     0.017 A 
ATOM      6  C5  UNL d   1      -1.750   5.258  -3.736  0.00  0.00     0.034 A 
ATOM      7 Cl   UNL d   1      -3.060   5.986  -5.961  0.00  0.00    -0.070 Cl
ATOM      8 Cl1  UNL d   1      -4.124   2.910  -5.999  0.00  0.00    -0.070 Cl
ENDROOT
TORSDOF 0
ENDMDL
