MODEL 1
REMARK minimizedAffinity 7.36979628
REMARK minimizedRMSD -1
REMARK  0 active torsions:
REMARK  status: ('A' for Active; 'I' for Inactive)
ROOT
ATOM      1  C   UNL d   1      -1.677  -3.578  -0.649  0.00  0.00     0.020 A 
ATOM      2  C1  UNL d   1      -0.440  -2.971  -0.860  0.00  0.00     0.020 A 
ATOM      3  C2  UNL d   1       0.294  -3.264  -2.011  0.00  0.00     0.034 A 
ATOM      4  C3  UNL d   1      -0.208  -4.167  -2.956  0.00  0.00     0.017 A 
ATOM      5  C4  UNL d   1      -1.450  -4.776  -2.743  0.00  0.00     0.017 A 
ATOM      6  C5  UNL d   1      -2.181  -4.478  -1.589  0.00  0.00     0.034 A 
ATOM      7 Cl   UNL d   1      -2.135  -5.900  -3.863  0.00  0.00    -0.070 Cl
ATOM      8 Cl1  UNL d   1       0.754  -4.483  -4.356  0.00  0.00    -0.070 Cl
ENDROOT
TORSDOF 0
ENDMDL
