MODEL 1
REMARK minimizedAffinity 11.7751513
REMARK minimizedRMSD -1
REMARK  0 active torsions:
REMARK  status: ('A' for Active; 'I' for Inactive)
ROOT
ATOM      1  C   UNL d   1      -1.632  -4.325  -1.451  0.00  0.00     0.020 A 
ATOM      2  C1  UNL d   1      -0.722  -3.581  -2.202  0.00  0.00     0.020 A 
ATOM      3  C2  UNL d   1      -0.113  -2.455  -1.643  0.00  0.00     0.034 A 
ATOM      4  C3  UNL d   1      -0.413  -2.070  -0.332  0.00  0.00     0.017 A 
ATOM      5  C4  UNL d   1      -1.327  -2.818   0.420  0.00  0.00     0.017 A 
ATOM      6  C5  UNL d   1      -1.933  -3.944  -0.143  0.00  0.00     0.034 A 
ATOM      7 Cl   UNL d   1      -1.747  -2.405   2.045  0.00  0.00    -0.070 Cl
ATOM      8 Cl1  UNL d   1       0.377  -0.667   0.295  0.00  0.00    -0.070 Cl
ENDROOT
TORSDOF 0
ENDMDL
