MODEL 1
REMARK minimizedAffinity 4.11529493
REMARK minimizedRMSD -1
REMARK  0 active torsions:
REMARK  status: ('A' for Active; 'I' for Inactive)
ROOT
ATOM      1  C   UNL d   1       2.209  -5.294  -6.000  0.00  0.00     0.020 A 
ATOM      2  C1  UNL d   1       3.292  -5.832  -5.306  0.00  0.00     0.020 A 
ATOM      3  C2  UNL d   1       3.237  -5.962  -3.917  0.00  0.00     0.034 A 
ATOM      4  C3  UNL d   1       2.095  -5.555  -3.217  0.00  0.00     0.017 A 
ATOM      5  C4  UNL d   1       1.008  -5.016  -3.914  0.00  0.00     0.017 A 
ATOM      6  C5  UNL d   1       1.069  -4.887  -5.305  0.00  0.00     0.034 A 
ATOM      7 Cl   UNL d   1      -0.435  -4.491  -3.120  0.00  0.00    -0.070 Cl
ATOM      8 Cl1  UNL d   1       2.095  -5.746  -1.500  0.00  0.00    -0.070 Cl
ENDROOT
TORSDOF 0
ENDMDL
