MODEL 1
REMARK minimizedAffinity 8.04078007
REMARK minimizedRMSD -1
REMARK  0 active torsions:
REMARK  status: ('A' for Active; 'I' for Inactive)
ROOT
ATOM      1  C   UNL d   1      -0.672  -3.050  -2.196  0.00  0.00     0.020 A 
ATOM      2  C1  UNL d   1      -1.392  -4.010  -1.484  0.00  0.00     0.020 A 
ATOM      3  C2  UNL d   1      -1.669  -3.812  -0.130  0.00  0.00     0.034 A 
ATOM      4  C3  UNL d   1      -1.228  -2.652   0.517  0.00  0.00     0.017 A 
ATOM      5  C4  UNL d   1      -0.506  -1.690  -0.198  0.00  0.00     0.017 A 
ATOM      6  C5  UNL d   1      -0.230  -1.893  -1.554  0.00  0.00     0.034 A 
ATOM      7 Cl   UNL d   1       0.072  -0.233   0.532  0.00  0.00    -0.070 Cl
ATOM      8 Cl1  UNL d   1      -1.607  -2.473   2.193  0.00  0.00    -0.070 Cl
ENDROOT
TORSDOF 0
ENDMDL
