MODEL 1
REMARK minimizedAffinity 6.10824728
REMARK minimizedRMSD -1
REMARK  0 active torsions:
REMARK  status: ('A' for Active; 'I' for Inactive)
ROOT
ATOM      1  C   UNL d   1      -1.957   2.294   3.320  0.00  0.00     0.020 A 
ATOM      2  C1  UNL d   1      -0.817   1.502   3.452  0.00  0.00     0.020 A 
ATOM      3  C2  UNL d   1       0.121   1.451   2.418  0.00  0.00     0.034 A 
ATOM      4  C3  UNL d   1      -0.080   2.192   1.248  0.00  0.00     0.017 A 
ATOM      5  C4  UNL d   1      -1.224   2.987   1.117  0.00  0.00     0.017 A 
ATOM      6  C5  UNL d   1      -2.160   3.034   2.155  0.00  0.00     0.034 A 
ATOM      7 Cl   UNL d   1      -1.541   3.930  -0.297  0.00  0.00    -0.070 Cl
ATOM      8 Cl1  UNL d   1       1.121   2.081   0.011  0.00  0.00    -0.070 Cl
ENDROOT
TORSDOF 0
ENDMDL
