MODEL 1
REMARK minimizedAffinity 8.73477745
REMARK minimizedRMSD -1
REMARK  0 active torsions:
REMARK  status: ('A' for Active; 'I' for Inactive)
ROOT
ATOM      1  C   UNL d   1      -5.380   2.362  -0.907  0.00  0.00     0.020 A 
ATOM      2  C1  UNL d   1      -4.869   2.861   0.291  0.00  0.00     0.020 A 
ATOM      3  C2  UNL d   1      -3.711   3.641   0.286  0.00  0.00     0.034 A 
ATOM      4  C3  UNL d   1      -3.060   3.925  -0.920  0.00  0.00     0.017 A 
ATOM      5  C4  UNL d   1      -3.573   3.424  -2.122  0.00  0.00     0.017 A 
ATOM      6  C5  UNL d   1      -4.733   2.643  -2.111  0.00  0.00     0.034 A 
ATOM      7 Cl   UNL d   1      -2.824   3.732  -3.649  0.00  0.00    -0.070 Cl
ATOM      8 Cl1  UNL d   1      -1.632   4.897  -0.852  0.00  0.00    -0.070 Cl
ENDROOT
TORSDOF 0
ENDMDL
