MODEL 1
REMARK minimizedAffinity -1.69933069
REMARK minimizedRMSD -1
REMARK  0 active torsions:
REMARK  status: ('A' for Active; 'I' for Inactive)
ROOT
ATOM      1  C   UNL d   1       5.738   4.815  -5.758  0.00  0.00     0.020 A 
ATOM      2  C1  UNL d   1       4.429   5.258  -5.947  0.00  0.00     0.020 A 
ATOM      3  C2  UNL d   1       3.381   4.336  -5.999  0.00  0.00     0.034 A 
ATOM      4  C3  UNL d   1       3.640   2.968  -5.861  0.00  0.00     0.017 A 
ATOM      5  C4  UNL d   1       4.953   2.524  -5.671  0.00  0.00     0.017 A 
ATOM      6  C5  UNL d   1       5.999   3.451  -5.620  0.00  0.00     0.034 A 
ATOM      7 Cl   UNL d   1       5.351   0.852  -5.493  0.00  0.00    -0.070 Cl
ATOM      8 Cl1  UNL d   1       2.295   1.885  -5.935  0.00  0.00    -0.070 Cl
ENDROOT
TORSDOF 0
ENDMDL
