MODEL 1
REMARK minimizedAffinity 4.00106955
REMARK minimizedRMSD -1
REMARK  0 active torsions:
REMARK  status: ('A' for Active; 'I' for Inactive)
ROOT
ATOM      1  C   UNL d   1       5.440   0.077  -4.816  0.00  0.00     0.020 A 
ATOM      2  C1  UNL d   1       6.000   0.744  -5.905  0.00  0.00     0.020 A 
ATOM      3  C2  UNL d   1       5.900   2.134  -5.999  0.00  0.00     0.034 A 
ATOM      4  C3  UNL d   1       5.239   2.861  -5.002  0.00  0.00     0.017 A 
ATOM      5  C4  UNL d   1       4.677   2.190  -3.909  0.00  0.00     0.017 A 
ATOM      6  C5  UNL d   1       4.781   0.799  -3.820  0.00  0.00     0.034 A 
ATOM      7 Cl   UNL d   1       3.847   3.019  -2.640  0.00  0.00    -0.070 Cl
ATOM      8 Cl1  UNL d   1       5.153   4.577  -5.182  0.00  0.00    -0.070 Cl
ENDROOT
TORSDOF 0
ENDMDL
