MODEL 1
REMARK minimizedAffinity 9.81684971
REMARK minimizedRMSD -1
REMARK  0 active torsions:
REMARK  status: ('A' for Active; 'I' for Inactive)
ROOT
ATOM      1  C   UNL d   1      -0.898  -3.805  -1.065  0.00  0.00     0.020 A 
ATOM      2  C1  UNL d   1      -0.962  -3.471  -2.417  0.00  0.00     0.020 A 
ATOM      3  C2  UNL d   1      -0.690  -2.164  -2.827  0.00  0.00     0.034 A 
ATOM      4  C3  UNL d   1      -0.354  -1.186  -1.883  0.00  0.00     0.017 A 
ATOM      5  C4  UNL d   1      -0.291  -1.523  -0.526  0.00  0.00     0.017 A 
ATOM      6  C5  UNL d   1      -0.563  -2.833  -0.122  0.00  0.00     0.034 A 
ATOM      7 Cl   UNL d   1       0.117  -0.371   0.696  0.00  0.00    -0.070 Cl
ATOM      8 Cl1  UNL d   1      -0.030   0.410  -2.461  0.00  0.00    -0.070 Cl
ENDROOT
TORSDOF 0
ENDMDL
