MODEL 1
REMARK minimizedAffinity -2.01867199
REMARK minimizedRMSD -1
REMARK  0 active torsions:
REMARK  status: ('A' for Active; 'I' for Inactive)
ROOT
ATOM      1  O1  BZF d   1       1.029   1.323   0.462  0.00  0.00    -0.204 OA
ATOM      2  C2  BZF d   1      -0.077   2.021   0.906  0.00  0.00     0.174 A 
ATOM      3  C3  BZF d   1      -1.215   1.399   0.537  0.00  0.00    -0.012 A 
ATOM      4  C3A BZF d   1      -0.793   0.191  -0.104  0.00  0.00    -0.107 A 
ATOM      5  C4  BZF d   1      -1.463  -0.855  -0.671  0.00  0.00     0.055 A 
ATOM      6  C5  BZF d   1      -0.754  -1.844  -1.276  0.00  0.00    -0.016 A 
ATOM      7  C6  BZF d   1       0.624  -1.817  -1.335  0.00  0.00     0.022 A 
ATOM      8  C7  BZF d   1       1.333  -0.804  -0.781  0.00  0.00     0.029 A 
ATOM      9  C7A BZF d   1       0.620   0.181  -0.141  0.00  0.00     0.058 A 
ENDROOT
TORSDOF 0
ENDMDL
