MODEL 1
REMARK minimizedAffinity -5.36796904
REMARK minimizedRMSD -1
REMARK  0 active torsions:
REMARK  status: ('A' for Active; 'I' for Inactive)
ROOT
ATOM      1  O1  BZF d   1       1.054  -0.169  -1.024  0.00  0.00    -0.204 OA
ATOM      2  C2  BZF d   1       0.039  -1.104  -0.959  0.00  0.00     0.174 A 
ATOM      3  C3  BZF d   1      -0.793  -0.835   0.069  0.00  0.00    -0.012 A 
ATOM      4  C3A BZF d   1      -0.316   0.393   0.627  0.00  0.00    -0.107 A 
ATOM      5  C4  BZF d   1      -0.736   1.179   1.662  0.00  0.00     0.055 A 
ATOM      6  C5  BZF d   1      -0.007   2.276   1.996  0.00  0.00    -0.016 A 
ATOM      7  C6  BZF d   1       1.148   2.613   1.322  0.00  0.00     0.022 A 
ATOM      8  C7  BZF d   1       1.601   1.867   0.285  0.00  0.00     0.029 A 
ATOM      9  C7A BZF d   1       0.849   0.776  -0.076  0.00  0.00     0.058 A 
ENDROOT
TORSDOF 0
ENDMDL
