MODEL 1
REMARK minimizedAffinity -4.63948727
REMARK minimizedRMSD -1
REMARK  0 active torsions:
REMARK  status: ('A' for Active; 'I' for Inactive)
ROOT
ATOM      1  O1  BZF d   1       2.674   0.833  -0.639  0.00  0.00    -0.204 OA
ATOM      2  C2  BZF d   1       3.337   1.892  -0.049  0.00  0.00     0.174 A 
ATOM      3  C3  BZF d   1       2.570   2.469   0.898  0.00  0.00    -0.012 A 
ATOM      4  C3A BZF d   1       1.387   1.667   0.964  0.00  0.00    -0.107 A 
ATOM      5  C4  BZF d   1       0.256   1.724   1.727  0.00  0.00     0.055 A 
ATOM      6  C5  BZF d   1      -0.743   0.833   1.494  0.00  0.00    -0.016 A 
ATOM      7  C6  BZF d   1      -0.648  -0.123   0.505  0.00  0.00     0.022 A 
ATOM      8  C7  BZF d   1       0.457  -0.221  -0.275  0.00  0.00     0.029 A 
ATOM      9  C7A BZF d   1       1.482   0.656  -0.020  0.00  0.00     0.058 A 
ENDROOT
TORSDOF 0
ENDMDL
