MODEL 1
REMARK minimizedAffinity -1.74260986
REMARK minimizedRMSD -1
REMARK  0 active torsions:
REMARK  status: ('A' for Active; 'I' for Inactive)
ROOT
ATOM      1  O1  BZF d   1      -0.281   0.141  -1.374  0.00  0.00    -0.204 OA
ATOM      2  C2  BZF d   1      -0.358  -1.235  -1.272  0.00  0.00     0.174 A 
ATOM      3  C3  BZF d   1      -0.141  -1.634  -0.003  0.00  0.00    -0.012 A 
ATOM      4  C3A BZF d   1      -0.004  -0.426   0.753  0.00  0.00    -0.107 A 
ATOM      5  C4  BZF d   1       0.211  -0.166   2.076  0.00  0.00     0.055 A 
ATOM      6  C5  BZF d   1       0.367   1.122   2.479  0.00  0.00    -0.016 A 
ATOM      7  C6  BZF d   1       0.320   2.173   1.587  0.00  0.00     0.022 A 
ATOM      8  C7  BZF d   1       0.104   1.965   0.265  0.00  0.00     0.029 A 
ATOM      9  C7A BZF d   1      -0.088   0.667  -0.140  0.00  0.00     0.058 A 
ENDROOT
TORSDOF 0
ENDMDL
