MODEL 1
REMARK minimizedAffinity -2.04639149
REMARK minimizedRMSD -1
REMARK  0 active torsions:
REMARK  status: ('A' for Active; 'I' for Inactive)
ROOT
ATOM      1  O1  BZF d   1       0.817  -0.192  -1.179  0.00  0.00    -0.204 OA
ATOM      2  C2  BZF d   1       0.420  -0.057   0.137  0.00  0.00     0.174 A 
ATOM      3  C3  BZF d   1      -0.906  -0.273   0.261  0.00  0.00    -0.012 A 
ATOM      4  C3A BZF d   1      -1.349  -0.653  -1.046  0.00  0.00    -0.107 A 
ATOM      5  C4  BZF d   1      -2.563  -1.009  -1.559  0.00  0.00     0.055 A 
ATOM      6  C5  BZF d   1      -2.672  -1.250  -2.892  0.00  0.00    -0.016 A 
ATOM      7  C6  BZF d   1      -1.590  -1.139  -3.740  0.00  0.00     0.022 A 
ATOM      8  C7  BZF d   1      -0.365  -0.794  -3.277  0.00  0.00     0.029 A 
ATOM      9  C7A BZF d   1      -0.244  -0.581  -1.926  0.00  0.00     0.058 A 
ENDROOT
TORSDOF 0
ENDMDL
