MODEL 1
REMARK minimizedAffinity -5.57723808
REMARK minimizedRMSD -1
REMARK  0 active torsions:
REMARK  status: ('A' for Active; 'I' for Inactive)
ROOT
ATOM      1  O1  BZF d   1      -0.906  -1.005   0.442  0.00  0.00    -0.204 OA
ATOM      2  C2  BZF d   1      -0.299  -1.488  -0.701  0.00  0.00     0.174 A 
ATOM      3  C3  BZF d   1       0.536  -0.567  -1.224  0.00  0.00    -0.012 A 
ATOM      4  C3A BZF d   1       0.515   0.527  -0.303  0.00  0.00    -0.107 A 
ATOM      5  C4  BZF d   1       1.153   1.734  -0.263  0.00  0.00     0.055 A 
ATOM      6  C5  BZF d   1       0.858   2.605   0.737  0.00  0.00    -0.016 A 
ATOM      7  C6  BZF d   1      -0.073   2.304   1.710  0.00  0.00     0.022 A 
ATOM      8  C7  BZF d   1      -0.728   1.118   1.716  0.00  0.00     0.029 A 
ATOM      9  C7A BZF d   1      -0.407   0.222   0.725  0.00  0.00     0.058 A 
ENDROOT
TORSDOF 0
ENDMDL
