MODEL 1
REMARK minimizedAffinity -1.88033628
REMARK minimizedRMSD -1
REMARK  0 active torsions:
REMARK  status: ('A' for Active; 'I' for Inactive)
ROOT
ATOM      1  O1  BZF d   1       0.183  -0.029  -1.117  0.00  0.00    -0.204 OA
ATOM      2  C2  BZF d   1      -0.616  -1.154  -1.059  0.00  0.00     0.174 A 
ATOM      3  C3  BZF d   1      -1.005  -1.400   0.209  0.00  0.00    -0.012 A 
ATOM      4  C3A BZF d   1      -0.488  -0.311   0.979  0.00  0.00    -0.107 A 
ATOM      5  C4  BZF d   1      -0.556   0.019   2.302  0.00  0.00     0.055 A 
ATOM      6  C5  BZF d   1       0.119   1.111   2.746  0.00  0.00    -0.016 A 
ATOM      7  C6  BZF d   1       0.874   1.893   1.897  0.00  0.00     0.022 A 
ATOM      8  C7  BZF d   1       0.968   1.609   0.575  0.00  0.00     0.029 A 
ATOM      9  C7A BZF d   1       0.260   0.524   0.117  0.00  0.00     0.058 A 
ENDROOT
TORSDOF 0
ENDMDL
