MODEL 1
REMARK minimizedAffinity -1.29983318
REMARK minimizedRMSD -1
REMARK  0 active torsions:
REMARK  status: ('A' for Active; 'I' for Inactive)
ROOT
ATOM      1  O1  BZF d   1       0.744   0.140  -1.125  0.00  0.00    -0.204 OA
ATOM      2  C2  BZF d   1       0.592   0.007   0.242  0.00  0.00     0.174 A 
ATOM      3  C3  BZF d   1      -0.469  -0.774   0.531  0.00  0.00    -0.012 A 
ATOM      4  C3A BZF d   1      -0.959  -1.228  -0.734  0.00  0.00    -0.107 A 
ATOM      5  C4  BZF d   1      -1.987  -2.047  -1.104  0.00  0.00     0.055 A 
ATOM      6  C5  BZF d   1      -2.244  -2.229  -2.426  0.00  0.00    -0.016 A 
ATOM      7  C6  BZF d   1      -1.497  -1.605  -3.403  0.00  0.00     0.022 A 
ATOM      8  C7  BZF d   1      -0.464  -0.787  -3.085  0.00  0.00     0.029 A 
ATOM      9  C7A BZF d   1      -0.181  -0.627  -1.751  0.00  0.00     0.058 A 
ENDROOT
TORSDOF 0
ENDMDL
