MODEL 1
REMARK minimizedAffinity -1.82758331
REMARK minimizedRMSD -1
REMARK  0 active torsions:
REMARK  status: ('A' for Active; 'I' for Inactive)
ROOT
ATOM      1  O1  BZF d   1       0.841  -1.462  -1.632  0.00  0.00    -0.204 OA
ATOM      2  C2  BZF d   1      -0.453  -1.945  -1.650  0.00  0.00     0.174 A 
ATOM      3  C3  BZF d   1      -1.222  -1.287  -0.759  0.00  0.00    -0.012 A 
ATOM      4  C3A BZF d   1      -0.377  -0.270  -0.211  0.00  0.00    -0.107 A 
ATOM      5  C4  BZF d   1      -0.573   0.716   0.713  0.00  0.00     0.055 A 
ATOM      6  C5  BZF d   1       0.478   1.495   1.080  0.00  0.00    -0.016 A 
ATOM      7  C6  BZF d   1       1.738   1.313   0.547  0.00  0.00     0.022 A 
ATOM      8  C7  BZF d   1       1.979   0.352  -0.377  0.00  0.00     0.029 A 
ATOM      9  C7A BZF d   1       0.912  -0.416  -0.774  0.00  0.00     0.058 A 
ENDROOT
TORSDOF 0
ENDMDL
