MODEL 1
REMARK minimizedAffinity -5.13792324
REMARK minimizedRMSD -1
REMARK  0 active torsions:
REMARK  status: ('A' for Active; 'I' for Inactive)
ROOT
ATOM      1  O1  BZF d   1       1.577   0.903   1.461  0.00  0.00    -0.204 OA
ATOM      2  C2  BZF d   1       1.118   1.870   2.335  0.00  0.00     0.174 A 
ATOM      3  C3  BZF d   1      -0.175   2.162   2.088  0.00  0.00    -0.012 A 
ATOM      4  C3A BZF d   1      -0.574   1.260   1.052  0.00  0.00    -0.107 A 
ATOM      5  C4  BZF d   1      -1.750   1.051   0.389  0.00  0.00     0.055 A 
ATOM      6  C5  BZF d   1      -1.787   0.143  -0.620  0.00  0.00    -0.016 A 
ATOM      7  C6  BZF d   1      -0.667  -0.570  -0.997  0.00  0.00     0.022 A 
ATOM      8  C7  BZF d   1       0.520  -0.402  -0.366  0.00  0.00     0.029 A 
ATOM      9  C7A BZF d   1       0.553   0.492   0.676  0.00  0.00     0.058 A 
ENDROOT
TORSDOF 0
ENDMDL
