MODEL 1
REMARK minimizedAffinity -4.84866762
REMARK minimizedRMSD -1
REMARK  0 active torsions:
REMARK  status: ('A' for Active; 'I' for Inactive)
ROOT
ATOM      1  O1  BZF d   1       0.078  -0.272  -0.805  0.00  0.00    -0.204 OA
ATOM      2  C2  BZF d   1      -0.905  -0.825  -0.006  0.00  0.00     0.174 A 
ATOM      3  C3  BZF d   1      -0.811  -0.363   1.257  0.00  0.00    -0.012 A 
ATOM      4  C3A BZF d   1       0.242   0.605   1.227  0.00  0.00    -0.107 A 
ATOM      5  C4  BZF d   1       0.796   1.420   2.172  0.00  0.00     0.055 A 
ATOM      6  C5  BZF d   1       1.860   2.195   1.834  0.00  0.00    -0.016 A 
ATOM      7  C6  BZF d   1       2.398   2.177   0.564  0.00  0.00     0.022 A 
ATOM      8  C7  BZF d   1       1.880   1.388  -0.409  0.00  0.00     0.029 A 
ATOM      9  C7A BZF d   1       0.784   0.628  -0.080  0.00  0.00     0.058 A 
ENDROOT
TORSDOF 0
ENDMDL
