MODEL 1
REMARK minimizedAffinity -4.31100416
REMARK minimizedRMSD -1
REMARK  0 active torsions:
REMARK  status: ('A' for Active; 'I' for Inactive)
ROOT
ATOM      1  O1  BZF d   1       0.372   1.961   1.663  0.00  0.00    -0.204 OA
ATOM      2  C2  BZF d   1       1.488   2.651   1.232  0.00  0.00     0.174 A 
ATOM      3  C3  BZF d   1       2.135   1.961   0.271  0.00  0.00    -0.012 A 
ATOM      4  C3A BZF d   1       1.325   0.807   0.026  0.00  0.00    -0.107 A 
ATOM      5  C4  BZF d   1       1.433  -0.251  -0.831  0.00  0.00     0.055 A 
ATOM      6  C5  BZF d   1       0.511  -1.247  -0.769  0.00  0.00    -0.016 A 
ATOM      7  C6  BZF d   1      -0.527  -1.221   0.139  0.00  0.00     0.022 A 
ATOM      8  C7  BZF d   1      -0.678  -0.190   1.006  0.00  0.00     0.029 A 
ATOM      9  C7A BZF d   1       0.233   0.835   0.924  0.00  0.00     0.058 A 
ENDROOT
TORSDOF 0
ENDMDL
