MODEL 1
REMARK minimizedAffinity -2.88631248
REMARK minimizedRMSD -1
REMARK  0 active torsions:
REMARK  status: ('A' for Active; 'I' for Inactive)
ROOT
ATOM      1  O1  BZF d   1       1.021  -0.033  -0.960  0.00  0.00    -0.204 OA
ATOM      2  C2  BZF d   1      -0.055  -0.898  -1.017  0.00  0.00     0.174 A 
ATOM      3  C3  BZF d   1      -0.939  -0.627  -0.036  0.00  0.00    -0.012 A 
ATOM      4  C3A BZF d   1      -0.427   0.536   0.622  0.00  0.00    -0.107 A 
ATOM      5  C4  BZF d   1      -0.869   1.295   1.667  0.00  0.00     0.055 A 
ATOM      6  C5  BZF d   1      -0.097   2.321   2.112  0.00  0.00    -0.016 A 
ATOM      7  C6  BZF d   1       1.123   2.613   1.538  0.00  0.00     0.022 A 
ATOM      8  C7  BZF d   1       1.601   1.892   0.495  0.00  0.00     0.029 A 
ATOM      9  C7A BZF d   1       0.809   0.875   0.023  0.00  0.00     0.058 A 
ENDROOT
TORSDOF 0
ENDMDL
