MODEL 1
REMARK minimizedAffinity -1.92424989
REMARK minimizedRMSD -1
REMARK  0 active torsions:
REMARK  status: ('A' for Active; 'I' for Inactive)
ROOT
ATOM      1  O1  BZF d   1       0.466   0.064  -1.209  0.00  0.00    -0.204 OA
ATOM      2  C2  BZF d   1      -0.244  -1.111  -1.054  0.00  0.00     0.174 A 
ATOM      3  C3  BZF d   1      -0.732  -1.213   0.199  0.00  0.00    -0.012 A 
ATOM      4  C3A BZF d   1      -0.378   0.015   0.842  0.00  0.00    -0.107 A 
ATOM      5  C4  BZF d   1      -0.598   0.518   2.093  0.00  0.00     0.055 A 
ATOM      6  C5  BZF d   1      -0.056   1.719   2.427  0.00  0.00    -0.016 A 
ATOM      7  C6  BZF d   1       0.713   2.440   1.538  0.00  0.00     0.022 A 
ATOM      8  C7  BZF d   1       0.955   1.985   0.284  0.00  0.00     0.029 A 
ATOM      9  C7A BZF d   1       0.381   0.788  -0.067  0.00  0.00     0.058 A 
ENDROOT
TORSDOF 0
ENDMDL
