MODEL 1
REMARK minimizedAffinity -4.83498621
REMARK minimizedRMSD -1
REMARK  0 active torsions:
REMARK  status: ('A' for Active; 'I' for Inactive)
ROOT
ATOM      1  O1  BZF d   1       2.279   1.959   0.739  0.00  0.00    -0.204 OA
ATOM      2  C2  BZF d   1       1.739   2.778   1.712  0.00  0.00     0.174 A 
ATOM      3  C3  BZF d   1       0.443   2.474   1.929  0.00  0.00    -0.012 A 
ATOM      4  C3A BZF d   1       0.180   1.337   1.101  0.00  0.00    -0.107 A 
ATOM      5  C4  BZF d   1      -0.926   0.565   0.891  0.00  0.00     0.055 A 
ATOM      6  C5  BZF d   1      -0.874  -0.426  -0.037  0.00  0.00    -0.016 A 
ATOM      7  C6  BZF d   1       0.266  -0.670  -0.775  0.00  0.00     0.022 A 
ATOM      8  C7  BZF d   1       1.390   0.067  -0.599  0.00  0.00     0.029 A 
ATOM      9  C7A BZF d   1       1.350   1.048   0.362  0.00  0.00     0.058 A 
ENDROOT
TORSDOF 0
ENDMDL
