MODEL 1
REMARK minimizedAffinity -0.880037725
REMARK minimizedRMSD -1
REMARK  0 active torsions:
REMARK  status: ('A' for Active; 'I' for Inactive)
ROOT
ATOM      1  O1  BZF d   1      -0.771  -0.756   0.691  0.00  0.00    -0.204 OA
ATOM      2  C2  BZF d   1      -0.347  -1.567  -0.344  0.00  0.00     0.174 A 
ATOM      3  C3  BZF d   1       0.647  -0.976  -1.038  0.00  0.00    -0.012 A 
ATOM      4  C3A BZF d   1       0.921   0.243  -0.339  0.00  0.00    -0.107 A 
ATOM      5  C4  BZF d   1       1.816   1.256  -0.533  0.00  0.00     0.055 A 
ATOM      6  C5  BZF d   1       1.775   2.339   0.286  0.00  0.00    -0.016 A 
ATOM      7  C6  BZF d   1       0.850   2.445   1.305  0.00  0.00     0.022 A 
ATOM      8  C7  BZF d   1      -0.055   1.464   1.539  0.00  0.00     0.029 A 
ATOM      9  C7A BZF d   1       0.006   0.353   0.733  0.00  0.00     0.058 A 
ENDROOT
TORSDOF 0
ENDMDL
