MODEL 1
REMARK minimizedAffinity -2.11226988
REMARK minimizedRMSD -1
REMARK  0 active torsions:
REMARK  status: ('A' for Active; 'I' for Inactive)
ROOT
ATOM      1  O1  BZF d   1      -0.498   1.457   2.506  0.00  0.00    -0.204 OA
ATOM      2  C2  BZF d   1      -1.048   0.192   2.432  0.00  0.00     0.174 A 
ATOM      3  C3  BZF d   1      -0.780  -0.377   1.239  0.00  0.00    -0.012 A 
ATOM      4  C3A BZF d   1       0.065   0.556   0.558  0.00  0.00    -0.107 A 
ATOM      5  C4  BZF d   1       0.675   0.552  -0.663  0.00  0.00     0.055 A 
ATOM      6  C5  BZF d   1       1.372   1.650  -1.057  0.00  0.00    -0.016 A 
ATOM      7  C6  BZF d   1       1.474   2.771  -0.258  0.00  0.00     0.022 A 
ATOM      8  C7  BZF d   1       0.889   2.820   0.963  0.00  0.00     0.029 A 
ATOM      9  C7A BZF d   1       0.212   1.699   1.378  0.00  0.00     0.058 A 
ENDROOT
TORSDOF 0
ENDMDL
