MODEL 1
REMARK minimizedAffinity 6.84356689
REMARK minimizedRMSD -1
REMARK  1 active torsions:
REMARK  status: ('A' for Active; 'I' for Inactive)
REMARK    1  A    between atoms: C1_2  and  C2_3 
ROOT
ATOM      1  C2  UNL d   1       3.621   1.468  -2.375  0.00  0.00    -0.073 A 
ATOM      2  C3  UNL d   1       4.944   1.285  -1.958  0.00  0.00    -0.002 A 
ATOM      3  C4  UNL d   1       5.998   1.492  -2.848  0.00  0.00     0.004 A 
ATOM      4  C5  UNL d   1       5.742   1.892  -4.159  0.00  0.00    -0.004 A 
ATOM      5  C6  UNL d   1       4.427   2.092  -4.592  0.00  0.00    -0.075 A 
ATOM      6  C7  UNL d   1       4.134   2.519  -6.000  0.00  0.00     0.076 C 
ATOM      7  C8  UNL d   1       3.373   1.879  -3.693  0.00  0.00     0.001 A 
ENDROOT
BRANCH   1   8
ATOM      8  C1  UNL d   1       2.479   1.252  -1.416  0.00  0.00     0.053 C 
ATOM      9  C   UNL d   1       2.681   0.011  -0.560  0.00  0.00     0.018 C 
ENDBRANCH   1   8
TORSDOF 1
ENDMDL
