MODEL 1
REMARK minimizedAffinity 9.19877625
REMARK minimizedRMSD -1
REMARK  1 active torsions:
REMARK  status: ('A' for Active; 'I' for Inactive)
REMARK    1  A    between atoms: C1_2  and  C2_3 
ROOT
ATOM      1  C2  UNL d   1       1.597   0.575  -2.219  0.00  0.00    -0.073 A 
ATOM      2  C3  UNL d   1       2.791   0.138  -1.633  0.00  0.00    -0.002 A 
ATOM      3  C4  UNL d   1       2.806  -0.301  -0.309  0.00  0.00     0.004 A 
ATOM      4  C5  UNL d   1       1.629  -0.316   0.439  0.00  0.00    -0.004 A 
ATOM      5  C6  UNL d   1       0.424   0.105  -0.132  0.00  0.00    -0.075 A 
ATOM      6  C7  UNL d   1      -0.850   0.097   0.660  0.00  0.00     0.076 C 
ATOM      7  C8  UNL d   1       0.417   0.548  -1.462  0.00  0.00     0.001 A 
ENDROOT
BRANCH   1   8
ATOM      8  C1  UNL d   1       1.575   1.045  -3.651  0.00  0.00     0.053 C 
ATOM      9  C   UNL d   1       1.030  -0.019  -4.591  0.00  0.00     0.018 C 
ENDBRANCH   1   8
TORSDOF 1
ENDMDL
