MODEL 1
REMARK minimizedAffinity 12.6530533
REMARK minimizedRMSD -1
REMARK  1 active torsions:
REMARK  status: ('A' for Active; 'I' for Inactive)
REMARK    1  A    between atoms: C1_2  and  C2_3 
ROOT
ATOM      1  C2  UNL d   1      -2.305   3.013  -5.930  0.00  0.00    -0.073 A 
ATOM      2  C3  UNL d   1      -3.187   1.927  -5.946  0.00  0.00    -0.002 A 
ATOM      3  C4  UNL d   1      -4.566   2.139  -5.968  0.00  0.00     0.004 A 
ATOM      4  C5  UNL d   1      -5.077   3.437  -5.982  0.00  0.00    -0.004 A 
ATOM      5  C6  UNL d   1      -4.211   4.536  -5.979  0.00  0.00    -0.075 A 
ATOM      6  C7  UNL d   1      -4.744   5.938  -5.991  0.00  0.00     0.076 C 
ATOM      7  C8  UNL d   1      -2.827   4.314  -5.954  0.00  0.00     0.001 A 
ENDROOT
BRANCH   1   8
ATOM      8  C1  UNL d   1      -0.815   2.789  -5.913  0.00  0.00     0.053 C 
ATOM      9  C   UNL d   1      -0.399   1.808  -4.828  0.00  0.00     0.018 C 
ENDBRANCH   1   8
TORSDOF 1
ENDMDL
