MODEL 1
REMARK minimizedAffinity 11.4880095
REMARK minimizedRMSD -1
REMARK  1 active torsions:
REMARK  status: ('A' for Active; 'I' for Inactive)
REMARK    1  A    between atoms: C1_2  and  C2_3 
ROOT
ATOM      1  C2  UNL d   1      -5.223   3.051  -3.646  0.00  0.00    -0.073 A 
ATOM      2  C3  UNL d   1      -5.077   2.030  -4.591  0.00  0.00    -0.002 A 
ATOM      3  C4  UNL d   1      -4.352   2.252  -5.763  0.00  0.00     0.004 A 
ATOM      4  C5  UNL d   1      -3.761   3.494  -5.998  0.00  0.00    -0.004 A 
ATOM      5  C6  UNL d   1      -3.886   4.523  -5.059  0.00  0.00    -0.075 A 
ATOM      6  C7  UNL d   1      -3.258   5.865  -5.298  0.00  0.00     0.076 C 
ATOM      7  C8  UNL d   1      -4.617   4.293  -3.887  0.00  0.00     0.001 A 
ENDROOT
BRANCH   1   8
ATOM      8  C1  UNL d   1      -5.999   2.814  -2.376  0.00  0.00     0.053 C 
ATOM      9  C   UNL d   1      -5.248   1.914  -1.408  0.00  0.00     0.018 C 
ENDBRANCH   1   8
TORSDOF 1
ENDMDL
