MODEL 1
REMARK minimizedAffinity 15.213048
REMARK minimizedRMSD -1
REMARK  1 active torsions:
REMARK  status: ('A' for Active; 'I' for Inactive)
REMARK    1  A    between atoms: C1_2  and  C2_3 
ROOT
ATOM      1  C2  UNL d   1       3.377  -5.266  -5.173  0.00  0.00    -0.073 A 
ATOM      2  C3  UNL d   1       4.505  -5.989  -4.768  0.00  0.00    -0.002 A 
ATOM      3  C4  UNL d   1       5.540  -5.353  -4.080  0.00  0.00     0.004 A 
ATOM      4  C5  UNL d   1       5.454  -3.993  -3.785  0.00  0.00    -0.004 A 
ATOM      5  C6  UNL d   1       4.329  -3.256  -4.170  0.00  0.00    -0.075 A 
ATOM      6  C7  UNL d   1       4.223  -1.792  -3.861  0.00  0.00     0.076 C 
ATOM      7  C8  UNL d   1       3.296  -3.901  -4.863  0.00  0.00     0.001 A 
ENDROOT
BRANCH   1   8
ATOM      8  C1  UNL d   1       2.255  -5.950  -5.910  0.00  0.00     0.053 C 
ATOM      9  C   UNL d   1       0.978  -6.000  -5.086  0.00  0.00     0.018 C 
ENDBRANCH   1   8
TORSDOF 1
ENDMDL
