MODEL 1
REMARK minimizedAffinity 9.05676365
REMARK minimizedRMSD -1
REMARK  1 active torsions:
REMARK  status: ('A' for Active; 'I' for Inactive)
REMARK    1  A    between atoms: C1_2  and  C2_3 
ROOT
ATOM      1  C2  UNL d   1       3.552   2.740  -1.174  0.00  0.00    -0.073 A 
ATOM      2  C3  UNL d   1       4.404   3.840  -1.325  0.00  0.00    -0.002 A 
ATOM      3  C4  UNL d   1       5.620   3.703  -1.994  0.00  0.00     0.004 A 
ATOM      4  C5  UNL d   1       5.994   2.468  -2.525  0.00  0.00    -0.004 A 
ATOM      5  C6  UNL d   1       5.151   1.360  -2.395  0.00  0.00    -0.075 A 
ATOM      6  C7  UNL d   1       5.540   0.024  -2.958  0.00  0.00     0.076 C 
ATOM      7  C8  UNL d   1       3.932   1.505  -1.719  0.00  0.00     0.001 A 
ENDROOT
BRANCH   1   8
ATOM      8  C1  UNL d   1       2.234   2.885  -0.457  0.00  0.00     0.053 C 
ATOM      9  C   UNL d   1       2.289   2.326   0.956  0.00  0.00     0.018 C 
ENDBRANCH   1   8
TORSDOF 1
ENDMDL
