MODEL 1
REMARK minimizedAffinity 12.6857491
REMARK minimizedRMSD -1
REMARK  1 active torsions:
REMARK  status: ('A' for Active; 'I' for Inactive)
REMARK    1  A    between atoms: C1_2  and  C2_3 
ROOT
ATOM      1  C2  UNL d   1       4.612   1.866   0.067  0.00  0.00    -0.073 A 
ATOM      2  C3  UNL d   1       4.422   1.536   1.414  0.00  0.00    -0.002 A 
ATOM      3  C4  UNL d   1       3.137   1.510   1.959  0.00  0.00     0.004 A 
ATOM      4  C5  UNL d   1       2.031   1.806   1.162  0.00  0.00    -0.004 A 
ATOM      5  C6  UNL d   1       2.199   2.125  -0.189  0.00  0.00    -0.075 A 
ATOM      6  C7  UNL d   1       1.020   2.448  -1.058  0.00  0.00     0.076 C 
ATOM      7  C8  UNL d   1       3.493   2.152  -0.728  0.00  0.00     0.001 A 
ENDROOT
BRANCH   1   8
ATOM      8  C1  UNL d   1       5.996   1.889  -0.527  0.00  0.00     0.053 C 
ATOM      9  C   UNL d   1       5.999   1.452  -1.983  0.00  0.00     0.018 C 
ENDBRANCH   1   8
TORSDOF 1
ENDMDL
