MODEL 1
REMARK minimizedAffinity 5.2327466
REMARK minimizedRMSD -1
REMARK  1 active torsions:
REMARK  status: ('A' for Active; 'I' for Inactive)
REMARK    1  A    between atoms: C1_2  and  C2_3 
ROOT
ATOM      1  C2  UNL d   1       2.504   1.723  -0.431  0.00  0.00    -0.073 A 
ATOM      2  C3  UNL d   1       3.379   1.255  -1.418  0.00  0.00    -0.002 A 
ATOM      3  C4  UNL d   1       3.068   1.414  -2.769  0.00  0.00     0.004 A 
ATOM      4  C5  UNL d   1       1.884   2.047  -3.147  0.00  0.00    -0.004 A 
ATOM      5  C6  UNL d   1       1.003   2.533  -2.175  0.00  0.00    -0.075 A 
ATOM      6  C7  UNL d   1      -0.276   3.215  -2.565  0.00  0.00     0.076 C 
ATOM      7  C8  UNL d   1       1.321   2.367  -0.821  0.00  0.00     0.001 A 
ENDROOT
BRANCH   1   8
ATOM      8  C1  UNL d   1       2.839   1.560   1.029  0.00  0.00     0.053 C 
ATOM      9  C   UNL d   1       1.644   1.077   1.837  0.00  0.00     0.018 C 
ENDBRANCH   1   8
TORSDOF 1
ENDMDL
