MODEL 1
REMARK minimizedAffinity 19.1406479
REMARK minimizedRMSD -1
REMARK  1 active torsions:
REMARK  status: ('A' for Active; 'I' for Inactive)
REMARK    1  A    between atoms: C1_2  and  C2_3 
ROOT
ATOM      1  C2  UNL d   1      -3.616  -1.782   3.024  0.00  0.00    -0.073 A 
ATOM      2  C3  UNL d   1      -4.796  -1.098   2.709  0.00  0.00    -0.002 A 
ATOM      3  C4  UNL d   1      -5.982  -1.391   3.383  0.00  0.00     0.004 A 
ATOM      4  C5  UNL d   1      -5.999  -2.364   4.382  0.00  0.00    -0.004 A 
ATOM      5  C6  UNL d   1      -4.828  -3.050   4.719  0.00  0.00    -0.075 A 
ATOM      6  C7  UNL d   1      -4.831  -4.101   5.790  0.00  0.00     0.076 C 
ATOM      7  C8  UNL d   1      -3.641  -2.752   4.036  0.00  0.00     0.001 A 
ENDROOT
BRANCH   1   8
ATOM      8  C1  UNL d   1      -2.331  -1.464   2.303  0.00  0.00     0.053 C 
ATOM      9  C   UNL d   1      -1.829  -2.645   1.487  0.00  0.00     0.018 C 
ENDBRANCH   1   8
TORSDOF 1
ENDMDL
