MODEL 1
REMARK minimizedAffinity 18.8885403
REMARK minimizedRMSD -1
REMARK  1 active torsions:
REMARK  status: ('A' for Active; 'I' for Inactive)
REMARK    1  A    between atoms: C1_2  and  C2_3 
ROOT
ATOM      1  C2  UNL d   1       3.238   2.582  -5.576  0.00  0.00    -0.073 A 
ATOM      2  C3  UNL d   1       3.538   1.384  -4.917  0.00  0.00    -0.002 A 
ATOM      3  C4  UNL d   1       2.516   0.516  -4.532  0.00  0.00     0.004 A 
ATOM      4  C5  UNL d   1       1.186   0.832  -4.808  0.00  0.00    -0.004 A 
ATOM      5  C6  UNL d   1       0.866   2.018  -5.477  0.00  0.00    -0.075 A 
ATOM      6  C7  UNL d   1      -0.560   2.373  -5.779  0.00  0.00     0.076 C 
ATOM      7  C8  UNL d   1       1.899   2.886  -5.857  0.00  0.00     0.001 A 
ENDROOT
BRANCH   1   8
ATOM      8  C1  UNL d   1       4.339   3.519  -5.999  0.00  0.00     0.053 C 
ATOM      9  C   UNL d   1       5.701   2.842  -5.987  0.00  0.00     0.018 C 
ENDBRANCH   1   8
TORSDOF 1
ENDMDL
