MODEL 1
REMARK minimizedAffinity 12.9075003
REMARK minimizedRMSD -1
REMARK  1 active torsions:
REMARK  status: ('A' for Active; 'I' for Inactive)
REMARK    1  A    between atoms: C1_2  and  C2_3 
ROOT
ATOM      1  C2  UNL d   1       3.481   3.527   3.396  0.00  0.00    -0.073 A 
ATOM      2  C3  UNL d   1       2.435   4.456   3.420  0.00  0.00    -0.002 A 
ATOM      3  C4  UNL d   1       2.540   5.616   4.188  0.00  0.00     0.004 A 
ATOM      4  C5  UNL d   1       3.693   5.862   4.934  0.00  0.00    -0.004 A 
ATOM      5  C6  UNL d   1       4.754   4.951   4.914  0.00  0.00    -0.075 A 
ATOM      6  C7  UNL d   1       6.000   5.200   5.712  0.00  0.00     0.076 C 
ATOM      7  C8  UNL d   1       4.640   3.787   4.142  0.00  0.00     0.001 A 
ENDROOT
BRANCH   1   8
ATOM      8  C1  UNL d   1       3.374   2.276   2.563  0.00  0.00     0.053 C 
ATOM      9  C   UNL d   1       2.005   1.626   2.682  0.00  0.00     0.018 C 
ENDBRANCH   1   8
TORSDOF 1
ENDMDL
