MODEL 1
REMARK minimizedAffinity 23.4739666
REMARK minimizedRMSD -1
REMARK  1 active torsions:
REMARK  status: ('A' for Active; 'I' for Inactive)
REMARK    1  A    between atoms: C1_2  and  C2_3 
ROOT
ATOM      1  C2  UNL d   1       3.204   4.100   3.656  0.00  0.00    -0.073 A 
ATOM      2  C3  UNL d   1       2.179   4.979   4.025  0.00  0.00    -0.002 A 
ATOM      3  C4  UNL d   1       2.388   5.921   5.033  0.00  0.00     0.004 A 
ATOM      4  C5  UNL d   1       3.624   5.999   5.676  0.00  0.00    -0.004 A 
ATOM      5  C6  UNL d   1       4.664   5.137   5.312  0.00  0.00    -0.075 A 
ATOM      6  C7  UNL d   1       5.998   5.207   5.995  0.00  0.00     0.076 C 
ATOM      7  C8  UNL d   1       4.445   4.192   4.301  0.00  0.00     0.001 A 
ENDROOT
BRANCH   1   8
ATOM      8  C1  UNL d   1       2.985   3.085   2.564  0.00  0.00     0.053 C 
ATOM      9  C   UNL d   1       4.036   1.987   2.587  0.00  0.00     0.018 C 
ENDBRANCH   1   8
TORSDOF 1
ENDMDL
