MODEL 1
REMARK minimizedAffinity -3.41595674
REMARK minimizedRMSD -1
REMARK  0 active torsions:
REMARK  status: ('A' for Active; 'I' for Inactive)
ROOT
ATOM      1  C   UNL d   1      -2.707  -2.141   1.664  0.00  0.00     0.023 A 
ATOM      2  C1  UNL d   1      -2.740  -0.748   1.734  0.00  0.00     0.003 A 
ATOM      3  C2  UNL d   1      -1.733   0.006   1.129  0.00  0.00     0.048 A 
ATOM      4  C3  UNL d   1      -0.696  -0.638   0.455  0.00  0.00     0.023 A 
ATOM      5  C4  UNL d   1      -0.659  -2.032   0.383  0.00  0.00     0.048 A 
ATOM      6  C5  UNL d   1      -1.668  -2.782   0.990  0.00  0.00     0.003 A 
ATOM      7  I   UNL d   1       0.804   0.483  -0.446  0.00  0.00    -0.146 I 
ENDROOT
TORSDOF 0
ENDMDL
