MODEL 1
REMARK minimizedAffinity -3.83801842
REMARK minimizedRMSD -1
REMARK  0 active torsions:
REMARK  status: ('A' for Active; 'I' for Inactive)
ROOT
ATOM      1  C   UNL d   1      -1.448  -3.077   1.653  0.00  0.00     0.023 A 
ATOM      2  C1  UNL d   1      -0.067  -2.960   1.496  0.00  0.00     0.003 A 
ATOM      3  C2  UNL d   1       0.476  -1.815   0.909  0.00  0.00     0.048 A 
ATOM      4  C3  UNL d   1      -0.368  -0.791   0.482  0.00  0.00     0.023 A 
ATOM      5  C4  UNL d   1      -1.750  -0.903   0.637  0.00  0.00     0.048 A 
ATOM      6  C5  UNL d   1      -2.289  -2.049   1.224  0.00  0.00     0.003 A 
ATOM      7  I   UNL d   1       0.438   0.914  -0.393  0.00  0.00    -0.146 I 
ENDROOT
TORSDOF 0
ENDMDL
