MODEL 1
REMARK minimizedAffinity -1.81077552
REMARK minimizedRMSD -1
REMARK  0 active torsions:
REMARK  status: ('A' for Active; 'I' for Inactive)
ROOT
ATOM      1  C   UNL d   1       0.186  -1.338   0.673  0.00  0.00     0.023 A 
ATOM      2  C1  UNL d   1       0.308   0.033   0.900  0.00  0.00     0.003 A 
ATOM      3  C2  UNL d   1       0.417   0.913  -0.179  0.00  0.00     0.048 A 
ATOM      4  C3  UNL d   1       0.402   0.415  -1.482  0.00  0.00     0.023 A 
ATOM      5  C4  UNL d   1       0.279  -0.956  -1.713  0.00  0.00     0.048 A 
ATOM      6  C5  UNL d   1       0.171  -1.832  -0.631  0.00  0.00     0.003 A 
ATOM      7  I   UNL d   1       0.564   1.723  -3.089  0.00  0.00    -0.146 I 
ENDROOT
TORSDOF 0
ENDMDL
