MODEL 1
REMARK minimizedAffinity -3.89706373
REMARK minimizedRMSD -1
REMARK  0 active torsions:
REMARK  status: ('A' for Active; 'I' for Inactive)
ROOT
ATOM      1  C   UNL d   1      -1.975  -2.418   1.577  0.00  0.00     0.023 A 
ATOM      2  C1  UNL d   1      -2.583  -1.163   1.591  0.00  0.00     0.003 A 
ATOM      3  C2  UNL d   1      -1.953  -0.073   0.987  0.00  0.00     0.048 A 
ATOM      4  C3  UNL d   1      -0.714  -0.245   0.370  0.00  0.00     0.023 A 
ATOM      5  C4  UNL d   1      -0.102  -1.499   0.353  0.00  0.00     0.048 A 
ATOM      6  C5  UNL d   1      -0.736  -2.586   0.958  0.00  0.00     0.003 A 
ATOM      7  I   UNL d   1       0.226   1.376  -0.529  0.00  0.00    -0.146 I 
ENDROOT
TORSDOF 0
ENDMDL
