MODEL 1
REMARK minimizedAffinity -2.59308219
REMARK minimizedRMSD -1
REMARK  0 active torsions:
REMARK  status: ('A' for Active; 'I' for Inactive)
ROOT
ATOM      1  C   UNL d   1      -0.608  -2.381   1.313  0.00  0.00     0.023 A 
ATOM      2  C1  UNL d   1      -1.599  -1.865   0.478  0.00  0.00     0.003 A 
ATOM      3  C2  UNL d   1      -1.332  -0.748  -0.316  0.00  0.00     0.048 A 
ATOM      4  C3  UNL d   1      -0.072  -0.154  -0.272  0.00  0.00     0.023 A 
ATOM      5  C4  UNL d   1       0.923  -0.668   0.561  0.00  0.00     0.048 A 
ATOM      6  C5  UNL d   1       0.651  -1.784   1.355  0.00  0.00     0.003 A 
ATOM      7  I   UNL d   1       0.328   1.508  -1.454  0.00  0.00    -0.146 I 
ENDROOT
TORSDOF 0
ENDMDL
