MODEL 1
REMARK minimizedAffinity -4.83082628
REMARK minimizedRMSD -1
REMARK  0 active torsions:
REMARK  status: ('A' for Active; 'I' for Inactive)
ROOT
ATOM      1  C   UNL d   1      -0.015   1.505   0.188  0.00  0.00     0.023 A 
ATOM      2  C1  UNL d   1      -1.301   1.435   0.724  0.00  0.00     0.003 A 
ATOM      3  C2  UNL d   1      -1.837   0.200   1.097  0.00  0.00     0.048 A 
ATOM      4  C3  UNL d   1      -1.081  -0.960   0.933  0.00  0.00     0.023 A 
ATOM      5  C4  UNL d   1       0.207  -0.894   0.398  0.00  0.00     0.048 A 
ATOM      6  C5  UNL d   1       0.738   0.342   0.026  0.00  0.00     0.003 A 
ATOM      7  I   UNL d   1      -1.876  -2.798   1.487  0.00  0.00    -0.146 I 
ENDROOT
TORSDOF 0
ENDMDL
