MODEL 1
REMARK minimizedAffinity -4.97760916
REMARK minimizedRMSD -1
REMARK  0 active torsions:
REMARK  status: ('A' for Active; 'I' for Inactive)
ROOT
ATOM      1  C   UNL d   1      -2.698  -2.254   1.863  0.00  0.00     0.023 A 
ATOM      2  C1  UNL d   1      -2.846  -0.867   1.907  0.00  0.00     0.003 A 
ATOM      3  C2  UNL d   1      -2.017  -0.050   1.136  0.00  0.00     0.048 A 
ATOM      4  C3  UNL d   1      -1.042  -0.627   0.322  0.00  0.00     0.023 A 
ATOM      5  C4  UNL d   1      -0.891  -2.013   0.274  0.00  0.00     0.048 A 
ATOM      6  C5  UNL d   1      -1.722  -2.826   1.048  0.00  0.00     0.003 A 
ATOM      7  I   UNL d   1       0.194   0.587  -0.826  0.00  0.00    -0.146 I 
ENDROOT
TORSDOF 0
ENDMDL
