MODEL 1
REMARK minimizedAffinity -5.47291708
REMARK minimizedRMSD -1
REMARK  0 active torsions:
REMARK  status: ('A' for Active; 'I' for Inactive)
ROOT
ATOM      1  C   UNL d   1      -2.193  -1.897   2.106  0.00  0.00     0.023 A 
ATOM      2  C1  UNL d   1      -1.122  -2.379   1.353  0.00  0.00     0.003 A 
ATOM      3  C2  UNL d   1      -0.368  -1.502   0.570  0.00  0.00     0.048 A 
ATOM      4  C3  UNL d   1      -0.689  -0.146   0.546  0.00  0.00     0.023 A 
ATOM      5  C4  UNL d   1      -1.759   0.341   1.299  0.00  0.00     0.048 A 
ATOM      6  C5  UNL d   1      -2.511  -0.539   2.080  0.00  0.00     0.003 A 
ATOM      7  I   UNL d   1       0.433   1.161  -0.617  0.00  0.00    -0.146 I 
ENDROOT
TORSDOF 0
ENDMDL
