MODEL 1
REMARK minimizedAffinity -5.01513624
REMARK minimizedRMSD -1
REMARK  0 active torsions:
REMARK  status: ('A' for Active; 'I' for Inactive)
ROOT
ATOM      1  C   UNL d   1      -2.331  -2.258   1.631  0.00  0.00     0.023 A 
ATOM      2  C1  UNL d   1      -1.256  -2.667   0.842  0.00  0.00     0.003 A 
ATOM      3  C2  UNL d   1      -0.472  -1.719   0.182  0.00  0.00     0.048 A 
ATOM      4  C3  UNL d   1      -0.768  -0.363   0.316  0.00  0.00     0.023 A 
ATOM      5  C4  UNL d   1      -1.843   0.051   1.104  0.00  0.00     0.048 A 
ATOM      6  C5  UNL d   1      -2.625  -0.901   1.762  0.00  0.00     0.003 A 
ATOM      7  I   UNL d   1       0.397   1.051  -0.666  0.00  0.00    -0.146 I 
ENDROOT
TORSDOF 0
ENDMDL
