MODEL 1
REMARK minimizedAffinity -4.3463707
REMARK minimizedRMSD -1
REMARK  0 active torsions:
REMARK  status: ('A' for Active; 'I' for Inactive)
ROOT
ATOM      1  C   UNL d   1      -2.231  -2.096   1.977  0.00  0.00     0.023 A 
ATOM      2  C1  UNL d   1      -1.170  -2.533   1.183  0.00  0.00     0.003 A 
ATOM      3  C2  UNL d   1      -0.487  -1.629   0.368  0.00  0.00     0.048 A 
ATOM      4  C3  UNL d   1      -0.868  -0.287   0.353  0.00  0.00     0.023 A 
ATOM      5  C4  UNL d   1      -1.928   0.155   1.147  0.00  0.00     0.048 A 
ATOM      6  C5  UNL d   1      -2.609  -0.753   1.959  0.00  0.00     0.003 A 
ATOM      7  I   UNL d   1       0.148   1.061  -0.859  0.00  0.00    -0.146 I 
ENDROOT
TORSDOF 0
ENDMDL
