MODEL 1
REMARK minimizedAffinity -4.45771885
REMARK minimizedRMSD -1
REMARK  0 active torsions:
REMARK  status: ('A' for Active; 'I' for Inactive)
ROOT
ATOM      1  C   UNL d   1      -2.616  -1.739   2.071  0.00  0.00     0.023 A 
ATOM      2  C1  UNL d   1      -1.501  -2.352   1.499  0.00  0.00     0.003 A 
ATOM      3  C2  UNL d   1      -0.605  -1.602   0.736  0.00  0.00     0.048 A 
ATOM      4  C3  UNL d   1      -0.828  -0.239   0.548  0.00  0.00     0.023 A 
ATOM      5  C4  UNL d   1      -1.942   0.380   1.119  0.00  0.00     0.048 A 
ATOM      6  C5  UNL d   1      -2.836  -0.374   1.881  0.00  0.00     0.003 A 
ATOM      7  I   UNL d   1       0.505   0.880  -0.588  0.00  0.00    -0.146 I 
ENDROOT
TORSDOF 0
ENDMDL
