MODEL 1
REMARK minimizedAffinity 0.546685159
REMARK minimizedRMSD -1
REMARK  0 active torsions:
REMARK  status: ('A' for Active; 'I' for Inactive)
ROOT
ATOM      1  C   UNL d   1       1.537   2.952  -3.296  0.00  0.00     0.023 A 
ATOM      2  C1  UNL d   1       0.180   2.632  -3.338  0.00  0.00     0.003 A 
ATOM      3  C2  UNL d   1      -0.368   1.785  -2.372  0.00  0.00     0.048 A 
ATOM      4  C3  UNL d   1       0.445   1.264  -1.367  0.00  0.00     0.023 A 
ATOM      5  C4  UNL d   1       1.804   1.583  -1.321  0.00  0.00     0.048 A 
ATOM      6  C5  UNL d   1       2.348   2.429  -2.289  0.00  0.00     0.003 A 
ATOM      7  I   UNL d   1      -0.369   0.005   0.072  0.00  0.00    -0.146 I 
ENDROOT
TORSDOF 0
ENDMDL
