MODEL 1
REMARK minimizedAffinity -2.67569852
REMARK minimizedRMSD -1
REMARK  0 active torsions:
REMARK  status: ('A' for Active; 'I' for Inactive)
ROOT
ATOM      1  C   UNL d   1      -2.686  -0.922   2.407  0.00  0.00     0.023 A 
ATOM      2  C1  UNL d   1      -2.327   0.201   1.661  0.00  0.00     0.003 A 
ATOM      3  C2  UNL d   1      -1.226   0.147   0.803  0.00  0.00     0.048 A 
ATOM      4  C3  UNL d   1      -0.489  -1.032   0.696  0.00  0.00     0.023 A 
ATOM      5  C4  UNL d   1      -0.846  -2.158   1.440  0.00  0.00     0.048 A 
ATOM      6  C5  UNL d   1      -1.947  -2.099   2.297  0.00  0.00     0.003 A 
ATOM      7  I   UNL d   1       1.149  -1.114  -0.579  0.00  0.00    -0.146 I 
ENDROOT
TORSDOF 0
ENDMDL
