MODEL 1
REMARK minimizedAffinity -0.613825142
REMARK minimizedRMSD -1
REMARK  0 active torsions:
REMARK  status: ('A' for Active; 'I' for Inactive)
ROOT
ATOM      1  C1  BNZ d   1      -0.500  -0.847  -0.081  0.00  0.00     0.000 A 
ATOM      2  C2  BNZ d   1      -1.853  -0.637  -0.120  0.00  0.00     0.000 A 
ATOM      3  C3  BNZ d   1      -2.495  -0.015   0.915  0.00  0.00     0.000 A 
ATOM      4  C4  BNZ d   1      -1.791   0.360   2.003  0.00  0.00     0.000 A 
ATOM      5  C5  BNZ d   1      -0.428   0.146   2.061  0.00  0.00     0.000 A 
ATOM      6  C6  BNZ d   1       0.221  -0.445   1.001  0.00  0.00     0.000 A 
ENDROOT
TORSDOF 0
ENDMDL
