MODEL 1
REMARK minimizedAffinity -1.59953916
REMARK minimizedRMSD -1
REMARK  0 active torsions:
REMARK  status: ('A' for Active; 'I' for Inactive)
ROOT
ATOM      1  C1  BNZ d   1       1.880  -1.147   2.904  0.00  0.00     0.000 A 
ATOM      2  C2  BNZ d   1       2.575  -1.637   3.977  0.00  0.00     0.000 A 
ATOM      3  C3  BNZ d   1       1.966  -1.802   5.190  0.00  0.00     0.000 A 
ATOM      4  C4  BNZ d   1       0.676  -1.440   5.338  0.00  0.00     0.000 A 
ATOM      5  C5  BNZ d   1      -0.036  -0.935   4.268  0.00  0.00     0.000 A 
ATOM      6  C6  BNZ d   1       0.569  -0.807   3.039  0.00  0.00     0.000 A 
ENDROOT
TORSDOF 0
ENDMDL
