MODEL 1
REMARK minimizedAffinity 2.15554929
REMARK minimizedRMSD -1
REMARK  0 active torsions:
REMARK  status: ('A' for Active; 'I' for Inactive)
ROOT
ATOM      1  C1  BNZ d   1       0.724  -1.534   4.162  0.00  0.00     0.000 A 
ATOM      2  C2  BNZ d   1       1.322  -1.519   5.394  0.00  0.00     0.000 A 
ATOM      3  C3  BNZ d   1       2.630  -1.146   5.533  0.00  0.00     0.000 A 
ATOM      4  C4  BNZ d   1       3.348  -0.829   4.437  0.00  0.00     0.000 A 
ATOM      5  C5  BNZ d   1       2.763  -0.848   3.187  0.00  0.00     0.000 A 
ATOM      6  C6  BNZ d   1       1.435  -1.186   3.056  0.00  0.00     0.000 A 
ENDROOT
TORSDOF 0
ENDMDL
