MODEL 1
REMARK minimizedAffinity -2.7562027
REMARK minimizedRMSD -1
REMARK  0 active torsions:
REMARK  status: ('A' for Active; 'I' for Inactive)
ROOT
ATOM      1  C1  BNZ d   1       2.928  -1.051   4.015  0.00  0.00     0.000 A 
ATOM      2  C2  BNZ d   1       3.346  -0.554   2.810  0.00  0.00     0.000 A 
ATOM      3  C3  BNZ d   1       2.456   0.015   1.941  0.00  0.00     0.000 A 
ATOM      4  C4  BNZ d   1       1.147   0.049   2.261  0.00  0.00     0.000 A 
ATOM      5  C5  BNZ d   1       0.709  -0.457   3.469  0.00  0.00     0.000 A 
ATOM      6  C6  BNZ d   1       1.612  -0.993   4.357  0.00  0.00     0.000 A 
ENDROOT
TORSDOF 0
ENDMDL
