MODEL 1
REMARK minimizedAffinity -0.230026588
REMARK minimizedRMSD -1
REMARK  0 active torsions:
REMARK  status: ('A' for Active; 'I' for Inactive)
ROOT
ATOM      1  C1  BNZ d   1      -0.713  -0.683  -0.734  0.00  0.00     0.000 A 
ATOM      2  C2  BNZ d   1      -2.045  -0.374  -0.801  0.00  0.00     0.000 A 
ATOM      3  C3  BNZ d   1      -2.706   0.115   0.292  0.00  0.00     0.000 A 
ATOM      4  C4  BNZ d   1      -2.044   0.256   1.459  0.00  0.00     0.000 A 
ATOM      5  C5  BNZ d   1      -0.703  -0.061   1.544  0.00  0.00     0.000 A 
ATOM      6  C6  BNZ d   1      -0.032  -0.516   0.432  0.00  0.00     0.000 A 
ENDROOT
TORSDOF 0
ENDMDL
