MODEL 1
REMARK minimizedAffinity 4.42263269
REMARK minimizedRMSD -1
REMARK  0 active torsions:
REMARK  status: ('A' for Active; 'I' for Inactive)
ROOT
ATOM      1  C1  BNZ d   1       0.726  -1.194   3.749  0.00  0.00     0.000 A 
ATOM      2  C2  BNZ d   1       0.126  -0.709   4.880  0.00  0.00     0.000 A 
ATOM      3  C3  BNZ d   1       0.861  -0.434   5.999  0.00  0.00     0.000 A 
ATOM      4  C4  BNZ d   1       2.187  -0.681   5.999  0.00  0.00     0.000 A 
ATOM      5  C5  BNZ d   1       2.805  -1.179   4.870  0.00  0.00     0.000 A 
ATOM      6  C6  BNZ d   1       2.069  -1.418   3.732  0.00  0.00     0.000 A 
ENDROOT
TORSDOF 0
ENDMDL
