MODEL 1
REMARK minimizedAffinity -0.22419554
REMARK minimizedRMSD -1
REMARK  0 active torsions:
REMARK  status: ('A' for Active; 'I' for Inactive)
ROOT
ATOM      1  C1  BNZ d   1      -1.023  -0.904  -0.610  0.00  0.00     0.000 A 
ATOM      2  C2  BNZ d   1      -2.278  -0.469  -0.945  0.00  0.00     0.000 A 
ATOM      3  C3  BNZ d   1      -2.983   0.347  -0.105  0.00  0.00     0.000 A 
ATOM      4  C4  BNZ d   1      -2.450   0.694   1.084  0.00  0.00     0.000 A 
ATOM      5  C5  BNZ d   1      -1.190   0.256   1.440  0.00  0.00     0.000 A 
ATOM      6  C6  BNZ d   1      -0.467  -0.533   0.575  0.00  0.00     0.000 A 
ENDROOT
TORSDOF 0
ENDMDL
