MODEL 1
REMARK minimizedAffinity -2.22529697
REMARK minimizedRMSD -1
REMARK  1 active torsions:
REMARK  status: ('A' for Active; 'I' for Inactive)
REMARK    1  A    between atoms: C1_2  and  C2_3 
ROOT
ATOM      1  C2  UNL d   1       1.269  -1.545   4.042  0.00  0.00    -0.077 A 
ATOM      2  C3  UNL d   1       1.296  -0.316   3.368  0.00  0.00     0.002 A 
ATOM      3  C4  UNL d   1       0.251   0.045   2.516  0.00  0.00     0.002 A 
ATOM      4  C5  UNL d   1      -0.830  -0.815   2.333  0.00  0.00    -0.004 A 
ATOM      5  C6  UNL d   1      -0.866  -2.040   2.997  0.00  0.00     0.002 A 
ATOM      6  C7  UNL d   1       0.179  -2.403   3.849  0.00  0.00     0.002 A 
ENDROOT
BRANCH   1   7
ATOM      7  C1  UNL d   1       2.371  -1.915   5.000  0.00  0.00     0.055 C 
ATOM      8  C   UNL d   1       3.061  -0.677   5.554  0.00  0.00     0.019 C 
ENDBRANCH   1   7
TORSDOF 1
ENDMDL
