MODEL 1
REMARK minimizedAffinity 7.19226694
REMARK minimizedRMSD -1
REMARK  1 active torsions:
REMARK  status: ('A' for Active; 'I' for Inactive)
REMARK    1  A    between atoms: C1_2  and  C2_3 
ROOT
ATOM      1  C2  UNL d   1       0.850  -1.548   2.942  0.00  0.00    -0.077 A 
ATOM      2  C3  UNL d   1       0.124  -0.392   2.624  0.00  0.00     0.002 A 
ATOM      3  C4  UNL d   1      -1.203  -0.485   2.200  0.00  0.00     0.002 A 
ATOM      4  C5  UNL d   1      -1.817  -1.732   2.095  0.00  0.00    -0.004 A 
ATOM      5  C6  UNL d   1      -1.102  -2.888   2.407  0.00  0.00     0.002 A 
ATOM      6  C7  UNL d   1       0.224  -2.796   2.830  0.00  0.00     0.002 A 
ENDROOT
BRANCH   1   7
ATOM      7  C1  UNL d   1       2.265  -1.446   3.447  0.00  0.00     0.055 C 
ATOM      8  C   UNL d   1       2.311  -1.421   4.968  0.00  0.00     0.019 C 
ENDBRANCH   1   7
TORSDOF 1
ENDMDL
