MODEL 1
REMARK minimizedAffinity 2.65659547
REMARK minimizedRMSD -1
REMARK  1 active torsions:
REMARK  status: ('A' for Active; 'I' for Inactive)
REMARK    1  A    between atoms: C1_2  and  C2_3 
ROOT
ATOM      1  C2  UNL d   1       2.454  -0.501  -5.288  0.00  0.00    -0.077 A 
ATOM      2  C3  UNL d   1       3.641  -0.277  -5.999  0.00  0.00     0.002 A 
ATOM      3  C4  UNL d   1       4.875  -0.332  -5.348  0.00  0.00     0.002 A 
ATOM      4  C5  UNL d   1       4.934  -0.614  -3.985  0.00  0.00    -0.004 A 
ATOM      5  C6  UNL d   1       3.759  -0.837  -3.269  0.00  0.00     0.002 A 
ATOM      6  C7  UNL d   1       2.524  -0.782  -3.917  0.00  0.00     0.002 A 
ENDROOT
BRANCH   1   7
ATOM      7  C1  UNL d   1       1.125  -0.492  -5.998  0.00  0.00     0.055 C 
ATOM      8  C   UNL d   1       0.059  -1.215  -5.187  0.00  0.00     0.019 C 
ENDBRANCH   1   7
TORSDOF 1
ENDMDL
