MODEL 1
REMARK minimizedAffinity -2.03394604
REMARK minimizedRMSD -1
REMARK  1 active torsions:
REMARK  status: ('A' for Active; 'I' for Inactive)
REMARK    1  A    between atoms: C1_2  and  C2_3 
ROOT
ATOM      1  C2  UNL d   1       0.240  -1.095   2.849  0.00  0.00    -0.077 A 
ATOM      2  C3  UNL d   1       0.009   0.034   2.052  0.00  0.00     0.002 A 
ATOM      3  C4  UNL d   1      -1.266   0.289   1.541  0.00  0.00     0.002 A 
ATOM      4  C5  UNL d   1      -2.319  -0.578   1.826  0.00  0.00    -0.004 A 
ATOM      5  C6  UNL d   1      -2.098  -1.705   2.616  0.00  0.00     0.002 A 
ATOM      6  C7  UNL d   1      -0.825  -1.962   3.127  0.00  0.00     0.002 A 
ENDROOT
BRANCH   1   7
ATOM      7  C1  UNL d   1       1.602  -1.345   3.442  0.00  0.00     0.055 C 
ATOM      8  C   UNL d   1       1.611  -1.081   4.940  0.00  0.00     0.019 C 
ENDBRANCH   1   7
TORSDOF 1
ENDMDL
