MODEL 1
REMARK minimizedAffinity 2.56146765
REMARK minimizedRMSD -1
REMARK  1 active torsions:
REMARK  status: ('A' for Active; 'I' for Inactive)
REMARK    1  A    between atoms: C1_2  and  C2_3 
ROOT
ATOM      1  C2  UNL d   1       0.627  -1.358   2.737  0.00  0.00    -0.077 A 
ATOM      2  C3  UNL d   1       0.462  -0.052   2.253  0.00  0.00     0.002 A 
ATOM      3  C4  UNL d   1      -0.740   0.333   1.655  0.00  0.00     0.002 A 
ATOM      4  C5  UNL d   1      -1.786  -0.580   1.540  0.00  0.00    -0.004 A 
ATOM      5  C6  UNL d   1      -1.631  -1.881   2.016  0.00  0.00     0.002 A 
ATOM      6  C7  UNL d   1      -0.430  -2.268   2.613  0.00  0.00     0.002 A 
ENDROOT
BRANCH   1   7
ATOM      7  C1  UNL d   1       1.904  -1.761   3.426  0.00  0.00     0.055 C 
ATOM      8  C   UNL d   1       1.892  -1.360   4.894  0.00  0.00     0.019 C 
ENDBRANCH   1   7
TORSDOF 1
ENDMDL
