MODEL 1
REMARK minimizedAffinity -1.83950949
REMARK minimizedRMSD -1
REMARK  1 active torsions:
REMARK  status: ('A' for Active; 'I' for Inactive)
REMARK    1  A    between atoms: C1_2  and  C2_3 
ROOT
ATOM      1  C2  UNL d   1      -1.023  -1.775  -0.592  0.00  0.00    -0.077 A 
ATOM      2  C3  UNL d   1      -0.261  -1.195   0.432  0.00  0.00     0.002 A 
ATOM      3  C4  UNL d   1      -0.851  -0.309   1.335  0.00  0.00     0.002 A 
ATOM      4  C5  UNL d   1      -2.205   0.001   1.227  0.00  0.00    -0.004 A 
ATOM      5  C6  UNL d   1      -2.971  -0.570   0.211  0.00  0.00     0.002 A 
ATOM      6  C7  UNL d   1      -2.383  -1.454  -0.694  0.00  0.00     0.002 A 
ENDROOT
BRANCH   1   7
ATOM      7  C1  UNL d   1      -0.400  -2.769  -1.538  0.00  0.00     0.055 C 
ATOM      8  C   UNL d   1       0.070  -2.095  -2.819  0.00  0.00     0.019 C 
ENDBRANCH   1   7
TORSDOF 1
ENDMDL
