MODEL 1
REMARK minimizedAffinity -3.35858583
REMARK minimizedRMSD -1
REMARK  2 active torsions:
REMARK  status: ('A' for Active; 'I' for Inactive)
REMARK    1  A    between atoms: C1_2  and  C2_3 
REMARK    2  A    between atoms: C2_3  and  C3_4 
ROOT
ATOM      1  C3  UNL d   1      -1.055   1.075   0.151  0.00  0.00    -0.075 A 
ATOM      2  C4  UNL d   1      -0.467   1.790  -0.903  0.00  0.00     0.002 A 
ATOM      3  C5  UNL d   1       0.629   1.266  -1.589  0.00  0.00     0.002 A 
ATOM      4  C6  UNL d   1       1.155   0.028  -1.226  0.00  0.00    -0.004 A 
ATOM      5  C7  UNL d   1       0.589  -0.683  -0.170  0.00  0.00     0.002 A 
ATOM      6  C8  UNL d   1      -0.510  -0.163   0.516  0.00  0.00     0.002 A 
ENDROOT
BRANCH   1   7
ATOM      7  C2  UNL d   1      -2.259   1.624   0.878  0.00  0.00     0.056 C 
BRANCH   7   8
ATOM      8  C1  UNL d   1      -1.912   2.547   2.051  0.00  0.00     0.007 C 
ATOM      9  C   UNL d   1      -0.670   2.107   2.814  0.00  0.00     0.009 C 
ENDBRANCH   7   8
ENDBRANCH   1   7
TORSDOF 2
ENDMDL
