MODEL 1
REMARK minimizedAffinity -5.77911663
REMARK minimizedRMSD -1
REMARK  2 active torsions:
REMARK  status: ('A' for Active; 'I' for Inactive)
REMARK    1  A    between atoms: C1_2  and  C2_3 
REMARK    2  A    between atoms: C2_3  and  C3_4 
ROOT
ATOM      1  C3  UNL d   1      -0.887   1.185   0.316  0.00  0.00    -0.075 A 
ATOM      2  C4  UNL d   1      -0.401   1.896  -0.791  0.00  0.00     0.002 A 
ATOM      3  C5  UNL d   1      -0.718   3.244  -0.962  0.00  0.00     0.002 A 
ATOM      4  C6  UNL d   1      -1.532   3.894  -0.037  0.00  0.00    -0.004 A 
ATOM      5  C7  UNL d   1      -2.034   3.193   1.057  0.00  0.00     0.002 A 
ATOM      6  C8  UNL d   1      -1.715   1.846   1.233  0.00  0.00     0.002 A 
ENDROOT
BRANCH   1   7
ATOM      7  C2  UNL d   1      -0.523  -0.266   0.523  0.00  0.00     0.056 C 
BRANCH   7   8
ATOM      8  C1  UNL d   1       0.743  -0.703  -0.222  0.00  0.00     0.007 C 
ATOM      9  C   UNL d   1       0.465  -1.685  -1.353  0.00  0.00     0.009 C 
ENDBRANCH   7   8
ENDBRANCH   1   7
TORSDOF 2
ENDMDL
