MODEL 1
REMARK minimizedAffinity -4.90264273
REMARK minimizedRMSD -1
REMARK  2 active torsions:
REMARK  status: ('A' for Active; 'I' for Inactive)
REMARK    1  A    between atoms: C1_2  and  C2_3 
REMARK    2  A    between atoms: C2_3  and  C3_4 
ROOT
ATOM      1  C3  UNL d   1       0.113  -0.163  -0.143  0.00  0.00    -0.075 A 
ATOM      2  C4  UNL d   1      -0.570   0.852  -0.829  0.00  0.00     0.002 A 
ATOM      3  C5  UNL d   1      -1.197   1.882  -0.128  0.00  0.00     0.002 A 
ATOM      4  C6  UNL d   1      -1.159   1.906   1.264  0.00  0.00    -0.004 A 
ATOM      5  C7  UNL d   1      -0.497   0.894   1.956  0.00  0.00     0.002 A 
ATOM      6  C8  UNL d   1       0.136  -0.136   1.258  0.00  0.00     0.002 A 
ENDROOT
BRANCH   1   7
ATOM      7  C2  UNL d   1       0.820  -1.264  -0.897  0.00  0.00     0.056 C 
BRANCH   7   8
ATOM      8  C1  UNL d   1       0.190  -1.594  -2.254  0.00  0.00     0.007 C 
ATOM      9  C   UNL d   1       0.242  -3.077  -2.596  0.00  0.00     0.009 C 
ENDBRANCH   7   8
ENDBRANCH   1   7
TORSDOF 2
ENDMDL
