MODEL 1
REMARK minimizedAffinity -1.22781765
REMARK minimizedRMSD -1
REMARK  2 active torsions:
REMARK  status: ('A' for Active; 'I' for Inactive)
REMARK    1  A    between atoms: C1_2  and  C2_3 
REMARK    2  A    between atoms: C2_3  and  C3_4 
ROOT
ATOM      1  C3  UNL d   1       0.135   0.032  -0.527  0.00  0.00    -0.075 A 
ATOM      2  C4  UNL d   1      -0.079  -0.725   0.635  0.00  0.00     0.002 A 
ATOM      3  C5  UNL d   1      -0.882  -0.233   1.663  0.00  0.00     0.002 A 
ATOM      4  C6  UNL d   1      -1.473   1.024   1.549  0.00  0.00    -0.004 A 
ATOM      5  C7  UNL d   1      -1.254   1.791   0.407  0.00  0.00     0.002 A 
ATOM      6  C8  UNL d   1      -0.454   1.299  -0.626  0.00  0.00     0.002 A 
ENDROOT
BRANCH   1   7
ATOM      7  C2  UNL d   1       0.980  -0.508  -1.656  0.00  0.00     0.056 C 
BRANCH   7   8
ATOM      8  C1  UNL d   1       1.051  -2.038  -1.706  0.00  0.00     0.007 C 
ATOM      9  C   UNL d   1       0.408  -2.628  -2.954  0.00  0.00     0.009 C 
ENDBRANCH   7   8
ENDBRANCH   1   7
TORSDOF 2
ENDMDL
