MODEL 1
REMARK minimizedAffinity -2.7542994
REMARK minimizedRMSD -1
REMARK  2 active torsions:
REMARK  status: ('A' for Active; 'I' for Inactive)
REMARK    1  A    between atoms: C1_2  and  C2_3 
REMARK    2  A    between atoms: C2_3  and  C3_4 
ROOT
ATOM      1  C3  UNL d   1       0.919   0.043  -0.774  0.00  0.00    -0.075 A 
ATOM      2  C4  UNL d   1       0.293  -0.407   0.398  0.00  0.00     0.002 A 
ATOM      3  C5  UNL d   1      -0.461   0.468   1.179  0.00  0.00     0.002 A 
ATOM      4  C6  UNL d   1      -0.591   1.804   0.806  0.00  0.00    -0.004 A 
ATOM      5  C7  UNL d   1       0.040   2.266  -0.347  0.00  0.00     0.002 A 
ATOM      6  C8  UNL d   1       0.792   1.392  -1.133  0.00  0.00     0.002 A 
ENDROOT
BRANCH   1   7
ATOM      7  C2  UNL d   1       1.712  -0.906  -1.640  0.00  0.00     0.056 C 
BRANCH   7   8
ATOM      8  C1  UNL d   1       1.231  -2.359  -1.576  0.00  0.00     0.007 C 
ATOM      9  C   UNL d   1       0.591  -2.838  -2.872  0.00  0.00     0.009 C 
ENDBRANCH   7   8
ENDBRANCH   1   7
TORSDOF 2
ENDMDL
