MODEL 1
REMARK minimizedAffinity -3.53159046
REMARK minimizedRMSD -1
REMARK  2 active torsions:
REMARK  status: ('A' for Active; 'I' for Inactive)
REMARK    1  A    between atoms: C1_2  and  C2_3 
REMARK    2  A    between atoms: C2_3  and  C3_4 
ROOT
ATOM      1  C3  UNL d   1       0.511  -0.477  -0.221  0.00  0.00    -0.075 A 
ATOM      2  C4  UNL d   1       0.146  -0.701   1.114  0.00  0.00     0.002 A 
ATOM      3  C5  UNL d   1      -0.590   0.253   1.817  0.00  0.00     0.002 A 
ATOM      4  C6  UNL d   1      -0.961   1.445   1.198  0.00  0.00    -0.004 A 
ATOM      5  C7  UNL d   1      -0.589   1.685  -0.122  0.00  0.00     0.002 A 
ATOM      6  C8  UNL d   1       0.144   0.730  -0.829  0.00  0.00     0.002 A 
ENDROOT
BRANCH   1   7
ATOM      7  C2  UNL d   1       1.283  -1.519  -0.996  0.00  0.00     0.056 C 
BRANCH   7   8
ATOM      8  C1  UNL d   1       0.471  -2.201  -2.103  0.00  0.00     0.007 C 
ATOM      9  C   UNL d   1       0.739  -3.696  -2.209  0.00  0.00     0.009 C 
ENDBRANCH   7   8
ENDBRANCH   1   7
TORSDOF 2
ENDMDL
