MODEL 1
REMARK minimizedAffinity -5.02440643
REMARK minimizedRMSD -1
REMARK  2 active torsions:
REMARK  status: ('A' for Active; 'I' for Inactive)
REMARK    1  A    between atoms: C1_2  and  C2_3 
REMARK    2  A    between atoms: C2_3  and  C3_4 
ROOT
ATOM      1  C3  UNL d   1      -0.034   0.931  -0.341  0.00  0.00    -0.075 A 
ATOM      2  C4  UNL d   1      -0.113   2.310  -0.583  0.00  0.00     0.002 A 
ATOM      3  C5  UNL d   1      -1.012   3.104   0.129  0.00  0.00     0.002 A 
ATOM      4  C6  UNL d   1      -1.849   2.529   1.083  0.00  0.00    -0.004 A 
ATOM      5  C7  UNL d   1      -1.791   1.157   1.320  0.00  0.00     0.002 A 
ATOM      6  C8  UNL d   1      -0.889   0.361   0.612  0.00  0.00     0.002 A 
ENDROOT
BRANCH   1   7
ATOM      7  C2  UNL d   1       0.958   0.071  -1.087  0.00  0.00     0.056 C 
BRANCH   7   8
ATOM      8  C1  UNL d   1       0.997  -1.387  -0.618  0.00  0.00     0.007 C 
ATOM      9  C   UNL d   1       0.881  -2.389  -1.760  0.00  0.00     0.009 C 
ENDBRANCH   7   8
ENDBRANCH   1   7
TORSDOF 2
ENDMDL
