MODEL 1
REMARK minimizedAffinity -4.06735849
REMARK minimizedRMSD -1
REMARK  2 active torsions:
REMARK  status: ('A' for Active; 'I' for Inactive)
REMARK    1  A    between atoms: C1_2  and  C2_3 
REMARK    2  A    between atoms: C2_3  and  C3_4 
ROOT
ATOM      1  C3  UNL d   1       0.378  -0.140  -0.068  0.00  0.00    -0.075 A 
ATOM      2  C4  UNL d   1      -0.356  -0.068   1.125  0.00  0.00     0.002 A 
ATOM      3  C5  UNL d   1      -0.758   1.166   1.636  0.00  0.00     0.002 A 
ATOM      4  C6  UNL d   1      -0.424   2.342   0.969  0.00  0.00    -0.004 A 
ATOM      5  C7  UNL d   1       0.319   2.284  -0.208  0.00  0.00     0.002 A 
ATOM      6  C8  UNL d   1       0.719   1.050  -0.725  0.00  0.00     0.002 A 
ENDROOT
BRANCH   1   7
ATOM      7  C2  UNL d   1       0.791  -1.474  -0.642  0.00  0.00     0.056 C 
BRANCH   7   8
ATOM      8  C1  UNL d   1       0.024  -1.873  -1.907  0.00  0.00     0.007 C 
ATOM      9  C   UNL d   1       0.210  -3.337  -2.286  0.00  0.00     0.009 C 
ENDBRANCH   7   8
ENDBRANCH   1   7
TORSDOF 2
ENDMDL
