MODEL 1
REMARK minimizedAffinity -5.7287817
REMARK minimizedRMSD -1
REMARK  2 active torsions:
REMARK  status: ('A' for Active; 'I' for Inactive)
REMARK    1  A    between atoms: C1_2  and  C2_3 
REMARK    2  A    between atoms: C2_3  and  C3_4 
ROOT
ATOM      1  C3  UNL d   1       0.175   0.689  -0.180  0.00  0.00    -0.075 A 
ATOM      2  C4  UNL d   1       0.114   1.937  -0.816  0.00  0.00     0.002 A 
ATOM      3  C5  UNL d   1      -0.732   2.937  -0.335  0.00  0.00     0.002 A 
ATOM      4  C6  UNL d   1      -1.535   2.698   0.778  0.00  0.00    -0.004 A 
ATOM      5  C7  UNL d   1      -1.495   1.456   1.408  0.00  0.00     0.002 A 
ATOM      6  C8  UNL d   1      -0.645   0.456   0.932  0.00  0.00     0.002 A 
ENDROOT
BRANCH   1   7
ATOM      7  C2  UNL d   1       1.111  -0.387  -0.677  0.00  0.00     0.056 C 
BRANCH   7   8
ATOM      8  C1  UNL d   1       0.468  -1.363  -1.669  0.00  0.00     0.007 C 
ATOM      9  C   UNL d   1       0.919  -2.804  -1.470  0.00  0.00     0.009 C 
ENDBRANCH   7   8
ENDBRANCH   1   7
TORSDOF 2
ENDMDL
