MODEL 1
REMARK minimizedAffinity -4.70054436
REMARK minimizedRMSD -1
REMARK  2 active torsions:
REMARK  status: ('A' for Active; 'I' for Inactive)
REMARK    1  A    between atoms: C1_2  and  C2_3 
REMARK    2  A    between atoms: C2_3  and  C3_4 
ROOT
ATOM      1  C3  UNL d   1      -0.816   1.512   0.658  0.00  0.00    -0.075 A 
ATOM      2  C4  UNL d   1      -1.328   0.977   1.849  0.00  0.00     0.002 A 
ATOM      3  C5  UNL d   1      -0.890  -0.264   2.313  0.00  0.00     0.002 A 
ATOM      4  C6  UNL d   1       0.056  -0.988   1.590  0.00  0.00    -0.004 A 
ATOM      5  C7  UNL d   1       0.559  -0.472   0.398  0.00  0.00     0.002 A 
ATOM      6  C8  UNL d   1       0.126   0.771  -0.067  0.00  0.00     0.002 A 
ENDROOT
BRANCH   1   7
ATOM      7  C2  UNL d   1      -1.264   2.868   0.166  0.00  0.00     0.056 C 
BRANCH   7   8
ATOM      8  C1  UNL d   1      -0.196   3.627  -0.629  0.00  0.00     0.007 C 
ATOM      9  C   UNL d   1      -0.747   4.312  -1.873  0.00  0.00     0.009 C 
ENDBRANCH   7   8
ENDBRANCH   1   7
TORSDOF 2
ENDMDL
