MODEL 1
REMARK minimizedAffinity 10.6999254
REMARK minimizedRMSD -1
REMARK  1 active torsions:
REMARK  status: ('A' for Active; 'I' for Inactive)
REMARK    1  A    between atoms: C1_2  and  C2_3 
ROOT
ATOM      1  C2  UNL d   1       3.007  -2.059   3.949  0.00  0.00    -0.073 A 
ATOM      2  C3  UNL d   1       1.996  -1.092   3.949  0.00  0.00    -0.002 A 
ATOM      3  C4  UNL d   1       1.033  -1.079   2.939  0.00  0.00     0.004 A 
ATOM      4  C5  UNL d   1       1.067  -2.035   1.924  0.00  0.00    -0.004 A 
ATOM      5  C6  UNL d   1       2.063  -3.017   1.913  0.00  0.00    -0.075 A 
ATOM      6  C7  UNL d   1       2.115  -4.051   0.828  0.00  0.00     0.076 C 
ATOM      7  C8  UNL d   1       3.028  -3.022   2.929  0.00  0.00     0.001 A 
ENDROOT
BRANCH   1   8
ATOM      8  C1  UNL d   1       4.045  -2.080   5.041  0.00  0.00     0.053 C 
ATOM      9  C   UNL d   1       4.164  -3.452   5.687  0.00  0.00     0.018 C 
ENDBRANCH   1   8
TORSDOF 1
ENDMDL
