MODEL 1
REMARK minimizedAffinity 6.45685434
REMARK minimizedRMSD -1
REMARK  1 active torsions:
REMARK  status: ('A' for Active; 'I' for Inactive)
REMARK    1  A    between atoms: C1_2  and  C2_3 
ROOT
ATOM      1  C2  UNL d   1      -4.071   2.594   5.282  0.00  0.00    -0.073 A 
ATOM      2  C3  UNL d   1      -5.060   1.912   6.000  0.00  0.00    -0.002 A 
ATOM      3  C4  UNL d   1      -5.990   1.113   5.333  0.00  0.00     0.004 A 
ATOM      4  C5  UNL d   1      -5.937   0.983   3.946  0.00  0.00    -0.004 A 
ATOM      5  C6  UNL d   1      -4.949   1.647   3.212  0.00  0.00    -0.075 A 
ATOM      6  C7  UNL d   1      -4.880   1.519   1.719  0.00  0.00     0.076 C 
ATOM      7  C8  UNL d   1      -4.020   2.449   3.888  0.00  0.00     0.001 A 
ENDROOT
BRANCH   1   8
ATOM      8  C1  UNL d   1      -3.060   3.452   5.998  0.00  0.00     0.053 C 
ATOM      9  C   UNL d   1      -3.396   4.931   5.898  0.00  0.00     0.018 C 
ENDBRANCH   1   8
TORSDOF 1
ENDMDL
