MODEL 1
REMARK minimizedAffinity 10.8935204
REMARK minimizedRMSD -1
REMARK  1 active torsions:
REMARK  status: ('A' for Active; 'I' for Inactive)
REMARK    1  A    between atoms: C1_2  and  C2_3 
ROOT
ATOM      1  C2  UNL d   1       1.533  -2.347   1.128  0.00  0.00    -0.073 A 
ATOM      2  C3  UNL d   1       2.611  -1.719   1.762  0.00  0.00    -0.002 A 
ATOM      3  C4  UNL d   1       2.392  -0.867   2.846  0.00  0.00     0.004 A 
ATOM      4  C5  UNL d   1       1.096  -0.640   3.309  0.00  0.00    -0.004 A 
ATOM      5  C6  UNL d   1       0.007  -1.269   2.696  0.00  0.00    -0.075 A 
ATOM      6  C7  UNL d   1      -1.393  -1.034   3.182  0.00  0.00     0.076 C 
ATOM      7  C8  UNL d   1       0.235  -2.121   1.607  0.00  0.00     0.001 A 
ENDROOT
BRANCH   1   8
ATOM      8  C1  UNL d   1       1.766  -3.273  -0.038  0.00  0.00     0.053 C 
ATOM      9  C   UNL d   1       2.151  -4.673   0.414  0.00  0.00     0.018 C 
ENDBRANCH   1   8
TORSDOF 1
ENDMDL
