MODEL 1
REMARK minimizedAffinity 7.35751534
REMARK minimizedRMSD -1
REMARK  1 active torsions:
REMARK  status: ('A' for Active; 'I' for Inactive)
REMARK    1  A    between atoms: C1_2  and  C2_3 
ROOT
ATOM      1  C2  UNL d   1      -0.084  -1.517   2.248  0.00  0.00    -0.073 A 
ATOM      2  C3  UNL d   1       0.140  -1.682   0.877  0.00  0.00    -0.002 A 
ATOM      3  C4  UNL d   1       1.438  -1.646   0.365  0.00  0.00     0.004 A 
ATOM      4  C5  UNL d   1       2.524  -1.452   1.219  0.00  0.00    -0.004 A 
ATOM      5  C6  UNL d   1       2.321  -1.298   2.594  0.00  0.00    -0.075 A 
ATOM      6  C7  UNL d   1       3.478  -1.087   3.526  0.00  0.00     0.076 C 
ATOM      7  C8  UNL d   1       1.014  -1.332   3.100  0.00  0.00     0.001 A 
ENDROOT
BRANCH   1   8
ATOM      8  C1  UNL d   1      -1.484  -1.562   2.806  0.00  0.00     0.053 C 
ATOM      9  C   UNL d   1      -2.022  -2.982   2.883  0.00  0.00     0.018 C 
ENDBRANCH   1   8
TORSDOF 1
ENDMDL
