MODEL 1
REMARK minimizedAffinity 13.5855045
REMARK minimizedRMSD -1
REMARK  1 active torsions:
REMARK  status: ('A' for Active; 'I' for Inactive)
REMARK    1  A    between atoms: C1_2  and  C2_3 
ROOT
ATOM      1  C2  UNL d   1      -2.858   3.115  -3.404  0.00  0.00    -0.073 A 
ATOM      2  C3  UNL d   1      -1.677   3.596  -3.980  0.00  0.00    -0.002 A 
ATOM      3  C4  UNL d   1      -0.461   2.955  -3.734  0.00  0.00     0.004 A 
ATOM      4  C5  UNL d   1      -0.416   1.825  -2.918  0.00  0.00    -0.004 A 
ATOM      5  C6  UNL d   1      -1.588   1.323  -2.343  0.00  0.00    -0.075 A 
ATOM      6  C7  UNL d   1      -1.556   0.110  -1.461  0.00  0.00     0.076 C 
ATOM      7  C8  UNL d   1      -2.804   1.973  -2.592  0.00  0.00     0.001 A 
ENDROOT
BRANCH   1   8
ATOM      8  C1  UNL d   1      -4.174   3.800  -3.672  0.00  0.00     0.053 C 
ATOM      9  C   UNL d   1      -4.036   5.314  -3.685  0.00  0.00     0.018 C 
ENDBRANCH   1   8
TORSDOF 1
ENDMDL
