MODEL 1
REMARK minimizedAffinity -2.06377149
REMARK minimizedRMSD -1
REMARK  0 active torsions:
REMARK  status: ('A' for Active; 'I' for Inactive)
ROOT
ATOM      1  C   UNL d   1       0.774  -1.036   1.704  0.00  0.00     0.124 A 
ATOM      2  C1  UNL d   1      -0.266  -0.184   2.049  0.00  0.00     0.062 A 
ATOM      3  C2  UNL d   1      -0.895   0.584   1.074  0.00  0.00     0.162 A 
ATOM      4  C3  UNL d   1      -0.486   0.504  -0.258  0.00  0.00    -0.034 A 
ATOM      5  C4  UNL d   1       0.562  -0.355  -0.597  0.00  0.00     0.162 A 
ATOM      6  C5  UNL d   1       1.187  -1.121   0.382  0.00  0.00     0.062 A 
ATOM      7  F   UNL d   1       2.191  -1.943   0.046  0.00  0.00    -0.097 F 
ATOM      8  F1  UNL d   1       0.980  -0.457  -1.867  0.00  0.00    -0.096 F 
ATOM      9  I   UNL d   1      -1.423   1.651  -1.719  0.00  0.00    -0.060 I 
ATOM     10  F2  UNL d   1      -1.897   1.399   1.436  0.00  0.00    -0.096 F 
ATOM     11  F3  UNL d   1      -0.666  -0.100   3.326  0.00  0.00    -0.097 F 
ATOM     12  F4  UNL d   1       1.377  -1.774   2.645  0.00  0.00    -0.092 F 
ENDROOT
TORSDOF 0
ENDMDL
