MODEL 1
REMARK minimizedAffinity -3.77263546
REMARK minimizedRMSD -1
REMARK  0 active torsions:
REMARK  status: ('A' for Active; 'I' for Inactive)
ROOT
ATOM      1  C   UNL d   1       0.464  -1.237   1.532  0.00  0.00     0.124 A 
ATOM      2  C1  UNL d   1      -0.413  -0.259   1.981  0.00  0.00     0.062 A 
ATOM      3  C2  UNL d   1      -0.894   0.707   1.102  0.00  0.00     0.162 A 
ATOM      4  C3  UNL d   1      -0.499   0.700  -0.236  0.00  0.00    -0.034 A 
ATOM      5  C4  UNL d   1       0.384  -0.285  -0.680  0.00  0.00     0.162 A 
ATOM      6  C5  UNL d   1       0.862  -1.249   0.202  0.00  0.00     0.062 A 
ATOM      7  F   UNL d   1       1.709  -2.193  -0.234  0.00  0.00    -0.097 F 
ATOM      8  F1  UNL d   1       0.784  -0.321  -1.960  0.00  0.00    -0.096 F 
ATOM      9  I   UNL d   1      -1.215   2.144  -1.553  0.00  0.00    -0.060 I 
ATOM     10  F2  UNL d   1      -1.740   1.640   1.564  0.00  0.00    -0.096 F 
ATOM     11  F3  UNL d   1      -0.798  -0.245   3.265  0.00  0.00    -0.097 F 
ATOM     12  F4  UNL d   1       0.926  -2.165   2.379  0.00  0.00    -0.092 F 
ENDROOT
TORSDOF 0
ENDMDL
