MODEL 1
REMARK minimizedAffinity -2.07013512
REMARK minimizedRMSD -1
REMARK  0 active torsions:
REMARK  status: ('A' for Active; 'I' for Inactive)
ROOT
ATOM      1  C   UNL d   1       0.924  -1.770   1.310  0.00  0.00     0.124 A 
ATOM      2  C1  UNL d   1       1.339  -1.734  -0.015  0.00  0.00     0.062 A 
ATOM      3  C2  UNL d   1       0.662  -0.943  -0.939  0.00  0.00     0.162 A 
ATOM      4  C3  UNL d   1      -0.436  -0.180  -0.542  0.00  0.00    -0.034 A 
ATOM      5  C4  UNL d   1      -0.848  -0.222   0.792  0.00  0.00     0.162 A 
ATOM      6  C5  UNL d   1      -0.168  -1.014   1.711  0.00  0.00     0.062 A 
ATOM      7  F   UNL d   1      -0.570  -1.048   2.990  0.00  0.00    -0.097 F 
ATOM      8  F1  UNL d   1      -1.900   0.499   1.208  0.00  0.00    -0.096 F 
ATOM      9  I   UNL d   1      -1.451   1.004  -1.920  0.00  0.00    -0.060 I 
ATOM     10  F2  UNL d   1       1.085  -0.927  -2.212  0.00  0.00    -0.096 F 
ATOM     11  F3  UNL d   1       2.393  -2.464  -0.406  0.00  0.00    -0.097 F 
ATOM     12  F4  UNL d   1       1.577  -2.533   2.196  0.00  0.00    -0.092 F 
ENDROOT
TORSDOF 0
ENDMDL
