MODEL 1
REMARK minimizedAffinity -0.033509165
REMARK minimizedRMSD -1
REMARK  0 active torsions:
REMARK  status: ('A' for Active; 'I' for Inactive)
ROOT
ATOM      1  C   UNL d   1       1.315  -2.002   1.408  0.00  0.00     0.124 A 
ATOM      2  C1  UNL d   1       0.354  -1.088   1.818  0.00  0.00     0.062 A 
ATOM      3  C2  UNL d   1      -0.193  -0.191   0.905  0.00  0.00     0.162 A 
ATOM      4  C3  UNL d   1       0.219  -0.204  -0.428  0.00  0.00    -0.034 A 
ATOM      5  C4  UNL d   1       1.186  -1.126  -0.832  0.00  0.00     0.162 A 
ATOM      6  C5  UNL d   1       1.730  -2.020   0.084  0.00  0.00     0.062 A 
ATOM      7  F   UNL d   1       2.658  -2.903  -0.314  0.00  0.00    -0.097 F 
ATOM      8  F1  UNL d   1       1.605  -1.166  -2.106  0.00  0.00    -0.096 F 
ATOM      9  I   UNL d   1      -0.597   1.135  -1.796  0.00  0.00    -0.060 I 
ATOM     10  F2  UNL d   1      -1.119   0.681   1.328  0.00  0.00    -0.096 F 
ATOM     11  F3  UNL d   1      -0.047  -1.068   3.097  0.00  0.00    -0.097 F 
ATOM     12  F4  UNL d   1       1.841  -2.863   2.289  0.00  0.00    -0.092 F 
ENDROOT
TORSDOF 0
ENDMDL
