MODEL 1
REMARK minimizedAffinity -0.56819886
REMARK minimizedRMSD -1
REMARK  0 active torsions:
REMARK  status: ('A' for Active; 'I' for Inactive)
ROOT
ATOM      1  C   UNL d   1       1.279  -1.872   1.631  0.00  0.00     0.124 A 
ATOM      2  C1  UNL d   1       0.256  -1.038   2.060  0.00  0.00     0.062 A 
ATOM      3  C2  UNL d   1      -0.409  -0.221   1.151  0.00  0.00     0.162 A 
ATOM      4  C3  UNL d   1      -0.054  -0.234  -0.198  0.00  0.00    -0.034 A 
ATOM      5  C4  UNL d   1       0.976  -1.075  -0.622  0.00  0.00     0.162 A 
ATOM      6  C5  UNL d   1       1.638  -1.890   0.291  0.00  0.00     0.062 A 
ATOM      7  F   UNL d   1       2.626  -2.695  -0.126  0.00  0.00    -0.097 F 
ATOM      8  F1  UNL d   1       1.343  -1.113  -1.912  0.00  0.00    -0.096 F 
ATOM      9  I   UNL d   1      -1.046   0.986  -1.561  0.00  0.00    -0.060 I 
ATOM     10  F2  UNL d   1      -1.394   0.575   1.594  0.00  0.00    -0.096 F 
ATOM     11  F3  UNL d   1      -0.092  -1.018   3.355  0.00  0.00    -0.097 F 
ATOM     12  F4  UNL d   1       1.918  -2.656   2.508  0.00  0.00    -0.092 F 
ENDROOT
TORSDOF 0
ENDMDL
