MODEL 1
REMARK minimizedAffinity -4.6319685
REMARK minimizedRMSD -1
REMARK  0 active torsions:
REMARK  status: ('A' for Active; 'I' for Inactive)
ROOT
ATOM      1  C   UNL d   1      -0.067   3.886  -1.973  0.00  0.00     0.124 A 
ATOM      2  C1  UNL d   1       1.154   3.586  -1.387  0.00  0.00     0.062 A 
ATOM      3  C2  UNL d   1       1.470   2.269  -1.062  0.00  0.00     0.162 A 
ATOM      4  C3  UNL d   1       0.563   1.243  -1.324  0.00  0.00    -0.034 A 
ATOM      5  C4  UNL d   1      -0.664   1.553  -1.913  0.00  0.00     0.162 A 
ATOM      6  C5  UNL d   1      -0.975   2.870  -2.235  0.00  0.00     0.062 A 
ATOM      7  F   UNL d   1      -2.156   3.159  -2.801  0.00  0.00    -0.097 F 
ATOM      8  F1  UNL d   1      -1.560   0.591  -2.179  0.00  0.00    -0.096 F 
ATOM      9  I   UNL d   1       1.031  -0.726  -0.841  0.00  0.00    -0.060 I 
ATOM     10  F2  UNL d   1       2.658   2.008  -0.497  0.00  0.00    -0.096 F 
ATOM     11  F3  UNL d   1       2.033   4.566  -1.131  0.00  0.00    -0.097 F 
ATOM     12  F4  UNL d   1      -0.369   5.154  -2.283  0.00  0.00    -0.092 F 
ENDROOT
TORSDOF 0
ENDMDL
