MODEL 1
REMARK minimizedAffinity -2.65500498
REMARK minimizedRMSD -1
REMARK  0 active torsions:
REMARK  status: ('A' for Active; 'I' for Inactive)
ROOT
ATOM      1  C   UNL d   1       0.956  -1.581   1.457  0.00  0.00     0.124 A 
ATOM      2  C1  UNL d   1       1.477  -1.713   0.178  0.00  0.00     0.062 A 
ATOM      3  C2  UNL d   1       0.956  -0.961  -0.871  0.00  0.00     0.162 A 
ATOM      4  C3  UNL d   1      -0.091  -0.069  -0.645  0.00  0.00    -0.034 A 
ATOM      5  C4  UNL d   1      -0.611   0.058   0.644  0.00  0.00     0.162 A 
ATOM      6  C5  UNL d   1      -0.087  -0.696   1.689  0.00  0.00     0.062 A 
ATOM      7  F   UNL d   1      -0.592  -0.567   2.925  0.00  0.00    -0.097 F 
ATOM      8  F1  UNL d   1      -1.618   0.907   0.897  0.00  0.00    -0.096 F 
ATOM      9  I   UNL d   1      -0.873   1.057  -2.211  0.00  0.00    -0.060 I 
ATOM     10  F2  UNL d   1       1.479  -1.110  -2.098  0.00  0.00    -0.096 F 
ATOM     11  F3  UNL d   1       2.484  -2.569  -0.049  0.00  0.00    -0.097 F 
ATOM     12  F4  UNL d   1       1.458  -2.307   2.465  0.00  0.00    -0.092 F 
ENDROOT
TORSDOF 0
ENDMDL
