MODEL 1
REMARK minimizedAffinity 0.61836797
REMARK minimizedRMSD -1
REMARK  0 active torsions:
REMARK  status: ('A' for Active; 'I' for Inactive)
ROOT
ATOM      1  C   UNL d   1       0.667  -1.391   1.364  0.00  0.00     0.124 A 
ATOM      2  C1  UNL d   1       1.262  -1.132   0.137  0.00  0.00     0.062 A 
ATOM      3  C2  UNL d   1       0.671  -0.241  -0.754  0.00  0.00     0.162 A 
ATOM      4  C3  UNL d   1      -0.523   0.398  -0.422  0.00  0.00    -0.034 A 
ATOM      5  C4  UNL d   1      -1.117   0.132   0.814  0.00  0.00     0.162 A 
ATOM      6  C5  UNL d   1      -0.522  -0.759   1.701  0.00  0.00     0.062 A 
ATOM      7  F   UNL d   1      -1.099  -1.007   2.886  0.00  0.00    -0.097 F 
ATOM      8  F1  UNL d   1      -2.265   0.729   1.165  0.00  0.00    -0.096 F 
ATOM      9  I   UNL d   1      -1.411   1.730  -1.752  0.00  0.00    -0.060 I 
ATOM     10  F2  UNL d   1       1.269  -0.010  -1.932  0.00  0.00    -0.096 F 
ATOM     11  F3  UNL d   1       2.410  -1.742  -0.191  0.00  0.00    -0.097 F 
ATOM     12  F4  UNL d   1       1.237  -2.248   2.220  0.00  0.00    -0.092 F 
ENDROOT
TORSDOF 0
ENDMDL
