MODEL 1
REMARK minimizedAffinity -5.06847286
REMARK minimizedRMSD -1
REMARK  1 active torsions:
REMARK  status: ('A' for Active; 'I' for Inactive)
REMARK    1  A    between atoms: N_2  and  C1_3 
ROOT
ATOM      1  C1  UNL d   1       0.529  -0.993  -0.412  0.00  0.00     0.143 A 
ATOM      2  C2  UNL d   1       1.147  -2.133  -0.937  0.00  0.00    -0.057 A 
ATOM      3  C3  UNL d   1       2.238  -2.031  -1.809  0.00  0.00     0.033 A 
ATOM      4  C4  UNL d   1       2.712  -0.782  -2.197  0.00  0.00    -0.042 A 
ATOM      5  C5  UNL d   1       2.096   0.365  -1.708  0.00  0.00     0.033 A 
ATOM      6  C6  UNL d   1       1.012   0.257  -0.831  0.00  0.00    -0.057 A 
ENDROOT
BRANCH   1   7
ATOM      7  N   UNL d   1      -0.621  -1.027   0.381  0.00  0.00    -0.732 N 
ATOM      8  C   UNL d   1      -1.036   0.141   1.128  0.00  0.00     0.284 C 
ATOM      9  H3  UNL d   1      -1.385  -1.529  -0.064  0.00  0.00     0.395 HD
ENDBRANCH   1   7
TORSDOF 1
ENDMDL
