MODEL 1
REMARK minimizedAffinity -4.49272442
REMARK minimizedRMSD -1
REMARK  1 active torsions:
REMARK  status: ('A' for Active; 'I' for Inactive)
REMARK    1  A    between atoms: N_2  and  C1_3 
ROOT
ATOM      1  C1  UNL d   1      -0.021  -0.981   0.071  0.00  0.00     0.143 A 
ATOM      2  C2  UNL d   1       0.223   0.361  -0.237  0.00  0.00    -0.057 A 
ATOM      3  C3  UNL d   1       1.153   0.724  -1.219  0.00  0.00     0.033 A 
ATOM      4  C4  UNL d   1       1.879  -0.253  -1.892  0.00  0.00    -0.042 A 
ATOM      5  C5  UNL d   1       1.672  -1.593  -1.584  0.00  0.00     0.033 A 
ATOM      6  C6  UNL d   1       0.737  -1.949  -0.607  0.00  0.00    -0.057 A 
ENDROOT
BRANCH   1   7
ATOM      7  N   UNL d   1      -0.861  -1.402   1.105  0.00  0.00    -0.732 N 
ATOM      8  C   UNL d   1      -2.242  -0.971   1.155  0.00  0.00     0.284 C 
ATOM      9  H3  UNL d   1      -0.722  -2.381   1.344  0.00  0.00     0.395 HD
ENDBRANCH   1   7
TORSDOF 1
ENDMDL
