MODEL 1
REMARK minimizedAffinity -3.20756793
REMARK minimizedRMSD -1
REMARK  1 active torsions:
REMARK  status: ('A' for Active; 'I' for Inactive)
REMARK    1  A    between atoms: N_2  and  C1_3 
ROOT
ATOM      1  C1  UNL d   1       0.743  -1.508  -0.334  0.00  0.00     0.143 A 
ATOM      2  C2  UNL d   1      -0.186  -1.315   0.694  0.00  0.00    -0.057 A 
ATOM      3  C3  UNL d   1      -0.542  -0.030   1.119  0.00  0.00     0.033 A 
ATOM      4  C4  UNL d   1       0.048   1.089   0.541  0.00  0.00    -0.042 A 
ATOM      5  C5  UNL d   1       0.993   0.921  -0.465  0.00  0.00     0.033 A 
ATOM      6  C6  UNL d   1       1.340  -0.365  -0.890  0.00  0.00    -0.057 A 
ENDROOT
BRANCH   1   7
ATOM      7  N   UNL d   1       1.212  -2.761  -0.734  0.00  0.00    -0.732 N 
ATOM      8  C   UNL d   1       2.492  -2.893  -1.397  0.00  0.00     0.284 C 
ATOM      9  H3  UNL d   1       1.026  -3.484  -0.043  0.00  0.00     0.395 HD
ENDBRANCH   1   7
TORSDOF 1
ENDMDL
