MODEL 1
REMARK minimizedAffinity -0.496238381
REMARK minimizedRMSD -1
REMARK  1 active torsions:
REMARK  status: ('A' for Active; 'I' for Inactive)
REMARK    1  A    between atoms: N_2  and  C1_3 
ROOT
ATOM      1  C1  UNL d   1       0.841  -0.494  -0.035  0.00  0.00     0.143 A 
ATOM      2  C2  UNL d   1       0.125   0.540   0.579  0.00  0.00    -0.057 A 
ATOM      3  C3  UNL d   1       0.332   1.878   0.223  0.00  0.00     0.033 A 
ATOM      4  C4  UNL d   1       1.283   2.209  -0.737  0.00  0.00    -0.042 A 
ATOM      5  C5  UNL d   1       2.024   1.200  -1.342  0.00  0.00     0.033 A 
ATOM      6  C6  UNL d   1       1.808  -0.135  -0.987  0.00  0.00    -0.057 A 
ENDROOT
BRANCH   1   7
ATOM      7  N   UNL d   1       0.751  -1.835   0.345  0.00  0.00    -0.732 N 
ATOM      8  C   UNL d   1       0.005  -2.780  -0.457  0.00  0.00     0.284 C 
ATOM      9  H3  UNL d   1       1.632  -2.198   0.703  0.00  0.00     0.395 HD
ENDBRANCH   1   7
TORSDOF 1
ENDMDL
