MODEL 1
REMARK minimizedAffinity 3.05426097
REMARK minimizedRMSD -1
REMARK  1 active torsions:
REMARK  status: ('A' for Active; 'I' for Inactive)
REMARK    1  A    between atoms: N_2  and  C1_3 
ROOT
ATOM      1  C1  UNL d   1       0.745   1.801  -2.956  0.00  0.00     0.143 A 
ATOM      2  C2  UNL d   1       0.842   2.747  -1.930  0.00  0.00    -0.057 A 
ATOM      3  C3  UNL d   1       1.559   2.477  -0.759  0.00  0.00     0.033 A 
ATOM      4  C4  UNL d   1       2.171   1.241  -0.579  0.00  0.00    -0.042 A 
ATOM      5  C5  UNL d   1       2.067   0.276  -1.575  0.00  0.00     0.033 A 
ATOM      6  C6  UNL d   1       1.354   0.554  -2.746  0.00  0.00    -0.057 A 
ENDROOT
BRANCH   1   7
ATOM      7  N   UNL d   1      -0.036   1.972  -4.102  0.00  0.00    -0.732 N 
ATOM      8  C   UNL d   1      -1.475   2.090  -4.002  0.00  0.00     0.284 C 
ATOM      9  H3  UNL d   1       0.389   2.613  -4.769  0.00  0.00     0.395 HD
ENDBRANCH   1   7
TORSDOF 1
ENDMDL
