MODEL 1
REMARK minimizedAffinity 1.0963465
REMARK minimizedRMSD -1
REMARK  1 active torsions:
REMARK  status: ('A' for Active; 'I' for Inactive)
REMARK    1  A    between atoms: N_2  and  C1_3 
ROOT
ATOM      1  C1  UNL d   1       1.523   2.056  -1.826  0.00  0.00     0.143 A 
ATOM      2  C2  UNL d   1       2.091   1.189  -0.887  0.00  0.00    -0.057 A 
ATOM      3  C3  UNL d   1       2.188  -0.186  -1.134  0.00  0.00     0.033 A 
ATOM      4  C4  UNL d   1       1.690  -0.723  -2.317  0.00  0.00    -0.042 A 
ATOM      5  C5  UNL d   1       1.099   0.117  -3.254  0.00  0.00     0.033 A 
ATOM      6  C6  UNL d   1       1.011   1.490  -3.004  0.00  0.00    -0.057 A 
ENDROOT
BRANCH   1   7
ATOM      7  N   UNL d   1       1.309   3.418  -1.597  0.00  0.00    -0.732 N 
ATOM      8  C   UNL d   1       1.308   3.948  -0.250  0.00  0.00     0.284 C 
ATOM      9  H3  UNL d   1       1.788   4.006  -2.274  0.00  0.00     0.395 HD
ENDBRANCH   1   7
TORSDOF 1
ENDMDL
