MODEL 1
REMARK minimizedAffinity -4.40939617
REMARK minimizedRMSD -1
REMARK  1 active torsions:
REMARK  status: ('A' for Active; 'I' for Inactive)
REMARK    1  A    between atoms: N_2  and  C1_3 
ROOT
ATOM      1  C1  UNL d   1      -2.296  -0.562   0.263  0.00  0.00     0.143 A 
ATOM      2  C2  UNL d   1      -1.954   0.727  -0.158  0.00  0.00    -0.057 A 
ATOM      3  C3  UNL d   1      -0.615   1.109  -0.312  0.00  0.00     0.033 A 
ATOM      4  C4  UNL d   1       0.408   0.214  -0.018  0.00  0.00    -0.042 A 
ATOM      5  C5  UNL d   1       0.091  -1.065   0.426  0.00  0.00     0.033 A 
ATOM      6  C6  UNL d   1      -1.248  -1.442   0.571  0.00  0.00    -0.057 A 
ENDROOT
BRANCH   1   7
ATOM      7  N   UNL d   1      -3.605  -0.971   0.529  0.00  0.00    -0.732 N 
ATOM      8  C   UNL d   1      -4.327  -0.441   1.665  0.00  0.00     0.284 C 
ATOM      9  H3  UNL d   1      -4.165  -1.055  -0.317  0.00  0.00     0.395 HD
ENDBRANCH   1   7
TORSDOF 1
ENDMDL
