MODEL 1
REMARK minimizedAffinity -0.94779712
REMARK minimizedRMSD -1
REMARK  1 active torsions:
REMARK  status: ('A' for Active; 'I' for Inactive)
REMARK    1  A    between atoms: N_2  and  C1_3 
ROOT
ATOM      1  C1  UNL d   1      -3.450   3.188  -5.633  0.00  0.00     0.143 A 
ATOM      2  C2  UNL d   1      -4.512   4.029  -5.981  0.00  0.00    -0.057 A 
ATOM      3  C3  UNL d   1      -4.362   5.421  -5.997  0.00  0.00     0.033 A 
ATOM      4  C4  UNL d   1      -3.149   5.999  -5.636  0.00  0.00    -0.042 A 
ATOM      5  C5  UNL d   1      -2.087   5.184  -5.263  0.00  0.00     0.033 A 
ATOM      6  C6  UNL d   1      -2.241   3.794  -5.255  0.00  0.00    -0.057 A 
ENDROOT
BRANCH   1   7
ATOM      7  N   UNL d   1      -3.565   1.802  -5.503  0.00  0.00    -0.732 N 
ATOM      8  C   UNL d   1      -4.736   1.110  -5.998  0.00  0.00     0.284 C 
ATOM      9  H3  UNL d   1      -2.688   1.320  -5.689  0.00  0.00     0.395 HD
ENDBRANCH   1   7
TORSDOF 1
ENDMDL
