MODEL 1
REMARK minimizedAffinity -2.53291726
REMARK minimizedRMSD -1
REMARK  1 active torsions:
REMARK  status: ('A' for Active; 'I' for Inactive)
REMARK    1  A    between atoms: N_2  and  C1_3 
ROOT
ATOM      1  C1  UNL d   1      -3.494   1.054  -5.947  0.00  0.00     0.143 A 
ATOM      2  C2  UNL d   1      -4.470   2.025  -5.702  0.00  0.00    -0.057 A 
ATOM      3  C3  UNL d   1      -4.131   3.376  -5.560  0.00  0.00     0.033 A 
ATOM      4  C4  UNL d   1      -2.801   3.777  -5.632  0.00  0.00    -0.042 A 
ATOM      5  C5  UNL d   1      -1.811   2.825  -5.851  0.00  0.00     0.033 A 
ATOM      6  C6  UNL d   1      -2.157   1.479  -5.999  0.00  0.00    -0.057 A 
ENDROOT
BRANCH   1   7
ATOM      7  N   UNL d   1      -3.757  -0.317  -6.000  0.00  0.00    -0.732 N 
ATOM      8  C   UNL d   1      -4.851  -0.888  -5.244  0.00  0.00     0.284 C 
ATOM      9  H3  UNL d   1      -3.658  -0.696  -6.939  0.00  0.00     0.395 HD
ENDBRANCH   1   7
TORSDOF 1
ENDMDL
