MODEL 1
REMARK minimizedAffinity 0.231445819
REMARK minimizedRMSD -1
REMARK  1 active torsions:
REMARK  status: ('A' for Active; 'I' for Inactive)
REMARK    1  A    between atoms: N_2  and  C1_3 
ROOT
ATOM      1  C1  UNL d   1      -2.240   3.019  -5.998  0.00  0.00     0.143 A 
ATOM      2  C2  UNL d   1      -3.520   2.456  -5.994  0.00  0.00    -0.057 A 
ATOM      3  C3  UNL d   1      -4.667   3.259  -6.000  0.00  0.00     0.033 A 
ATOM      4  C4  UNL d   1      -4.553   4.645  -5.980  0.00  0.00    -0.042 A 
ATOM      5  C5  UNL d   1      -3.290   5.227  -5.958  0.00  0.00     0.033 A 
ATOM      6  C6  UNL d   1      -2.149   4.419  -5.959  0.00  0.00    -0.057 A 
ENDROOT
BRANCH   1   7
ATOM      7  N   UNL d   1      -1.062   2.275  -5.893  0.00  0.00    -0.732 N 
ATOM      8  C   UNL d   1      -0.772   1.520  -4.693  0.00  0.00     0.284 C 
ATOM      9  H3  UNL d   1      -0.832   1.788  -6.756  0.00  0.00     0.395 HD
ENDBRANCH   1   7
TORSDOF 1
ENDMDL
