MODEL 1
REMARK minimizedAffinity -1.7447803
REMARK minimizedRMSD -1
REMARK  1 active torsions:
REMARK  status: ('A' for Active; 'I' for Inactive)
REMARK    1  A    between atoms: N_2  and  C1_3 
ROOT
ATOM      1  C1  UNL d   1      -1.798   0.223   0.875  0.00  0.00     0.143 A 
ATOM      2  C2  UNL d   1      -1.037  -0.909   0.564  0.00  0.00    -0.057 A 
ATOM      3  C3  UNL d   1       0.288  -0.795   0.126  0.00  0.00     0.033 A 
ATOM      4  C4  UNL d   1       0.867   0.459  -0.039  0.00  0.00    -0.042 A 
ATOM      5  C5  UNL d   1       0.121   1.598   0.240  0.00  0.00     0.033 A 
ATOM      6  C6  UNL d   1      -1.199   1.478   0.684  0.00  0.00    -0.057 A 
ENDROOT
BRANCH   1   7
ATOM      7  N   UNL d   1      -3.151   0.179   1.221  0.00  0.00    -0.732 N 
ATOM      8  C   UNL d   1      -3.771   1.289   1.913  0.00  0.00     0.284 C 
ATOM      9  H3  UNL d   1      -3.727  -0.227   0.487  0.00  0.00     0.395 HD
ENDBRANCH   1   7
TORSDOF 1
ENDMDL
