MODEL 1
REMARK minimizedAffinity -3.83770299
REMARK minimizedRMSD -1
REMARK  1 active torsions:
REMARK  status: ('A' for Active; 'I' for Inactive)
REMARK    1  A    between atoms: N_2  and  C1_3 
ROOT
ATOM      1  C1  UNL d   1      -2.822   0.197   1.717  0.00  0.00     0.143 A 
ATOM      2  C2  UNL d   1      -3.085  -0.965   0.984  0.00  0.00    -0.057 A 
ATOM      3  C3  UNL d   1      -2.047  -1.780   0.518  0.00  0.00     0.033 A 
ATOM      4  C4  UNL d   1      -0.721  -1.429   0.752  0.00  0.00    -0.042 A 
ATOM      5  C5  UNL d   1      -0.436  -0.265   1.456  0.00  0.00     0.033 A 
ATOM      6  C6  UNL d   1      -1.477   0.541   1.925  0.00  0.00    -0.057 A 
ENDROOT
BRANCH   1   7
ATOM      7  N   UNL d   1      -3.808   1.101   2.122  0.00  0.00    -0.732 N 
ATOM      8  C   UNL d   1      -3.473   2.480   2.404  0.00  0.00     0.284 C 
ATOM      9  H3  UNL d   1      -4.679   0.980   1.611  0.00  0.00     0.395 HD
ENDBRANCH   1   7
TORSDOF 1
ENDMDL
