MODEL 1
REMARK minimizedAffinity 18.163578
REMARK minimizedRMSD -1
REMARK  0 active torsions:
REMARK  status: ('A' for Active; 'I' for Inactive)
ROOT
ATOM      1  N1  IND d   1      -0.380  -3.876  -3.751  0.00  0.00    -0.196 N 
ATOM      2  C2  IND d   1      -0.147  -4.995  -4.501  0.00  0.00     0.054 A 
ATOM      3  C3  IND d   1      -0.963  -6.000  -4.112  0.00  0.00    -0.031 A 
ATOM      4  C4  IND d   1      -2.826  -6.000  -2.336  0.00  0.00     0.051 A 
ATOM      5  C5  IND d   1      -3.389  -5.220  -1.366  0.00  0.00    -0.031 A 
ATOM      6  C6  IND d   1      -2.971  -3.924  -1.138  0.00  0.00     0.015 A 
ATOM      7  C7  IND d   1      -1.978  -3.355  -1.883  0.00  0.00    -0.016 A 
ATOM      8  C8  IND d   1      -1.399  -4.147  -2.865  0.00  0.00    -0.047 A 
ATOM      9  C9  IND d   1      -1.790  -5.476  -3.073  0.00  0.00    -0.096 A 
ATOM     10  HN1 IND d   1       0.039  -3.128  -3.821  0.00  0.00     0.298 HD
ENDROOT
TORSDOF 0
ENDMDL
