MODEL 1
REMARK minimizedAffinity 17.4008694
REMARK minimizedRMSD -1
REMARK  0 active torsions:
REMARK  status: ('A' for Active; 'I' for Inactive)
ROOT
ATOM      1  N1  IND d   1       0.171  -0.383   3.056  0.00  0.00    -0.196 N 
ATOM      2  C2  IND d   1      -0.498  -0.565   1.879  0.00  0.00     0.054 A 
ATOM      3  C3  IND d   1      -1.426  -1.540   2.011  0.00  0.00    -0.031 A 
ATOM      4  C4  IND d   1      -2.086  -2.898   4.096  0.00  0.00     0.051 A 
ATOM      5  C5  IND d   1      -1.732  -3.112   5.398  0.00  0.00    -0.031 A 
ATOM      6  C6  IND d   1      -0.706  -2.412   6.000  0.00  0.00     0.015 A 
ATOM      7  C7  IND d   1      -0.001  -1.458   5.321  0.00  0.00    -0.016 A 
ATOM      8  C8  IND d   1      -0.353  -1.243   3.996  0.00  0.00    -0.047 A 
ATOM      9  C9  IND d   1      -1.365  -1.981   3.368  0.00  0.00    -0.096 A 
ATOM     10  HN1 IND d   1       0.812   0.175   3.188  0.00  0.00     0.298 HD
ENDROOT
TORSDOF 0
ENDMDL
