MODEL 1
REMARK minimizedAffinity 13.5394955
REMARK minimizedRMSD -1
REMARK  0 active torsions:
REMARK  status: ('A' for Active; 'I' for Inactive)
ROOT
ATOM      1  N1  IND d   1      -1.429  -0.287   1.954  0.00  0.00    -0.196 N 
ATOM      2  C2  IND d   1      -0.140  -0.222   1.502  0.00  0.00     0.054 A 
ATOM      3  C3  IND d   1       0.049  -1.104   0.495  0.00  0.00    -0.031 A 
ATOM      4  C4  IND d   1      -1.642  -2.679  -0.640  0.00  0.00     0.051 A 
ATOM      5  C5  IND d   1      -2.932  -3.119  -0.550  0.00  0.00    -0.031 A 
ATOM      6  C6  IND d   1      -3.806  -2.625   0.397  0.00  0.00     0.015 A 
ATOM      7  C7  IND d   1      -3.424  -1.661   1.285  0.00  0.00    -0.016 A 
ATOM      8  C8  IND d   1      -2.112  -1.217   1.201  0.00  0.00    -0.047 A 
ATOM      9  C9  IND d   1      -1.208  -1.745   0.270  0.00  0.00    -0.096 A 
ATOM     10  HN1 IND d   1      -1.758   0.176   2.600  0.00  0.00     0.298 HD
ENDROOT
TORSDOF 0
ENDMDL
