MODEL 1
REMARK minimizedAffinity 9.18076515
REMARK minimizedRMSD -1
REMARK  0 active torsions:
REMARK  status: ('A' for Active; 'I' for Inactive)
ROOT
ATOM      1  N1  IND d   1       4.988  -1.117  -2.394  0.00  0.00    -0.196 N 
ATOM      2  C2  IND d   1       5.890  -0.292  -3.006  0.00  0.00     0.054 A 
ATOM      3  C3  IND d   1       5.550   1.002  -2.815  0.00  0.00    -0.031 A 
ATOM      4  C4  IND d   1       3.609   1.998  -1.447  0.00  0.00     0.051 A 
ATOM      5  C5  IND d   1       2.498   1.641  -0.737  0.00  0.00    -0.031 A 
ATOM      6  C6  IND d   1       2.154   0.320  -0.536  0.00  0.00     0.015 A 
ATOM      7  C7  IND d   1       2.919  -0.698  -1.031  0.00  0.00    -0.016 A 
ATOM      8  C8  IND d   1       4.044  -0.339  -1.759  0.00  0.00    -0.047 A 
ATOM      9  C9  IND d   1       4.375   1.000  -2.002  0.00  0.00    -0.096 A 
ATOM     10  HN1 IND d   1       5.006  -1.976  -2.404  0.00  0.00     0.298 HD
ENDROOT
TORSDOF 0
ENDMDL
