MODEL 1
REMARK minimizedAffinity 22.4361992
REMARK minimizedRMSD -1
REMARK  0 active torsions:
REMARK  status: ('A' for Active; 'I' for Inactive)
ROOT
ATOM      1  N1  IND d   1      -3.209  -4.442  -1.268  0.00  0.00    -0.196 N 
ATOM      2  C2  IND d   1      -2.287  -5.189  -1.946  0.00  0.00     0.054 A 
ATOM      3  C3  IND d   1      -1.034  -4.824  -1.594  0.00  0.00    -0.031 A 
ATOM      4  C4  IND d   1      -0.264  -3.096   0.151  0.00  0.00     0.051 A 
ATOM      5  C5  IND d   1      -0.740  -2.137   1.001  0.00  0.00    -0.031 A 
ATOM      6  C6  IND d   1      -2.092  -1.894   1.142  0.00  0.00     0.015 A 
ATOM      7  C7  IND d   1      -3.021  -2.612   0.445  0.00  0.00    -0.016 A 
ATOM      8  C8  IND d   1      -2.541  -3.582  -0.424  0.00  0.00    -0.047 A 
ATOM      9  C9  IND d   1      -1.169  -3.804  -0.603  0.00  0.00    -0.096 A 
ATOM     10  HN1 IND d   1      -4.063  -4.499  -1.354  0.00  0.00     0.298 HD
ENDROOT
TORSDOF 0
ENDMDL
