MODEL 1
REMARK minimizedAffinity 4.11223841
REMARK minimizedRMSD -1
REMARK  0 active torsions:
REMARK  status: ('A' for Active; 'I' for Inactive)
ROOT
ATOM      1  N1  IND d   1       5.249  -0.727  -2.410  0.00  0.00    -0.196 N 
ATOM      2  C2  IND d   1       5.822   0.349  -3.027  0.00  0.00     0.054 A 
ATOM      3  C3  IND d   1       5.111   1.471  -2.773  0.00  0.00    -0.031 A 
ATOM      4  C4  IND d   1       3.033   1.788  -1.287  0.00  0.00     0.051 A 
ATOM      5  C5  IND d   1       2.123   1.089  -0.545  0.00  0.00    -0.031 A 
ATOM      6  C6  IND d   1       2.212  -0.278  -0.380  0.00  0.00     0.015 A 
ATOM      7  C7  IND d   1       3.225  -0.999  -0.946  0.00  0.00    -0.016 A 
ATOM      8  C8  IND d   1       4.147  -0.294  -1.706  0.00  0.00    -0.047 A 
ATOM      9  C9  IND d   1       4.038   1.087  -1.912  0.00  0.00    -0.096 A 
ATOM     10  HN1 IND d   1       5.530  -1.539  -2.454  0.00  0.00     0.298 HD
ENDROOT
TORSDOF 0
ENDMDL
