MODEL 1
REMARK minimizedAffinity 11.1618805
REMARK minimizedRMSD -1
REMARK  0 active torsions:
REMARK  status: ('A' for Active; 'I' for Inactive)
ROOT
ATOM      1  N1  IND d   1      -2.142   4.975  -2.661  0.00  0.00    -0.196 N 
ATOM      2  C2  IND d   1      -1.087   5.726  -2.222  0.00  0.00     0.054 A 
ATOM      3  C3  IND d   1       0.080   5.183  -2.633  0.00  0.00    -0.031 A 
ATOM      4  C4  IND d   1       0.492   3.122  -4.119  0.00  0.00     0.051 A 
ATOM      5  C5  IND d   1      -0.160   2.090  -4.734  0.00  0.00    -0.031 A 
ATOM      6  C6  IND d   1      -1.533   1.966  -4.691  0.00  0.00     0.015 A 
ATOM      7  C7  IND d   1      -2.311   2.880  -4.037  0.00  0.00    -0.016 A 
ATOM      8  C8  IND d   1      -1.652   3.925  -3.406  0.00  0.00    -0.047 A 
ATOM      9  C9  IND d   1      -0.255   4.033  -3.410  0.00  0.00    -0.096 A 
ATOM     10  HN1 IND d   1      -2.972   5.132  -2.498  0.00  0.00     0.298 HD
ENDROOT
TORSDOF 0
ENDMDL
