MODEL 1
REMARK minimizedAffinity 12.6002169
REMARK minimizedRMSD -1
REMARK  0 active torsions:
REMARK  status: ('A' for Active; 'I' for Inactive)
ROOT
ATOM      1  N1  IND d   1      -1.014   5.405  -2.266  0.00  0.00    -0.196 N 
ATOM      2  C2  IND d   1      -2.240   6.000  -2.154  0.00  0.00     0.054 A 
ATOM      3  C3  IND d   1      -3.165   5.306  -2.854  0.00  0.00    -0.031 A 
ATOM      4  C4  IND d   1      -2.910   3.110  -4.173  0.00  0.00     0.051 A 
ATOM      5  C5  IND d   1      -1.973   2.208  -4.593  0.00  0.00    -0.031 A 
ATOM      6  C6  IND d   1      -0.642   2.327  -4.250  0.00  0.00     0.015 A 
ATOM      7  C7  IND d   1      -0.198   3.350  -3.461  0.00  0.00    -0.016 A 
ATOM      8  C8  IND d   1      -1.146   4.272  -3.038  0.00  0.00    -0.047 A 
ATOM      9  C9  IND d   1      -2.491   4.180  -3.418  0.00  0.00    -0.096 A 
ATOM     10  HN1 IND d   1      -0.284   5.691  -1.914  0.00  0.00     0.298 HD
ENDROOT
TORSDOF 0
ENDMDL
