MODEL 1
REMARK minimizedAffinity 1.4576335
REMARK minimizedRMSD -1
REMARK  0 active torsions:
REMARK  status: ('A' for Active; 'I' for Inactive)
ROOT
ATOM      1  N1  IND d   1      -1.860   2.221  -4.000  0.00  0.00    -0.196 N 
ATOM      2  C2  IND d   1      -3.219   2.236  -3.851  0.00  0.00     0.054 A 
ATOM      3  C3  IND d   1      -3.597   3.283  -3.085  0.00  0.00    -0.031 A 
ATOM      4  C4  IND d   1      -2.164   5.157  -2.055  0.00  0.00     0.051 A 
ATOM      5  C5  IND d   1      -0.866   5.552  -1.885  0.00  0.00    -0.031 A 
ATOM      6  C6  IND d   1       0.188   4.843  -2.426  0.00  0.00     0.015 A 
ATOM      7  C7  IND d   1      -0.019   3.715  -3.168  0.00  0.00    -0.016 A 
ATOM      8  C8  IND d   1      -1.335   3.308  -3.336  0.00  0.00    -0.047 A 
ATOM      9  C9  IND d   1      -2.405   3.999  -2.754  0.00  0.00    -0.096 A 
ATOM     10  HN1 IND d   1      -1.409   1.632  -4.434  0.00  0.00     0.298 HD
ENDROOT
TORSDOF 0
ENDMDL
