MODEL 1
REMARK minimizedAffinity 13.44168
REMARK minimizedRMSD -1
REMARK  0 active torsions:
REMARK  status: ('A' for Active; 'I' for Inactive)
ROOT
ATOM      1  N1  IND d   1      -0.261  -0.468   3.925  0.00  0.00    -0.196 N 
ATOM      2  C2  IND d   1      -1.371  -1.249   4.095  0.00  0.00     0.054 A 
ATOM      3  C3  IND d   1      -1.658  -1.912   2.953  0.00  0.00    -0.031 A 
ATOM      4  C4  IND d   1      -0.385  -1.946   0.716  0.00  0.00     0.051 A 
ATOM      5  C5  IND d   1       0.668  -1.365   0.067  0.00  0.00    -0.031 A 
ATOM      6  C6  IND d   1       1.484  -0.439   0.684  0.00  0.00     0.015 A 
ATOM      7  C7  IND d   1       1.282  -0.066   1.983  0.00  0.00    -0.016 A 
ATOM      8  C8  IND d   1       0.209  -0.648   2.643  0.00  0.00    -0.047 A 
ATOM      9  C9  IND d   1      -0.648  -1.557   2.008  0.00  0.00    -0.096 A 
ATOM     10  HN1 IND d   1       0.084   0.048   4.519  0.00  0.00     0.298 HD
ENDROOT
TORSDOF 0
ENDMDL
