MODEL 1
REMARK minimizedAffinity 10.7678194
REMARK minimizedRMSD -1
REMARK  0 active torsions:
REMARK  status: ('A' for Active; 'I' for Inactive)
ROOT
ATOM      1  N1  IND d   1      -0.366  -0.411   3.659  0.00  0.00    -0.196 N 
ATOM      2  C2  IND d   1      -1.369  -1.291   3.954  0.00  0.00     0.054 A 
ATOM      3  C3  IND d   1      -1.620  -2.092   2.893  0.00  0.00    -0.031 A 
ATOM      4  C4  IND d   1      -0.436  -2.199   0.610  0.00  0.00     0.051 A 
ATOM      5  C5  IND d   1       0.517  -1.570  -0.140  0.00  0.00    -0.031 A 
ATOM      6  C6  IND d   1       1.241  -0.502   0.349  0.00  0.00     0.015 A 
ATOM      7  C7  IND d   1       1.046  -0.029   1.615  0.00  0.00    -0.016 A 
ATOM      8  C8  IND d   1       0.074  -0.662   2.377  0.00  0.00    -0.047 A 
ATOM      9  C9  IND d   1      -0.694  -1.718   1.872  0.00  0.00    -0.096 A 
ATOM     10  HN1 IND d   1      -0.060   0.196   4.185  0.00  0.00     0.298 HD
ENDROOT
TORSDOF 0
ENDMDL
