MODEL 1
REMARK minimizedAffinity 6.64208508
REMARK minimizedRMSD -1
REMARK  0 active torsions:
REMARK  status: ('A' for Active; 'I' for Inactive)
ROOT
ATOM      1  N1  IND d   1      -0.163  -0.712   3.078  0.00  0.00    -0.196 N 
ATOM      2  C2  IND d   1      -0.840  -1.048   1.938  0.00  0.00     0.054 A 
ATOM      3  C3  IND d   1       0.009  -1.116   0.889  0.00  0.00    -0.031 A 
ATOM      4  C4  IND d   1       2.566  -0.814   0.832  0.00  0.00     0.051 A 
ATOM      5  C5  IND d   1       3.626  -0.463   1.619  0.00  0.00    -0.031 A 
ATOM      6  C6  IND d   1       3.476  -0.173   2.959  0.00  0.00     0.015 A 
ATOM      7  C7  IND d   1       2.255  -0.236   3.569  0.00  0.00    -0.016 A 
ATOM      8  C8  IND d   1       1.174  -0.586   2.772  0.00  0.00    -0.047 A 
ATOM      9  C9  IND d   1       1.314  -0.839   1.401  0.00  0.00    -0.096 A 
ATOM     10  HN1 IND d   1      -0.514  -0.599   3.855  0.00  0.00     0.298 HD
ENDROOT
TORSDOF 0
ENDMDL
