MODEL 1
REMARK minimizedAffinity 10.4245548
REMARK minimizedRMSD -1
REMARK  0 active torsions:
REMARK  status: ('A' for Active; 'I' for Inactive)
ROOT
ATOM      1  N1  IND d   1       2.358  -0.049   3.151  0.00  0.00    -0.196 N 
ATOM      2  C2  IND d   1       3.231  -0.046   2.098  0.00  0.00     0.054 A 
ATOM      3  C3  IND d   1       2.634  -0.546   0.992  0.00  0.00    -0.031 A 
ATOM      4  C4  IND d   1       0.205  -1.331   0.657  0.00  0.00     0.051 A 
ATOM      5  C5  IND d   1      -0.958  -1.555   1.338  0.00  0.00    -0.031 A 
ATOM      6  C6  IND d   1      -1.079  -1.280   2.685  0.00  0.00     0.015 A 
ATOM      7  C7  IND d   1      -0.039  -0.758   3.402  0.00  0.00    -0.016 A 
ATOM      8  C8  IND d   1       1.146  -0.536   2.715  0.00  0.00    -0.047 A 
ATOM      9  C9  IND d   1       1.288  -0.853   1.357  0.00  0.00    -0.096 A 
ATOM     10  HN1 IND d   1       2.537   0.211   3.951  0.00  0.00     0.298 HD
ENDROOT
TORSDOF 0
ENDMDL
