MODEL 1
REMARK minimizedAffinity 6.51971674
REMARK minimizedRMSD -1
REMARK  0 active torsions:
REMARK  status: ('A' for Active; 'I' for Inactive)
ROOT
ATOM      1  N1  IND d   1      -0.854  -1.045   4.095  0.00  0.00    -0.196 N 
ATOM      2  C2  IND d   1      -1.676  -2.088   4.419  0.00  0.00     0.054 A 
ATOM      3  C3  IND d   1      -1.907  -2.860   3.333  0.00  0.00    -0.031 A 
ATOM      4  C4  IND d   1      -0.959  -2.654   0.949  0.00  0.00     0.051 A 
ATOM      5  C5  IND d   1      -0.195  -1.841   0.160  0.00  0.00    -0.031 A 
ATOM      6  C6  IND d   1       0.403  -0.699   0.653  0.00  0.00     0.015 A 
ATOM      7  C7  IND d   1       0.268  -0.333   1.962  0.00  0.00    -0.016 A 
ATOM      8  C8  IND d   1      -0.514  -1.152   2.764  0.00  0.00    -0.047 A 
ATOM      9  C9  IND d   1      -1.158  -2.289   2.259  0.00  0.00    -0.096 A 
ATOM     10  HN1 IND d   1      -0.594  -0.425   4.632  0.00  0.00     0.298 HD
ENDROOT
TORSDOF 0
ENDMDL
