MODEL 1
REMARK minimizedAffinity 0.668080628
REMARK minimizedRMSD -1
REMARK  0 active torsions:
REMARK  status: ('A' for Active; 'I' for Inactive)
ROOT
ATOM      1  C   UNL d   1       0.773  -0.528   0.131  0.00  0.00     0.172 C 
ATOM      2  N   UNL d   1       0.698  -1.583   1.114  0.00  0.00    -0.070 N 
ATOM      3  C1  UNL d   1      -0.113  -1.590   2.218  0.00  0.00    -0.004 A 
ATOM      4  C2  UNL d   1       0.111  -2.767   2.898  0.00  0.00    -0.047 A 
ATOM      5  C3  UNL d   1       1.091  -3.492   2.180  0.00  0.00    -0.047 A 
ATOM      6  C4  UNL d   1       1.437  -2.736   1.080  0.00  0.00    -0.004 A 
ENDROOT
TORSDOF 0
ENDMDL
