MODEL 1
REMARK minimizedAffinity 4.00351906
REMARK minimizedRMSD -1
REMARK  0 active torsions:
REMARK  status: ('A' for Active; 'I' for Inactive)
ROOT
ATOM      1  C   UNL d   1       0.195  -1.098   2.830  0.00  0.00     0.172 C 
ATOM      2  N   UNL d   1       1.045  -1.664   1.810  0.00  0.00    -0.070 N 
ATOM      3  C1  UNL d   1       1.277  -1.123   0.573  0.00  0.00    -0.004 A 
ATOM      4  C2  UNL d   1       2.141  -1.961  -0.099  0.00  0.00    -0.047 A 
ATOM      5  C3  UNL d   1       2.438  -3.043   0.764  0.00  0.00    -0.047 A 
ATOM      6  C4  UNL d   1       1.746  -2.834   1.938  0.00  0.00    -0.004 A 
ENDROOT
TORSDOF 0
ENDMDL
