MODEL 1
REMARK minimizedAffinity -0.190951481
REMARK minimizedRMSD -1
REMARK  0 active torsions:
REMARK  status: ('A' for Active; 'I' for Inactive)
ROOT
ATOM      1  C   UNL d   1      -0.210  -0.352   1.122  0.00  0.00     0.172 C 
ATOM      2  N   UNL d   1      -0.239  -1.569   1.898  0.00  0.00    -0.070 N 
ATOM      3  C1  UNL d   1       0.552  -2.668   1.691  0.00  0.00    -0.004 A 
ATOM      4  C2  UNL d   1       0.220  -3.612   2.638  0.00  0.00    -0.047 A 
ATOM      5  C3  UNL d   1      -0.807  -3.062   3.442  0.00  0.00    -0.047 A 
ATOM      6  C4  UNL d   1      -1.071  -1.797   2.962  0.00  0.00    -0.004 A 
ENDROOT
TORSDOF 0
ENDMDL
