MODEL 1
REMARK minimizedAffinity -2.48631692
REMARK minimizedRMSD -1
REMARK  0 active torsions:
REMARK  status: ('A' for Active; 'I' for Inactive)
ROOT
ATOM      1  C   UNL d   1       5.990   5.249   2.628  0.00  0.00     0.172 C 
ATOM      2  N   UNL d   1       4.655   5.374   3.165  0.00  0.00    -0.070 N 
ATOM      3  C1  UNL d   1       4.321   6.000   4.336  0.00  0.00    -0.004 A 
ATOM      4  C2  UNL d   1       2.956   5.902   4.493  0.00  0.00    -0.047 A 
ATOM      5  C3  UNL d   1       2.451   5.192   3.378  0.00  0.00    -0.047 A 
ATOM      6  C4  UNL d   1       3.525   4.877   2.572  0.00  0.00    -0.004 A 
ENDROOT
TORSDOF 0
ENDMDL
