MODEL 1
REMARK minimizedAffinity 1.3737253
REMARK minimizedRMSD -1
REMARK  0 active torsions:
REMARK  status: ('A' for Active; 'I' for Inactive)
ROOT
ATOM      1  C   UNL d   1       1.606  -3.654   1.589  0.00  0.00     0.172 C 
ATOM      2  N   UNL d   1       0.531  -3.029   2.324  0.00  0.00    -0.070 N 
ATOM      3  C1  UNL d   1       0.353  -1.681   2.486  0.00  0.00    -0.004 A 
ATOM      4  C2  UNL d   1      -0.781  -1.494   3.245  0.00  0.00    -0.047 A 
ATOM      5  C3  UNL d   1      -1.303  -2.773   3.551  0.00  0.00    -0.047 A 
ATOM      6  C4  UNL d   1      -0.471  -3.705   2.968  0.00  0.00    -0.004 A 
ENDROOT
TORSDOF 0
ENDMDL
