MODEL 1
REMARK minimizedAffinity -1.00564969
REMARK minimizedRMSD -1
REMARK  0 active torsions:
REMARK  status: ('A' for Active; 'I' for Inactive)
ROOT
ATOM      1  C   UNL d   1       3.710   5.987   2.445  0.00  0.00     0.172 C 
ATOM      2  N   UNL d   1       2.731   5.990   3.508  0.00  0.00    -0.070 N 
ATOM      3  C1  UNL d   1       3.009   5.995   4.849  0.00  0.00    -0.004 A 
ATOM      4  C2  UNL d   1       1.810   5.997   5.528  0.00  0.00    -0.047 A 
ATOM      5  C3  UNL d   1       0.776   5.992   4.562  0.00  0.00    -0.047 A 
ATOM      6  C4  UNL d   1       1.374   5.987   3.319  0.00  0.00    -0.004 A 
ENDROOT
TORSDOF 0
ENDMDL
