MODEL 1
REMARK minimizedAffinity 3.54222584
REMARK minimizedRMSD -1
REMARK  2 active torsions:
REMARK  status: ('A' for Active; 'I' for Inactive)
REMARK    1  A    between atoms: C1_2  and  C2_3 
REMARK    2  A    between atoms: C2_3  and  C3_4 
ROOT
ATOM      1  C3  UNL d   1       3.250   0.727   0.192  0.00  0.00    -0.075 A 
ATOM      2  C4  UNL d   1       4.544   0.672   0.730  0.00  0.00     0.002 A 
ATOM      3  C5  UNL d   1       4.936  -0.406   1.524  0.00  0.00     0.002 A 
ATOM      4  C6  UNL d   1       4.038  -1.435   1.800  0.00  0.00    -0.004 A 
ATOM      5  C7  UNL d   1       2.745  -1.383   1.284  0.00  0.00     0.002 A 
ATOM      6  C8  UNL d   1       2.352  -0.308   0.485  0.00  0.00     0.002 A 
ENDROOT
BRANCH   1   7
ATOM      7  C2  UNL d   1       2.830   1.875  -0.694  0.00  0.00     0.056 C 
BRANCH   7   8
ATOM      8  C1  UNL d   1       3.772   2.131  -1.874  0.00  0.00     0.007 C 
ATOM      9  C   UNL d   1       4.488   3.473  -1.793  0.00  0.00     0.009 C 
ENDBRANCH   7   8
ENDBRANCH   1   7
TORSDOF 2
ENDMDL
