MODEL 1
REMARK minimizedAffinity 2.86755133
REMARK minimizedRMSD -1
REMARK  2 active torsions:
REMARK  status: ('A' for Active; 'I' for Inactive)
REMARK    1  A    between atoms: C1_2  and  C2_3 
REMARK    2  A    between atoms: C2_3  and  C3_4 
ROOT
ATOM      1  C3  UNL d   1       2.587  -1.045   0.055  0.00  0.00    -0.075 A 
ATOM      2  C4  UNL d   1       2.263  -1.934   1.090  0.00  0.00     0.002 A 
ATOM      3  C5  UNL d   1       1.602  -3.131   0.815  0.00  0.00     0.002 A 
ATOM      4  C6  UNL d   1       1.249  -3.451  -0.495  0.00  0.00    -0.004 A 
ATOM      5  C7  UNL d   1       1.552  -2.568  -1.529  0.00  0.00     0.002 A 
ATOM      6  C8  UNL d   1       2.216  -1.371  -1.257  0.00  0.00     0.002 A 
ENDROOT
BRANCH   1   7
ATOM      7  C2  UNL d   1       3.328   0.239   0.342  0.00  0.00     0.056 C 
BRANCH   7   8
ATOM      8  C1  UNL d   1       2.993   1.382  -0.622  0.00  0.00     0.007 C 
ATOM      9  C   UNL d   1       4.143   1.737  -1.555  0.00  0.00     0.009 C 
ENDBRANCH   7   8
ENDBRANCH   1   7
TORSDOF 2
ENDMDL
