MODEL 1
REMARK minimizedAffinity 15.5044947
REMARK minimizedRMSD -1
REMARK  2 active torsions:
REMARK  status: ('A' for Active; 'I' for Inactive)
REMARK    1  A    between atoms: C1_2  and  C2_3 
REMARK    2  A    between atoms: C2_3  and  C3_4 
ROOT
ATOM      1  C3  UNL d   1       5.117   3.358  -3.114  0.00  0.00    -0.075 A 
ATOM      2  C4  UNL d   1       4.710   3.309  -1.773  0.00  0.00     0.002 A 
ATOM      3  C5  UNL d   1       4.931   4.395  -0.925  0.00  0.00     0.002 A 
ATOM      4  C6  UNL d   1       5.571   5.536  -1.403  0.00  0.00    -0.004 A 
ATOM      5  C7  UNL d   1       5.995   5.589  -2.730  0.00  0.00     0.002 A 
ATOM      6  C8  UNL d   1       5.770   4.506  -3.581  0.00  0.00     0.002 A 
ENDROOT
BRANCH   1   7
ATOM      7  C2  UNL d   1       4.854   2.198  -4.044  0.00  0.00     0.056 C 
BRANCH   7   8
ATOM      8  C1  UNL d   1       5.997   1.912  -5.024  0.00  0.00     0.007 C 
ATOM      9  C   UNL d   1       5.806   0.621  -5.809  0.00  0.00     0.009 C 
ENDBRANCH   7   8
ENDBRANCH   1   7
TORSDOF 2
ENDMDL
