MODEL 1
REMARK minimizedAffinity 4.13355303
REMARK minimizedRMSD -1
REMARK  2 active torsions:
REMARK  status: ('A' for Active; 'I' for Inactive)
REMARK    1  A    between atoms: C1_2  and  C2_3 
REMARK    2  A    between atoms: C2_3  and  C3_4 
ROOT
ATOM      1  C3  UNL d   1      -4.856   4.252   3.191  0.00  0.00    -0.075 A 
ATOM      2  C4  UNL d   1      -3.710   4.839   3.748  0.00  0.00     0.002 A 
ATOM      3  C5  UNL d   1      -3.704   5.256   5.080  0.00  0.00     0.002 A 
ATOM      4  C6  UNL d   1      -4.844   5.102   5.866  0.00  0.00    -0.004 A 
ATOM      5  C7  UNL d   1      -5.993   4.535   5.318  0.00  0.00     0.002 A 
ATOM      6  C8  UNL d   1      -6.000   4.113   3.988  0.00  0.00     0.002 A 
ENDROOT
BRANCH   1   7
ATOM      7  C2  UNL d   1      -4.859   3.772   1.759  0.00  0.00     0.056 C 
BRANCH   7   8
ATOM      8  C1  UNL d   1      -3.542   3.126   1.315  0.00  0.00     0.007 C 
ATOM      9  C   UNL d   1      -3.742   1.920   0.408  0.00  0.00     0.009 C 
ENDBRANCH   7   8
ENDBRANCH   1   7
TORSDOF 2
ENDMDL
