MODEL 1
REMARK minimizedAffinity 9.36935139
REMARK minimizedRMSD -1
REMARK  2 active torsions:
REMARK  status: ('A' for Active; 'I' for Inactive)
REMARK    1  A    between atoms: C1_2  and  C2_3 
REMARK    2  A    between atoms: C2_3  and  C3_4 
ROOT
ATOM      1  C3  UNL d   1      -4.952   4.040   3.998  0.00  0.00    -0.075 A 
ATOM      2  C4  UNL d   1      -3.821   4.865   4.085  0.00  0.00     0.002 A 
ATOM      3  C5  UNL d   1      -3.728   5.835   5.083  0.00  0.00     0.002 A 
ATOM      4  C6  UNL d   1      -4.765   6.000   5.998  0.00  0.00    -0.004 A 
ATOM      5  C7  UNL d   1      -5.901   5.197   5.911  0.00  0.00     0.002 A 
ATOM      6  C8  UNL d   1      -5.995   4.223   4.916  0.00  0.00     0.002 A 
ENDROOT
BRANCH   1   7
ATOM      7  C2  UNL d   1      -5.047   2.969   2.938  0.00  0.00     0.056 C 
BRANCH   7   8
ATOM      8  C1  UNL d   1      -4.231   3.266   1.675  0.00  0.00     0.007 C 
ATOM      9  C   UNL d   1      -4.276   2.139   0.652  0.00  0.00     0.009 C 
ENDBRANCH   7   8
ENDBRANCH   1   7
TORSDOF 2
ENDMDL
