MODEL 1
REMARK minimizedAffinity 6.31506777
REMARK minimizedRMSD -1
REMARK  0 active torsions:
REMARK  status: ('A' for Active; 'I' for Inactive)
ROOT
ATOM      1  C   UNL d   1       2.881  -1.829   4.313  0.00  0.00     0.078 C 
ATOM      2  C1  UNL d   1       2.581  -3.255   4.667  0.00  0.00    -0.077 A 
ATOM      3  C2  UNL d   1       1.660  -3.570   5.674  0.00  0.00    -0.001 A 
ATOM      4  C3  UNL d   1       1.398  -4.901   5.999  0.00  0.00     0.003 A 
ATOM      5  C4  UNL d   1       2.052  -5.929   5.323  0.00  0.00    -0.005 A 
ATOM      6  C5  UNL d   1       2.972  -5.626   4.321  0.00  0.00     0.003 A 
ATOM      7  C6  UNL d   1       3.236  -4.295   3.994  0.00  0.00    -0.001 A 
ENDROOT
TORSDOF 0
ENDMDL
