MODEL 1
REMARK minimizedAffinity -0.230078667
REMARK minimizedRMSD -1
REMARK  0 active torsions:
REMARK  status: ('A' for Active; 'I' for Inactive)
ROOT
ATOM      1  C   UNL d   1       5.999  -1.534   3.533  0.00  0.00     0.078 C 
ATOM      2  C1  UNL d   1       4.509  -1.441   3.678  0.00  0.00    -0.077 A 
ATOM      3  C2  UNL d   1       3.745  -0.671   2.792  0.00  0.00    -0.001 A 
ATOM      4  C3  UNL d   1       2.361  -0.585   2.944  0.00  0.00     0.003 A 
ATOM      5  C4  UNL d   1       1.728  -1.266   3.983  0.00  0.00    -0.005 A 
ATOM      6  C5  UNL d   1       2.480  -2.033   4.870  0.00  0.00     0.003 A 
ATOM      7  C6  UNL d   1       3.864  -2.120   4.719  0.00  0.00    -0.001 A 
ENDROOT
TORSDOF 0
ENDMDL
