MODEL 1
REMARK minimizedAffinity 9.21665955
REMARK minimizedRMSD -1
REMARK  0 active torsions:
REMARK  status: ('A' for Active; 'I' for Inactive)
ROOT
ATOM      1  C   UNL d   1      -2.333  -2.035  -1.856  0.00  0.00     0.078 C 
ATOM      2  C1  UNL d   1      -1.244  -1.513  -0.966  0.00  0.00    -0.077 A 
ATOM      3  C2  UNL d   1      -1.511  -0.538   0.003  0.00  0.00    -0.001 A 
ATOM      4  C3  UNL d   1      -0.486  -0.054   0.818  0.00  0.00     0.003 A 
ATOM      5  C4  UNL d   1       0.813  -0.538   0.671  0.00  0.00    -0.005 A 
ATOM      6  C5  UNL d   1       1.088  -1.506  -0.293  0.00  0.00     0.003 A 
ATOM      7  C6  UNL d   1       0.064  -1.991  -1.108  0.00  0.00    -0.001 A 
ENDROOT
TORSDOF 0
ENDMDL
