MODEL 1
REMARK minimizedAffinity 9.54654312
REMARK minimizedRMSD -1
REMARK  0 active torsions:
REMARK  status: ('A' for Active; 'I' for Inactive)
ROOT
ATOM      1  C   UNL d   1       1.792  -1.159   3.333  0.00  0.00     0.078 C 
ATOM      2  C1  UNL d   1       1.856  -2.628   3.624  0.00  0.00    -0.077 A 
ATOM      3  C2  UNL d   1       3.015  -3.367   3.356  0.00  0.00    -0.001 A 
ATOM      4  C3  UNL d   1       3.058  -4.736   3.622  0.00  0.00     0.003 A 
ATOM      5  C4  UNL d   1       1.944  -5.379   4.158  0.00  0.00    -0.005 A 
ATOM      6  C5  UNL d   1       0.785  -4.653   4.426  0.00  0.00     0.003 A 
ATOM      7  C6  UNL d   1       0.741  -3.284   4.160  0.00  0.00    -0.001 A 
ENDROOT
TORSDOF 0
ENDMDL
