MODEL 1
REMARK minimizedAffinity 1.66048813
REMARK minimizedRMSD -1
REMARK  0 active torsions:
REMARK  status: ('A' for Active; 'I' for Inactive)
ROOT
ATOM      1  C   UNL d   1       2.033  -1.992   3.620  0.00  0.00     0.078 C 
ATOM      2  C1  UNL d   1       1.902  -3.390   4.148  0.00  0.00    -0.077 A 
ATOM      3  C2  UNL d   1       0.667  -3.884   4.584  0.00  0.00    -0.001 A 
ATOM      4  C3  UNL d   1       0.562  -5.183   5.082  0.00  0.00     0.003 A 
ATOM      5  C4  UNL d   1       1.689  -6.000   5.151  0.00  0.00    -0.005 A 
ATOM      6  C5  UNL d   1       2.923  -5.516   4.721  0.00  0.00     0.003 A 
ATOM      7  C6  UNL d   1       3.030  -4.217   4.223  0.00  0.00    -0.001 A 
ENDROOT
TORSDOF 0
ENDMDL
