MODEL 1
REMARK minimizedAffinity 5.89158726
REMARK minimizedRMSD -1
REMARK  0 active torsions:
REMARK  status: ('A' for Active; 'I' for Inactive)
ROOT
ATOM      1  C   UNL d   1      -3.374  -0.899  -3.758  0.00  0.00     0.078 C 
ATOM      2  C1  UNL d   1      -4.218  -2.036  -4.252  0.00  0.00    -0.077 A 
ATOM      3  C2  UNL d   1      -4.064  -2.537  -5.550  0.00  0.00    -0.001 A 
ATOM      4  C3  UNL d   1      -4.863  -3.589  -6.000  0.00  0.00     0.003 A 
ATOM      5  C4  UNL d   1      -5.822  -4.149  -5.158  0.00  0.00    -0.005 A 
ATOM      6  C5  UNL d   1      -5.984  -3.656  -3.865  0.00  0.00     0.003 A 
ATOM      7  C6  UNL d   1      -5.186  -2.603  -3.413  0.00  0.00    -0.001 A 
ENDROOT
TORSDOF 0
ENDMDL
