MODEL 1
REMARK minimizedAffinity -1.59063494
REMARK minimizedRMSD -1
REMARK  0 active torsions:
REMARK  status: ('A' for Active; 'I' for Inactive)
ROOT
ATOM      1  C   UNL d   1       5.673  -5.943  -5.997  0.00  0.00     0.078 C 
ATOM      2  C1  UNL d   1       4.525  -5.969  -5.032  0.00  0.00    -0.077 A 
ATOM      3  C2  UNL d   1       3.201  -5.981  -5.486  0.00  0.00    -0.001 A 
ATOM      4  C3  UNL d   1       2.143  -5.997  -4.576  0.00  0.00     0.003 A 
ATOM      5  C4  UNL d   1       2.398  -5.998  -3.206  0.00  0.00    -0.005 A 
ATOM      6  C5  UNL d   1       3.713  -5.984  -2.745  0.00  0.00     0.003 A 
ATOM      7  C6  UNL d   1       4.772  -5.969  -3.653  0.00  0.00    -0.001 A 
ENDROOT
TORSDOF 0
ENDMDL
