MODEL 1
REMARK minimizedAffinity 9.26618671
REMARK minimizedRMSD -1
REMARK  0 active torsions:
REMARK  status: ('A' for Active; 'I' for Inactive)
ROOT
ATOM      1  C   UNL d   1       2.433  -1.187   2.845  0.00  0.00     0.078 C 
ATOM      2  C1  UNL d   1       2.472  -2.521   3.527  0.00  0.00    -0.077 A 
ATOM      3  C2  UNL d   1       2.970  -3.653   2.870  0.00  0.00    -0.001 A 
ATOM      4  C3  UNL d   1       2.991  -4.891   3.514  0.00  0.00     0.003 A 
ATOM      5  C4  UNL d   1       2.516  -5.010   4.818  0.00  0.00    -0.005 A 
ATOM      6  C5  UNL d   1       2.016  -3.890   5.480  0.00  0.00     0.003 A 
ATOM      7  C6  UNL d   1       1.994  -2.651   4.837  0.00  0.00    -0.001 A 
ENDROOT
TORSDOF 0
ENDMDL
