MODEL 1
REMARK minimizedAffinity -3.29361701
REMARK minimizedRMSD -1
REMARK  0 active torsions:
REMARK  status: ('A' for Active; 'I' for Inactive)
ROOT
ATOM      1  C   UNL d   1       0.190   5.869  -2.671  0.00  0.00     0.077 C 
ATOM      2  C1  UNL d   1       0.304   4.944  -1.496  0.00  0.00    -0.074 A 
ATOM      3  C2  UNL d   1       0.682   5.423  -0.238  0.00  0.00    -0.005 A 
ATOM      4  C3  UNL d   1       0.775   4.552   0.848  0.00  0.00     0.006 A 
ATOM      5  C4  UNL d   1       0.492   3.195   0.686  0.00  0.00    -0.005 A 
ATOM      6  C5  UNL d   1       0.112   2.698  -0.564  0.00  0.00    -0.074 A 
ATOM      7  C6  UNL d   1      -0.205   1.244  -0.753  0.00  0.00     0.077 C 
ATOM      8  C7  UNL d   1       0.014   3.581  -1.649  0.00  0.00    -0.001 A 
ENDROOT
TORSDOF 0
ENDMDL
