MODEL 1
REMARK minimizedAffinity -1.95945776
REMARK minimizedRMSD -1
REMARK  0 active torsions:
REMARK  status: ('A' for Active; 'I' for Inactive)
ROOT
ATOM      1  C   UNL d   1       0.487   5.141  -2.014  0.00  0.00     0.077 C 
ATOM      2  C1  UNL d   1       0.428   3.925  -1.137  0.00  0.00    -0.074 A 
ATOM      3  C2  UNL d   1      -0.118   2.727  -1.607  0.00  0.00    -0.005 A 
ATOM      4  C3  UNL d   1      -0.159   1.602  -0.783  0.00  0.00     0.006 A 
ATOM      5  C4  UNL d   1       0.346   1.664   0.516  0.00  0.00    -0.005 A 
ATOM      6  C5  UNL d   1       0.896   2.854   1.003  0.00  0.00    -0.074 A 
ATOM      7  C6  UNL d   1       1.452   2.935   2.394  0.00  0.00     0.077 C 
ATOM      8  C7  UNL d   1       0.940   3.978   0.167  0.00  0.00    -0.001 A 
ENDROOT
TORSDOF 0
ENDMDL
