MODEL 1
REMARK minimizedAffinity 4.19376516
REMARK minimizedRMSD -1
REMARK  0 active torsions:
REMARK  status: ('A' for Active; 'I' for Inactive)
ROOT
ATOM      1  C   UNL d   1      -1.430   5.998  -0.070  0.00  0.00     0.077 C 
ATOM      2  C1  UNL d   1      -0.722   4.705  -0.348  0.00  0.00    -0.074 A 
ATOM      3  C2  UNL d   1       0.159   4.587  -1.428  0.00  0.00    -0.005 A 
ATOM      4  C3  UNL d   1       0.817   3.381  -1.669  0.00  0.00     0.006 A 
ATOM      5  C4  UNL d   1       0.601   2.283  -0.834  0.00  0.00    -0.005 A 
ATOM      6  C5  UNL d   1      -0.276   2.384   0.250  0.00  0.00    -0.074 A 
ATOM      7  C6  UNL d   1      -0.512   1.217   1.162  0.00  0.00     0.077 C 
ATOM      8  C7  UNL d   1      -0.928   3.601   0.490  0.00  0.00    -0.001 A 
ENDROOT
TORSDOF 0
ENDMDL
