MODEL 1
REMARK minimizedAffinity -0.706887841
REMARK minimizedRMSD -1
REMARK  0 active torsions:
REMARK  status: ('A' for Active; 'I' for Inactive)
ROOT
ATOM      1  C   UNL d   1      -0.035   1.186   1.217  0.00  0.00     0.077 C 
ATOM      2  C1  UNL d   1       0.657   2.471   0.872  0.00  0.00    -0.074 A 
ATOM      3  C2  UNL d   1       1.780   2.898   1.588  0.00  0.00    -0.005 A 
ATOM      4  C3  UNL d   1       2.418   4.091   1.249  0.00  0.00     0.006 A 
ATOM      5  C4  UNL d   1       1.941   4.868   0.192  0.00  0.00    -0.005 A 
ATOM      6  C5  UNL d   1       0.820   4.456  -0.536  0.00  0.00    -0.074 A 
ATOM      7  C6  UNL d   1       0.301   5.274  -1.681  0.00  0.00     0.077 C 
ATOM      8  C7  UNL d   1       0.188   3.253  -0.194  0.00  0.00    -0.001 A 
ENDROOT
TORSDOF 0
ENDMDL
