MODEL 1
REMARK minimizedAffinity 10.1762304
REMARK minimizedRMSD -1
REMARK  0 active torsions:
REMARK  status: ('A' for Active; 'I' for Inactive)
ROOT
ATOM      1  C   UNL d   1       1.063   4.874  -3.748  0.00  0.00     0.077 C 
ATOM      2  C1  UNL d   1       0.579   4.835  -2.329  0.00  0.00    -0.074 A 
ATOM      3  C2  UNL d   1      -0.134   5.908  -1.783  0.00  0.00    -0.005 A 
ATOM      4  C3  UNL d   1      -0.586   5.854  -0.465  0.00  0.00     0.006 A 
ATOM      5  C4  UNL d   1      -0.330   4.729   0.320  0.00  0.00    -0.005 A 
ATOM      6  C5  UNL d   1       0.380   3.646  -0.209  0.00  0.00    -0.074 A 
ATOM      7  C6  UNL d   1       0.654   2.425   0.618  0.00  0.00     0.077 C 
ATOM      8  C7  UNL d   1       0.825   3.705  -1.537  0.00  0.00    -0.001 A 
ENDROOT
TORSDOF 0
ENDMDL
