MODEL 1
REMARK minimizedAffinity 5.96481419
REMARK minimizedRMSD -1
REMARK  0 active torsions:
REMARK  status: ('A' for Active; 'I' for Inactive)
ROOT
ATOM      1  C   UNL d   1       0.115   1.567   1.761  0.00  0.00     0.077 C 
ATOM      2  C1  UNL d   1       0.903   2.576   0.979  0.00  0.00    -0.074 A 
ATOM      3  C2  UNL d   1       2.164   2.996   1.414  0.00  0.00    -0.005 A 
ATOM      4  C3  UNL d   1       2.889   3.928   0.671  0.00  0.00     0.006 A 
ATOM      5  C4  UNL d   1       2.362   4.448  -0.511  0.00  0.00    -0.005 A 
ATOM      6  C5  UNL d   1       1.103   4.039  -0.962  0.00  0.00    -0.074 A 
ATOM      7  C6  UNL d   1       0.525   4.581  -2.236  0.00  0.00     0.077 C 
ATOM      8  C7  UNL d   1       0.383   3.097  -0.214  0.00  0.00    -0.001 A 
ENDROOT
TORSDOF 0
ENDMDL
