MODEL 1
REMARK minimizedAffinity -2.91870499
REMARK minimizedRMSD -1
REMARK  0 active torsions:
REMARK  status: ('A' for Active; 'I' for Inactive)
ROOT
ATOM      1  C   UNL d   1       0.820   0.688  -0.250  0.00  0.00     0.020 A 
ATOM      2  C1  UNL d   1       0.498   0.057  -1.451  0.00  0.00     0.020 A 
ATOM      3  C2  UNL d   1       1.514  -0.379  -2.305  0.00  0.00     0.034 A 
ATOM      4  C3  UNL d   1       2.856  -0.185  -1.958  0.00  0.00     0.017 A 
ATOM      5  C4  UNL d   1       3.178   0.448  -0.752  0.00  0.00     0.017 A 
ATOM      6  C5  UNL d   1       2.157   0.882   0.099  0.00  0.00     0.034 A 
ATOM      7 Cl   UNL d   1       4.810   0.722  -0.255  0.00  0.00    -0.070 Cl
ATOM      8 Cl1  UNL d   1       4.061  -0.750  -3.060  0.00  0.00    -0.070 Cl
ENDROOT
TORSDOF 0
ENDMDL
