MODEL 1
REMARK minimizedAffinity 6.22248697
REMARK minimizedRMSD -1
REMARK  0 active torsions:
REMARK  status: ('A' for Active; 'I' for Inactive)
ROOT
ATOM      1  C   UNL d   1       1.229  -1.035  -2.660  0.00  0.00     0.020 A 
ATOM      2  C1  UNL d   1       2.578  -1.161  -2.989  0.00  0.00     0.020 A 
ATOM      3  C2  UNL d   1       3.552  -0.588  -2.169  0.00  0.00     0.034 A 
ATOM      4  C3  UNL d   1       3.180   0.112  -1.017  0.00  0.00     0.017 A 
ATOM      5  C4  UNL d   1       1.825   0.238  -0.688  0.00  0.00     0.017 A 
ATOM      6  C5  UNL d   1       0.853  -0.337  -1.512  0.00  0.00     0.034 A 
ATOM      7 Cl   UNL d   1       1.288   1.088   0.718  0.00  0.00    -0.070 Cl
ATOM      8 Cl1  UNL d   1       4.438   0.794  -0.049  0.00  0.00    -0.070 Cl
ENDROOT
TORSDOF 0
ENDMDL
