MODEL 1
REMARK minimizedAffinity 1.27017617
REMARK minimizedRMSD -1
REMARK  0 active torsions:
REMARK  status: ('A' for Active; 'I' for Inactive)
ROOT
ATOM      1  C   UNL d   1       1.258   1.933   0.252  0.00  0.00     0.020 A 
ATOM      2  C1  UNL d   1       2.505   1.963  -0.369  0.00  0.00     0.020 A 
ATOM      3  C2  UNL d   1       3.028   0.802  -0.941  0.00  0.00     0.034 A 
ATOM      4  C3  UNL d   1       2.304  -0.395  -0.893  0.00  0.00     0.017 A 
ATOM      5  C4  UNL d   1       1.051  -0.424  -0.269  0.00  0.00     0.017 A 
ATOM      6  C5  UNL d   1       0.532   0.742   0.302  0.00  0.00     0.034 A 
ATOM      7 Cl   UNL d   1       0.098  -1.862  -0.170  0.00  0.00    -0.070 Cl
ATOM      8 Cl1  UNL d   1       3.011  -1.793  -1.621  0.00  0.00    -0.070 Cl
ENDROOT
TORSDOF 0
ENDMDL
