MODEL 1
REMARK minimizedAffinity 0.100015998
REMARK minimizedRMSD -1
REMARK  0 active torsions:
REMARK  status: ('A' for Active; 'I' for Inactive)
ROOT
ATOM      1  C   UNL d   1       3.559  -0.625  -0.916  0.00  0.00     0.020 A 
ATOM      2  C1  UNL d   1       3.474  -1.332  -2.114  0.00  0.00     0.020 A 
ATOM      3  C2  UNL d   1       2.358  -1.179  -2.938  0.00  0.00     0.034 A 
ATOM      4  C3  UNL d   1       1.321  -0.316  -2.565  0.00  0.00     0.017 A 
ATOM      5  C4  UNL d   1       1.406   0.394  -1.362  0.00  0.00     0.017 A 
ATOM      6  C5  UNL d   1       2.527   0.237  -0.540  0.00  0.00     0.034 A 
ATOM      7 Cl   UNL d   1       0.167   1.477  -0.834  0.00  0.00    -0.070 Cl
ATOM      8 Cl1  UNL d   1      -0.030  -0.175  -3.633  0.00  0.00    -0.070 Cl
ENDROOT
TORSDOF 0
ENDMDL
