MODEL 1
REMARK minimizedAffinity -0.153556764
REMARK minimizedRMSD -1
REMARK  0 active torsions:
REMARK  status: ('A' for Active; 'I' for Inactive)
ROOT
ATOM      1  C   UNL d   1      -4.499   0.734  -5.898  0.00  0.00     0.020 A 
ATOM      2  C1  UNL d   1      -3.129   0.943  -5.743  0.00  0.00     0.020 A 
ATOM      3  C2  UNL d   1      -2.626   2.243  -5.664  0.00  0.00     0.034 A 
ATOM      4  C3  UNL d   1      -3.493   3.339  -5.741  0.00  0.00     0.017 A 
ATOM      5  C4  UNL d   1      -4.867   3.128  -5.897  0.00  0.00     0.017 A 
ATOM      6  C5  UNL d   1      -5.366   1.824  -5.975  0.00  0.00     0.034 A 
ATOM      7 Cl   UNL d   1      -5.999   4.430  -6.000  0.00  0.00    -0.070 Cl
ATOM      8 Cl1  UNL d   1      -2.801   4.919  -5.637  0.00  0.00    -0.070 Cl
ENDROOT
TORSDOF 0
ENDMDL
