MODEL 1
REMARK minimizedAffinity 0.186664477
REMARK minimizedRMSD -1
REMARK  0 active torsions:
REMARK  status: ('A' for Active; 'I' for Inactive)
ROOT
ATOM      1  C   UNL d   1      -3.349   0.210  -5.994  0.00  0.00     0.020 A 
ATOM      2  C1  UNL d   1      -2.066   0.754  -5.994  0.00  0.00     0.020 A 
ATOM      3  C2  UNL d   1      -1.895   2.140  -5.996  0.00  0.00     0.034 A 
ATOM      4  C3  UNL d   1      -3.010   2.987  -5.997  0.00  0.00     0.017 A 
ATOM      5  C4  UNL d   1      -4.298   2.439  -5.997  0.00  0.00     0.017 A 
ATOM      6  C5  UNL d   1      -4.463   1.051  -5.995  0.00  0.00     0.034 A 
ATOM      7 Cl   UNL d   1      -5.722   3.419  -5.999  0.00  0.00    -0.070 Cl
ATOM      8 Cl1  UNL d   1      -2.725   4.691  -5.999  0.00  0.00    -0.070 Cl
ENDROOT
TORSDOF 0
ENDMDL
