MODEL 1
REMARK minimizedAffinity 2.61189389
REMARK minimizedRMSD -1
REMARK  0 active torsions:
REMARK  status: ('A' for Active; 'I' for Inactive)
ROOT
ATOM      1  C   UNL d   1       2.302   0.986  -0.379  0.00  0.00     0.020 A 
ATOM      2  C1  UNL d   1       0.923   1.162  -0.275  0.00  0.00     0.020 A 
ATOM      3  C2  UNL d   1       0.055   0.233  -0.851  0.00  0.00     0.034 A 
ATOM      4  C3  UNL d   1       0.565  -0.877  -1.535  0.00  0.00     0.017 A 
ATOM      5  C4  UNL d   1       1.949  -1.053  -1.639  0.00  0.00     0.017 A 
ATOM      6  C5  UNL d   1       2.814  -0.119  -1.059  0.00  0.00     0.034 A 
ATOM      7 Cl   UNL d   1       2.653  -2.397  -2.466  0.00  0.00    -0.070 Cl
ATOM      8 Cl1  UNL d   1      -0.567  -1.986  -2.223  0.00  0.00    -0.070 Cl
ENDROOT
TORSDOF 0
ENDMDL
