MODEL 1
REMARK minimizedAffinity 0.0168039668
REMARK minimizedRMSD -1
REMARK  0 active torsions:
REMARK  status: ('A' for Active; 'I' for Inactive)
ROOT
ATOM      1  C   UNL d   1      -5.460   2.874  -5.962  0.00  0.00     0.020 A 
ATOM      2  C1  UNL d   1      -4.107   3.208  -5.962  0.00  0.00     0.020 A 
ATOM      3  C2  UNL d   1      -3.139   2.201  -5.973  0.00  0.00     0.034 A 
ATOM      4  C3  UNL d   1      -3.524   0.856  -5.984  0.00  0.00     0.017 A 
ATOM      5  C4  UNL d   1      -4.883   0.522  -5.984  0.00  0.00     0.017 A 
ATOM      6  C5  UNL d   1      -5.847   1.534  -5.973  0.00  0.00     0.034 A 
ATOM      7 Cl   UNL d   1      -5.435  -1.116  -5.997  0.00  0.00    -0.070 Cl
ATOM      8 Cl1  UNL d   1      -2.274  -0.337  -5.998  0.00  0.00    -0.070 Cl
ENDROOT
TORSDOF 0
ENDMDL
