MODEL 1
REMARK minimizedAffinity 7.14617395
REMARK minimizedRMSD -1
REMARK  0 active torsions:
REMARK  status: ('A' for Active; 'I' for Inactive)
ROOT
ATOM      1  C   UNL d   1      -1.194   2.893  -5.873  0.00  0.00     0.020 A 
ATOM      2  C1  UNL d   1      -1.720   4.184  -5.873  0.00  0.00     0.020 A 
ATOM      3  C2  UNL d   1      -3.103   4.375  -5.911  0.00  0.00     0.034 A 
ATOM      4  C3  UNL d   1      -3.965   3.273  -5.950  0.00  0.00     0.017 A 
ATOM      5  C4  UNL d   1      -3.436   1.977  -5.951  0.00  0.00     0.017 A 
ATOM      6  C5  UNL d   1      -2.050   1.792  -5.912  0.00  0.00     0.034 A 
ATOM      7 Cl   UNL d   1      -4.436   0.568  -5.998  0.00  0.00    -0.070 Cl
ATOM      8 Cl1  UNL d   1      -5.664   3.582  -5.996  0.00  0.00    -0.070 Cl
ENDROOT
TORSDOF 0
ENDMDL
