MODEL 1
REMARK minimizedAffinity -1.43460548
REMARK minimizedRMSD -1
REMARK  0 active torsions:
REMARK  status: ('A' for Active; 'I' for Inactive)
ROOT
ATOM      1  C   UNL d   1      -5.489   3.328  -6.000  0.00  0.00     0.020 A 
ATOM      2  C1  UNL d   1      -4.313   4.077  -5.999  0.00  0.00     0.020 A 
ATOM      3  C2  UNL d   1      -3.075   3.432  -5.999  0.00  0.00     0.034 A 
ATOM      4  C3  UNL d   1      -3.009   2.034  -5.999  0.00  0.00     0.017 A 
ATOM      5  C4  UNL d   1      -4.191   1.283  -5.999  0.00  0.00     0.017 A 
ATOM      6  C5  UNL d   1      -5.428   1.934  -6.000  0.00  0.00     0.034 A 
ATOM      7 Cl   UNL d   1      -4.190  -0.445  -6.000  0.00  0.00    -0.070 Cl
ATOM      8 Cl1  UNL d   1      -1.444   1.303  -5.999  0.00  0.00    -0.070 Cl
ENDROOT
TORSDOF 0
ENDMDL
