MODEL 1
REMARK minimizedAffinity 2.45529056
REMARK minimizedRMSD -1
REMARK  0 active torsions:
REMARK  status: ('A' for Active; 'I' for Inactive)
ROOT
ATOM      1  C   UNL d   1       2.756  -0.616  -1.320  0.00  0.00     0.020 A 
ATOM      2  C1  UNL d   1       2.617  -0.064  -0.047  0.00  0.00     0.020 A 
ATOM      3  C2  UNL d   1       1.392   0.476   0.349  0.00  0.00     0.034 A 
ATOM      4  C3  UNL d   1       0.301   0.466  -0.528  0.00  0.00     0.017 A 
ATOM      5  C4  UNL d   1       0.442  -0.089  -1.805  0.00  0.00     0.017 A 
ATOM      6  C5  UNL d   1       1.671  -0.629  -2.197  0.00  0.00     0.034 A 
ATOM      7 Cl   UNL d   1      -0.859  -0.139  -2.942  0.00  0.00    -0.070 Cl
ATOM      8 Cl1  UNL d   1      -1.184   1.151   0.029  0.00  0.00    -0.070 Cl
ENDROOT
TORSDOF 0
ENDMDL
