MODEL 1
REMARK minimizedAffinity 0.226986453
REMARK minimizedRMSD -1
REMARK  0 active torsions:
REMARK  status: ('A' for Active; 'I' for Inactive)
ROOT
ATOM      1  C   UNL d   1      -4.702   0.233  -5.982  0.00  0.00     0.020 A 
ATOM      2  C1  UNL d   1      -3.313   0.357  -5.987  0.00  0.00     0.020 A 
ATOM      3  C2  UNL d   1      -2.724   1.623  -5.993  0.00  0.00     0.034 A 
ATOM      4  C3  UNL d   1      -3.525   2.771  -5.993  0.00  0.00     0.017 A 
ATOM      5  C4  UNL d   1      -4.919   2.646  -5.988  0.00  0.00     0.017 A 
ATOM      6  C5  UNL d   1      -5.503   1.376  -5.983  0.00  0.00     0.034 A 
ATOM      7 Cl   UNL d   1      -5.972   4.017  -5.989  0.00  0.00    -0.070 Cl
ATOM      8 Cl1  UNL d   1      -2.730   4.305  -6.000  0.00  0.00    -0.070 Cl
ENDROOT
TORSDOF 0
ENDMDL
