MODEL 1
REMARK minimizedAffinity -3.37795377
REMARK minimizedRMSD -1
REMARK  0 active torsions:
REMARK  status: ('A' for Active; 'I' for Inactive)
ROOT
ATOM      1  C   UNL d   1      -5.544   3.767  -5.999  0.00  0.00     0.020 A 
ATOM      2  C1  UNL d   1      -4.190   4.093  -5.939  0.00  0.00     0.020 A 
ATOM      3  C2  UNL d   1      -3.230   3.080  -5.879  0.00  0.00     0.034 A 
ATOM      4  C3  UNL d   1      -3.624   1.737  -5.878  0.00  0.00     0.017 A 
ATOM      5  C4  UNL d   1      -4.984   1.411  -5.938  0.00  0.00     0.017 A 
ATOM      6  C5  UNL d   1      -5.940   2.429  -5.999  0.00  0.00     0.034 A 
ATOM      7 Cl   UNL d   1      -5.546  -0.224  -5.941  0.00  0.00    -0.070 Cl
ATOM      8 Cl1  UNL d   1      -2.384   0.536  -5.801  0.00  0.00    -0.070 Cl
ENDROOT
TORSDOF 0
ENDMDL
