MODEL 1
REMARK minimizedAffinity 0.204076931
REMARK minimizedRMSD -1
REMARK  0 active torsions:
REMARK  status: ('A' for Active; 'I' for Inactive)
ROOT
ATOM      1  C   UNL d   1      -2.196   1.414  -6.000  0.00  0.00     0.020 A 
ATOM      2  C1  UNL d   1      -3.503   0.928  -5.999  0.00  0.00     0.020 A 
ATOM      3  C2  UNL d   1      -4.579   1.818  -5.999  0.00  0.00     0.034 A 
ATOM      4  C3  UNL d   1      -4.350   3.199  -5.999  0.00  0.00     0.017 A 
ATOM      5  C4  UNL d   1      -3.037   3.686  -6.000  0.00  0.00     0.017 A 
ATOM      6  C5  UNL d   1      -1.964   2.789  -6.000  0.00  0.00     0.034 A 
ATOM      7 Cl   UNL d   1      -2.675   5.376  -6.000  0.00  0.00    -0.070 Cl
ATOM      8 Cl1  UNL d   1      -5.727   4.242  -5.999  0.00  0.00    -0.070 Cl
ENDROOT
TORSDOF 0
ENDMDL
