MODEL 1
REMARK minimizedAffinity 0.0173697211
REMARK minimizedRMSD -1
REMARK  0 active torsions:
REMARK  status: ('A' for Active; 'I' for Inactive)
ROOT
ATOM      1  C   UNL d   1      -5.573   4.456  -5.978  0.00  0.00     0.020 A 
ATOM      2  C1  UNL d   1      -4.240   4.865  -5.991  0.00  0.00     0.020 A 
ATOM      3  C2  UNL d   1      -3.218   3.913  -5.994  0.00  0.00     0.034 A 
ATOM      4  C3  UNL d   1      -3.527   2.548  -5.983  0.00  0.00     0.017 A 
ATOM      5  C4  UNL d   1      -4.865   2.139  -5.969  0.00  0.00     0.017 A 
ATOM      6  C5  UNL d   1      -5.885   3.096  -5.967  0.00  0.00     0.034 A 
ATOM      7 Cl   UNL d   1      -5.324   0.472  -5.955  0.00  0.00    -0.070 Cl
ATOM      8 Cl1  UNL d   1      -2.212   1.427  -5.987  0.00  0.00    -0.070 Cl
ENDROOT
TORSDOF 0
ENDMDL
