MODEL 1
REMARK minimizedAffinity 0.601960361
REMARK minimizedRMSD -1
REMARK  0 active torsions:
REMARK  status: ('A' for Active; 'I' for Inactive)
ROOT
ATOM      1  C   UNL d   1      -3.846   2.962  -5.800  0.00  0.00     0.020 A 
ATOM      2  C1  UNL d   1      -5.033   2.258  -6.000  0.00  0.00     0.020 A 
ATOM      3  C2  UNL d   1      -5.025   0.861  -6.000  0.00  0.00     0.034 A 
ATOM      4  C3  UNL d   1      -3.828   0.164  -5.800  0.00  0.00     0.017 A 
ATOM      5  C4  UNL d   1      -2.637   0.872  -5.599  0.00  0.00     0.017 A 
ATOM      6  C5  UNL d   1      -2.651   2.270  -5.600  0.00  0.00     0.034 A 
ATOM      7 Cl   UNL d   1      -1.121   0.082  -5.345  0.00  0.00    -0.070 Cl
ATOM      8 Cl1  UNL d   1      -3.891  -1.562  -5.812  0.00  0.00    -0.070 Cl
ENDROOT
TORSDOF 0
ENDMDL
