MODEL 1
REMARK minimizedAffinity -2.6414535
REMARK minimizedRMSD -1
REMARK  0 active torsions:
REMARK  status: ('A' for Active; 'I' for Inactive)
ROOT
ATOM      1  C   UNL d   1      -3.154  -5.999  -5.965  0.00  0.00     0.020 A 
ATOM      2  C1  UNL d   1      -1.899  -5.393  -5.967  0.00  0.00     0.020 A 
ATOM      3  C2  UNL d   1      -1.797  -4.000  -5.976  0.00  0.00     0.034 A 
ATOM      4  C3  UNL d   1      -2.951  -3.209  -5.983  0.00  0.00     0.017 A 
ATOM      5  C4  UNL d   1      -4.211  -3.819  -5.981  0.00  0.00     0.017 A 
ATOM      6  C5  UNL d   1      -4.308  -5.214  -5.972  0.00  0.00     0.034 A 
ATOM      7 Cl   UNL d   1      -5.681  -2.910  -5.989  0.00  0.00    -0.070 Cl
ATOM      8 Cl1  UNL d   1      -2.750  -1.493  -5.993  0.00  0.00    -0.070 Cl
ENDROOT
TORSDOF 0
ENDMDL
