MODEL 1
REMARK minimizedAffinity 2.66521549
REMARK minimizedRMSD -1
REMARK  0 active torsions:
REMARK  status: ('A' for Active; 'I' for Inactive)
ROOT
ATOM      1  C   UNL d   1      -5.999  -0.857  -5.994  0.00  0.00     0.020 A 
ATOM      2  C1  UNL d   1      -4.802  -1.571  -6.000  0.00  0.00     0.020 A 
ATOM      3  C2  UNL d   1      -3.589  -0.901  -5.821  0.00  0.00     0.034 A 
ATOM      4  C3  UNL d   1      -3.571   0.486  -5.637  0.00  0.00     0.017 A 
ATOM      5  C4  UNL d   1      -4.774   1.202  -5.632  0.00  0.00     0.017 A 
ATOM      6  C5  UNL d   1      -5.986   0.527  -5.811  0.00  0.00     0.034 A 
ATOM      7 Cl   UNL d   1      -4.832   2.915  -5.410  0.00  0.00    -0.070 Cl
ATOM      8 Cl1  UNL d   1      -2.036   1.248  -5.422  0.00  0.00    -0.070 Cl
ENDROOT
TORSDOF 0
ENDMDL
