MODEL 1
REMARK minimizedAffinity 9.65385437
REMARK minimizedRMSD -1
REMARK  3 active torsions:
REMARK  status: ('A' for Active; 'I' for Inactive)
REMARK    1  A    between atoms: C3'_2  and  C2'_3 
REMARK    2  A    between atoms: C2'_3  and  C1'_4 
REMARK    3  A    between atoms: C1'_4  and  C1_5 
ROOT
ATOM      1  C1  N4B d   1       1.538   2.563   0.329  0.00  0.00    -0.075 A 
ATOM      2  C2  N4B d   1       0.542   3.464   0.764  0.00  0.00     0.002 A 
ATOM      3  C3  N4B d   1      -0.201   3.178   1.883  0.00  0.00     0.002 A 
ATOM      4  C4  N4B d   1       0.019   1.993   2.568  0.00  0.00    -0.004 A 
ATOM      5  C5  N4B d   1       1.000   1.139   2.155  0.00  0.00     0.002 A 
ATOM      6  C6  N4B d   1       1.758   1.416   1.035  0.00  0.00     0.002 A 
ENDROOT
BRANCH   1   7
ATOM      7  C1' N4B d   1       2.317   2.792  -0.937  0.00  0.00     0.057 C 
BRANCH   7   8
ATOM      8  C2' N4B d   1       2.379   1.489  -1.729  0.00  0.00     0.009 C 
BRANCH   8   9
ATOM      9  C3' N4B d   1       1.919   1.674  -3.165  0.00  0.00     0.004 C 
ATOM     10  C4' N4B d   1       0.879   2.745  -3.308  0.00  0.00     0.003 C 
ENDBRANCH   8   9
ENDBRANCH   7   8
ENDBRANCH   1   7
TORSDOF 3
ENDMDL
