MODEL 1
REMARK minimizedAffinity 14.5429296
REMARK minimizedRMSD -1
REMARK  3 active torsions:
REMARK  status: ('A' for Active; 'I' for Inactive)
REMARK    1  A    between atoms: C3'_2  and  C2'_3 
REMARK    2  A    between atoms: C2'_3  and  C1'_4 
REMARK    3  A    between atoms: C1'_4  and  C1_5 
ROOT
ATOM      1  C1  N4B d   1      -0.784   3.018   1.459  0.00  0.00    -0.075 A 
ATOM      2  C2  N4B d   1      -0.998   2.207   2.595  0.00  0.00     0.002 A 
ATOM      3  C3  N4B d   1      -0.038   1.307   2.987  0.00  0.00     0.002 A 
ATOM      4  C4  N4B d   1       1.131   1.186   2.251  0.00  0.00    -0.004 A 
ATOM      5  C5  N4B d   1       1.341   1.991   1.169  0.00  0.00     0.002 A 
ATOM      6  C6  N4B d   1       0.387   2.903   0.766  0.00  0.00     0.002 A 
ENDROOT
BRANCH   1   7
ATOM      7  C1' N4B d   1      -1.840   3.956   0.941  0.00  0.00     0.057 C 
BRANCH   7   8
ATOM      8  C2' N4B d   1      -2.019   3.731  -0.557  0.00  0.00     0.009 C 
BRANCH   8   9
ATOM      9  C3' N4B d   1      -3.071   4.653  -1.148  0.00  0.00     0.004 C 
ATOM     10  C4' N4B d   1      -2.519   5.994  -1.530  0.00  0.00     0.003 C 
ENDBRANCH   8   9
ENDBRANCH   7   8
ENDBRANCH   1   7
TORSDOF 3
ENDMDL
