MODEL 1
REMARK minimizedAffinity 24.1306973
REMARK minimizedRMSD -1
REMARK  3 active torsions:
REMARK  status: ('A' for Active; 'I' for Inactive)
REMARK    1  A    between atoms: C3'_2  and  C2'_3 
REMARK    2  A    between atoms: C2'_3  and  C1'_4 
REMARK    3  A    between atoms: C1'_4  and  C1_5 
ROOT
ATOM      1  C1  N4B d   1       3.012   1.167  -2.286  0.00  0.00    -0.075 A 
ATOM      2  C2  N4B d   1       3.250   0.010  -1.512  0.00  0.00     0.002 A 
ATOM      3  C3  N4B d   1       2.532  -0.205  -0.361  0.00  0.00     0.002 A 
ATOM      4  C4  N4B d   1       1.590   0.728   0.044  0.00  0.00    -0.004 A 
ATOM      5  C5  N4B d   1       1.348   1.830  -0.723  0.00  0.00     0.002 A 
ATOM      6  C6  N4B d   1       2.059   2.057  -1.884  0.00  0.00     0.002 A 
ENDROOT
BRANCH   1   7
ATOM      7  C1' N4B d   1       3.832   1.488  -3.506  0.00  0.00     0.057 C 
BRANCH   7   8
ATOM      8  C2' N4B d   1       5.033   2.333  -3.095  0.00  0.00     0.009 C 
BRANCH   8   9
ATOM      9  C3' N4B d   1       5.995   2.555  -4.250  0.00  0.00     0.004 C 
ATOM     10  C4' N4B d   1       5.997   3.972  -4.739  0.00  0.00     0.003 C 
ENDBRANCH   8   9
ENDBRANCH   7   8
ENDBRANCH   1   7
TORSDOF 3
ENDMDL
