MODEL 1
REMARK minimizedAffinity 17.9844055
REMARK minimizedRMSD -1
REMARK  3 active torsions:
REMARK  status: ('A' for Active; 'I' for Inactive)
REMARK    1  A    between atoms: C3'_2  and  C2'_3 
REMARK    2  A    between atoms: C2'_3  and  C1'_4 
REMARK    3  A    between atoms: C1'_4  and  C1_5 
ROOT
ATOM      1  C1  N4B d   1      -2.166  -3.283  -5.923  0.00  0.00    -0.075 A 
ATOM      2  C2  N4B d   1      -2.328  -1.881  -5.890  0.00  0.00     0.002 A 
ATOM      3  C3  N4B d   1      -3.588  -1.335  -5.902  0.00  0.00     0.002 A 
ATOM      4  C4  N4B d   1      -4.696  -2.167  -5.967  0.00  0.00    -0.004 A 
ATOM      5  C5  N4B d   1      -4.531  -3.522  -5.974  0.00  0.00     0.002 A 
ATOM      6  C6  N4B d   1      -3.271  -4.084  -5.958  0.00  0.00     0.002 A 
ENDROOT
BRANCH   1   7
ATOM      7  C1' N4B d   1      -0.807  -3.924  -5.998  0.00  0.00     0.057 C 
BRANCH   7   8
ATOM      8  C2' N4B d   1      -0.959  -5.437  -5.871  0.00  0.00     0.009 C 
BRANCH   8   9
ATOM      9  C3' N4B d   1      -0.201  -5.985  -4.673  0.00  0.00     0.004 C 
ATOM     10  C4' N4B d   1      -0.578  -5.309  -3.389  0.00  0.00     0.003 C 
ENDBRANCH   8   9
ENDBRANCH   7   8
ENDBRANCH   1   7
TORSDOF 3
ENDMDL
