MODEL 1
REMARK minimizedAffinity 5.24192286
REMARK minimizedRMSD -1
REMARK  3 active torsions:
REMARK  status: ('A' for Active; 'I' for Inactive)
REMARK    1  A    between atoms: C3'_2  and  C2'_3 
REMARK    2  A    between atoms: C2'_3  and  C1'_4 
REMARK    3  A    between atoms: C1'_4  and  C1_5 
ROOT
ATOM      1  C1  N4B d   1      -0.003  -3.369   1.214  0.00  0.00    -0.075 A 
ATOM      2  C2  N4B d   1      -0.364  -2.020   1.425  0.00  0.00     0.002 A 
ATOM      3  C3  N4B d   1      -1.079  -1.667   2.543  0.00  0.00     0.002 A 
ATOM      4  C4  N4B d   1      -1.458  -2.644   3.451  0.00  0.00    -0.004 A 
ATOM      5  C5  N4B d   1      -1.084  -3.941   3.253  0.00  0.00     0.002 A 
ATOM      6  C6  N4B d   1      -0.362  -4.310   2.136  0.00  0.00     0.002 A 
ENDROOT
BRANCH   1   7
ATOM      7  C1' N4B d   1       0.704  -3.816  -0.036  0.00  0.00     0.057 C 
BRANCH   7   8
ATOM      8  C2' N4B d   1       0.387  -5.287  -0.292  0.00  0.00     0.009 C 
BRANCH   8   9
ATOM      9  C3' N4B d   1      -0.659  -5.462  -1.380  0.00  0.00     0.004 C 
ATOM     10  C4' N4B d   1      -0.216  -4.916  -2.705  0.00  0.00     0.003 C 
ENDBRANCH   8   9
ENDBRANCH   7   8
ENDBRANCH   1   7
TORSDOF 3
ENDMDL
