MODEL 1
REMARK minimizedAffinity 16.5967541
REMARK minimizedRMSD -1
REMARK  3 active torsions:
REMARK  status: ('A' for Active; 'I' for Inactive)
REMARK    1  A    between atoms: C3'_2  and  C2'_3 
REMARK    2  A    between atoms: C2'_3  and  C1'_4 
REMARK    3  A    between atoms: C1'_4  and  C1_5 
ROOT
ATOM      1  C1  N4B d   1      -0.757  -1.370   2.977  0.00  0.00    -0.075 A 
ATOM      2  C2  N4B d   1       0.453  -0.643   3.000  0.00  0.00     0.002 A 
ATOM      3  C3  N4B d   1       0.433   0.719   3.175  0.00  0.00     0.002 A 
ATOM      4  C4  N4B d   1      -0.781   1.376   3.309  0.00  0.00    -0.004 A 
ATOM      5  C5  N4B d   1      -1.944   0.663   3.311  0.00  0.00     0.002 A 
ATOM      6  C6  N4B d   1      -1.939  -0.706   3.141  0.00  0.00     0.002 A 
ENDROOT
BRANCH   1   7
ATOM      7  C1' N4B d   1      -0.791  -2.848   2.703  0.00  0.00     0.057 C 
BRANCH   7   8
ATOM      8  C2' N4B d   1      -0.264  -3.109   1.295  0.00  0.00     0.009 C 
BRANCH   8   9
ATOM      9  C3' N4B d   1      -0.067  -4.591   1.028  0.00  0.00     0.004 C 
ATOM     10  C4' N4B d   1       0.320  -4.879  -0.392  0.00  0.00     0.003 C 
ENDBRANCH   8   9
ENDBRANCH   7   8
ENDBRANCH   1   7
TORSDOF 3
ENDMDL
