MODEL 1
REMARK minimizedAffinity 12.7619858
REMARK minimizedRMSD -1
REMARK  3 active torsions:
REMARK  status: ('A' for Active; 'I' for Inactive)
REMARK    1  A    between atoms: C3'_2  and  C2'_3 
REMARK    2  A    between atoms: C2'_3  and  C1'_4 
REMARK    3  A    between atoms: C1'_4  and  C1_5 
ROOT
ATOM      1  C1  N4B d   1       0.760   1.877   2.570  0.00  0.00    -0.075 A 
ATOM      2  C2  N4B d   1       1.593   1.423   1.524  0.00  0.00     0.002 A 
ATOM      3  C3  N4B d   1       2.696   0.656   1.808  0.00  0.00     0.002 A 
ATOM      4  C4  N4B d   1       2.995   0.348   3.126  0.00  0.00    -0.004 A 
ATOM      5  C5  N4B d   1       2.171   0.769   4.129  0.00  0.00     0.002 A 
ATOM      6  C6  N4B d   1       1.057   1.537   3.858  0.00  0.00     0.002 A 
ENDROOT
BRANCH   1   7
ATOM      7  C1' N4B d   1      -0.409   2.790   2.316  0.00  0.00     0.057 C 
BRANCH   7   8
ATOM      8  C2' N4B d   1      -0.098   3.679   1.115  0.00  0.00     0.009 C 
BRANCH   8   9
ATOM      9  C3' N4B d   1      -1.314   4.468   0.662  0.00  0.00     0.004 C 
ATOM     10  C4' N4B d   1      -1.737   4.131  -0.736  0.00  0.00     0.003 C 
ENDBRANCH   8   9
ENDBRANCH   7   8
ENDBRANCH   1   7
TORSDOF 3
ENDMDL
