MODEL 1
REMARK minimizedAffinity 10.5255299
REMARK minimizedRMSD -1
REMARK  3 active torsions:
REMARK  status: ('A' for Active; 'I' for Inactive)
REMARK    1  A    between atoms: C3'_2  and  C2'_3 
REMARK    2  A    between atoms: C2'_3  and  C1'_4 
REMARK    3  A    between atoms: C1'_4  and  C1_5 
ROOT
ATOM      1  C1  N4B d   1       1.870   1.357   2.493  0.00  0.00    -0.075 A 
ATOM      2  C2  N4B d   1       2.777   0.275   2.520  0.00  0.00     0.002 A 
ATOM      3  C3  N4B d   1       3.385  -0.082   3.699  0.00  0.00     0.002 A 
ATOM      4  C4  N4B d   1       3.116   0.636   4.854  0.00  0.00    -0.004 A 
ATOM      5  C5  N4B d   1       2.219   1.664   4.825  0.00  0.00     0.002 A 
ATOM      6  C6  N4B d   1       1.598   2.031   3.648  0.00  0.00     0.002 A 
ENDROOT
BRANCH   1   7
ATOM      7  C1' N4B d   1       1.247   1.839   1.212  0.00  0.00     0.057 C 
BRANCH   7   8
ATOM      8  C2' N4B d   1       0.803   3.288   1.385  0.00  0.00     0.009 C 
BRANCH   8   9
ATOM      9  C3' N4B d   1      -0.699   3.446   1.222  0.00  0.00     0.004 C 
ATOM     10  C4' N4B d   1      -1.479   2.591   2.175  0.00  0.00     0.003 C 
ENDBRANCH   8   9
ENDBRANCH   7   8
ENDBRANCH   1   7
TORSDOF 3
ENDMDL
