MODEL 1
REMARK minimizedAffinity 10.9816933
REMARK minimizedRMSD -1
REMARK  3 active torsions:
REMARK  status: ('A' for Active; 'I' for Inactive)
REMARK    1  A    between atoms: C3'_2  and  C2'_3 
REMARK    2  A    between atoms: C2'_3  and  C1'_4 
REMARK    3  A    between atoms: C1'_4  and  C1_5 
ROOT
ATOM      1  C1  N4B d   1       2.327   0.754   1.546  0.00  0.00    -0.075 A 
ATOM      2  C2  N4B d   1       1.497   1.022   2.657  0.00  0.00     0.002 A 
ATOM      3  C3  N4B d   1       1.884   0.626   3.914  0.00  0.00     0.002 A 
ATOM      4  C4  N4B d   1       3.081  -0.054   4.081  0.00  0.00    -0.004 A 
ATOM      5  C5  N4B d   1       3.888  -0.287   3.006  0.00  0.00     0.002 A 
ATOM      6  C6  N4B d   1       3.514   0.109   1.738  0.00  0.00     0.002 A 
ENDROOT
BRANCH   1   7
ATOM      7  C1' N4B d   1       1.907   1.091   0.142  0.00  0.00     0.057 C 
BRANCH   7   8
ATOM      8  C2' N4B d   1       2.258   2.547  -0.149  0.00  0.00     0.009 C 
BRANCH   8   9
ATOM      9  C3' N4B d   1       1.940   3.455   1.027  0.00  0.00     0.004 C 
ATOM     10  C4' N4B d   1       2.499   4.836   0.862  0.00  0.00     0.003 C 
ENDBRANCH   8   9
ENDBRANCH   7   8
ENDBRANCH   1   7
TORSDOF 3
ENDMDL
