MODEL 1
REMARK minimizedAffinity 15.4155445
REMARK minimizedRMSD -1
REMARK  3 active torsions:
REMARK  status: ('A' for Active; 'I' for Inactive)
REMARK    1  A    between atoms: C3'_2  and  C2'_3 
REMARK    2  A    between atoms: C2'_3  and  C1'_4 
REMARK    3  A    between atoms: C1'_4  and  C1_5 
ROOT
ATOM      1  C1  N4B d   1       4.048   1.113  -3.689  0.00  0.00    -0.075 A 
ATOM      2  C2  N4B d   1       5.449   0.941  -3.733  0.00  0.00     0.002 A 
ATOM      3  C3  N4B d   1       6.000   0.008  -4.577  0.00  0.00     0.002 A 
ATOM      4  C4  N4B d   1       5.172  -0.775  -5.367  0.00  0.00    -0.004 A 
ATOM      5  C5  N4B d   1       3.822  -0.585  -5.337  0.00  0.00     0.002 A 
ATOM      6  C6  N4B d   1       3.254   0.352  -4.497  0.00  0.00     0.002 A 
ENDROOT
BRANCH   1   7
ATOM      7  C1' N4B d   1       3.394   2.061  -2.721  0.00  0.00     0.057 C 
BRANCH   7   8
ATOM      8  C2' N4B d   1       1.898   1.768  -2.666  0.00  0.00     0.009 C 
BRANCH   8   9
ATOM      9  C3' N4B d   1       1.456   1.327  -1.281  0.00  0.00     0.004 C 
ATOM     10  C4' N4B d   1       2.120   0.059  -0.835  0.00  0.00     0.003 C 
ENDBRANCH   8   9
ENDBRANCH   7   8
ENDBRANCH   1   7
TORSDOF 3
ENDMDL
