MODEL 1
REMARK minimizedAffinity 3.82638502
REMARK minimizedRMSD -1
REMARK  1 active torsions:
REMARK  status: ('A' for Active; 'I' for Inactive)
REMARK    1  A    between atoms: C1_2  and  C2_3 
ROOT
ATOM      1  C2  UNL d   1       4.875  -4.475   4.920  0.00  0.00    -0.073 A 
ATOM      2  C3  UNL d   1       5.166  -4.651   3.562  0.00  0.00    -0.002 A 
ATOM      3  C4  UNL d   1       5.717  -3.607   2.818  0.00  0.00     0.004 A 
ATOM      4  C5  UNL d   1       5.988  -2.380   3.424  0.00  0.00    -0.004 A 
ATOM      5  C6  UNL d   1       5.715  -2.189   4.782  0.00  0.00    -0.075 A 
ATOM      6  C7  UNL d   1       5.998  -0.874   5.448  0.00  0.00     0.076 C 
ATOM      7  C8  UNL d   1       5.159  -3.241   5.522  0.00  0.00     0.001 A 
ENDROOT
BRANCH   1   8
ATOM      8  C1  UNL d   1       4.286  -5.602   5.729  0.00  0.00     0.053 C 
ATOM      9  C   UNL d   1       2.771  -5.512   5.814  0.00  0.00     0.018 C 
ENDBRANCH   1   8
TORSDOF 1
ENDMDL
