MODEL 1
REMARK minimizedAffinity 0.725711823
REMARK minimizedRMSD -1
REMARK  1 active torsions:
REMARK  status: ('A' for Active; 'I' for Inactive)
REMARK    1  A    between atoms: C1_2  and  C2_3 
ROOT
ATOM      1  C2  UNL d   1       5.254  -4.070   2.369  0.00  0.00    -0.073 A 
ATOM      2  C3  UNL d   1       3.879  -3.819   2.300  0.00  0.00    -0.002 A 
ATOM      3  C4  UNL d   1       3.194  -3.337   3.417  0.00  0.00     0.004 A 
ATOM      4  C5  UNL d   1       3.876  -3.096   4.609  0.00  0.00    -0.004 A 
ATOM      5  C6  UNL d   1       5.252  -3.329   4.694  0.00  0.00    -0.075 A 
ATOM      6  C7  UNL d   1       6.000  -3.076   5.970  0.00  0.00     0.076 C 
ATOM      7  C8  UNL d   1       5.933  -3.815   3.570  0.00  0.00     0.001 A 
ENDROOT
BRANCH   1   8
ATOM      8  C1  UNL d   1       6.000  -4.583   1.165  0.00  0.00     0.053 C 
ATOM      9  C   UNL d   1       5.999  -3.580   0.023  0.00  0.00     0.018 C 
ENDBRANCH   1   8
TORSDOF 1
ENDMDL
