MODEL 1
REMARK minimizedAffinity 7.06838655
REMARK minimizedRMSD -1
REMARK  1 active torsions:
REMARK  status: ('A' for Active; 'I' for Inactive)
REMARK    1  A    between atoms: C1_2  and  C2_3 
ROOT
ATOM      1  C2  UNL d   1       4.339  -4.228   3.732  0.00  0.00    -0.073 A 
ATOM      2  C3  UNL d   1       4.695  -5.260   4.607  0.00  0.00    -0.002 A 
ATOM      3  C4  UNL d   1       5.475  -4.993   5.732  0.00  0.00     0.004 A 
ATOM      4  C5  UNL d   1       5.902  -3.692   5.998  0.00  0.00    -0.004 A 
ATOM      5  C6  UNL d   1       5.547  -2.644   5.141  0.00  0.00    -0.075 A 
ATOM      6  C7  UNL d   1       6.000  -1.239   5.412  0.00  0.00     0.076 C 
ATOM      7  C8  UNL d   1       4.765  -2.921   4.012  0.00  0.00     0.001 A 
ENDROOT
BRANCH   1   8
ATOM      8  C1  UNL d   1       3.490  -4.510   2.519  0.00  0.00     0.053 C 
ATOM      9  C   UNL d   1       2.319  -3.547   2.406  0.00  0.00     0.018 C 
ENDBRANCH   1   8
TORSDOF 1
ENDMDL
