MODEL 1
REMARK minimizedAffinity 0.00813157763
REMARK minimizedRMSD -1
REMARK  1 active torsions:
REMARK  status: ('A' for Active; 'I' for Inactive)
REMARK    1  A    between atoms: C1_2  and  C2_3 
ROOT
ATOM      1  C2  UNL d   1       4.901  -3.884  -2.416  0.00  0.00    -0.073 A 
ATOM      2  C3  UNL d   1       3.521  -3.776  -2.629  0.00  0.00    -0.002 A 
ATOM      3  C4  UNL d   1       2.950  -4.260  -3.806  0.00  0.00     0.004 A 
ATOM      4  C5  UNL d   1       3.748  -4.862  -4.779  0.00  0.00    -0.004 A 
ATOM      5  C6  UNL d   1       5.127  -4.990  -4.580  0.00  0.00    -0.075 A 
ATOM      6  C7  UNL d   1       6.000  -5.632  -5.617  0.00  0.00     0.076 C 
ATOM      7  C8  UNL d   1       5.694  -4.499  -3.396  0.00  0.00     0.001 A 
ENDROOT
BRANCH   1   8
ATOM      8  C1  UNL d   1       5.521  -3.369  -1.144  0.00  0.00     0.053 C 
ATOM      9  C   UNL d   1       5.000  -4.101   0.082  0.00  0.00     0.018 C 
ENDBRANCH   1   8
TORSDOF 1
ENDMDL
