MODEL 1
REMARK minimizedAffinity -2.79712105
REMARK minimizedRMSD -1
REMARK  1 active torsions:
REMARK  status: ('A' for Active; 'I' for Inactive)
REMARK    1  A    between atoms: C1_2  and  C2_3 
ROOT
ATOM      1  C2  UNL d   1       4.848  -4.471   4.758  0.00  0.00    -0.073 A 
ATOM      2  C3  UNL d   1       5.152  -3.324   5.500  0.00  0.00    -0.002 A 
ATOM      3  C4  UNL d   1       5.728  -2.215   4.880  0.00  0.00     0.004 A 
ATOM      4  C5  UNL d   1       6.000  -2.238   3.512  0.00  0.00    -0.004 A 
ATOM      5  C6  UNL d   1       5.693  -3.371   2.751  0.00  0.00    -0.075 A 
ATOM      6  C7  UNL d   1       5.981  -3.412   1.278  0.00  0.00     0.076 C 
ATOM      7  C8  UNL d   1       5.116  -4.481   3.381  0.00  0.00     0.001 A 
ENDROOT
BRANCH   1   8
ATOM      8  C1  UNL d   1       4.220  -5.669   5.422  0.00  0.00     0.053 C 
ATOM      9  C   UNL d   1       2.852  -5.990   4.841  0.00  0.00     0.018 C 
ENDBRANCH   1   8
TORSDOF 1
ENDMDL
