MODEL 1
REMARK minimizedAffinity -3.21066904
REMARK minimizedRMSD -1
REMARK  1 active torsions:
REMARK  status: ('A' for Active; 'I' for Inactive)
REMARK    1  A    between atoms: C1_2  and  C2_3 
ROOT
ATOM      1  C2  UNL d   1       5.833  -4.734  -0.282  0.00  0.00    -0.073 A 
ATOM      2  C3  UNL d   1       5.506  -3.389  -0.485  0.00  0.00    -0.002 A 
ATOM      3  C4  UNL d   1       5.348  -2.890  -1.779  0.00  0.00     0.004 A 
ATOM      4  C5  UNL d   1       5.507  -3.731  -2.880  0.00  0.00    -0.004 A 
ATOM      5  C6  UNL d   1       5.822  -5.082  -2.697  0.00  0.00    -0.075 A 
ATOM      6  C7  UNL d   1       5.999  -5.999  -3.871  0.00  0.00     0.076 C 
ATOM      7  C8  UNL d   1       5.982  -5.574  -1.395  0.00  0.00     0.001 A 
ENDROOT
BRANCH   1   8
ATOM      8  C1  UNL d   1       6.000  -5.279   1.113  0.00  0.00     0.053 C 
ATOM      9  C   UNL d   1       5.038  -4.630   2.097  0.00  0.00     0.018 C 
ENDBRANCH   1   8
TORSDOF 1
ENDMDL
