MODEL 1
REMARK minimizedAffinity -4.14856291
REMARK minimizedRMSD -1
REMARK  1 active torsions:
REMARK  status: ('A' for Active; 'I' for Inactive)
REMARK    1  A    between atoms: C1_2  and  C2_3 
ROOT
ATOM      1  C2  UNL d   1       5.986  -3.632   0.675  0.00  0.00    -0.073 A 
ATOM      2  C3  UNL d   1       5.999  -5.013   0.903  0.00  0.00    -0.002 A 
ATOM      3  C4  UNL d   1       6.000  -5.512   2.206  0.00  0.00     0.004 A 
ATOM      4  C5  UNL d   1       5.982  -4.638   3.293  0.00  0.00    -0.004 A 
ATOM      5  C6  UNL d   1       5.957  -3.255   3.085  0.00  0.00    -0.075 A 
ATOM      6  C7  UNL d   1       5.940  -2.301   4.243  0.00  0.00     0.076 C 
ATOM      7  C8  UNL d   1       5.959  -2.761   1.773  0.00  0.00     0.001 A 
ENDROOT
BRANCH   1   8
ATOM      8  C1  UNL d   1       5.978  -3.088  -0.731  0.00  0.00     0.053 C 
ATOM      9  C   UNL d   1       6.000  -4.197  -1.771  0.00  0.00     0.018 C 
ENDBRANCH   1   8
TORSDOF 1
ENDMDL
