MODEL 1
REMARK minimizedAffinity 0.249785125
REMARK minimizedRMSD -1
REMARK  1 active torsions:
REMARK  status: ('A' for Active; 'I' for Inactive)
REMARK    1  A    between atoms: C1_2  and  C2_3 
ROOT
ATOM      1  C2  UNL d   1       5.875  -3.682  -3.933  0.00  0.00    -0.073 A 
ATOM      2  C3  UNL d   1       5.930  -5.080  -3.925  0.00  0.00    -0.002 A 
ATOM      3  C4  UNL d   1       5.995  -5.776  -2.717  0.00  0.00     0.004 A 
ATOM      4  C5  UNL d   1       5.998  -5.083  -1.507  0.00  0.00    -0.004 A 
ATOM      5  C6  UNL d   1       5.931  -3.686  -1.494  0.00  0.00    -0.075 A 
ATOM      6  C7  UNL d   1       5.935  -2.926  -0.200  0.00  0.00     0.076 C 
ATOM      7  C8  UNL d   1       5.869  -2.994  -2.710  0.00  0.00     0.001 A 
ENDROOT
BRANCH   1   8
ATOM      8  C1  UNL d   1       5.798  -2.926  -5.234  0.00  0.00     0.053 C 
ATOM      9  C   UNL d   1       4.474  -3.151  -5.947  0.00  0.00     0.018 C 
ENDBRANCH   1   8
TORSDOF 1
ENDMDL
