MODEL 1
REMARK minimizedAffinity -1.49147022
REMARK minimizedRMSD -1
REMARK  1 active torsions:
REMARK  status: ('A' for Active; 'I' for Inactive)
REMARK    1  A    between atoms: C1_2  and  C2_3 
ROOT
ATOM      1  C2  UNL d   1       5.047  -4.416   5.247  0.00  0.00    -0.073 A 
ATOM      2  C3  UNL d   1       5.206  -3.215   5.948  0.00  0.00    -0.002 A 
ATOM      3  C4  UNL d   1       5.627  -2.062   5.284  0.00  0.00     0.004 A 
ATOM      4  C5  UNL d   1       5.887  -2.096   3.914  0.00  0.00    -0.004 A 
ATOM      5  C6  UNL d   1       5.722  -3.283   3.194  0.00  0.00    -0.075 A 
ATOM      6  C7  UNL d   1       5.999  -3.336   1.720  0.00  0.00     0.076 C 
ATOM      7  C8  UNL d   1       5.301  -4.437   3.868  0.00  0.00     0.001 A 
ENDROOT
BRANCH   1   8
ATOM      8  C1  UNL d   1       4.586  -5.662   5.957  0.00  0.00     0.053 C 
ATOM      9  C   UNL d   1       3.139  -6.000   5.636  0.00  0.00     0.018 C 
ENDBRANCH   1   8
TORSDOF 1
ENDMDL
