MODEL 1
REMARK minimizedAffinity 4.23424816
REMARK minimizedRMSD -1
REMARK  2 active torsions:
REMARK  status: ('A' for Active; 'I' for Inactive)
REMARK    1  A    between atoms: C1_2  and  C2_3 
REMARK    2  A    between atoms: C2_3  and  C3_4 
ROOT
ATOM      1  C3  UNL d   1       1.016   1.808  -2.010  0.00  0.00    -0.075 A 
ATOM      2  C4  UNL d   1       0.630   1.600  -0.678  0.00  0.00     0.002 A 
ATOM      3  C5  UNL d   1       1.584   1.315   0.300  0.00  0.00     0.002 A 
ATOM      4  C6  UNL d   1       2.931   1.224  -0.043  0.00  0.00    -0.004 A 
ATOM      5  C7  UNL d   1       3.324   1.413  -1.367  0.00  0.00     0.002 A 
ATOM      6  C8  UNL d   1       2.372   1.703  -2.346  0.00  0.00     0.002 A 
ENDROOT
BRANCH   1   7
ATOM      7  C2  UNL d   1      -0.009   2.147  -3.067  0.00  0.00     0.056 C 
BRANCH   7   8
ATOM      8  C1  UNL d   1      -0.074   3.637  -3.418  0.00  0.00     0.007 C 
ATOM      9  C   UNL d   1      -1.349   4.025  -4.153  0.00  0.00     0.009 C 
ENDBRANCH   7   8
ENDBRANCH   1   7
TORSDOF 2
ENDMDL
