MODEL 1
REMARK minimizedAffinity 4.06520128
REMARK minimizedRMSD -1
REMARK  2 active torsions:
REMARK  status: ('A' for Active; 'I' for Inactive)
REMARK    1  A    between atoms: C1_2  and  C2_3 
REMARK    2  A    between atoms: C2_3  and  C3_4 
ROOT
ATOM      1  C3  UNL d   1      -3.406   5.289  -5.373  0.00  0.00    -0.075 A 
ATOM      2  C4  UNL d   1      -4.440   6.000  -5.999  0.00  0.00     0.002 A 
ATOM      3  C5  UNL d   1      -5.727   5.999  -5.460  0.00  0.00     0.002 A 
ATOM      4  C6  UNL d   1      -5.998   5.282  -4.297  0.00  0.00    -0.004 A 
ATOM      5  C7  UNL d   1      -4.982   4.560  -3.676  0.00  0.00     0.002 A 
ATOM      6  C8  UNL d   1      -3.693   4.562  -4.210  0.00  0.00     0.002 A 
ENDROOT
BRANCH   1   7
ATOM      7  C2  UNL d   1      -2.004   5.310  -5.934  0.00  0.00     0.056 C 
BRANCH   7   8
ATOM      8  C1  UNL d   1      -0.951   5.855  -4.964  0.00  0.00     0.007 C 
ATOM      9  C   UNL d   1      -0.391   4.792  -4.028  0.00  0.00     0.009 C 
ENDBRANCH   7   8
ENDBRANCH   1   7
TORSDOF 2
ENDMDL
