MODEL 1
REMARK minimizedAffinity 10.2807665
REMARK minimizedRMSD -1
REMARK  2 active torsions:
REMARK  status: ('A' for Active; 'I' for Inactive)
REMARK    1  A    between atoms: C1_2  and  C2_3 
REMARK    2  A    between atoms: C2_3  and  C3_4 
ROOT
ATOM      1  C3  UNL d   1      -1.133   0.413   1.276  0.00  0.00    -0.075 A 
ATOM      2  C4  UNL d   1      -1.782   1.400   2.032  0.00  0.00     0.002 A 
ATOM      3  C5  UNL d   1      -2.270   1.110   3.306  0.00  0.00     0.002 A 
ATOM      4  C6  UNL d   1      -2.126  -0.170   3.836  0.00  0.00    -0.004 A 
ATOM      5  C7  UNL d   1      -1.499  -1.164   3.087  0.00  0.00     0.002 A 
ATOM      6  C8  UNL d   1      -1.005  -0.875   1.814  0.00  0.00     0.002 A 
ENDROOT
BRANCH   1   7
ATOM      7  C2  UNL d   1      -0.576   0.728  -0.092  0.00  0.00     0.056 C 
BRANCH   7   8
ATOM      8  C1  UNL d   1       0.588   1.724  -0.077  0.00  0.00     0.007 C 
ATOM      9  C   UNL d   1       1.038   2.142  -1.470  0.00  0.00     0.009 C 
ENDBRANCH   7   8
ENDBRANCH   1   7
TORSDOF 2
ENDMDL
