MODEL 1
REMARK minimizedAffinity 7.96223545
REMARK minimizedRMSD -1
REMARK  2 active torsions:
REMARK  status: ('A' for Active; 'I' for Inactive)
REMARK    1  A    between atoms: C1_2  and  C2_3 
REMARK    2  A    between atoms: C2_3  and  C3_4 
ROOT
ATOM      1  C3  UNL d   1      -2.593   5.886  -4.803  0.00  0.00    -0.075 A 
ATOM      2  C4  UNL d   1      -3.319   5.978  -6.000  0.00  0.00     0.002 A 
ATOM      3  C5  UNL d   1      -4.714   6.000  -5.982  0.00  0.00     0.002 A 
ATOM      4  C6  UNL d   1      -5.400   5.920  -4.771  0.00  0.00    -0.004 A 
ATOM      5  C7  UNL d   1      -4.689   5.811  -3.578  0.00  0.00     0.002 A 
ATOM      6  C8  UNL d   1      -3.293   5.793  -3.593  0.00  0.00     0.002 A 
ENDROOT
BRANCH   1   7
ATOM      7  C2  UNL d   1      -1.083   5.891  -4.814  0.00  0.00     0.056 C 
BRANCH   7   8
ATOM      8  C1  UNL d   1      -0.448   5.406  -3.506  0.00  0.00     0.007 C 
ATOM      9  C   UNL d   1       0.402   4.155  -3.680  0.00  0.00     0.009 C 
ENDBRANCH   7   8
ENDBRANCH   1   7
TORSDOF 2
ENDMDL
