MODEL 1
REMARK minimizedAffinity 12.0354614
REMARK minimizedRMSD -1
REMARK  2 active torsions:
REMARK  status: ('A' for Active; 'I' for Inactive)
REMARK    1  A    between atoms: C1_2  and  C2_3 
REMARK    2  A    between atoms: C2_3  and  C3_4 
ROOT
ATOM      1  C3  UNL d   1       4.186   1.934   0.161  0.00  0.00    -0.075 A 
ATOM      2  C4  UNL d   1       5.292   2.718  -0.200  0.00  0.00     0.002 A 
ATOM      3  C5  UNL d   1       6.000   3.432   0.767  0.00  0.00     0.002 A 
ATOM      4  C6  UNL d   1       5.607   3.379   2.103  0.00  0.00    -0.004 A 
ATOM      5  C7  UNL d   1       4.501   2.616   2.470  0.00  0.00     0.002 A 
ATOM      6  C8  UNL d   1       3.793   1.898   1.505  0.00  0.00     0.002 A 
ENDROOT
BRANCH   1   7
ATOM      7  C2  UNL d   1       3.433   1.136  -0.877  0.00  0.00     0.056 C 
BRANCH   7   8
ATOM      8  C1  UNL d   1       2.278   1.899  -1.533  0.00  0.00     0.007 C 
ATOM      9  C   UNL d   1       2.654   2.525  -2.869  0.00  0.00     0.009 C 
ENDBRANCH   7   8
ENDBRANCH   1   7
TORSDOF 2
ENDMDL
