MODEL 1
REMARK minimizedAffinity 14.6115456
REMARK minimizedRMSD -1
REMARK  2 active torsions:
REMARK  status: ('A' for Active; 'I' for Inactive)
REMARK    1  A    between atoms: C1_2  and  C2_3 
REMARK    2  A    between atoms: C2_3  and  C3_4 
ROOT
ATOM      1  C3  UNL d   1       3.268   3.510  -3.111  0.00  0.00    -0.075 A 
ATOM      2  C4  UNL d   1       4.128   4.313  -2.347  0.00  0.00     0.002 A 
ATOM      3  C5  UNL d   1       5.395   4.648  -2.826  0.00  0.00     0.002 A 
ATOM      4  C6  UNL d   1       5.822   4.177  -4.066  0.00  0.00    -0.004 A 
ATOM      5  C7  UNL d   1       4.982   3.366  -4.825  0.00  0.00     0.002 A 
ATOM      6  C8  UNL d   1       3.712   3.032  -4.351  0.00  0.00     0.002 A 
ENDROOT
BRANCH   1   7
ATOM      7  C2  UNL d   1       1.885   3.169  -2.611  0.00  0.00     0.056 C 
BRANCH   7   8
ATOM      8  C1  UNL d   1       1.817   1.871  -1.799  0.00  0.00     0.007 C 
ATOM      9  C   UNL d   1       1.937   2.097  -0.297  0.00  0.00     0.009 C 
ENDBRANCH   7   8
ENDBRANCH   1   7
TORSDOF 2
ENDMDL
