MODEL 1
REMARK minimizedAffinity 8.95330811
REMARK minimizedRMSD -1
REMARK  2 active torsions:
REMARK  status: ('A' for Active; 'I' for Inactive)
REMARK    1  A    between atoms: C1_2  and  C2_3 
REMARK    2  A    between atoms: C2_3  and  C3_4 
ROOT
ATOM      1  C3  UNL d   1      -0.289   4.833  -2.810  0.00  0.00    -0.075 A 
ATOM      2  C4  UNL d   1      -1.198   4.841  -3.879  0.00  0.00     0.002 A 
ATOM      3  C5  UNL d   1      -2.569   4.946  -3.643  0.00  0.00     0.002 A 
ATOM      4  C6  UNL d   1      -3.049   5.035  -2.338  0.00  0.00    -0.004 A 
ATOM      5  C7  UNL d   1      -2.157   5.012  -1.268  0.00  0.00     0.002 A 
ATOM      6  C8  UNL d   1      -0.784   4.911  -1.502  0.00  0.00     0.002 A 
ENDROOT
BRANCH   1   7
ATOM      7  C2  UNL d   1       1.197   4.749  -3.060  0.00  0.00     0.056 C 
BRANCH   7   8
ATOM      8  C1  UNL d   1       1.733   3.317  -3.161  0.00  0.00     0.007 C 
ATOM      9  C   UNL d   1       3.187   3.249  -3.608  0.00  0.00     0.009 C 
ENDBRANCH   7   8
ENDBRANCH   1   7
TORSDOF 2
ENDMDL
