MODEL 1
REMARK minimizedAffinity 14.261014
REMARK minimizedRMSD -1
REMARK  2 active torsions:
REMARK  status: ('A' for Active; 'I' for Inactive)
REMARK    1  A    between atoms: C1_2  and  C2_3 
REMARK    2  A    between atoms: C2_3  and  C3_4 
ROOT
ATOM      1  C3  UNL d   1      -2.534  -0.525   3.281  0.00  0.00    -0.075 A 
ATOM      2  C4  UNL d   1      -1.565  -1.070   2.425  0.00  0.00     0.002 A 
ATOM      3  C5  UNL d   1      -1.856  -2.192   1.649  0.00  0.00     0.002 A 
ATOM      4  C6  UNL d   1      -3.112  -2.790   1.726  0.00  0.00    -0.004 A 
ATOM      5  C7  UNL d   1      -4.077  -2.267   2.585  0.00  0.00     0.002 A 
ATOM      6  C8  UNL d   1      -3.790  -1.142   3.359  0.00  0.00     0.002 A 
ENDROOT
BRANCH   1   7
ATOM      7  C2  UNL d   1      -2.236   0.707   4.101  0.00  0.00     0.056 C 
BRANCH   7   8
ATOM      8  C1  UNL d   1      -2.102   0.438   5.604  0.00  0.00     0.007 C 
ATOM      9  C   UNL d   1      -0.731  -0.093   5.999  0.00  0.00     0.009 C 
ENDBRANCH   7   8
ENDBRANCH   1   7
TORSDOF 2
ENDMDL
