MODEL 1
REMARK minimizedAffinity 10.3290577
REMARK minimizedRMSD -1
REMARK  2 active torsions:
REMARK  status: ('A' for Active; 'I' for Inactive)
REMARK    1  A    between atoms: C1_2  and  C2_3 
REMARK    2  A    between atoms: C2_3  and  C3_4 
ROOT
ATOM      1  C3  UNL d   1       4.663   4.638  -2.119  0.00  0.00    -0.075 A 
ATOM      2  C4  UNL d   1       3.688   3.949  -2.854  0.00  0.00     0.002 A 
ATOM      3  C5  UNL d   1       3.875   3.694  -4.213  0.00  0.00     0.002 A 
ATOM      4  C6  UNL d   1       5.031   4.132  -4.855  0.00  0.00    -0.004 A 
ATOM      5  C7  UNL d   1       5.999   4.832  -4.137  0.00  0.00     0.002 A 
ATOM      6  C8  UNL d   1       5.817   5.085  -2.777  0.00  0.00     0.002 A 
ENDROOT
BRANCH   1   7
ATOM      7  C2  UNL d   1       4.480   4.892  -0.641  0.00  0.00     0.056 C 
BRANCH   7   8
ATOM      8  C1  UNL d   1       4.905   3.720   0.250  0.00  0.00     0.007 C 
ATOM      9  C   UNL d   1       3.730   2.897   0.761  0.00  0.00     0.009 C 
ENDBRANCH   7   8
ENDBRANCH   1   7
TORSDOF 2
ENDMDL
