MODEL 1
REMARK minimizedAffinity 15.5013628
REMARK minimizedRMSD -1
REMARK  2 active torsions:
REMARK  status: ('A' for Active; 'I' for Inactive)
REMARK    1  A    between atoms: C1_2  and  C2_3 
REMARK    2  A    between atoms: C2_3  and  C3_4 
ROOT
ATOM      1  C3  UNL d   1       4.638   3.398   0.294  0.00  0.00    -0.075 A 
ATOM      2  C4  UNL d   1       4.029   2.434  -0.522  0.00  0.00     0.002 A 
ATOM      3  C5  UNL d   1       2.806   1.870  -0.160  0.00  0.00     0.002 A 
ATOM      4  C6  UNL d   1       2.182   2.255   1.025  0.00  0.00    -0.004 A 
ATOM      5  C7  UNL d   1       2.786   3.200   1.851  0.00  0.00     0.002 A 
ATOM      6  C8  UNL d   1       4.008   3.769   1.489  0.00  0.00     0.002 A 
ENDROOT
BRANCH   1   7
ATOM      7  C2  UNL d   1       5.948   4.034  -0.107  0.00  0.00     0.056 C 
BRANCH   7   8
ATOM      8  C1  UNL d   1       6.000   4.486  -1.570  0.00  0.00     0.007 C 
ATOM      9  C   UNL d   1       5.902   5.997  -1.735  0.00  0.00     0.009 C 
ENDBRANCH   7   8
ENDBRANCH   1   7
TORSDOF 2
ENDMDL
