MODEL 1
REMARK minimizedAffinity 14.3046579
REMARK minimizedRMSD -1
REMARK  2 active torsions:
REMARK  status: ('A' for Active; 'I' for Inactive)
REMARK    1  A    between atoms: C1_2  and  C2_3 
REMARK    2  A    between atoms: C2_3  and  C3_4 
ROOT
ATOM      1  C3  UNL d   1       0.399  -3.228   1.171  0.00  0.00    -0.075 A 
ATOM      2  C4  UNL d   1      -0.983  -3.279   0.942  0.00  0.00     0.002 A 
ATOM      3  C5  UNL d   1      -1.853  -2.465   1.668  0.00  0.00     0.002 A 
ATOM      4  C6  UNL d   1      -1.353  -1.599   2.639  0.00  0.00    -0.004 A 
ATOM      5  C7  UNL d   1       0.017  -1.552   2.887  0.00  0.00     0.002 A 
ATOM      6  C8  UNL d   1       0.889  -2.362   2.158  0.00  0.00     0.002 A 
ENDROOT
BRANCH   1   7
ATOM      7  C2  UNL d   1       1.348  -4.085   0.368  0.00  0.00     0.056 C 
BRANCH   7   8
ATOM      8  C1  UNL d   1       2.585  -3.337  -0.141  0.00  0.00     0.007 C 
ATOM      9  C   UNL d   1       3.589  -4.243  -0.842  0.00  0.00     0.009 C 
ENDBRANCH   7   8
ENDBRANCH   1   7
TORSDOF 2
ENDMDL
