MODEL 1
REMARK minimizedAffinity 15.6673298
REMARK minimizedRMSD -1
REMARK  2 active torsions:
REMARK  status: ('A' for Active; 'I' for Inactive)
REMARK    1  A    between atoms: C1_2  and  C2_3 
REMARK    2  A    between atoms: C2_3  and  C3_4 
ROOT
ATOM      1  C3  UNL d   1       4.995   4.646  -0.870  0.00  0.00    -0.075 A 
ATOM      2  C4  UNL d   1       5.798   3.633  -0.325  0.00  0.00     0.002 A 
ATOM      3  C5  UNL d   1       5.931   3.500   1.057  0.00  0.00     0.002 A 
ATOM      4  C6  UNL d   1       5.273   4.383   1.911  0.00  0.00    -0.004 A 
ATOM      5  C7  UNL d   1       4.486   5.403   1.381  0.00  0.00     0.002 A 
ATOM      6  C8  UNL d   1       4.348   5.535  -0.002  0.00  0.00     0.002 A 
ENDROOT
BRANCH   1   7
ATOM      7  C2  UNL d   1       4.823   4.776  -2.364  0.00  0.00     0.056 C 
BRANCH   7   8
ATOM      8  C1  UNL d   1       4.185   3.552  -3.028  0.00  0.00     0.007 C 
ATOM      9  C   UNL d   1       4.580   3.387  -4.490  0.00  0.00     0.009 C 
ENDBRANCH   7   8
ENDBRANCH   1   7
TORSDOF 2
ENDMDL
