MODEL 1
REMARK minimizedAffinity 10.2985258
REMARK minimizedRMSD -1
REMARK  2 active torsions:
REMARK  status: ('A' for Active; 'I' for Inactive)
REMARK    1  A    between atoms: C1_2  and  C2_3 
REMARK    2  A    between atoms: C2_3  and  C3_4 
ROOT
ATOM      1  C3  UNL d   1       4.816   3.607   0.185  0.00  0.00    -0.075 A 
ATOM      2  C4  UNL d   1       4.269   2.458  -0.405  0.00  0.00     0.002 A 
ATOM      3  C5  UNL d   1       3.158   1.832   0.161  0.00  0.00     0.002 A 
ATOM      4  C6  UNL d   1       2.587   2.339   1.326  0.00  0.00    -0.004 A 
ATOM      5  C7  UNL d   1       3.131   3.471   1.929  0.00  0.00     0.002 A 
ATOM      6  C8  UNL d   1       4.240   4.102   1.363  0.00  0.00     0.002 A 
ENDROOT
BRANCH   1   7
ATOM      7  C2  UNL d   1       6.000   4.307  -0.438  0.00  0.00     0.056 C 
BRANCH   7   8
ATOM      8  C1  UNL d   1       5.636   5.575  -1.217  0.00  0.00     0.007 C 
ATOM      9  C   UNL d   1       5.590   5.361  -2.724  0.00  0.00     0.009 C 
ENDBRANCH   7   8
ENDBRANCH   1   7
TORSDOF 2
ENDMDL
