MODEL 1
REMARK minimizedAffinity 12.3842239
REMARK minimizedRMSD -1
REMARK  2 active torsions:
REMARK  status: ('A' for Active; 'I' for Inactive)
REMARK    1  A    between atoms: C1_2  and  C2_3 
REMARK    2  A    between atoms: C2_3  and  C3_4 
ROOT
ATOM      1  C3  UNL d   1      -5.987   0.025  -3.420  0.00  0.00    -0.075 A 
ATOM      2  C4  UNL d   1      -5.999  -1.374  -3.323  0.00  0.00     0.002 A 
ATOM      3  C5  UNL d   1      -5.992  -2.164  -4.472  0.00  0.00     0.002 A 
ATOM      4  C6  UNL d   1      -5.985  -1.568  -5.731  0.00  0.00    -0.004 A 
ATOM      5  C7  UNL d   1      -5.991  -0.179  -5.840  0.00  0.00     0.002 A 
ATOM      6  C8  UNL d   1      -5.992   0.614  -4.691  0.00  0.00     0.002 A 
ENDROOT
BRANCH   1   7
ATOM      7  C2  UNL d   1      -5.965   0.886  -2.180  0.00  0.00     0.056 C 
BRANCH   7   8
ATOM      8  C1  UNL d   1      -5.122   0.310  -1.037  0.00  0.00     0.007 C 
ATOM      9  C   UNL d   1      -5.865   0.262   0.292  0.00  0.00     0.009 C 
ENDBRANCH   7   8
ENDBRANCH   1   7
TORSDOF 2
ENDMDL
