MODEL 1
REMARK minimizedAffinity 10.0309372
REMARK minimizedRMSD -1
REMARK  2 active torsions:
REMARK  status: ('A' for Active; 'I' for Inactive)
REMARK    1  A    between atoms: C1_2  and  C2_3 
REMARK    2  A    between atoms: C2_3  and  C3_4 
ROOT
ATOM      1  C3  UNL d   1      -5.822   0.688  -2.228  0.00  0.00    -0.075 A 
ATOM      2  C4  UNL d   1      -5.884  -0.708  -2.102  0.00  0.00     0.002 A 
ATOM      3  C5  UNL d   1      -5.967  -1.518  -3.235  0.00  0.00     0.002 A 
ATOM      4  C6  UNL d   1      -6.000  -0.944  -4.504  0.00  0.00    -0.004 A 
ATOM      5  C7  UNL d   1      -5.956   0.442  -4.640  0.00  0.00     0.002 A 
ATOM      6  C8  UNL d   1      -5.868   1.254  -3.509  0.00  0.00     0.002 A 
ENDROOT
BRANCH   1   7
ATOM      7  C2  UNL d   1      -5.702   1.569  -1.007  0.00  0.00     0.056 C 
BRANCH   7   8
ATOM      8  C1  UNL d   1      -5.790   3.068  -1.309  0.00  0.00     0.007 C 
ATOM      9  C   UNL d   1      -4.650   3.872  -0.698  0.00  0.00     0.009 C 
ENDBRANCH   7   8
ENDBRANCH   1   7
TORSDOF 2
ENDMDL
