MODEL 1
REMARK minimizedAffinity 10.3364277
REMARK minimizedRMSD -1
REMARK  2 active torsions:
REMARK  status: ('A' for Active; 'I' for Inactive)
REMARK    1  A    between atoms: C1_2  and  C2_3 
REMARK    2  A    between atoms: C2_3  and  C3_4 
ROOT
ATOM      1  C3  UNL d   1      -3.390   0.785   3.484  0.00  0.00    -0.075 A 
ATOM      2  C4  UNL d   1      -4.497   0.591   2.646  0.00  0.00     0.002 A 
ATOM      3  C5  UNL d   1      -4.464  -0.376   1.641  0.00  0.00     0.002 A 
ATOM      4  C6  UNL d   1      -3.322  -1.153   1.454  0.00  0.00    -0.004 A 
ATOM      5  C7  UNL d   1      -2.210  -0.958   2.271  0.00  0.00     0.002 A 
ATOM      6  C8  UNL d   1      -2.242   0.006   3.280  0.00  0.00     0.002 A 
ENDROOT
BRANCH   1   7
ATOM      7  C2  UNL d   1      -3.430   1.809   4.593  0.00  0.00     0.056 C 
BRANCH   7   8
ATOM      8  C1  UNL d   1      -4.828   2.047   5.171  0.00  0.00     0.007 C 
ATOM      9  C   UNL d   1      -4.930   3.328   5.989  0.00  0.00     0.009 C 
ENDBRANCH   7   8
ENDBRANCH   1   7
TORSDOF 2
ENDMDL
