MODEL 1
REMARK minimizedAffinity 6.72113037
REMARK minimizedRMSD -1
REMARK  2 active torsions:
REMARK  status: ('A' for Active; 'I' for Inactive)
REMARK    1  A    between atoms: C1_2  and  C2_3 
REMARK    2  A    between atoms: C2_3  and  C3_4 
ROOT
ATOM      1  C3  UNL d   1      -4.461  -4.489   3.682  0.00  0.00    -0.075 A 
ATOM      2  C4  UNL d   1      -4.377  -3.730   4.858  0.00  0.00     0.002 A 
ATOM      3  C5  UNL d   1      -5.084  -4.111   5.999  0.00  0.00     0.002 A 
ATOM      4  C6  UNL d   1      -5.889  -5.247   5.977  0.00  0.00    -0.004 A 
ATOM      5  C7  UNL d   1      -5.993  -6.000   4.809  0.00  0.00     0.002 A 
ATOM      6  C8  UNL d   1      -5.284  -5.624   3.667  0.00  0.00     0.002 A 
ENDROOT
BRANCH   1   7
ATOM      7  C2  UNL d   1      -3.676  -4.099   2.453  0.00  0.00     0.056 C 
BRANCH   7   8
ATOM      8  C1  UNL d   1      -3.443  -2.591   2.315  0.00  0.00     0.007 C 
ATOM      9  C   UNL d   1      -2.030  -2.241   1.866  0.00  0.00     0.009 C 
ENDBRANCH   7   8
ENDBRANCH   1   7
TORSDOF 2
ENDMDL
