MODEL 1
REMARK minimizedAffinity 2.52305245
REMARK minimizedRMSD -1
REMARK  2 active torsions:
REMARK  status: ('A' for Active; 'I' for Inactive)
REMARK    1  A    between atoms: C1_2  and  C2_3 
REMARK    2  A    between atoms: C2_3  and  C3_4 
ROOT
ATOM      1  C3  UNL d   1      -1.677   2.020  -1.192  0.00  0.00    -0.075 A 
ATOM      2  C4  UNL d   1      -2.054   2.555  -2.432  0.00  0.00     0.002 A 
ATOM      3  C5  UNL d   1      -3.128   2.015  -3.140  0.00  0.00     0.002 A 
ATOM      4  C6  UNL d   1      -3.830   0.928  -2.624  0.00  0.00    -0.004 A 
ATOM      5  C7  UNL d   1      -3.454   0.377  -1.401  0.00  0.00     0.002 A 
ATOM      6  C8  UNL d   1      -2.383   0.919  -0.688  0.00  0.00     0.002 A 
ENDROOT
BRANCH   1   7
ATOM      7  C2  UNL d   1      -0.535   2.619  -0.407  0.00  0.00     0.056 C 
BRANCH   7   8
ATOM      8  C1  UNL d   1      -0.929   3.113   0.989  0.00  0.00     0.007 C 
ATOM      9  C   UNL d   1       0.249   3.196   1.951  0.00  0.00     0.009 C 
ENDBRANCH   7   8
ENDBRANCH   1   7
TORSDOF 2
ENDMDL
