MODEL 1
REMARK minimizedAffinity -4.1880784
REMARK minimizedRMSD -1
REMARK  2 active torsions:
REMARK  status: ('A' for Active; 'I' for Inactive)
REMARK    1  A    between atoms: C1_2  and  C2_3 
REMARK    2  A    between atoms: C2_3  and  C3_4 
ROOT
ATOM      1  C3  UNL d   1       0.131   2.281  -0.063  0.00  0.00    -0.075 A 
ATOM      2  C4  UNL d   1      -0.205   2.600   1.261  0.00  0.00     0.002 A 
ATOM      3  C5  UNL d   1      -0.179   1.620   2.254  0.00  0.00     0.002 A 
ATOM      4  C6  UNL d   1       0.172   0.310   1.935  0.00  0.00    -0.004 A 
ATOM      5  C7  UNL d   1       0.491  -0.021   0.620  0.00  0.00     0.002 A 
ATOM      6  C8  UNL d   1       0.470   0.958  -0.374  0.00  0.00     0.002 A 
ENDROOT
BRANCH   1   7
ATOM      7  C2  UNL d   1       0.133   3.344  -1.136  0.00  0.00     0.056 C 
BRANCH   7   8
ATOM      8  C1  UNL d   1       0.788   4.661  -0.708  0.00  0.00     0.007 C 
ATOM      9  C   UNL d   1       0.054   5.892  -1.225  0.00  0.00     0.009 C 
ENDBRANCH   7   8
ENDBRANCH   1   7
TORSDOF 2
ENDMDL
