MODEL 1
REMARK minimizedAffinity 0.924952984
REMARK minimizedRMSD -1
REMARK  2 active torsions:
REMARK  status: ('A' for Active; 'I' for Inactive)
REMARK    1  A    between atoms: C1_2  and  C2_3 
REMARK    2  A    between atoms: C2_3  and  C3_4 
ROOT
ATOM      1  C3  UNL d   1      -1.510   4.218   0.321  0.00  0.00    -0.075 A 
ATOM      2  C4  UNL d   1      -2.108   5.106  -0.584  0.00  0.00     0.002 A 
ATOM      3  C5  UNL d   1      -3.103   5.987  -0.160  0.00  0.00     0.002 A 
ATOM      4  C6  UNL d   1      -3.518   5.985   1.170  0.00  0.00    -0.004 A 
ATOM      5  C7  UNL d   1      -2.942   5.096   2.075  0.00  0.00     0.002 A 
ATOM      6  C8  UNL d   1      -1.944   4.216   1.654  0.00  0.00     0.002 A 
ENDROOT
BRANCH   1   7
ATOM      7  C2  UNL d   1      -0.412   3.282  -0.126  0.00  0.00     0.056 C 
BRANCH   7   8
ATOM      8  C1  UNL d   1       0.325   3.742  -1.388  0.00  0.00     0.007 C 
ATOM      9  C   UNL d   1       1.089   5.045  -1.195  0.00  0.00     0.009 C 
ENDBRANCH   7   8
ENDBRANCH   1   7
TORSDOF 2
ENDMDL
