MODEL 1
REMARK minimizedAffinity 8.29111004
REMARK minimizedRMSD -1
REMARK  2 active torsions:
REMARK  status: ('A' for Active; 'I' for Inactive)
REMARK    1  A    between atoms: C1_2  and  C2_3 
REMARK    2  A    between atoms: C2_3  and  C3_4 
ROOT
ATOM      1  C3  UNL d   1       0.878   3.586   1.654  0.00  0.00    -0.075 A 
ATOM      2  C4  UNL d   1      -0.294   4.061   1.049  0.00  0.00     0.002 A 
ATOM      3  C5  UNL d   1      -1.546   3.661   1.518  0.00  0.00     0.002 A 
ATOM      4  C6  UNL d   1      -1.641   2.776   2.590  0.00  0.00    -0.004 A 
ATOM      5  C7  UNL d   1      -0.482   2.286   3.189  0.00  0.00     0.002 A 
ATOM      6  C8  UNL d   1       0.771   2.687   2.724  0.00  0.00     0.002 A 
ENDROOT
BRANCH   1   7
ATOM      7  C2  UNL d   1       2.235   4.038   1.169  0.00  0.00     0.056 C 
BRANCH   7   8
ATOM      8  C1  UNL d   1       2.205   4.769  -0.177  0.00  0.00     0.007 C 
ATOM      9  C   UNL d   1       3.138   5.972  -0.228  0.00  0.00     0.009 C 
ENDBRANCH   7   8
ENDBRANCH   1   7
TORSDOF 2
ENDMDL
