MODEL 1
REMARK minimizedAffinity 15.5810633
REMARK minimizedRMSD -1
REMARK  2 active torsions:
REMARK  status: ('A' for Active; 'I' for Inactive)
REMARK    1  A    between atoms: C1_2  and  C2_3 
REMARK    2  A    between atoms: C2_3  and  C3_4 
ROOT
ATOM      1  C3  UNL d   1       0.594   3.315   0.493  0.00  0.00    -0.075 A 
ATOM      2  C4  UNL d   1       1.258   2.695   1.561  0.00  0.00     0.002 A 
ATOM      3  C5  UNL d   1       0.557   2.314   2.706  0.00  0.00     0.002 A 
ATOM      4  C6  UNL d   1      -0.812   2.556   2.801  0.00  0.00    -0.004 A 
ATOM      5  C7  UNL d   1      -1.479   3.186   1.752  0.00  0.00     0.002 A 
ATOM      6  C8  UNL d   1      -0.781   3.565   0.604  0.00  0.00     0.002 A 
ENDROOT
BRANCH   1   7
ATOM      7  C2  UNL d   1       1.341   3.703  -0.761  0.00  0.00     0.056 C 
BRANCH   7   8
ATOM      8  C1  UNL d   1       2.355   4.833  -0.557  0.00  0.00     0.007 C 
ATOM      9  C   UNL d   1       2.484   5.750  -1.767  0.00  0.00     0.009 C 
ENDBRANCH   7   8
ENDBRANCH   1   7
TORSDOF 2
ENDMDL
