MODEL 1
REMARK minimizedAffinity -4.93506527
REMARK minimizedRMSD -1
REMARK  0 active torsions:
REMARK  status: ('A' for Active; 'I' for Inactive)
ROOT
ATOM      1  C1  BNZ d   1      -2.013  -0.275  -1.113  0.00  0.00     0.000 A 
ATOM      2  C2  BNZ d   1      -0.753   0.115  -1.481  0.00  0.00     0.000 A 
ATOM      3  C3  BNZ d   1       0.334  -0.227  -0.726  0.00  0.00     0.000 A 
ATOM      4  C4  BNZ d   1       0.156  -0.922   0.416  0.00  0.00     0.000 A 
ATOM      5  C5  BNZ d   1      -1.109  -1.314   0.806  0.00  0.00     0.000 A 
ATOM      6  C6  BNZ d   1      -2.197  -1.002   0.023  0.00  0.00     0.000 A 
ENDROOT
TORSDOF 0
ENDMDL
