MODEL 1
REMARK minimizedAffinity -4.79925585
REMARK minimizedRMSD -1
REMARK  0 active torsions:
REMARK  status: ('A' for Active; 'I' for Inactive)
ROOT
ATOM      1  C1  BNZ d   1      -0.013  -0.494   0.434  0.00  0.00     0.000 A 
ATOM      2  C2  BNZ d   1      -1.342  -0.724   0.675  0.00  0.00     0.000 A 
ATOM      3  C3  BNZ d   1      -2.254  -0.687  -0.342  0.00  0.00     0.000 A 
ATOM      4  C4  BNZ d   1      -1.844  -0.380  -1.590  0.00  0.00     0.000 A 
ATOM      5  C5  BNZ d   1      -0.510  -0.136  -1.847  0.00  0.00     0.000 A 
ATOM      6  C6  BNZ d   1       0.412  -0.213  -0.828  0.00  0.00     0.000 A 
ENDROOT
TORSDOF 0
ENDMDL
