MODEL 1
REMARK minimizedAffinity -3.57174635
REMARK minimizedRMSD -1
REMARK  0 active torsions:
REMARK  status: ('A' for Active; 'I' for Inactive)
ROOT
ATOM      1  C1  BNZ d   1       1.727  -0.617  -0.465  0.00  0.00     0.000 A 
ATOM      2  C2  BNZ d   1       0.660  -0.150  -1.185  0.00  0.00     0.000 A 
ATOM      3  C3  BNZ d   1      -0.621  -0.383  -0.768  0.00  0.00     0.000 A 
ATOM      4  C4  BNZ d   1      -0.833  -1.115   0.345  0.00  0.00     0.000 A 
ATOM      5  C5  BNZ d   1       0.232  -1.601   1.076  0.00  0.00     0.000 A 
ATOM      6  C6  BNZ d   1       1.521  -1.331   0.675  0.00  0.00     0.000 A 
ENDROOT
TORSDOF 0
ENDMDL
