MODEL 1
REMARK minimizedAffinity -2.55412102
REMARK minimizedRMSD -1
REMARK  0 active torsions:
REMARK  status: ('A' for Active; 'I' for Inactive)
ROOT
ATOM      1  C1  BNZ d   1      -1.902  -0.589   1.156  0.00  0.00     0.000 A 
ATOM      2  C2  BNZ d   1      -0.844   0.035   0.550  0.00  0.00     0.000 A 
ATOM      3  C3  BNZ d   1      -0.803   0.183  -0.808  0.00  0.00     0.000 A 
ATOM      4  C4  BNZ d   1      -1.799  -0.327  -1.561  0.00  0.00     0.000 A 
ATOM      5  C5  BNZ d   1      -2.868  -0.967  -0.966  0.00  0.00     0.000 A 
ATOM      6  C6  BNZ d   1      -2.924  -1.080   0.405  0.00  0.00     0.000 A 
ENDROOT
TORSDOF 0
ENDMDL
