MODEL 1
REMARK minimizedAffinity -4.6207304
REMARK minimizedRMSD -1
REMARK  0 active torsions:
REMARK  status: ('A' for Active; 'I' for Inactive)
ROOT
ATOM      1  C1  BNZ d   1      -1.039   0.345  -1.918  0.00  0.00     0.000 A 
ATOM      2  C2  BNZ d   1      -2.295  -0.085  -1.582  0.00  0.00     0.000 A 
ATOM      3  C3  BNZ d   1      -2.575  -0.505  -0.312  0.00  0.00     0.000 A 
ATOM      4  C4  BNZ d   1      -1.590  -0.533   0.609  0.00  0.00     0.000 A 
ATOM      5  C5  BNZ d   1      -0.316  -0.112   0.284  0.00  0.00     0.000 A 
ATOM      6  C6  BNZ d   1      -0.048   0.347  -0.985  0.00  0.00     0.000 A 
ENDROOT
TORSDOF 0
ENDMDL
