MODEL 1
REMARK minimizedAffinity -1.1900568
REMARK minimizedRMSD -1
REMARK  0 active torsions:
REMARK  status: ('A' for Active; 'I' for Inactive)
ROOT
ATOM      1  C1  BNZ d   1      -1.663  -0.742   1.129  0.00  0.00     0.000 A 
ATOM      2  C2  BNZ d   1      -0.983   0.219   0.431  0.00  0.00     0.000 A 
ATOM      3  C3  BNZ d   1       0.372   0.140   0.270  0.00  0.00     0.000 A 
ATOM      4  C4  BNZ d   1       1.049  -0.877   0.840  0.00  0.00     0.000 A 
ATOM      5  C5  BNZ d   1       0.379  -1.849   1.556  0.00  0.00     0.000 A 
ATOM      6  C6  BNZ d   1      -0.990  -1.787   1.683  0.00  0.00     0.000 A 
ENDROOT
TORSDOF 0
ENDMDL
