MODEL 1
REMARK minimizedAffinity -1.72399879
REMARK minimizedRMSD -1
REMARK  0 active torsions:
REMARK  status: ('A' for Active; 'I' for Inactive)
ROOT
ATOM      1  C1  BNZ d   1       1.784   1.695   0.320  0.00  0.00     0.000 A 
ATOM      2  C2  BNZ d   1       0.586   1.886  -0.314  0.00  0.00     0.000 A 
ATOM      3  C3  BNZ d   1      -0.148   0.823  -0.760  0.00  0.00     0.000 A 
ATOM      4  C4  BNZ d   1       0.335  -0.427  -0.608  0.00  0.00     0.000 A 
ATOM      5  C5  BNZ d   1       1.547  -0.636   0.021  0.00  0.00     0.000 A 
ATOM      6  C6  BNZ d   1       2.264   0.435   0.503  0.00  0.00     0.000 A 
ENDROOT
TORSDOF 0
ENDMDL
