MODEL 1
REMARK minimizedAffinity -3.75177956
REMARK minimizedRMSD -1
REMARK  0 active torsions:
REMARK  status: ('A' for Active; 'I' for Inactive)
ROOT
ATOM      1  C1  BNZ d   1      -2.033   0.154  -1.352  0.00  0.00     0.000 A 
ATOM      2  C2  BNZ d   1      -0.838   0.731  -1.693  0.00  0.00     0.000 A 
ATOM      3  C3  BNZ d   1       0.270   0.560  -0.910  0.00  0.00     0.000 A 
ATOM      4  C4  BNZ d   1       0.172  -0.151   0.231  0.00  0.00     0.000 A 
ATOM      5  C5  BNZ d   1      -1.028  -0.731   0.593  0.00  0.00     0.000 A 
ATOM      6  C6  BNZ d   1      -2.131  -0.590  -0.217  0.00  0.00     0.000 A 
ENDROOT
TORSDOF 0
ENDMDL
