MODEL 1
REMARK minimizedAffinity -1.51726806
REMARK minimizedRMSD -1
REMARK  0 active torsions:
REMARK  status: ('A' for Active; 'I' for Inactive)
ROOT
ATOM      1  C1  BNZ d   1      -0.968  -0.666   0.488  0.00  0.00     0.000 A 
ATOM      2  C2  BNZ d   1       0.296  -0.166   0.654  0.00  0.00     0.000 A 
ATOM      3  C3  BNZ d   1       0.974   0.386  -0.396  0.00  0.00     0.000 A 
ATOM      4  C4  BNZ d   1       0.405   0.401  -1.619  0.00  0.00     0.000 A 
ATOM      5  C5  BNZ d   1      -0.865  -0.108  -1.805  0.00  0.00     0.000 A 
ATOM      6  C6  BNZ d   1      -1.560  -0.627  -0.737  0.00  0.00     0.000 A 
ENDROOT
TORSDOF 0
ENDMDL
