MODEL 1
REMARK minimizedAffinity -4.32241011
REMARK minimizedRMSD -1
REMARK  0 active torsions:
REMARK  status: ('A' for Active; 'I' for Inactive)
ROOT
ATOM      1  C1  BNZ d   1       0.110  -0.121   0.573  0.00  0.00     0.000 A 
ATOM      2  C2  BNZ d   1      -1.155  -0.556   0.868  0.00  0.00     0.000 A 
ATOM      3  C3  BNZ d   1      -2.151  -0.496  -0.066  0.00  0.00     0.000 A 
ATOM      4  C4  BNZ d   1      -1.891   0.035  -1.279  0.00  0.00     0.000 A 
ATOM      5  C5  BNZ d   1      -0.623   0.486  -1.588  0.00  0.00     0.000 A 
ATOM      6  C6  BNZ d   1       0.386   0.388  -0.658  0.00  0.00     0.000 A 
ENDROOT
TORSDOF 0
ENDMDL
