MODEL 1
REMARK minimizedAffinity -3.86047387
REMARK minimizedRMSD -1
REMARK  0 active torsions:
REMARK  status: ('A' for Active; 'I' for Inactive)
ROOT
ATOM      1  C1  BNZ d   1       0.231  -0.015   0.486  0.00  0.00     0.000 A 
ATOM      2  C2  BNZ d   1      -1.090  -0.347   0.625  0.00  0.00     0.000 A 
ATOM      3  C3  BNZ d   1      -1.925  -0.365  -0.456  0.00  0.00     0.000 A 
ATOM      4  C4  BNZ d   1      -1.449  -0.011  -1.667  0.00  0.00     0.000 A 
ATOM      5  C5  BNZ d   1      -0.122   0.336  -1.823  0.00  0.00     0.000 A 
ATOM      6  C6  BNZ d   1       0.725   0.314  -0.739  0.00  0.00     0.000 A 
ENDROOT
TORSDOF 0
ENDMDL
