MODEL 1
REMARK minimizedAffinity -4.58773184
REMARK minimizedRMSD -1
REMARK  0 active torsions:
REMARK  status: ('A' for Active; 'I' for Inactive)
ROOT
ATOM      1  C1  BNZ d   1      -1.571  -0.769   0.681  0.00  0.00     0.000 A 
ATOM      2  C2  BNZ d   1      -0.292  -0.288   0.595  0.00  0.00     0.000 A 
ATOM      3  C3  BNZ d   1       0.173   0.260  -0.567  0.00  0.00     0.000 A 
ATOM      4  C4  BNZ d   1      -0.626   0.289  -1.653  0.00  0.00     0.000 A 
ATOM      5  C5  BNZ d   1      -1.915  -0.202  -1.585  0.00  0.00     0.000 A 
ATOM      6  C6  BNZ d   1      -2.393  -0.717  -0.402  0.00  0.00     0.000 A 
ENDROOT
TORSDOF 0
ENDMDL
