MODEL 1
REMARK minimizedAffinity -2.86910677
REMARK minimizedRMSD -1
REMARK  0 active torsions:
REMARK  status: ('A' for Active; 'I' for Inactive)
ROOT
ATOM      1  C1  BNZ d   1      -1.868  -0.684   0.561  0.00  0.00     0.000 A 
ATOM      2  C2  BNZ d   1      -0.673  -0.046   0.359  0.00  0.00     0.000 A 
ATOM      3  C3  BNZ d   1      -0.286   0.333  -0.896  0.00  0.00     0.000 A 
ATOM      4  C4  BNZ d   1      -1.074   0.040  -1.950  0.00  0.00     0.000 A 
ATOM      5  C5  BNZ d   1      -2.278  -0.611  -1.764  0.00  0.00     0.000 A 
ATOM      6  C6  BNZ d   1      -2.682  -0.957  -0.495  0.00  0.00     0.000 A 
ENDROOT
TORSDOF 0
ENDMDL
