MODEL 1
REMARK minimizedAffinity -3.50442958
REMARK minimizedRMSD -1
REMARK  0 active torsions:
REMARK  status: ('A' for Active; 'I' for Inactive)
ROOT
ATOM      1  C1  BNZ d   1       0.535   0.371  -0.820  0.00  0.00     0.000 A 
ATOM      2  C2  BNZ d   1      -0.602   0.470  -1.577  0.00  0.00     0.000 A 
ATOM      3  C3  BNZ d   1      -1.771  -0.104  -1.162  0.00  0.00     0.000 A 
ATOM      4  C4  BNZ d   1      -1.792  -0.809  -0.012  0.00  0.00     0.000 A 
ATOM      5  C5  BNZ d   1      -0.651  -0.926   0.757  0.00  0.00     0.000 A 
ATOM      6  C6  BNZ d   1       0.514  -0.314   0.355  0.00  0.00     0.000 A 
ENDROOT
TORSDOF 0
ENDMDL
