MODEL 1
REMARK minimizedAffinity -4.49952078
REMARK minimizedRMSD -1
REMARK  0 active torsions:
REMARK  status: ('A' for Active; 'I' for Inactive)
ROOT
ATOM      1  C1  BNZ d   1      -1.229  -0.336   0.973  0.00  0.00     0.000 A 
ATOM      2  C2  BNZ d   1      -2.539  -0.590   0.664  0.00  0.00     0.000 A 
ATOM      3  C3  BNZ d   1      -2.956  -0.625  -0.637  0.00  0.00     0.000 A 
ATOM      4  C4  BNZ d   1      -2.074  -0.367  -1.624  0.00  0.00     0.000 A 
ATOM      5  C5  BNZ d   1      -0.752  -0.100  -1.328  0.00  0.00     0.000 A 
ATOM      6  C6  BNZ d   1      -0.327  -0.104  -0.019  0.00  0.00     0.000 A 
ENDROOT
TORSDOF 0
ENDMDL
