MODEL 1
REMARK minimizedAffinity -3.70017862
REMARK minimizedRMSD -1
REMARK  2 active torsions:
REMARK  status: ('A' for Active; 'I' for Inactive)
REMARK    1  A    between atoms: C1_2  and  C2_3 
REMARK    2  A    between atoms: C2_3  and  C3_4 
ROOT
ATOM      1  C3  UNL d   1       0.308  -0.503  -0.518  0.00  0.00    -0.075 A 
ATOM      2  C4  UNL d   1       0.842   0.752  -0.194  0.00  0.00     0.002 A 
ATOM      3  C5  UNL d   1       1.047   1.113   1.138  0.00  0.00     0.002 A 
ATOM      4  C6  UNL d   1       0.712   0.230   2.161  0.00  0.00    -0.004 A 
ATOM      5  C7  UNL d   1       0.166  -1.014   1.852  0.00  0.00     0.002 A 
ATOM      6  C8  UNL d   1      -0.036  -1.379   0.520  0.00  0.00     0.002 A 
ENDROOT
BRANCH   1   7
ATOM      7  C2  UNL d   1       0.112  -0.912  -1.958  0.00  0.00     0.056 C 
BRANCH   7   8
ATOM      8  C1  UNL d   1       1.351  -0.714  -2.837  0.00  0.00     0.007 C 
ATOM      9  C   UNL d   1       1.845  -2.004  -3.478  0.00  0.00     0.009 C 
ENDBRANCH   7   8
ENDBRANCH   1   7
TORSDOF 2
ENDMDL
