MODEL 1
REMARK minimizedAffinity -5.23776388
REMARK minimizedRMSD -1
REMARK  2 active torsions:
REMARK  status: ('A' for Active; 'I' for Inactive)
REMARK    1  A    between atoms: C1_2  and  C2_3 
REMARK    2  A    between atoms: C2_3  and  C3_4 
ROOT
ATOM      1  C3  UNL d   1      -0.371   0.389  -0.177  0.00  0.00    -0.075 A 
ATOM      2  C4  UNL d   1      -1.684   0.614   0.262  0.00  0.00     0.002 A 
ATOM      3  C5  UNL d   1      -1.973   0.686   1.625  0.00  0.00     0.002 A 
ATOM      4  C6  UNL d   1      -0.958   0.524   2.565  0.00  0.00    -0.004 A 
ATOM      5  C7  UNL d   1       0.347   0.283   2.141  0.00  0.00     0.002 A 
ATOM      6  C8  UNL d   1       0.640   0.215   0.778  0.00  0.00     0.002 A 
ENDROOT
BRANCH   1   7
ATOM      7  C2  UNL d   1      -0.047   0.339  -1.651  0.00  0.00     0.056 C 
BRANCH   7   8
ATOM      8  C1  UNL d   1       0.837  -0.845  -2.055  0.00  0.00     0.007 C 
ATOM      9  C   UNL d   1       0.846  -1.102  -3.556  0.00  0.00     0.009 C 
ENDBRANCH   7   8
ENDBRANCH   1   7
TORSDOF 2
ENDMDL
