MODEL 1
REMARK minimizedAffinity -4.78700066
REMARK minimizedRMSD -1
REMARK  2 active torsions:
REMARK  status: ('A' for Active; 'I' for Inactive)
REMARK    1  A    between atoms: C1_2  and  C2_3 
REMARK    2  A    between atoms: C2_3  and  C3_4 
ROOT
ATOM      1  C3  UNL d   1      -0.085   0.037   0.827  0.00  0.00    -0.075 A 
ATOM      2  C4  UNL d   1      -1.435   0.247   0.508  0.00  0.00     0.002 A 
ATOM      3  C5  UNL d   1      -2.396   0.332   1.516  0.00  0.00     0.002 A 
ATOM      4  C6  UNL d   1      -2.022   0.198   2.852  0.00  0.00    -0.004 A 
ATOM      5  C7  UNL d   1      -0.687  -0.028   3.179  0.00  0.00     0.002 A 
ATOM      6  C8  UNL d   1       0.277  -0.109   2.173  0.00  0.00     0.002 A 
ENDROOT
BRANCH   1   7
ATOM      7  C2  UNL d   1       0.964  -0.027  -0.257  0.00  0.00     0.056 C 
BRANCH   7   8
ATOM      8  C1  UNL d   1       0.449   0.362  -1.647  0.00  0.00     0.007 C 
ATOM      9  C   UNL d   1       1.317  -0.169  -2.779  0.00  0.00     0.009 C 
ENDBRANCH   7   8
ENDBRANCH   1   7
TORSDOF 2
ENDMDL
