MODEL 1
REMARK minimizedAffinity -4.85455942
REMARK minimizedRMSD -1
REMARK  2 active torsions:
REMARK  status: ('A' for Active; 'I' for Inactive)
REMARK    1  A    between atoms: C1_2  and  C2_3 
REMARK    2  A    between atoms: C2_3  and  C3_4 
ROOT
ATOM      1  C3  UNL d   1       0.229   0.035  -0.524  0.00  0.00    -0.075 A 
ATOM      2  C4  UNL d   1      -0.858  -0.397   0.250  0.00  0.00     0.002 A 
ATOM      3  C5  UNL d   1      -0.768  -0.430   1.642  0.00  0.00     0.002 A 
ATOM      4  C6  UNL d   1       0.411  -0.042   2.276  0.00  0.00    -0.004 A 
ATOM      5  C7  UNL d   1       1.502   0.373   1.516  0.00  0.00     0.002 A 
ATOM      6  C8  UNL d   1       1.413   0.411   0.123  0.00  0.00     0.002 A 
ENDROOT
BRANCH   1   7
ATOM      7  C2  UNL d   1       0.127   0.100  -2.029  0.00  0.00     0.056 C 
BRANCH   7   8
ATOM      8  C1  UNL d   1       0.153  -1.269  -2.717  0.00  0.00     0.007 C 
ATOM      9  C   UNL d   1       1.561  -1.749  -3.045  0.00  0.00     0.009 C 
ENDBRANCH   7   8
ENDBRANCH   1   7
TORSDOF 2
ENDMDL
