MODEL 1
REMARK minimizedAffinity -5.49332285
REMARK minimizedRMSD -1
REMARK  2 active torsions:
REMARK  status: ('A' for Active; 'I' for Inactive)
REMARK    1  A    between atoms: C1_2  and  C2_3 
REMARK    2  A    between atoms: C2_3  and  C3_4 
ROOT
ATOM      1  C3  UNL d   1       0.122  -0.393   1.108  0.00  0.00    -0.075 A 
ATOM      2  C4  UNL d   1      -1.277  -0.465   1.034  0.00  0.00     0.002 A 
ATOM      3  C5  UNL d   1      -2.026  -0.851   2.145  0.00  0.00     0.002 A 
ATOM      4  C6  UNL d   1      -1.389  -1.180   3.339  0.00  0.00    -0.004 A 
ATOM      5  C7  UNL d   1       0.001  -1.129   3.420  0.00  0.00     0.002 A 
ATOM      6  C8  UNL d   1       0.754  -0.738   2.311  0.00  0.00     0.002 A 
ENDROOT
BRANCH   1   7
ATOM      7  C2  UNL d   1       0.937   0.052  -0.082  0.00  0.00     0.056 C 
BRANCH   7   8
ATOM      8  C1  UNL d   1       0.206  -0.077  -1.422  0.00  0.00     0.007 C 
ATOM      9  C   UNL d   1       0.924  -0.985  -2.412  0.00  0.00     0.009 C 
ENDBRANCH   7   8
ENDBRANCH   1   7
TORSDOF 2
ENDMDL
