MODEL 1
REMARK minimizedAffinity -6.09566545
REMARK minimizedRMSD -1
REMARK  2 active torsions:
REMARK  status: ('A' for Active; 'I' for Inactive)
REMARK    1  A    between atoms: C1_2  and  C2_3 
REMARK    2  A    between atoms: C2_3  and  C3_4 
ROOT
ATOM      1  C3  UNL d   1      -0.440   0.051   1.275  0.00  0.00    -0.075 A 
ATOM      2  C4  UNL d   1      -0.089  -0.373   2.565  0.00  0.00     0.002 A 
ATOM      3  C5  UNL d   1      -1.065  -0.525   3.550  0.00  0.00     0.002 A 
ATOM      4  C6  UNL d   1      -2.399  -0.246   3.263  0.00  0.00    -0.004 A 
ATOM      5  C7  UNL d   1      -2.757   0.192   1.990  0.00  0.00     0.002 A 
ATOM      6  C8  UNL d   1      -1.784   0.340   1.000  0.00  0.00     0.002 A 
ENDROOT
BRANCH   1   7
ATOM      7  C2  UNL d   1       0.606   0.189   0.195  0.00  0.00     0.056 C 
BRANCH   7   8
ATOM      8  C1  UNL d   1       0.041   0.570  -1.177  0.00  0.00     0.007 C 
ATOM      9  C   UNL d   1       0.491  -0.363  -2.293  0.00  0.00     0.009 C 
ENDBRANCH   7   8
ENDBRANCH   1   7
TORSDOF 2
ENDMDL
