MODEL 1
REMARK minimizedAffinity -0.3912462
REMARK minimizedRMSD -1
REMARK  2 active torsions:
REMARK  status: ('A' for Active; 'I' for Inactive)
REMARK    1  A    between atoms: C1_2  and  C2_3 
REMARK    2  A    between atoms: C2_3  and  C3_4 
ROOT
ATOM      1  C3  UNL d   1       0.023  -0.082   0.095  0.00  0.00    -0.075 A 
ATOM      2  C4  UNL d   1      -1.333   0.084  -0.220  0.00  0.00     0.002 A 
ATOM      3  C5  UNL d   1      -2.245   0.479   0.759  0.00  0.00     0.002 A 
ATOM      4  C6  UNL d   1      -1.816   0.702   2.065  0.00  0.00    -0.004 A 
ATOM      5  C7  UNL d   1      -0.474   0.524   2.394  0.00  0.00     0.002 A 
ATOM      6  C8  UNL d   1       0.441   0.133   1.415  0.00  0.00     0.002 A 
ENDROOT
BRANCH   1   7
ATOM      7  C2  UNL d   1       1.020  -0.480  -0.967  0.00  0.00     0.056 C 
BRANCH   7   8
ATOM      8  C1  UNL d   1       0.456  -1.433  -2.026  0.00  0.00     0.007 C 
ATOM      9  C   UNL d   1       1.499  -1.894  -3.035  0.00  0.00     0.009 C 
ENDBRANCH   7   8
ENDBRANCH   1   7
TORSDOF 2
ENDMDL
