MODEL 1
REMARK minimizedAffinity -3.98113513
REMARK minimizedRMSD -1
REMARK  2 active torsions:
REMARK  status: ('A' for Active; 'I' for Inactive)
REMARK    1  A    between atoms: C1_2  and  C2_3 
REMARK    2  A    between atoms: C2_3  and  C3_4 
ROOT
ATOM      1  C3  UNL d   1      -0.146   0.418  -0.167  0.00  0.00    -0.075 A 
ATOM      2  C4  UNL d   1      -1.488   0.571   0.210  0.00  0.00     0.002 A 
ATOM      3  C5  UNL d   1      -1.858   0.507   1.554  0.00  0.00     0.002 A 
ATOM      4  C6  UNL d   1      -0.895   0.281   2.534  0.00  0.00    -0.004 A 
ATOM      5  C7  UNL d   1       0.439   0.111   2.170  0.00  0.00     0.002 A 
ATOM      6  C8  UNL d   1       0.813   0.178   0.826  0.00  0.00     0.002 A 
ENDROOT
BRANCH   1   7
ATOM      7  C2  UNL d   1       0.265   0.515  -1.617  0.00  0.00     0.056 C 
BRANCH   7   8
ATOM      8  C1  UNL d   1       0.046  -0.775  -2.415  0.00  0.00     0.007 C 
ATOM      9  C   UNL d   1       1.167  -1.068  -3.403  0.00  0.00     0.009 C 
ENDBRANCH   7   8
ENDBRANCH   1   7
TORSDOF 2
ENDMDL
