MODEL 1
REMARK minimizedAffinity -4.94645357
REMARK minimizedRMSD -1
REMARK  2 active torsions:
REMARK  status: ('A' for Active; 'I' for Inactive)
REMARK    1  A    between atoms: C1_2  and  C2_3 
REMARK    2  A    between atoms: C2_3  and  C3_4 
ROOT
ATOM      1  C3  UNL d   1      -0.285  -0.070   0.942  0.00  0.00    -0.075 A 
ATOM      2  C4  UNL d   1      -1.649  -0.047   0.617  0.00  0.00     0.002 A 
ATOM      3  C5  UNL d   1      -2.617  -0.185   1.612  0.00  0.00     0.002 A 
ATOM      4  C6  UNL d   1      -2.235  -0.358   2.941  0.00  0.00    -0.004 A 
ATOM      5  C7  UNL d   1      -0.882  -0.399   3.273  0.00  0.00     0.002 A 
ATOM      6  C8  UNL d   1       0.088  -0.257   2.280  0.00  0.00     0.002 A 
ENDROOT
BRANCH   1   7
ATOM      7  C2  UNL d   1       0.767   0.108  -0.127  0.00  0.00     0.056 C 
BRANCH   7   8
ATOM      8  C1  UNL d   1       0.203   0.190  -1.549  0.00  0.00     0.007 C 
ATOM      9  C   UNL d   1       0.810  -0.837  -2.495  0.00  0.00     0.009 C 
ENDBRANCH   7   8
ENDBRANCH   1   7
TORSDOF 2
ENDMDL
