MODEL 1
REMARK minimizedAffinity -4.93048429
REMARK minimizedRMSD -1
REMARK  2 active torsions:
REMARK  status: ('A' for Active; 'I' for Inactive)
REMARK    1  A    between atoms: C1_2  and  C2_3 
REMARK    2  A    between atoms: C2_3  and  C3_4 
ROOT
ATOM      1  C3  UNL d   1      -0.398   0.168   0.952  0.00  0.00    -0.075 A 
ATOM      2  C4  UNL d   1      -0.085   0.246   2.317  0.00  0.00     0.002 A 
ATOM      3  C5  UNL d   1      -1.092   0.429   3.266  0.00  0.00     0.002 A 
ATOM      4  C6  UNL d   1      -2.420   0.546   2.862  0.00  0.00    -0.004 A 
ATOM      5  C7  UNL d   1      -2.741   0.487   1.508  0.00  0.00     0.002 A 
ATOM      6  C8  UNL d   1      -1.736   0.300   0.557  0.00  0.00     0.002 A 
ENDROOT
BRANCH   1   7
ATOM      7  C2  UNL d   1       0.683  -0.059  -0.077  0.00  0.00     0.056 C 
BRANCH   7   8
ATOM      8  C1  UNL d   1       0.344   0.485  -1.469  0.00  0.00     0.007 C 
ATOM      9  C   UNL d   1       1.070  -0.245  -2.591  0.00  0.00     0.009 C 
ENDBRANCH   7   8
ENDBRANCH   1   7
TORSDOF 2
ENDMDL
