MODEL 1
REMARK minimizedAffinity -3.28281784
REMARK minimizedRMSD -1
REMARK  2 active torsions:
REMARK  status: ('A' for Active; 'I' for Inactive)
REMARK    1  A    between atoms: C1_2  and  C2_3 
REMARK    2  A    between atoms: C2_3  and  C3_4 
ROOT
ATOM      1  C3  UNL d   1       0.301  -0.150  -2.001  0.00  0.00    -0.075 A 
ATOM      2  C4  UNL d   1      -0.439  -1.251  -2.456  0.00  0.00     0.002 A 
ATOM      3  C5  UNL d   1      -0.033  -1.958  -3.588  0.00  0.00     0.002 A 
ATOM      4  C6  UNL d   1       1.109  -1.568  -4.284  0.00  0.00    -0.004 A 
ATOM      5  C7  UNL d   1       1.842  -0.466  -3.851  0.00  0.00     0.002 A 
ATOM      6  C8  UNL d   1       1.441   0.241  -2.715  0.00  0.00     0.002 A 
ENDROOT
BRANCH   1   7
ATOM      7  C2  UNL d   1      -0.116   0.601  -0.759  0.00  0.00     0.056 C 
BRANCH   7   8
ATOM      8  C1  UNL d   1       0.967   0.669   0.322  0.00  0.00     0.007 C 
ATOM      9  C   UNL d   1       1.370  -0.699   0.857  0.00  0.00     0.009 C 
ENDBRANCH   7   8
ENDBRANCH   1   7
TORSDOF 2
ENDMDL
