MODEL 1
REMARK minimizedAffinity -2.45720792
REMARK minimizedRMSD -1
REMARK  1 active torsions:
REMARK  status: ('A' for Active; 'I' for Inactive)
REMARK    1  A    between atoms: C1_2  and  C2_3 
ROOT
ATOM      1  C2  UNL d   1       1.873   1.223   0.785  0.00  0.00    -0.077 A 
ATOM      2  C3  UNL d   1       1.594   1.213   2.159  0.00  0.00     0.002 A 
ATOM      3  C4  UNL d   1       0.316   1.533   2.622  0.00  0.00     0.002 A 
ATOM      4  C5  UNL d   1      -0.692   1.861   1.719  0.00  0.00    -0.004 A 
ATOM      5  C6  UNL d   1      -0.424   1.876   0.350  0.00  0.00     0.002 A 
ATOM      6  C7  UNL d   1       0.853   1.558  -0.114  0.00  0.00     0.002 A 
ENDROOT
BRANCH   1   7
ATOM      7  C1  UNL d   1       3.237   0.830   0.280  0.00  0.00     0.055 C 
ATOM      8  C   UNL d   1       3.720   1.780  -0.806  0.00  0.00     0.019 C 
ENDBRANCH   1   7
TORSDOF 1
ENDMDL
