MODEL 1
REMARK minimizedAffinity -0.083932437
REMARK minimizedRMSD -1
REMARK  1 active torsions:
REMARK  status: ('A' for Active; 'I' for Inactive)
REMARK    1  A    between atoms: C1_2  and  C2_3 
ROOT
ATOM      1  C2  UNL d   1       2.044   1.500   0.289  0.00  0.00    -0.077 A 
ATOM      2  C3  UNL d   1       2.435   0.333  -0.382  0.00  0.00     0.002 A 
ATOM      3  C4  UNL d   1       3.658   0.281  -1.054  0.00  0.00     0.002 A 
ATOM      4  C5  UNL d   1       4.500   1.391  -1.058  0.00  0.00    -0.004 A 
ATOM      5  C6  UNL d   1       4.119   2.556  -0.395  0.00  0.00     0.002 A 
ATOM      6  C7  UNL d   1       2.897   2.611   0.277  0.00  0.00     0.002 A 
ENDROOT
BRANCH   1   7
ATOM      7  C1  UNL d   1       0.748   1.541   1.056  0.00  0.00     0.055 C 
ATOM      8  C   UNL d   1       0.985   1.838   2.530  0.00  0.00     0.019 C 
ENDBRANCH   1   7
TORSDOF 1
ENDMDL
