MODEL 1
REMARK minimizedAffinity -0.434723347
REMARK minimizedRMSD -1
REMARK  1 active torsions:
REMARK  status: ('A' for Active; 'I' for Inactive)
REMARK    1  A    between atoms: C1_2  and  C2_3 
ROOT
ATOM      1  C2  UNL d   1       2.672   1.527  -0.253  0.00  0.00    -0.077 A 
ATOM      2  C3  UNL d   1       3.448   2.691  -0.162  0.00  0.00     0.002 A 
ATOM      3  C4  UNL d   1       4.704   2.751  -0.769  0.00  0.00     0.002 A 
ATOM      4  C5  UNL d   1       5.193   1.653  -1.474  0.00  0.00    -0.004 A 
ATOM      5  C6  UNL d   1       4.429   0.490  -1.569  0.00  0.00     0.002 A 
ATOM      6  C7  UNL d   1       3.174   0.428  -0.962  0.00  0.00     0.002 A 
ENDROOT
BRANCH   1   7
ATOM      7  C1  UNL d   1       1.296   1.478   0.358  0.00  0.00     0.055 C 
ATOM      8  C   UNL d   1       0.396   0.499  -0.382  0.00  0.00     0.019 C 
ENDBRANCH   1   7
TORSDOF 1
ENDMDL
