MODEL 1
REMARK minimizedAffinity 6.68876743
REMARK minimizedRMSD -1
REMARK  1 active torsions:
REMARK  status: ('A' for Active; 'I' for Inactive)
REMARK    1  A    between atoms: C1_2  and  C2_3 
ROOT
ATOM      1  C2  UNL d   1       1.475  -1.565  -1.070  0.00  0.00    -0.077 A 
ATOM      2  C3  UNL d   1       0.293  -2.194  -1.485  0.00  0.00     0.002 A 
ATOM      3  C4  UNL d   1      -0.922  -1.507  -1.450  0.00  0.00     0.002 A 
ATOM      4  C5  UNL d   1      -0.966  -0.187  -1.006  0.00  0.00    -0.004 A 
ATOM      5  C6  UNL d   1       0.204   0.446  -0.589  0.00  0.00     0.002 A 
ATOM      6  C7  UNL d   1       1.419  -0.239  -0.622  0.00  0.00     0.002 A 
ENDROOT
BRANCH   1   7
ATOM      7  C1  UNL d   1       2.794  -2.288  -1.153  0.00  0.00     0.055 C 
ATOM      8  C   UNL d   1       3.184  -2.564  -2.598  0.00  0.00     0.019 C 
ENDBRANCH   1   7
TORSDOF 1
ENDMDL
