MODEL 1
REMARK minimizedAffinity 1.09619021
REMARK minimizedRMSD -1
REMARK  1 active torsions:
REMARK  status: ('A' for Active; 'I' for Inactive)
REMARK    1  A    between atoms: C1_2  and  C2_3 
ROOT
ATOM      1  C2  UNL d   1       0.273  -0.397  -0.961  0.00  0.00    -0.077 A 
ATOM      2  C3  UNL d   1      -0.959  -0.930  -1.369  0.00  0.00     0.002 A 
ATOM      3  C4  UNL d   1      -1.197  -2.303  -1.285  0.00  0.00     0.002 A 
ATOM      4  C5  UNL d   1      -0.211  -3.154  -0.789  0.00  0.00    -0.004 A 
ATOM      5  C6  UNL d   1       1.017  -2.634  -0.383  0.00  0.00     0.002 A 
ATOM      6  C7  UNL d   1       1.258  -1.262  -0.467  0.00  0.00     0.002 A 
ENDROOT
BRANCH   1   7
ATOM      7  C1  UNL d   1       0.514   1.089  -1.004  0.00  0.00     0.055 C 
ATOM      8  C   UNL d   1       1.748   1.473  -0.202  0.00  0.00     0.019 C 
ENDBRANCH   1   7
TORSDOF 1
ENDMDL
