MODEL 1
REMARK minimizedAffinity 27.2781277
REMARK minimizedRMSD -1
REMARK  0 active torsions:
REMARK  status: ('A' for Active; 'I' for Inactive)
ROOT
ATOM      1  C   UNL d   1      -4.690  -1.787   2.996  0.00  0.00     0.124 A 
ATOM      2  C1  UNL d   1      -4.779  -0.431   2.715  0.00  0.00     0.062 A 
ATOM      3  C2  UNL d   1      -4.151   0.498   3.540  0.00  0.00     0.162 A 
ATOM      4  C3  UNL d   1      -3.427   0.073   4.654  0.00  0.00    -0.034 A 
ATOM      5  C4  UNL d   1      -3.342  -1.292   4.931  0.00  0.00     0.162 A 
ATOM      6  C5  UNL d   1      -3.972  -2.217   4.103  0.00  0.00     0.062 A 
ATOM      7  F   UNL d   1      -3.884  -3.526   4.376  0.00  0.00    -0.097 F 
ATOM      8  F1  UNL d   1      -2.654  -1.735   5.994  0.00  0.00    -0.096 F 
ATOM      9  I   UNL d   1      -2.487   1.459   5.890  0.00  0.00    -0.060 I 
ATOM     10  F2  UNL d   1      -4.254   1.802   3.244  0.00  0.00    -0.096 F 
ATOM     11  F3  UNL d   1      -5.473  -0.014   1.646  0.00  0.00    -0.097 F 
ATOM     12  F4  UNL d   1      -5.295  -2.679   2.201  0.00  0.00    -0.092 F 
ENDROOT
TORSDOF 0
ENDMDL
