MODEL 1
REMARK minimizedAffinity 23.8805199
REMARK minimizedRMSD -1
REMARK  0 active torsions:
REMARK  status: ('A' for Active; 'I' for Inactive)
ROOT
ATOM      1  C   UNL d   1      -4.122  -0.895   2.432  0.00  0.00     0.124 A 
ATOM      2  C1  UNL d   1      -3.765   0.410   2.119  0.00  0.00     0.062 A 
ATOM      3  C2  UNL d   1      -3.312   1.270   3.115  0.00  0.00     0.162 A 
ATOM      4  C3  UNL d   1      -3.212   0.827   4.434  0.00  0.00    -0.034 A 
ATOM      5  C4  UNL d   1      -3.573  -0.486   4.741  0.00  0.00     0.162 A 
ATOM      6  C5  UNL d   1      -4.025  -1.341   3.742  0.00  0.00     0.062 A 
ATOM      7  F   UNL d   1      -4.369  -2.601   4.046  0.00  0.00    -0.097 F 
ATOM      8  F1  UNL d   1      -3.488  -0.943   5.999  0.00  0.00    -0.096 F 
ATOM      9  I   UNL d   1      -2.534   2.110   5.927  0.00  0.00    -0.060 I 
ATOM     10  F2  UNL d   1      -2.974   2.525   2.784  0.00  0.00    -0.096 F 
ATOM     11  F3  UNL d   1      -3.858   0.844   0.854  0.00  0.00    -0.097 F 
ATOM     12  F4  UNL d   1      -4.558  -1.720   1.471  0.00  0.00    -0.092 F 
ENDROOT
TORSDOF 0
ENDMDL
