MODEL 1
REMARK minimizedAffinity 21.522974
REMARK minimizedRMSD -1
REMARK  0 active torsions:
REMARK  status: ('A' for Active; 'I' for Inactive)
ROOT
ATOM      1  C   UNL d   1      -3.135   0.093   4.040  0.00  0.00     0.124 A 
ATOM      2  C1  UNL d   1      -3.703  -0.992   4.694  0.00  0.00     0.062 A 
ATOM      3  C2  UNL d   1      -4.521  -1.878   3.999  0.00  0.00     0.162 A 
ATOM      4  C3  UNL d   1      -4.776  -1.683   2.642  0.00  0.00    -0.034 A 
ATOM      5  C4  UNL d   1      -4.202  -0.589   1.992  0.00  0.00     0.162 A 
ATOM      6  C5  UNL d   1      -3.385   0.293   2.690  0.00  0.00     0.062 A 
ATOM      7  F   UNL d   1      -2.837   1.341   2.057  0.00  0.00    -0.097 F 
ATOM      8  F1  UNL d   1      -4.427  -0.372   0.687  0.00  0.00    -0.096 F 
ATOM      9  I   UNL d   1      -6.000  -3.005   1.600  0.00  0.00    -0.060 I 
ATOM     10  F2  UNL d   1      -5.057  -2.917   4.657  0.00  0.00    -0.096 F 
ATOM     11  F3  UNL d   1      -3.463  -1.187   5.999  0.00  0.00    -0.097 F 
ATOM     12  F4  UNL d   1      -2.348   0.944   4.712  0.00  0.00    -0.092 F 
ENDROOT
TORSDOF 0
ENDMDL
