MODEL 1
REMARK minimizedAffinity 34.5951843
REMARK minimizedRMSD -1
REMARK  0 active torsions:
REMARK  status: ('A' for Active; 'I' for Inactive)
ROOT
ATOM      1  C   UNL d   1      -4.508   2.462   4.134  0.00  0.00     0.124 A 
ATOM      2  C1  UNL d   1      -3.649   1.916   5.078  0.00  0.00     0.062 A 
ATOM      3  C2  UNL d   1      -3.384   0.550   5.076  0.00  0.00     0.162 A 
ATOM      4  C3  UNL d   1      -3.978  -0.281   4.126  0.00  0.00    -0.034 A 
ATOM      5  C4  UNL d   1      -4.842   0.275   3.181  0.00  0.00     0.162 A 
ATOM      6  C5  UNL d   1      -5.104   1.641   3.187  0.00  0.00     0.062 A 
ATOM      7  F   UNL d   1      -5.934   2.167   2.274  0.00  0.00    -0.097 F 
ATOM      8  F1  UNL d   1      -5.430  -0.495   2.253  0.00  0.00    -0.096 F 
ATOM      9  I   UNL d   1      -3.585  -2.325   4.120  0.00  0.00    -0.060 I 
ATOM     10  F2  UNL d   1      -2.550   0.050   6.000  0.00  0.00    -0.096 F 
ATOM     11  F3  UNL d   1      -3.073   2.707   5.995  0.00  0.00    -0.097 F 
ATOM     12  F4  UNL d   1      -4.762   3.777   4.139  0.00  0.00    -0.092 F 
ENDROOT
TORSDOF 0
ENDMDL
