MODEL 1
REMARK minimizedAffinity 13.6290302
REMARK minimizedRMSD -1
REMARK  0 active torsions:
REMARK  status: ('A' for Active; 'I' for Inactive)
ROOT
ATOM      1  C   UNL d   1       1.956  -4.360  -1.689  0.00  0.00     0.124 A 
ATOM      2  C1  UNL d   1       2.897  -4.080  -0.708  0.00  0.00     0.062 A 
ATOM      3  C2  UNL d   1       3.150  -2.763  -0.337  0.00  0.00     0.162 A 
ATOM      4  C3  UNL d   1       2.460  -1.715  -0.946  0.00  0.00    -0.034 A 
ATOM      5  C4  UNL d   1       1.516  -2.004  -1.932  0.00  0.00     0.162 A 
ATOM      6  C5  UNL d   1       1.266  -3.323  -2.300  0.00  0.00     0.062 A 
ATOM      7  F   UNL d   1       0.357  -3.591  -3.248  0.00  0.00    -0.097 F 
ATOM      8  F1  UNL d   1       0.834  -1.021  -2.539  0.00  0.00    -0.096 F 
ATOM      9  I   UNL d   1       2.835   0.257  -0.393  0.00  0.00    -0.060 I 
ATOM     10  F2  UNL d   1       4.065  -2.521   0.614  0.00  0.00    -0.096 F 
ATOM     11  F3  UNL d   1       3.565  -5.081  -0.117  0.00  0.00    -0.097 F 
ATOM     12  F4  UNL d   1       1.715  -5.628  -2.045  0.00  0.00    -0.092 F 
ENDROOT
TORSDOF 0
ENDMDL
