MODEL 1
REMARK minimizedAffinity 15.9645653
REMARK minimizedRMSD -1
REMARK  0 active torsions:
REMARK  status: ('A' for Active; 'I' for Inactive)
ROOT
ATOM      1  C   UNL d   1       1.185  -4.382  -1.781  0.00  0.00     0.124 A 
ATOM      2  C1  UNL d   1       2.194  -4.245  -0.838  0.00  0.00     0.062 A 
ATOM      3  C2  UNL d   1       2.662  -2.981  -0.492  0.00  0.00     0.162 A 
ATOM      4  C3  UNL d   1       2.120  -1.842  -1.089  0.00  0.00    -0.034 A 
ATOM      5  C4  UNL d   1       1.106  -1.988  -2.037  0.00  0.00     0.162 A 
ATOM      6  C5  UNL d   1       0.642  -3.253  -2.379  0.00  0.00     0.062 A 
ATOM      7  F   UNL d   1      -0.333  -3.384  -3.291  0.00  0.00    -0.097 F 
ATOM      8  F1  UNL d   1       0.563  -0.914  -2.630  0.00  0.00    -0.096 F 
ATOM      9  I   UNL d   1       2.817   0.050  -0.574  0.00  0.00    -0.060 I 
ATOM     10  F2  UNL d   1       3.638  -2.879   0.422  0.00  0.00    -0.096 F 
ATOM     11  F3  UNL d   1       2.720  -5.334  -0.259  0.00  0.00    -0.097 F 
ATOM     12  F4  UNL d   1       0.737  -5.600  -2.113  0.00  0.00    -0.092 F 
ENDROOT
TORSDOF 0
ENDMDL
