MODEL 1
REMARK minimizedAffinity 10.4029436
REMARK minimizedRMSD -1
REMARK  0 active torsions:
REMARK  status: ('A' for Active; 'I' for Inactive)
ROOT
ATOM      1  C   UNL d   1       1.928  -4.160  -1.640  0.00  0.00     0.124 A 
ATOM      2  C1  UNL d   1       1.455  -3.043  -2.315  0.00  0.00     0.062 A 
ATOM      3  C2  UNL d   1       1.947  -1.779  -2.007  0.00  0.00     0.162 A 
ATOM      4  C3  UNL d   1       2.920  -1.624  -1.019  0.00  0.00    -0.034 A 
ATOM      5  C4  UNL d   1       3.391  -2.752  -0.344  0.00  0.00     0.162 A 
ATOM      6  C5  UNL d   1       2.895  -4.013  -0.656  0.00  0.00     0.062 A 
ATOM      7  F   UNL d   1       3.353  -5.091  -0.003  0.00  0.00    -0.097 F 
ATOM      8  F1  UNL d   1       4.326  -2.639   0.610  0.00  0.00    -0.096 F 
ATOM      9  I   UNL d   1       3.660   0.266  -0.556  0.00  0.00    -0.060 I 
ATOM     10  F2  UNL d   1       1.472  -0.717  -2.675  0.00  0.00    -0.096 F 
ATOM     11  F3  UNL d   1       0.519  -3.182  -3.266  0.00  0.00    -0.097 F 
ATOM     12  F4  UNL d   1       1.451  -5.376  -1.938  0.00  0.00    -0.092 F 
ENDROOT
TORSDOF 0
ENDMDL
