MODEL 1
REMARK minimizedAffinity 24.8223438
REMARK minimizedRMSD -1
REMARK  0 active torsions:
REMARK  status: ('A' for Active; 'I' for Inactive)
ROOT
ATOM      1  C   UNL d   1       1.162  -1.751  -1.748  0.00  0.00     0.124 A 
ATOM      2  C1  UNL d   1       2.241  -1.570  -0.893  0.00  0.00     0.062 A 
ATOM      3  C2  UNL d   1       2.940  -2.670  -0.406  0.00  0.00     0.162 A 
ATOM      4  C3  UNL d   1       2.564  -3.962  -0.773  0.00  0.00    -0.034 A 
ATOM      5  C4  UNL d   1       1.477  -4.136  -1.632  0.00  0.00     0.162 A 
ATOM      6  C5  UNL d   1       0.781  -3.033  -2.116  0.00  0.00     0.062 A 
ATOM      7  F   UNL d   1      -0.261  -3.210  -2.941  0.00  0.00    -0.097 F 
ATOM      8  F1  UNL d   1       1.088  -5.365  -2.005  0.00  0.00    -0.096 F 
ATOM      9  I   UNL d   1       3.607  -5.610  -0.047  0.00  0.00    -0.060 I 
ATOM     10  F2  UNL d   1       3.979  -2.466   0.418  0.00  0.00    -0.096 F 
ATOM     11  F3  UNL d   1       2.610  -0.332  -0.535  0.00  0.00    -0.097 F 
ATOM     12  F4  UNL d   1       0.490  -0.690  -2.214  0.00  0.00    -0.092 F 
ENDROOT
TORSDOF 0
ENDMDL
