MODEL 1
REMARK minimizedAffinity 20.501194
REMARK minimizedRMSD -1
REMARK  0 active torsions:
REMARK  status: ('A' for Active; 'I' for Inactive)
ROOT
ATOM      1  C   UNL d   1       1.812  -3.939  -1.455  0.00  0.00     0.124 A 
ATOM      2  C1  UNL d   1       2.757  -3.831  -0.444  0.00  0.00     0.062 A 
ATOM      3  C2  UNL d   1       3.149  -2.578   0.017  0.00  0.00     0.162 A 
ATOM      4  C3  UNL d   1       2.596  -1.421  -0.532  0.00  0.00    -0.034 A 
ATOM      5  C4  UNL d   1       1.646  -1.537  -1.549  0.00  0.00     0.162 A 
ATOM      6  C5  UNL d   1       1.258  -2.792  -2.006  0.00  0.00     0.062 A 
ATOM      7  F   UNL d   1       0.345  -2.894  -2.983  0.00  0.00    -0.097 F 
ATOM      8  F1  UNL d   1       1.094  -0.446  -2.099  0.00  0.00    -0.096 F 
ATOM      9  I   UNL d   1       3.179   0.455   0.155  0.00  0.00    -0.060 I 
ATOM     10  F2  UNL d   1       4.064  -2.503   0.995  0.00  0.00    -0.096 F 
ATOM     11  F3  UNL d   1       3.295  -4.937   0.090  0.00  0.00    -0.097 F 
ATOM     12  F4  UNL d   1       1.438  -5.146  -1.897  0.00  0.00    -0.092 F 
ENDROOT
TORSDOF 0
ENDMDL
