MODEL 1
REMARK minimizedAffinity 30.4374275
REMARK minimizedRMSD -1
REMARK  0 active torsions:
REMARK  status: ('A' for Active; 'I' for Inactive)
ROOT
ATOM      1  C   UNL d   1       3.591   0.144  -0.461  0.00  0.00     0.124 A 
ATOM      2  C1  UNL d   1       2.713   0.604  -1.432  0.00  0.00     0.062 A 
ATOM      3  C2  UNL d   1       1.775  -0.259  -1.993  0.00  0.00     0.162 A 
ATOM      4  C3  UNL d   1       1.711  -1.591  -1.583  0.00  0.00    -0.034 A 
ATOM      5  C4  UNL d   1       2.598  -2.046  -0.606  0.00  0.00     0.162 A 
ATOM      6  C5  UNL d   1       3.533  -1.180  -0.049  0.00  0.00     0.062 A 
ATOM      7  F   UNL d   1       4.381  -1.625   0.890  0.00  0.00    -0.097 F 
ATOM      8  F1  UNL d   1       2.563  -3.320  -0.188  0.00  0.00    -0.096 F 
ATOM      9  I   UNL d   1       0.311  -2.884  -2.419  0.00  0.00    -0.060 I 
ATOM     10  F2  UNL d   1       0.939   0.212  -2.930  0.00  0.00    -0.096 F 
ATOM     11  F3  UNL d   1       2.767   1.882  -1.833  0.00  0.00    -0.097 F 
ATOM     12  F4  UNL d   1       4.492   0.976   0.076  0.00  0.00    -0.092 F 
ENDROOT
TORSDOF 0
ENDMDL
