MODEL 1
REMARK minimizedAffinity 32.4549675
REMARK minimizedRMSD -1
REMARK  0 active torsions:
REMARK  status: ('A' for Active; 'I' for Inactive)
ROOT
ATOM      1  C   UNL d   1      -0.067   3.808  -3.395  0.00  0.00     0.124 A 
ATOM      2  C1  UNL d   1      -0.937   4.868  -3.186  0.00  0.00     0.062 A 
ATOM      3  C2  UNL d   1      -2.114   4.964  -3.922  0.00  0.00     0.162 A 
ATOM      4  C3  UNL d   1      -2.429   3.996  -4.876  0.00  0.00    -0.034 A 
ATOM      5  C4  UNL d   1      -1.548   2.932  -5.082  0.00  0.00     0.162 A 
ATOM      6  C5  UNL d   1      -0.373   2.841  -4.343  0.00  0.00     0.062 A 
ATOM      7  F   UNL d   1       0.467   1.816  -4.547  0.00  0.00    -0.097 F 
ATOM      8  F1  UNL d   1      -1.819   1.984  -5.990  0.00  0.00    -0.096 F 
ATOM      9  I   UNL d   1      -4.187   4.135  -5.979  0.00  0.00    -0.060 I 
ATOM     10  F2  UNL d   1      -2.937   6.000  -3.699  0.00  0.00    -0.096 F 
ATOM     11  F3  UNL d   1      -0.643   5.804  -2.271  0.00  0.00    -0.097 F 
ATOM     12  F4  UNL d   1       1.065   3.719  -2.686  0.00  0.00    -0.092 F 
ENDROOT
TORSDOF 0
ENDMDL
