MODEL 1
REMARK minimizedAffinity 32.827095
REMARK minimizedRMSD -1
REMARK  0 active torsions:
REMARK  status: ('A' for Active; 'I' for Inactive)
ROOT
ATOM      1  C   UNL d   1      -2.236   0.520   2.026  0.00  0.00     0.124 A 
ATOM      2  C1  UNL d   1      -0.854   0.602   2.123  0.00  0.00     0.062 A 
ATOM      3  C2  UNL d   1      -0.263   1.152   3.257  0.00  0.00     0.162 A 
ATOM      4  C3  UNL d   1      -1.054   1.626   4.304  0.00  0.00    -0.034 A 
ATOM      5  C4  UNL d   1      -2.444   1.542   4.198  0.00  0.00     0.162 A 
ATOM      6  C5  UNL d   1      -3.030   0.990   3.063  0.00  0.00     0.062 A 
ATOM      7  F   UNL d   1      -4.365   0.913   2.971  0.00  0.00    -0.097 F 
ATOM      8  F1  UNL d   1      -3.234   1.987   5.186  0.00  0.00    -0.096 F 
ATOM      9  I   UNL d   1      -0.175   2.450   6.000  0.00  0.00    -0.060 I 
ATOM     10  F2  UNL d   1       1.075   1.218   3.323  0.00  0.00    -0.096 F 
ATOM     11  F3  UNL d   1      -0.086   0.149   1.122  0.00  0.00    -0.097 F 
ATOM     12  F4  UNL d   1      -2.803  -0.009   0.934  0.00  0.00    -0.092 F 
ENDROOT
TORSDOF 0
ENDMDL
