MODEL 1
REMARK minimizedAffinity 17.8383369
REMARK minimizedRMSD -1
REMARK  0 active torsions:
REMARK  status: ('A' for Active; 'I' for Inactive)
ROOT
ATOM      1  C   UNL d   1       1.628  -2.988  -1.092  0.00  0.00     0.124 A 
ATOM      2  C1  UNL d   1       2.662  -3.033  -0.166  0.00  0.00     0.062 A 
ATOM      3  C2  UNL d   1       3.411  -1.891   0.102  0.00  0.00     0.162 A 
ATOM      4  C3  UNL d   1       3.129  -0.693  -0.556  0.00  0.00    -0.034 A 
ATOM      5  C4  UNL d   1       2.089  -0.657  -1.486  0.00  0.00     0.162 A 
ATOM      6  C5  UNL d   1       1.343  -1.801  -1.750  0.00  0.00     0.062 A 
ATOM      7  F   UNL d   1       0.345  -1.756  -2.645  0.00  0.00    -0.097 F 
ATOM      8  F1  UNL d   1       1.791   0.478  -2.137  0.00  0.00    -0.096 F 
ATOM      9  I   UNL d   1       4.248   1.016  -0.158  0.00  0.00    -0.060 I 
ATOM     10  F2  UNL d   1       4.404  -1.963   1.001  0.00  0.00    -0.096 F 
ATOM     11  F3  UNL d   1       2.940  -4.179   0.471  0.00  0.00    -0.097 F 
ATOM     12  F4  UNL d   1       0.910  -4.088  -1.348  0.00  0.00    -0.092 F 
ENDROOT
TORSDOF 0
ENDMDL
