MODEL 1
REMARK minimizedAffinity 26.3409729
REMARK minimizedRMSD -1
REMARK  0 active torsions:
REMARK  status: ('A' for Active; 'I' for Inactive)
ROOT
ATOM      1  C   UNL d   1      -5.357  -2.657   3.742  0.00  0.00     0.124 A 
ATOM      2  C1  UNL d   1      -4.689  -2.153   4.849  0.00  0.00     0.062 A 
ATOM      3  C2  UNL d   1      -4.020  -0.935   4.769  0.00  0.00     0.162 A 
ATOM      4  C3  UNL d   1      -4.016  -0.212   3.576  0.00  0.00    -0.034 A 
ATOM      5  C4  UNL d   1      -4.689  -0.726   2.466  0.00  0.00     0.162 A 
ATOM      6  C5  UNL d   1      -5.356  -1.943   2.551  0.00  0.00     0.062 A 
ATOM      7  F   UNL d   1      -6.000  -2.429   1.480  0.00  0.00    -0.097 F 
ATOM      8  F1  UNL d   1      -4.705  -0.056   1.304  0.00  0.00    -0.096 F 
ATOM      9  I   UNL d   1      -3.017   1.610   3.452  0.00  0.00    -0.060 I 
ATOM     10  F2  UNL d   1      -3.384  -0.472   5.855  0.00  0.00    -0.096 F 
ATOM     11  F3  UNL d   1      -4.688  -2.841   6.000  0.00  0.00    -0.097 F 
ATOM     12  F4  UNL d   1      -5.999  -3.830   3.821  0.00  0.00    -0.092 F 
ENDROOT
TORSDOF 0
ENDMDL
