MODEL 1
REMARK minimizedAffinity -2.66217828
REMARK minimizedRMSD -1
REMARK  0 active torsions:
REMARK  status: ('A' for Active; 'I' for Inactive)
ROOT
ATOM      1  C   UNL d   1      -4.412  -0.996  -5.880  0.00  0.00     0.020 A 
ATOM      2  C1  UNL d   1      -3.047  -0.754  -5.737  0.00  0.00     0.020 A 
ATOM      3  C2  UNL d   1      -2.573   0.559  -5.672  0.00  0.00     0.034 A 
ATOM      4  C3  UNL d   1      -3.466   1.634  -5.751  0.00  0.00     0.017 A 
ATOM      5  C4  UNL d   1      -4.837   1.389  -5.895  0.00  0.00     0.017 A 
ATOM      6  C5  UNL d   1      -5.305   0.074  -5.960  0.00  0.00     0.034 A 
ATOM      7 Cl   UNL d   1      -5.999   2.664  -6.000  0.00  0.00    -0.070 Cl
ATOM      8 Cl1  UNL d   1      -2.811   3.230  -5.664  0.00  0.00    -0.070 Cl
ENDROOT
TORSDOF 0
ENDMDL
