MODEL 1
REMARK minimizedAffinity 5.56572866
REMARK minimizedRMSD -1
REMARK  0 active torsions:
REMARK  status: ('A' for Active; 'I' for Inactive)
ROOT
ATOM      1  C   UNL d   1      -4.346   3.335  -6.000  0.00  0.00     0.020 A 
ATOM      2  C1  UNL d   1      -3.029   3.732  -5.775  0.00  0.00     0.020 A 
ATOM      3  C2  UNL d   1      -2.039   2.774  -5.550  0.00  0.00     0.034 A 
ATOM      4  C3  UNL d   1      -2.364   1.413  -5.548  0.00  0.00     0.017 A 
ATOM      5  C4  UNL d   1      -3.687   1.014  -5.774  0.00  0.00     0.017 A 
ATOM      6  C5  UNL d   1      -4.674   1.978  -5.999  0.00  0.00     0.034 A 
ATOM      7 Cl   UNL d   1      -4.165  -0.647  -5.788  0.00  0.00    -0.070 Cl
ATOM      8 Cl1  UNL d   1      -1.089   0.282  -5.263  0.00  0.00    -0.070 Cl
ENDROOT
TORSDOF 0
ENDMDL
