MODEL 1
REMARK minimizedAffinity 1.37534988
REMARK minimizedRMSD -1
REMARK  0 active torsions:
REMARK  status: ('A' for Active; 'I' for Inactive)
ROOT
ATOM      1  C   UNL d   1      -3.698   4.329  -5.992  0.00  0.00     0.020 A 
ATOM      2  C1  UNL d   1      -5.055   4.007  -5.998  0.00  0.00     0.020 A 
ATOM      3  C2  UNL d   1      -5.455   2.669  -6.000  0.00  0.00     0.034 A 
ATOM      4  C3  UNL d   1      -4.497   1.648  -5.996  0.00  0.00     0.017 A 
ATOM      5  C4  UNL d   1      -3.136   1.972  -5.990  0.00  0.00     0.017 A 
ATOM      6  C5  UNL d   1      -2.741   3.313  -5.988  0.00  0.00     0.034 A 
ATOM      7 Cl   UNL d   1      -1.896   0.768  -5.985  0.00  0.00    -0.070 Cl
ATOM      8 Cl1  UNL d   1      -5.063   0.015  -5.999  0.00  0.00    -0.070 Cl
ENDROOT
TORSDOF 0
ENDMDL
