MODEL 1
REMARK minimizedAffinity -2.00006437
REMARK minimizedRMSD -1
REMARK  0 active torsions:
REMARK  status: ('A' for Active; 'I' for Inactive)
ROOT
ATOM      1  C   UNL d   1      -4.241   4.199  -5.872  0.00  0.00     0.020 A 
ATOM      2  C1  UNL d   1      -5.559   3.765  -5.999  0.00  0.00     0.020 A 
ATOM      3  C2  UNL d   1      -5.849   2.399  -5.991  0.00  0.00     0.034 A 
ATOM      4  C3  UNL d   1      -4.818   1.462  -5.856  0.00  0.00     0.017 A 
ATOM      5  C4  UNL d   1      -3.494   1.899  -5.727  0.00  0.00     0.017 A 
ATOM      6  C5  UNL d   1      -3.210   3.268  -5.736  0.00  0.00     0.034 A 
ATOM      7 Cl   UNL d   1      -2.169   0.802  -5.556  0.00  0.00    -0.070 Cl
ATOM      8 Cl1  UNL d   1      -5.248  -0.211  -5.853  0.00  0.00    -0.070 Cl
ENDROOT
TORSDOF 0
ENDMDL
