MODEL 1
REMARK minimizedAffinity -1.66562521
REMARK minimizedRMSD -1
REMARK  0 active torsions:
REMARK  status: ('A' for Active; 'I' for Inactive)
ROOT
ATOM      1  C   UNL d   1      -3.793   3.275  -5.995  0.00  0.00     0.020 A 
ATOM      2  C1  UNL d   1      -5.162   3.010  -5.997  0.00  0.00     0.020 A 
ATOM      3  C2  UNL d   1      -5.617   1.689  -5.999  0.00  0.00     0.034 A 
ATOM      4  C3  UNL d   1      -4.702   0.630  -5.998  0.00  0.00     0.017 A 
ATOM      5  C4  UNL d   1      -3.329   0.897  -5.996  0.00  0.00     0.017 A 
ATOM      6  C5  UNL d   1      -2.878   2.221  -5.994  0.00  0.00     0.034 A 
ATOM      7 Cl   UNL d   1      -2.140  -0.358  -5.995  0.00  0.00    -0.070 Cl
ATOM      8 Cl1  UNL d   1      -5.336  -0.978  -6.000  0.00  0.00    -0.070 Cl
ENDROOT
TORSDOF 0
ENDMDL
