MODEL 1
REMARK minimizedAffinity -2.09789014
REMARK minimizedRMSD -1
REMARK  0 active torsions:
REMARK  status: ('A' for Active; 'I' for Inactive)
ROOT
ATOM      1  C   UNL d   1      -2.979  -0.814  -5.471  0.00  0.00     0.020 A 
ATOM      2  C1  UNL d   1      -4.336  -1.096  -5.623  0.00  0.00     0.020 A 
ATOM      3  C2  UNL d   1      -5.252  -0.054  -5.785  0.00  0.00     0.034 A 
ATOM      4  C3  UNL d   1      -4.812   1.275  -5.795  0.00  0.00     0.017 A 
ATOM      5  C4  UNL d   1      -3.450   1.557  -5.642  0.00  0.00     0.017 A 
ATOM      6  C5  UNL d   1      -2.537   0.510  -5.480  0.00  0.00     0.034 A 
ATOM      7 Cl   UNL d   1      -2.831   3.171  -5.643  0.00  0.00    -0.070 Cl
ATOM      8 Cl1  UNL d   1      -6.000   2.513  -6.000  0.00  0.00    -0.070 Cl
ENDROOT
TORSDOF 0
ENDMDL
