MODEL 1
REMARK minimizedAffinity -0.889243245
REMARK minimizedRMSD -1
REMARK  0 active torsions:
REMARK  status: ('A' for Active; 'I' for Inactive)
ROOT
ATOM      1  C   UNL d   1      -4.356   0.007  -5.978  0.00  0.00     0.020 A 
ATOM      2  C1  UNL d   1      -2.987   0.269  -5.977  0.00  0.00     0.020 A 
ATOM      3  C2  UNL d   1      -2.528   1.588  -5.980  0.00  0.00     0.034 A 
ATOM      4  C3  UNL d   1      -3.440   2.650  -5.986  0.00  0.00     0.017 A 
ATOM      5  C4  UNL d   1      -4.814   2.386  -5.987  0.00  0.00     0.017 A 
ATOM      6  C5  UNL d   1      -5.268   1.063  -5.984  0.00  0.00     0.034 A 
ATOM      7 Cl   UNL d   1      -6.000   3.644  -5.994  0.00  0.00    -0.070 Cl
ATOM      8 Cl1  UNL d   1      -2.802   4.256  -5.990  0.00  0.00    -0.070 Cl
ENDROOT
TORSDOF 0
ENDMDL
