MODEL 1
REMARK minimizedAffinity 0.557574749
REMARK minimizedRMSD -1
REMARK  0 active torsions:
REMARK  status: ('A' for Active; 'I' for Inactive)
ROOT
ATOM      1  C   UNL d   1      -4.219   4.008  -5.952  0.00  0.00     0.020 A 
ATOM      2  C1  UNL d   1      -5.579   3.702  -5.950  0.00  0.00     0.020 A 
ATOM      3  C2  UNL d   1      -5.995   2.369  -5.964  0.00  0.00     0.034 A 
ATOM      4  C3  UNL d   1      -5.050   1.337  -5.979  0.00  0.00     0.017 A 
ATOM      5  C4  UNL d   1      -3.685   1.645  -5.981  0.00  0.00     0.017 A 
ATOM      6  C5  UNL d   1      -3.274   2.981  -5.967  0.00  0.00     0.034 A 
ATOM      7 Cl   UNL d   1      -2.460   0.426  -5.999  0.00  0.00    -0.070 Cl
ATOM      8 Cl1  UNL d   1      -5.636  -0.288  -5.995  0.00  0.00    -0.070 Cl
ENDROOT
TORSDOF 0
ENDMDL
