MODEL 1
REMARK minimizedAffinity -1.44928014
REMARK minimizedRMSD -1
REMARK  0 active torsions:
REMARK  status: ('A' for Active; 'I' for Inactive)
ROOT
ATOM      1  C   UNL d   1      -3.771   4.522  -5.999  0.00  0.00     0.020 A 
ATOM      2  C1  UNL d   1      -5.136   4.236  -6.000  0.00  0.00     0.020 A 
ATOM      3  C2  UNL d   1      -5.571   2.909  -6.000  0.00  0.00     0.034 A 
ATOM      4  C3  UNL d   1      -4.641   1.863  -6.000  0.00  0.00     0.017 A 
ATOM      5  C4  UNL d   1      -3.271   2.151  -5.999  0.00  0.00     0.017 A 
ATOM      6  C5  UNL d   1      -2.841   3.482  -5.999  0.00  0.00     0.034 A 
ATOM      7 Cl   UNL d   1      -2.064   0.915  -5.999  0.00  0.00    -0.070 Cl
ATOM      8 Cl1  UNL d   1      -5.250   0.246  -6.000  0.00  0.00    -0.070 Cl
ENDROOT
TORSDOF 0
ENDMDL
