MODEL 1
REMARK minimizedAffinity -1.80260599
REMARK minimizedRMSD -1
REMARK  0 active torsions:
REMARK  status: ('A' for Active; 'I' for Inactive)
ROOT
ATOM      1  C   UNL d   1      -3.362   1.382  -6.000  0.00  0.00     0.020 A 
ATOM      2  C1  UNL d   1      -4.751   1.267  -5.998  0.00  0.00     0.020 A 
ATOM      3  C2  UNL d   1      -5.547   2.414  -5.993  0.00  0.00     0.034 A 
ATOM      4  C3  UNL d   1      -4.955   3.682  -5.991  0.00  0.00     0.017 A 
ATOM      5  C4  UNL d   1      -3.560   3.797  -5.993  0.00  0.00     0.017 A 
ATOM      6  C5  UNL d   1      -2.768   2.645  -5.998  0.00  0.00     0.034 A 
ATOM      7 Cl   UNL d   1      -2.756   5.327  -5.991  0.00  0.00    -0.070 Cl
ATOM      8 Cl1  UNL d   1      -6.000   5.058  -5.986  0.00  0.00    -0.070 Cl
ENDROOT
TORSDOF 0
ENDMDL
