MODEL 1
REMARK minimizedAffinity -1.44920218
REMARK minimizedRMSD -1
REMARK  0 active torsions:
REMARK  status: ('A' for Active; 'I' for Inactive)
ROOT
ATOM      1  C   UNL d   1      -1.629   3.515  -5.991  0.00  0.00     0.020 A 
ATOM      2  C1  UNL d   1      -2.009   4.857  -5.992  0.00  0.00     0.020 A 
ATOM      3  C2  UNL d   1      -3.364   5.198  -5.995  0.00  0.00     0.034 A 
ATOM      4  C3  UNL d   1      -4.342   4.197  -5.996  0.00  0.00     0.017 A 
ATOM      5  C4  UNL d   1      -3.959   2.851  -5.995  0.00  0.00     0.017 A 
ATOM      6  C5  UNL d   1      -2.601   2.515  -5.992  0.00  0.00     0.034 A 
ATOM      7 Cl   UNL d   1      -5.108   1.560  -5.996  0.00  0.00    -0.070 Cl
ATOM      8 Cl1  UNL d   1      -5.997   4.692  -5.999  0.00  0.00    -0.070 Cl
ENDROOT
TORSDOF 0
ENDMDL
