MODEL 1
REMARK minimizedAffinity -1.08270919
REMARK minimizedRMSD -1
REMARK  0 active torsions:
REMARK  status: ('A' for Active; 'I' for Inactive)
ROOT
ATOM      1  C   UNL d   1      -4.284   3.394  -6.000  0.00  0.00     0.020 A 
ATOM      2  C1  UNL d   1      -5.425   2.591  -6.000  0.00  0.00     0.020 A 
ATOM      3  C2  UNL d   1      -5.300   1.201  -5.998  0.00  0.00     0.034 A 
ATOM      4  C3  UNL d   1      -4.032   0.608  -5.998  0.00  0.00     0.017 A 
ATOM      5  C4  UNL d   1      -2.888   1.414  -5.998  0.00  0.00     0.017 A 
ATOM      6  C5  UNL d   1      -3.019   2.806  -5.999  0.00  0.00     0.034 A 
ATOM      7 Cl   UNL d   1      -1.290   0.756  -5.997  0.00  0.00    -0.070 Cl
ATOM      8 Cl1  UNL d   1      -3.952  -1.118  -5.996  0.00  0.00    -0.070 Cl
ENDROOT
TORSDOF 0
ENDMDL
