MODEL 1
REMARK minimizedAffinity 0.381349623
REMARK minimizedRMSD -1
REMARK  0 active torsions:
REMARK  status: ('A' for Active; 'I' for Inactive)
ROOT
ATOM      1  C   UNL d   1      -5.218  -2.029  -4.997  0.00  0.00     0.020 A 
ATOM      2  C1  UNL d   1      -5.436  -3.057  -5.913  0.00  0.00     0.020 A 
ATOM      3  C2  UNL d   1      -4.533  -4.118  -5.999  0.00  0.00     0.034 A 
ATOM      4  C3  UNL d   1      -3.408  -4.154  -5.168  0.00  0.00     0.017 A 
ATOM      5  C4  UNL d   1      -3.190  -3.122  -4.248  0.00  0.00     0.017 A 
ATOM      6  C5  UNL d   1      -4.097  -2.061  -4.166  0.00  0.00     0.034 A 
ATOM      7 Cl   UNL d   1      -1.824  -3.097  -3.189  0.00  0.00    -0.070 Cl
ATOM      8 Cl1  UNL d   1      -2.333  -5.498  -5.328  0.00  0.00    -0.070 Cl
ENDROOT
TORSDOF 0
ENDMDL
