MODEL 1
REMARK minimizedAffinity 2.02120137
REMARK minimizedRMSD -1
REMARK  0 active torsions:
REMARK  status: ('A' for Active; 'I' for Inactive)
ROOT
ATOM      1  C   UNL d   1      -1.326   2.421  -6.000  0.00  0.00     0.020 A 
ATOM      2  C1  UNL d   1      -2.263   1.388  -6.000  0.00  0.00     0.020 A 
ATOM      3  C2  UNL d   1      -3.628   1.684  -6.000  0.00  0.00     0.034 A 
ATOM      4  C3  UNL d   1      -4.060   3.015  -5.999  0.00  0.00     0.017 A 
ATOM      5  C4  UNL d   1      -3.119   4.051  -6.000  0.00  0.00     0.017 A 
ATOM      6  C5  UNL d   1      -1.753   3.749  -6.000  0.00  0.00     0.034 A 
ATOM      7 Cl   UNL d   1      -3.575   5.718  -6.000  0.00  0.00    -0.070 Cl
ATOM      8 Cl1  UNL d   1      -5.763   3.307  -6.000  0.00  0.00    -0.070 Cl
ENDROOT
TORSDOF 0
ENDMDL
