MODEL 1
REMARK minimizedAffinity 0.807386756
REMARK minimizedRMSD -1
REMARK  0 active torsions:
REMARK  status: ('A' for Active; 'I' for Inactive)
ROOT
ATOM      1  C   UNL d   1      -4.006  -1.810  -5.875  0.00  0.00     0.020 A 
ATOM      2  C1  UNL d   1      -5.389  -1.988  -5.880  0.00  0.00     0.020 A 
ATOM      3  C2  UNL d   1      -5.926  -3.277  -5.916  0.00  0.00     0.034 A 
ATOM      4  C3  UNL d   1      -5.081  -4.392  -5.948  0.00  0.00     0.017 A 
ATOM      5  C4  UNL d   1      -3.693  -4.211  -5.943  0.00  0.00     0.017 A 
ATOM      6  C5  UNL d   1      -3.160  -2.919  -5.906  0.00  0.00     0.034 A 
ATOM      7 Cl   UNL d   1      -2.586  -5.538  -5.981  0.00  0.00    -0.070 Cl
ATOM      8 Cl1  UNL d   1      -5.814  -5.955  -5.992  0.00  0.00    -0.070 Cl
ENDROOT
TORSDOF 0
ENDMDL
