MODEL 1
REMARK minimizedAffinity -0.84991473
REMARK minimizedRMSD -1
REMARK  0 active torsions:
REMARK  status: ('A' for Active; 'I' for Inactive)
ROOT
ATOM      1  C   UNL d   1      -5.794  -3.795  -5.479  0.00  0.00     0.020 A 
ATOM      2  C1  UNL d   1      -5.620  -5.077  -6.000  0.00  0.00     0.020 A 
ATOM      3  C2  UNL d   1      -4.403  -5.740  -5.832  0.00  0.00     0.034 A 
ATOM      4  C3  UNL d   1      -3.354  -5.121  -5.142  0.00  0.00     0.017 A 
ATOM      5  C4  UNL d   1      -3.529  -3.834  -4.620  0.00  0.00     0.017 A 
ATOM      6  C5  UNL d   1      -4.750  -3.175  -4.791  0.00  0.00     0.034 A 
ATOM      7 Cl   UNL d   1      -2.281  -3.006  -3.758  0.00  0.00    -0.070 Cl
ATOM      8 Cl1  UNL d   1      -1.875  -5.999  -4.972  0.00  0.00    -0.070 Cl
ENDROOT
TORSDOF 0
ENDMDL
