MODEL 1
REMARK minimizedAffinity -3.30363512
REMARK minimizedRMSD -1
REMARK  1 active torsions:
REMARK  status: ('A' for Active; 'I' for Inactive)
REMARK    1  A    between atoms: C1_2  and  C2_3 
ROOT
ATOM      1  C2  UNL d   1      -0.212  -0.795  -0.572  0.00  0.00    -0.073 A 
ATOM      2  C3  UNL d   1      -0.936  -0.984   0.611  0.00  0.00    -0.002 A 
ATOM      3  C4  UNL d   1      -1.395   0.114   1.340  0.00  0.00     0.004 A 
ATOM      4  C5  UNL d   1      -1.143   1.410   0.890  0.00  0.00    -0.004 A 
ATOM      5  C6  UNL d   1      -0.432   1.619  -0.296  0.00  0.00    -0.075 A 
ATOM      6  C7  UNL d   1      -0.150   3.007  -0.792  0.00  0.00     0.076 C 
ATOM      7  C8  UNL d   1       0.029   0.512  -1.020  0.00  0.00     0.001 A 
ENDROOT
BRANCH   1   8
ATOM      8  C1  UNL d   1       0.281  -1.977  -1.365  0.00  0.00     0.053 C 
ATOM      9  C   UNL d   1      -0.849  -2.922  -1.741  0.00  0.00     0.018 C 
ENDBRANCH   1   8
TORSDOF 1
ENDMDL
