MODEL 1
REMARK minimizedAffinity -3.8008337
REMARK minimizedRMSD -1
REMARK  1 active torsions:
REMARK  status: ('A' for Active; 'I' for Inactive)
REMARK    1  A    between atoms: C1_2  and  C2_3 
ROOT
ATOM      1  C2  UNL d   1       0.062   0.961   0.344  0.00  0.00    -0.073 A 
ATOM      2  C3  UNL d   1      -0.411   2.254   0.595  0.00  0.00    -0.002 A 
ATOM      3  C4  UNL d   1       0.484   3.313   0.754  0.00  0.00     0.004 A 
ATOM      4  C5  UNL d   1       1.858   3.092   0.657  0.00  0.00    -0.004 A 
ATOM      5  C6  UNL d   1       2.349   1.809   0.395  0.00  0.00    -0.075 A 
ATOM      6  C7  UNL d   1       3.824   1.553   0.290  0.00  0.00     0.076 C 
ATOM      7  C8  UNL d   1       1.444   0.750   0.239  0.00  0.00     0.001 A 
ENDROOT
BRANCH   1   8
ATOM      8  C1  UNL d   1      -0.901  -0.184   0.165  0.00  0.00     0.053 C 
ATOM      9  C   UNL d   1      -0.183  -1.495  -0.114  0.00  0.00     0.018 C 
ENDBRANCH   1   8
TORSDOF 1
ENDMDL
