MODEL 1
REMARK minimizedAffinity -2.74648166
REMARK minimizedRMSD -1
REMARK  1 active torsions:
REMARK  status: ('A' for Active; 'I' for Inactive)
REMARK    1  A    between atoms: C1_2  and  C2_3 
ROOT
ATOM      1  C2  UNL d   1      -0.171   0.384   0.105  0.00  0.00    -0.073 A 
ATOM      2  C3  UNL d   1       0.708   0.985  -0.803  0.00  0.00    -0.002 A 
ATOM      3  C4  UNL d   1       1.067   2.325  -0.655  0.00  0.00     0.004 A 
ATOM      4  C5  UNL d   1       0.557   3.076   0.404  0.00  0.00    -0.004 A 
ATOM      5  C6  UNL d   1      -0.313   2.490   1.329  0.00  0.00    -0.075 A 
ATOM      6  C7  UNL d   1      -0.872   3.284   2.473  0.00  0.00     0.076 C 
ATOM      7  C8  UNL d   1      -0.671   1.144   1.172  0.00  0.00     0.001 A 
ENDROOT
BRANCH   1   8
ATOM      8  C1  UNL d   1      -0.556  -1.065  -0.046  0.00  0.00     0.053 C 
ATOM      9  C   UNL d   1      -0.105  -1.638  -1.380  0.00  0.00     0.018 C 
ENDBRANCH   1   8
TORSDOF 1
ENDMDL
