MODEL 1
REMARK minimizedAffinity 1.07705295
REMARK minimizedRMSD -1
REMARK  1 active torsions:
REMARK  status: ('A' for Active; 'I' for Inactive)
REMARK    1  A    between atoms: C1_2  and  C2_3 
ROOT
ATOM      1  C2  UNL d   1      -0.352  -1.102  -1.441  0.00  0.00    -0.073 A 
ATOM      2  C3  UNL d   1       0.514  -1.634  -2.403  0.00  0.00    -0.002 A 
ATOM      3  C4  UNL d   1       0.251  -2.878  -2.977  0.00  0.00     0.004 A 
ATOM      4  C5  UNL d   1      -0.883  -3.599  -2.601  0.00  0.00    -0.004 A 
ATOM      5  C6  UNL d   1      -1.766  -3.079  -1.650  0.00  0.00    -0.075 A 
ATOM      6  C7  UNL d   1      -2.988  -3.843  -1.233  0.00  0.00     0.076 C 
ATOM      7  C8  UNL d   1      -1.494  -1.830  -1.076  0.00  0.00     0.001 A 
ENDROOT
BRANCH   1   8
ATOM      8  C1  UNL d   1      -0.075   0.245  -0.823  0.00  0.00     0.053 C 
ATOM      9  C   UNL d   1      -0.193   0.211   0.693  0.00  0.00     0.018 C 
ENDBRANCH   1   8
TORSDOF 1
ENDMDL
