MODEL 1
REMARK minimizedAffinity -3.28904486
REMARK minimizedRMSD -1
REMARK  1 active torsions:
REMARK  status: ('A' for Active; 'I' for Inactive)
REMARK    1  A    between atoms: C1_2  and  C2_3 
ROOT
ATOM      1  C2  UNL d   1       0.214   1.222   0.134  0.00  0.00    -0.073 A 
ATOM      2  C3  UNL d   1       1.605   1.226   0.293  0.00  0.00    -0.002 A 
ATOM      3  C4  UNL d   1       2.300   0.025   0.440  0.00  0.00     0.004 A 
ATOM      4  C5  UNL d   1       1.615  -1.190   0.424  0.00  0.00    -0.004 A 
ATOM      5  C6  UNL d   1       0.227  -1.214   0.255  0.00  0.00    -0.075 A 
ATOM      6  C7  UNL d   1      -0.525  -2.513   0.238  0.00  0.00     0.076 C 
ATOM      7  C8  UNL d   1      -0.465  -0.004   0.110  0.00  0.00     0.001 A 
ENDROOT
BRANCH   1   8
ATOM      8  C1  UNL d   1      -0.541   2.516  -0.032  0.00  0.00     0.053 C 
ATOM      9  C   UNL d   1       0.303   3.721   0.350  0.00  0.00     0.018 C 
ENDBRANCH   1   8
TORSDOF 1
ENDMDL
