MODEL 1
REMARK minimizedAffinity 19.1012402
REMARK minimizedRMSD -1
REMARK  0 active torsions:
REMARK  status: ('A' for Active; 'I' for Inactive)
ROOT
ATOM      1  C   UNL d   1       0.955  -0.926   3.562  0.00  0.00     0.124 A 
ATOM      2  C1  UNL d   1      -0.060   0.020   3.592  0.00  0.00     0.062 A 
ATOM      3  C2  UNL d   1      -0.276   0.850   2.496  0.00  0.00     0.162 A 
ATOM      4  C3  UNL d   1       0.525   0.737   1.359  0.00  0.00    -0.034 A 
ATOM      5  C4  UNL d   1       1.544  -0.216   1.336  0.00  0.00     0.162 A 
ATOM      6  C5  UNL d   1       1.756  -1.043   2.435  0.00  0.00     0.062 A 
ATOM      7  F   UNL d   1       2.737  -1.957   2.404  0.00  0.00    -0.097 F 
ATOM      8  F1  UNL d   1       2.332  -0.352   0.259  0.00  0.00    -0.096 F 
ATOM      9  I   UNL d   1       0.205   1.976  -0.283  0.00  0.00    -0.060 I 
ATOM     10  F2  UNL d   1      -1.264   1.755   2.552  0.00  0.00    -0.096 F 
ATOM     11  F3  UNL d   1      -0.834   0.136   4.680  0.00  0.00    -0.097 F 
ATOM     12  F4  UNL d   1       1.161  -1.723   4.618  0.00  0.00    -0.092 F 
ENDROOT
TORSDOF 0
ENDMDL
