MODEL 1
REMARK minimizedAffinity 6.43076134
REMARK minimizedRMSD -1
REMARK  0 active torsions:
REMARK  status: ('A' for Active; 'I' for Inactive)
ROOT
ATOM      1  C   UNL d   1       3.222  -4.840  -2.422  0.00  0.00     0.124 A 
ATOM      2  C1  UNL d   1       3.969  -3.681  -2.577  0.00  0.00     0.062 A 
ATOM      3  C2  UNL d   1       3.662  -2.546  -1.832  0.00  0.00     0.162 A 
ATOM      4  C3  UNL d   1       2.602  -2.564  -0.925  0.00  0.00    -0.034 A 
ATOM      5  C4  UNL d   1       1.855  -3.734  -0.776  0.00  0.00     0.162 A 
ATOM      6  C5  UNL d   1       2.166  -4.866  -1.522  0.00  0.00     0.062 A 
ATOM      7  F   UNL d   1       1.443  -5.985  -1.372  0.00  0.00    -0.097 F 
ATOM      8  F1  UNL d   1       0.829  -3.787   0.087  0.00  0.00    -0.096 F 
ATOM      9  I   UNL d   1       2.140  -0.869   0.190  0.00  0.00    -0.060 I 
ATOM     10  F2  UNL d   1       4.401  -1.439  -2.002  0.00  0.00    -0.096 F 
ATOM     11  F3  UNL d   1       4.990  -3.653  -3.446  0.00  0.00    -0.097 F 
ATOM     12  F4  UNL d   1       3.519  -5.931  -3.140  0.00  0.00    -0.092 F 
ENDROOT
TORSDOF 0
ENDMDL
