MODEL 1
REMARK minimizedAffinity 15.7275915
REMARK minimizedRMSD -1
REMARK  0 active torsions:
REMARK  status: ('A' for Active; 'I' for Inactive)
ROOT
ATOM      1  C   UNL d   1      -0.574   4.870  -1.591  0.00  0.00     0.124 A 
ATOM      2  C1  UNL d   1      -1.882   4.869  -2.057  0.00  0.00     0.062 A 
ATOM      3  C2  UNL d   1      -2.632   3.696  -2.034  0.00  0.00     0.162 A 
ATOM      4  C3  UNL d   1      -2.076   2.515  -1.544  0.00  0.00    -0.034 A 
ATOM      5  C4  UNL d   1      -0.759   2.523  -1.079  0.00  0.00     0.162 A 
ATOM      6  C5  UNL d   1      -0.014   3.698  -1.103  0.00  0.00     0.062 A 
ATOM      7  F   UNL d   1       1.249   3.697  -0.653  0.00  0.00    -0.097 F 
ATOM      8  F1  UNL d   1      -0.194   1.405  -0.601  0.00  0.00    -0.096 F 
ATOM      9  I   UNL d   1      -3.193   0.759  -1.510  0.00  0.00    -0.060 I 
ATOM     10  F2  UNL d   1      -3.893   3.724  -2.490  0.00  0.00    -0.096 F 
ATOM     11  F3  UNL d   1      -2.425   6.000  -2.530  0.00  0.00    -0.097 F 
ATOM     12  F4  UNL d   1       0.145   5.999  -1.615  0.00  0.00    -0.092 F 
ENDROOT
TORSDOF 0
ENDMDL
