MODEL 1
REMARK minimizedAffinity 14.6121168
REMARK minimizedRMSD -1
REMARK  0 active torsions:
REMARK  status: ('A' for Active; 'I' for Inactive)
ROOT
ATOM      1  C   UNL d   1       2.994  -2.458  -1.629  0.00  0.00     0.124 A 
ATOM      2  C1  UNL d   1       3.514  -2.178  -2.886  0.00  0.00     0.062 A 
ATOM      3  C2  UNL d   1       4.107  -3.188  -3.638  0.00  0.00     0.162 A 
ATOM      4  C3  UNL d   1       4.182  -4.488  -3.138  0.00  0.00    -0.034 A 
ATOM      5  C4  UNL d   1       3.657  -4.761  -1.873  0.00  0.00     0.162 A 
ATOM      6  C5  UNL d   1       3.066  -3.748  -1.125  0.00  0.00     0.062 A 
ATOM      7  F   UNL d   1       2.564  -4.021   0.089  0.00  0.00    -0.097 F 
ATOM      8  F1  UNL d   1       3.713  -6.000  -1.361  0.00  0.00    -0.096 F 
ATOM      9  I   UNL d   1       5.067  -6.000  -4.260  0.00  0.00    -0.060 I 
ATOM     10  F2  UNL d   1       4.601  -2.889  -4.849  0.00  0.00    -0.096 F 
ATOM     11  F3  UNL d   1       3.447  -0.932  -3.375  0.00  0.00    -0.097 F 
ATOM     12  F4  UNL d   1       2.425  -1.484  -0.907  0.00  0.00    -0.092 F 
ENDROOT
TORSDOF 0
ENDMDL
