MODEL 1
REMARK minimizedAffinity 13.1156378
REMARK minimizedRMSD -1
REMARK  0 active torsions:
REMARK  status: ('A' for Active; 'I' for Inactive)
ROOT
ATOM      1  C   UNL d   1       4.524  -2.523  -3.571  0.00  0.00     0.124 A 
ATOM      2  C1  UNL d   1       3.578  -2.248  -2.593  0.00  0.00     0.062 A 
ATOM      3  C2  UNL d   1       3.190  -3.239  -1.696  0.00  0.00     0.162 A 
ATOM      4  C3  UNL d   1       3.748  -4.515  -1.773  0.00  0.00    -0.034 A 
ATOM      5  C4  UNL d   1       4.698  -4.784  -2.759  0.00  0.00     0.162 A 
ATOM      6  C5  UNL d   1       5.083  -3.790  -3.653  0.00  0.00     0.062 A 
ATOM      7  F   UNL d   1       5.997  -4.057  -4.597  0.00  0.00    -0.097 F 
ATOM      8  F1  UNL d   1       5.255  -6.000  -2.861  0.00  0.00    -0.096 F 
ATOM      9  I   UNL d   1       3.170  -6.000  -0.434  0.00  0.00    -0.060 I 
ATOM     10  F2  UNL d   1       2.274  -2.945  -0.762  0.00  0.00    -0.096 F 
ATOM     11  F3  UNL d   1       3.036  -1.024  -2.512  0.00  0.00    -0.097 F 
ATOM     12  F4  UNL d   1       4.895  -1.567  -4.433  0.00  0.00    -0.092 F 
ENDROOT
TORSDOF 0
ENDMDL
