MODEL 1
REMARK minimizedAffinity 18.0714207
REMARK minimizedRMSD -1
REMARK  0 active torsions:
REMARK  status: ('A' for Active; 'I' for Inactive)
ROOT
ATOM      1  C   UNL d   1       4.513  -2.500  -2.290  0.00  0.00     0.124 A 
ATOM      2  C1  UNL d   1       4.232  -3.608  -3.077  0.00  0.00     0.062 A 
ATOM      3  C2  UNL d   1       3.328  -4.569  -2.634  0.00  0.00     0.162 A 
ATOM      4  C3  UNL d   1       2.697  -4.426  -1.399  0.00  0.00    -0.034 A 
ATOM      5  C4  UNL d   1       2.986  -3.309  -0.612  0.00  0.00     0.162 A 
ATOM      6  C5  UNL d   1       3.890  -2.351  -1.059  0.00  0.00     0.062 A 
ATOM      7  F   UNL d   1       4.160  -1.281  -0.298  0.00  0.00    -0.097 F 
ATOM      8  F1  UNL d   1       2.397  -3.141   0.581  0.00  0.00    -0.096 F 
ATOM      9  I   UNL d   1       1.345  -5.862  -0.733  0.00  0.00    -0.060 I 
ATOM     10  F2  UNL d   1       3.076  -5.630  -3.416  0.00  0.00    -0.096 F 
ATOM     11  F3  UNL d   1       4.833  -3.754  -4.266  0.00  0.00    -0.097 F 
ATOM     12  F4  UNL d   1       5.384  -1.576  -2.718  0.00  0.00    -0.092 F 
ENDROOT
TORSDOF 0
ENDMDL
