MODEL 1
REMARK minimizedAffinity 4.38746119
REMARK minimizedRMSD -1
REMARK  0 active torsions:
REMARK  status: ('A' for Active; 'I' for Inactive)
ROOT
ATOM      1  C   UNL d   1       3.836  -1.995  -2.767  0.00  0.00     0.124 A 
ATOM      2  C1  UNL d   1       3.739  -2.109  -1.387  0.00  0.00     0.062 A 
ATOM      3  C2  UNL d   1       4.207  -3.251  -0.744  0.00  0.00     0.162 A 
ATOM      4  C3  UNL d   1       4.777  -4.289  -1.481  0.00  0.00    -0.034 A 
ATOM      5  C4  UNL d   1       4.870  -4.168  -2.869  0.00  0.00     0.162 A 
ATOM      6  C5  UNL d   1       4.401  -3.024  -3.506  0.00  0.00     0.062 A 
ATOM      7  F   UNL d   1       4.496  -2.915  -4.839  0.00  0.00    -0.097 F 
ATOM      8  F1  UNL d   1       5.413  -5.147  -3.608  0.00  0.00    -0.096 F 
ATOM      9  I   UNL d   1       5.478  -6.000  -0.524  0.00  0.00    -0.060 I 
ATOM     10  F2  UNL d   1       4.101  -3.335   0.590  0.00  0.00    -0.096 F 
ATOM     11  F3  UNL d   1       3.193  -1.116  -0.670  0.00  0.00    -0.097 F 
ATOM     12  F4  UNL d   1       3.384  -0.895  -3.382  0.00  0.00    -0.092 F 
ENDROOT
TORSDOF 0
ENDMDL
