MODEL 1
REMARK minimizedAffinity 2.35730863
REMARK minimizedRMSD -1
REMARK  0 active torsions:
REMARK  status: ('A' for Active; 'I' for Inactive)
ROOT
ATOM      1  C   UNL d   1       4.758  -4.692  -2.860  0.00  0.00     0.124 A 
ATOM      2  C1  UNL d   1       4.131  -3.537  -3.308  0.00  0.00     0.062 A 
ATOM      3  C2  UNL d   1       3.707  -2.573  -2.398  0.00  0.00     0.162 A 
ATOM      4  C3  UNL d   1       3.909  -2.759  -1.030  0.00  0.00    -0.034 A 
ATOM      5  C4  UNL d   1       4.539  -3.924  -0.587  0.00  0.00     0.162 A 
ATOM      6  C5  UNL d   1       4.961  -4.884  -1.501  0.00  0.00     0.062 A 
ATOM      7  F   UNL d   1       5.566  -6.000  -1.066  0.00  0.00    -0.097 F 
ATOM      8  F1  UNL d   1       4.749  -4.135   0.721  0.00  0.00    -0.096 F 
ATOM      9  I   UNL d   1       3.277  -1.320   0.334  0.00  0.00    -0.060 I 
ATOM     10  F2  UNL d   1       3.105  -1.467  -2.858  0.00  0.00    -0.096 F 
ATOM     11  F3  UNL d   1       3.933  -3.350  -4.620  0.00  0.00    -0.097 F 
ATOM     12  F4  UNL d   1       5.164  -5.618  -3.738  0.00  0.00    -0.092 F 
ENDROOT
TORSDOF 0
ENDMDL
