MODEL 1
REMARK minimizedAffinity 15.0295639
REMARK minimizedRMSD -1
REMARK  0 active torsions:
REMARK  status: ('A' for Active; 'I' for Inactive)
ROOT
ATOM      1  C   UNL d   1      -0.341   4.209  -1.210  0.00  0.00     0.124 A 
ATOM      2  C1  UNL d   1      -1.370   4.454  -2.108  0.00  0.00     0.062 A 
ATOM      3  C2  UNL d   1      -2.354   3.494  -2.325  0.00  0.00     0.162 A 
ATOM      4  C3  UNL d   1      -2.315   2.279  -1.641  0.00  0.00    -0.034 A 
ATOM      5  C4  UNL d   1      -1.277   2.039  -0.739  0.00  0.00     0.162 A 
ATOM      6  C5  UNL d   1      -0.295   3.002  -0.526  0.00  0.00     0.062 A 
ATOM      7  F   UNL d   1       0.698   2.763   0.343  0.00  0.00    -0.097 F 
ATOM      8  F1  UNL d   1      -1.208   0.882  -0.064  0.00  0.00    -0.096 F 
ATOM      9  I   UNL d   1      -3.785   0.841  -1.962  0.00  0.00    -0.060 I 
ATOM     10  F2  UNL d   1      -3.337   3.758  -3.199  0.00  0.00    -0.096 F 
ATOM     11  F3  UNL d   1      -1.416   5.619  -2.771  0.00  0.00    -0.097 F 
ATOM     12  F4  UNL d   1       0.605   5.134  -1.004  0.00  0.00    -0.092 F 
ENDROOT
TORSDOF 0
ENDMDL
