MODEL 1
REMARK minimizedAffinity 12.7098875
REMARK minimizedRMSD -1
REMARK  0 active torsions:
REMARK  status: ('A' for Active; 'I' for Inactive)
ROOT
ATOM      1  C   UNL d   1       5.056  -3.650  -3.929  0.00  0.00     0.124 A 
ATOM      2  C1  UNL d   1       4.648  -4.840  -3.344  0.00  0.00     0.062 A 
ATOM      3  C2  UNL d   1       3.668  -4.834  -2.355  0.00  0.00     0.162 A 
ATOM      4  C3  UNL d   1       3.088  -3.633  -1.946  0.00  0.00    -0.034 A 
ATOM      5  C4  UNL d   1       3.504  -2.440  -2.539  0.00  0.00     0.162 A 
ATOM      6  C5  UNL d   1       4.484  -2.451  -3.526  0.00  0.00     0.062 A 
ATOM      7  F   UNL d   1       4.877  -1.300  -4.091  0.00  0.00    -0.097 F 
ATOM      8  F1  UNL d   1       2.968  -1.268  -2.169  0.00  0.00    -0.096 F 
ATOM      9  I   UNL d   1       1.622  -3.621  -0.469  0.00  0.00    -0.060 I 
ATOM     10  F2  UNL d   1       3.293  -6.000  -1.807  0.00  0.00    -0.096 F 
ATOM     11  F3  UNL d   1       5.200  -5.999  -3.730  0.00  0.00    -0.097 F 
ATOM     12  F4  UNL d   1       6.000  -3.658  -4.879  0.00  0.00    -0.092 F 
ENDROOT
TORSDOF 0
ENDMDL
