MODEL 1
REMARK minimizedAffinity 14.5946436
REMARK minimizedRMSD -1
REMARK  0 active torsions:
REMARK  status: ('A' for Active; 'I' for Inactive)
ROOT
ATOM      1  C   UNL d   1       3.342  -4.923  -0.797  0.00  0.00     0.124 A 
ATOM      2  C1  UNL d   1       2.795  -4.846  -2.070  0.00  0.00     0.062 A 
ATOM      3  C2  UNL d   1       3.030  -3.728  -2.866  0.00  0.00     0.162 A 
ATOM      4  C3  UNL d   1       3.817  -2.679  -2.391  0.00  0.00    -0.034 A 
ATOM      5  C4  UNL d   1       4.362  -2.764  -1.109  0.00  0.00     0.162 A 
ATOM      6  C5  UNL d   1       4.125  -3.882  -0.317  0.00  0.00     0.062 A 
ATOM      7  F   UNL d   1       4.654  -3.955   0.913  0.00  0.00    -0.097 F 
ATOM      8  F1  UNL d   1       5.123  -1.773  -0.621  0.00  0.00    -0.096 F 
ATOM      9  I   UNL d   1       4.170  -1.006  -3.578  0.00  0.00    -0.060 I 
ATOM     10  F2  UNL d   1       2.489  -3.680  -4.092  0.00  0.00    -0.096 F 
ATOM     11  F3  UNL d   1       2.038  -5.850  -2.535  0.00  0.00    -0.097 F 
ATOM     12  F4  UNL d   1       3.113  -5.999  -0.033  0.00  0.00    -0.092 F 
ENDROOT
TORSDOF 0
ENDMDL
