MODEL 1
REMARK minimizedAffinity 0.632416308
REMARK minimizedRMSD -1
REMARK  0 active torsions:
REMARK  status: ('A' for Active; 'I' for Inactive)
ROOT
ATOM      1  C   UNL d   1      -1.047   2.100   0.385  0.00  0.00     0.020 A 
ATOM      2  C1  UNL d   1       0.165   2.683   0.754  0.00  0.00     0.020 A 
ATOM      3  C2  UNL d   1       1.326   1.909   0.805  0.00  0.00     0.034 A 
ATOM      4  C3  UNL d   1       1.277   0.547   0.488  0.00  0.00     0.017 A 
ATOM      5  C4  UNL d   1       0.061  -0.038   0.118  0.00  0.00     0.017 A 
ATOM      6  C5  UNL d   1      -1.099   0.742   0.068  0.00  0.00     0.034 A 
ATOM      7 Cl   UNL d   1      -0.077  -1.713  -0.288  0.00  0.00    -0.070 Cl
ATOM      8 Cl1  UNL d   1       2.752  -0.351   0.572  0.00  0.00    -0.070 Cl
ENDROOT
TORSDOF 0
ENDMDL
