MODEL 1
REMARK minimizedAffinity -4.2771244
REMARK minimizedRMSD -1
REMARK  0 active torsions:
REMARK  status: ('A' for Active; 'I' for Inactive)
ROOT
ATOM      1  C   UNL d   1      -0.329   1.244  -0.397  0.00  0.00     0.020 A 
ATOM      2  C1  UNL d   1      -1.102   0.672  -1.407  0.00  0.00     0.020 A 
ATOM      3  C2  UNL d   1      -1.060  -0.707  -1.622  0.00  0.00     0.034 A 
ATOM      4  C3  UNL d   1      -0.244  -1.519  -0.825  0.00  0.00     0.017 A 
ATOM      5  C4  UNL d   1       0.531  -0.944   0.188  0.00  0.00     0.017 A 
ATOM      6  C5  UNL d   1       0.485   0.438   0.399  0.00  0.00     0.034 A 
ATOM      7 Cl   UNL d   1       1.562  -1.881   1.212  0.00  0.00    -0.070 Cl
ATOM      8 Cl1  UNL d   1      -0.242  -3.217  -1.146  0.00  0.00    -0.070 Cl
ENDROOT
TORSDOF 0
ENDMDL
