MODEL 1
REMARK minimizedAffinity -3.20476413
REMARK minimizedRMSD -1
REMARK  0 active torsions:
REMARK  status: ('A' for Active; 'I' for Inactive)
ROOT
ATOM      1  C   UNL d   1      -0.290   1.842   0.125  0.00  0.00     0.020 A 
ATOM      2  C1  UNL d   1      -1.218   1.390  -0.813  0.00  0.00     0.020 A 
ATOM      3  C2  UNL d   1      -1.124   0.091  -1.318  0.00  0.00     0.034 A 
ATOM      4  C3  UNL d   1      -0.101  -0.760  -0.885  0.00  0.00     0.017 A 
ATOM      5  C4  UNL d   1       0.829  -0.306   0.056  0.00  0.00     0.017 A 
ATOM      6  C5  UNL d   1       0.731   0.995   0.559  0.00  0.00     0.034 A 
ATOM      7 Cl   UNL d   1       2.119  -1.298   0.639  0.00  0.00    -0.070 Cl
ATOM      8 Cl1  UNL d   1      -0.046  -2.354  -1.551  0.00  0.00    -0.070 Cl
ENDROOT
TORSDOF 0
ENDMDL
