MODEL 1
REMARK minimizedAffinity -2.92331529
REMARK minimizedRMSD -1
REMARK  0 active torsions:
REMARK  status: ('A' for Active; 'I' for Inactive)
ROOT
ATOM      1  C   UNL d   1      -1.313  -0.863  -0.078  0.00  0.00     0.020 A 
ATOM      2  C1  UNL d   1      -0.089  -1.517  -0.208  0.00  0.00     0.020 A 
ATOM      3  C2  UNL d   1       1.103  -0.804  -0.061  0.00  0.00     0.034 A 
ATOM      4  C3  UNL d   1       1.073   0.567   0.218  0.00  0.00     0.017 A 
ATOM      5  C4  UNL d   1      -0.157   1.222   0.349  0.00  0.00     0.017 A 
ATOM      6  C5  UNL d   1      -1.347   0.504   0.200  0.00  0.00     0.034 A 
ATOM      7 Cl   UNL d   1      -0.274   2.912   0.692  0.00  0.00    -0.070 Cl
ATOM      8 Cl1  UNL d   1       2.585   1.385   0.388  0.00  0.00    -0.070 Cl
ENDROOT
TORSDOF 0
ENDMDL
