MODEL 1
REMARK minimizedAffinity -3.90334296
REMARK minimizedRMSD -1
REMARK  0 active torsions:
REMARK  status: ('A' for Active; 'I' for Inactive)
ROOT
ATOM      1  C   UNL d   1       0.749  -0.696  -0.251  0.00  0.00     0.020 A 
ATOM      2  C1  UNL d   1      -0.376  -1.515  -0.341  0.00  0.00     0.020 A 
ATOM      3  C2  UNL d   1      -1.637  -1.008  -0.021  0.00  0.00     0.034 A 
ATOM      4  C3  UNL d   1      -1.776   0.323   0.391  0.00  0.00     0.017 A 
ATOM      5  C4  UNL d   1      -0.647   1.144   0.481  0.00  0.00     0.017 A 
ATOM      6  C5  UNL d   1       0.614   0.631   0.159  0.00  0.00     0.034 A 
ATOM      7 Cl   UNL d   1      -0.739   2.796   0.981  0.00  0.00    -0.070 Cl
ATOM      8 Cl1  UNL d   1      -3.366   0.884   0.771  0.00  0.00    -0.070 Cl
ENDROOT
TORSDOF 0
ENDMDL
