MODEL 1
REMARK minimizedAffinity -4.29618692
REMARK minimizedRMSD -1
REMARK  0 active torsions:
REMARK  status: ('A' for Active; 'I' for Inactive)
ROOT
ATOM      1  C   UNL d   1       0.042   3.519   0.321  0.00  0.00     0.020 A 
ATOM      2  C1  UNL d   1       0.947   2.873  -0.521  0.00  0.00     0.020 A 
ATOM      3  C2  UNL d   1       0.845   1.496  -0.731  0.00  0.00     0.034 A 
ATOM      4  C3  UNL d   1      -0.165   0.761  -0.099  0.00  0.00     0.017 A 
ATOM      5  C4  UNL d   1      -1.073   1.411   0.745  0.00  0.00     0.017 A 
ATOM      6  C5  UNL d   1      -0.966   2.790   0.952  0.00  0.00     0.034 A 
ATOM      7 Cl   UNL d   1      -2.345   0.571   1.560  0.00  0.00    -0.070 Cl
ATOM      8 Cl1  UNL d   1      -0.233  -0.938  -0.404  0.00  0.00    -0.070 Cl
ENDROOT
TORSDOF 0
ENDMDL
