MODEL 1
REMARK minimizedAffinity -3.67532921
REMARK minimizedRMSD -1
REMARK  0 active torsions:
REMARK  status: ('A' for Active; 'I' for Inactive)
ROOT
ATOM      1  C   UNL d   1      -1.650   1.015   1.412  0.00  0.00     0.020 A 
ATOM      2  C1  UNL d   1      -1.300   2.248   0.862  0.00  0.00     0.020 A 
ATOM      3  C2  UNL d   1      -0.570   2.299  -0.327  0.00  0.00     0.034 A 
ATOM      4  C3  UNL d   1      -0.187   1.117  -0.970  0.00  0.00     0.017 A 
ATOM      5  C4  UNL d   1      -0.538  -0.120  -0.417  0.00  0.00     0.017 A 
ATOM      6  C5  UNL d   1      -1.270  -0.166   0.774  0.00  0.00     0.034 A 
ATOM      7 Cl   UNL d   1      -0.102  -1.622  -1.152  0.00  0.00    -0.070 Cl
ATOM      8 Cl1  UNL d   1       0.715   1.255  -2.437  0.00  0.00    -0.070 Cl
ENDROOT
TORSDOF 0
ENDMDL
