MODEL 1
REMARK minimizedAffinity -4.92433167
REMARK minimizedRMSD -1
REMARK  0 active torsions:
REMARK  status: ('A' for Active; 'I' for Inactive)
ROOT
ATOM      1  C   UNL d   1       1.558   2.197  -0.263  0.00  0.00     0.020 A 
ATOM      2  C1  UNL d   1       0.538   3.097   0.045  0.00  0.00     0.020 A 
ATOM      3  C2  UNL d   1      -0.737   2.626   0.362  0.00  0.00     0.034 A 
ATOM      4  C3  UNL d   1      -0.997   1.250   0.373  0.00  0.00     0.017 A 
ATOM      5  C4  UNL d   1       0.027   0.348   0.064  0.00  0.00     0.017 A 
ATOM      6  C5  UNL d   1       1.303   0.825  -0.253  0.00  0.00     0.034 A 
ATOM      7 Cl   UNL d   1      -0.217  -1.363   0.056  0.00  0.00    -0.070 Cl
ATOM      8 Cl1  UNL d   1      -2.597   0.738   0.775  0.00  0.00    -0.070 Cl
ENDROOT
TORSDOF 0
ENDMDL
