MODEL 1
REMARK minimizedAffinity -5.39081478
REMARK minimizedRMSD -1
REMARK  0 active torsions:
REMARK  status: ('A' for Active; 'I' for Inactive)
ROOT
ATOM      1  C   UNL d   1       1.731   2.942   0.974  0.00  0.00     0.020 A 
ATOM      2  C1  UNL d   1       2.615   1.903   0.686  0.00  0.00     0.020 A 
ATOM      3  C2  UNL d   1       2.122   0.645   0.333  0.00  0.00     0.034 A 
ATOM      4  C3  UNL d   1       0.742   0.423   0.268  0.00  0.00     0.017 A 
ATOM      5  C4  UNL d   1      -0.145   1.466   0.558  0.00  0.00     0.017 A 
ATOM      6  C5  UNL d   1       0.354   2.724   0.910  0.00  0.00     0.034 A 
ATOM      7 Cl   UNL d   1      -1.861   1.268   0.499  0.00  0.00    -0.070 Cl
ATOM      8 Cl1  UNL d   1       0.203  -1.158  -0.175  0.00  0.00    -0.070 Cl
ENDROOT
TORSDOF 0
ENDMDL
