MODEL 1
REMARK minimizedAffinity -3.95432353
REMARK minimizedRMSD -1
REMARK  0 active torsions:
REMARK  status: ('A' for Active; 'I' for Inactive)
ROOT
ATOM      1  C   UNL d   1       0.095   1.452  -1.348  0.00  0.00     0.020 A 
ATOM      2  C1  UNL d   1       0.640   2.621  -0.820  0.00  0.00     0.020 A 
ATOM      3  C2  UNL d   1       0.243   3.069   0.442  0.00  0.00     0.034 A 
ATOM      4  C3  UNL d   1      -0.702   2.346   1.180  0.00  0.00     0.017 A 
ATOM      5  C4  UNL d   1      -1.249   1.173   0.649  0.00  0.00     0.017 A 
ATOM      6  C5  UNL d   1      -0.848   0.729  -0.615  0.00  0.00     0.034 A 
ATOM      7 Cl   UNL d   1      -2.419   0.228   1.500  0.00  0.00    -0.070 Cl
ATOM      8 Cl1  UNL d   1      -1.146   2.958   2.734  0.00  0.00    -0.070 Cl
ENDROOT
TORSDOF 0
ENDMDL
