MODEL 1
REMARK minimizedAffinity -2.13001919
REMARK minimizedRMSD -1
REMARK  0 active torsions:
REMARK  status: ('A' for Active; 'I' for Inactive)
ROOT
ATOM      1  C   UNL d   1      -0.508   2.465   0.777  0.00  0.00     0.020 A 
ATOM      2  C1  UNL d   1      -1.328   1.340   0.704  0.00  0.00     0.020 A 
ATOM      3  C2  UNL d   1      -0.761   0.064   0.667  0.00  0.00     0.034 A 
ATOM      4  C3  UNL d   1       0.630  -0.089   0.702  0.00  0.00     0.017 A 
ATOM      5  C4  UNL d   1       1.452   1.041   0.774  0.00  0.00     0.017 A 
ATOM      6  C5  UNL d   1       0.879   2.316   0.812  0.00  0.00     0.034 A 
ATOM      7 Cl   UNL d   1       3.176   0.932   0.821  0.00  0.00    -0.070 Cl
ATOM      8 Cl1  UNL d   1       1.263  -1.696   0.653  0.00  0.00    -0.070 Cl
ENDROOT
TORSDOF 0
ENDMDL
