MODEL 1
REMARK minimizedAffinity -5.32947302
REMARK minimizedRMSD -1
REMARK  0 active torsions:
REMARK  status: ('A' for Active; 'I' for Inactive)
ROOT
ATOM      1  C   UNL d   1       1.889   3.072   0.837  0.00  0.00     0.020 A 
ATOM      2  C1  UNL d   1       2.727   1.959   0.778  0.00  0.00     0.020 A 
ATOM      3  C2  UNL d   1       2.182   0.681   0.633  0.00  0.00     0.034 A 
ATOM      4  C3  UNL d   1       0.795   0.514   0.546  0.00  0.00     0.017 A 
ATOM      5  C4  UNL d   1      -0.045   1.631   0.606  0.00  0.00     0.017 A 
ATOM      6  C5  UNL d   1       0.506   2.908   0.751  0.00  0.00     0.034 A 
ATOM      7 Cl   UNL d   1      -1.766   1.504   0.506  0.00  0.00    -0.070 Cl
ATOM      8 Cl1  UNL d   1       0.190  -1.095   0.367  0.00  0.00    -0.070 Cl
ENDROOT
TORSDOF 0
ENDMDL
