MODEL 1
REMARK minimizedAffinity 1.15599394
REMARK minimizedRMSD -1
REMARK  0 active torsions:
REMARK  status: ('A' for Active; 'I' for Inactive)
ROOT
ATOM      1  C   UNL d   1      -0.557   0.060  -0.267  0.00  0.00     0.020 A 
ATOM      2  C1  UNL d   1      -1.178  -0.266   0.938  0.00  0.00     0.020 A 
ATOM      3  C2  UNL d   1      -1.312   0.701   1.937  0.00  0.00     0.034 A 
ATOM      4  C3  UNL d   1      -0.826   1.997   1.733  0.00  0.00     0.017 A 
ATOM      5  C4  UNL d   1      -0.203   2.323   0.522  0.00  0.00     0.017 A 
ATOM      6  C5  UNL d   1      -0.071   1.351  -0.475  0.00  0.00     0.034 A 
ATOM      7 Cl   UNL d   1       0.422   3.901   0.197  0.00  0.00    -0.070 Cl
ATOM      8 Cl1  UNL d   1      -1.028   3.142   3.011  0.00  0.00    -0.070 Cl
ENDROOT
TORSDOF 0
ENDMDL
