MODEL 1
REMARK minimizedAffinity 0.876876652
REMARK minimizedRMSD -1
REMARK  0 active torsions:
REMARK  status: ('A' for Active; 'I' for Inactive)
ROOT
ATOM      1  C   UNL d   1      -0.910  -1.338   0.364  0.00  0.00     0.020 A 
ATOM      2  C1  UNL d   1       0.359  -1.913   0.302  0.00  0.00     0.020 A 
ATOM      3  C2  UNL d   1       1.495  -1.102   0.318  0.00  0.00     0.034 A 
ATOM      4  C3  UNL d   1       1.366   0.290   0.394  0.00  0.00     0.017 A 
ATOM      5  C4  UNL d   1       0.092   0.867   0.456  0.00  0.00     0.017 A 
ATOM      6  C5  UNL d   1      -1.042   0.049   0.441  0.00  0.00     0.034 A 
ATOM      7 Cl   UNL d   1      -0.147   2.575   0.552  0.00  0.00    -0.070 Cl
ATOM      8 Cl1  UNL d   1       2.814   1.232   0.409  0.00  0.00    -0.070 Cl
ENDROOT
TORSDOF 0
ENDMDL
