MODEL 1
REMARK minimizedAffinity 5.78515053
REMARK minimizedRMSD -1
REMARK  0 active torsions:
REMARK  status: ('A' for Active; 'I' for Inactive)
ROOT
ATOM      1  C   UNL d   1      -0.454  -3.354  -3.188  0.00  0.00     0.020 A 
ATOM      2  C1  UNL d   1      -1.527  -4.022  -2.600  0.00  0.00     0.020 A 
ATOM      3  C2  UNL d   1      -1.775  -3.876  -1.233  0.00  0.00     0.034 A 
ATOM      4  C3  UNL d   1      -0.949  -3.062  -0.451  0.00  0.00     0.017 A 
ATOM      5  C4  UNL d   1       0.128  -2.392  -1.042  0.00  0.00     0.017 A 
ATOM      6  C5  UNL d   1       0.372  -2.541  -2.411  0.00  0.00     0.034 A 
ATOM      7 Cl   UNL d   1       1.192  -1.370  -0.142  0.00  0.00    -0.070 Cl
ATOM      8 Cl1  UNL d   1      -1.314  -2.928   1.233  0.00  0.00    -0.070 Cl
ENDROOT
TORSDOF 0
ENDMDL
