MODEL 1
REMARK minimizedAffinity 7.08610201
REMARK minimizedRMSD -1
REMARK  0 active torsions:
REMARK  status: ('A' for Active; 'I' for Inactive)
ROOT
ATOM      1  C   UNL d   1       1.152  -3.512  -3.240  0.00  0.00     0.020 A 
ATOM      2  C1  UNL d   1      -0.092  -4.133  -3.128  0.00  0.00     0.020 A 
ATOM      3  C2  UNL d   1      -0.914  -3.858  -2.033  0.00  0.00     0.034 A 
ATOM      4  C3  UNL d   1      -0.493  -2.960  -1.045  0.00  0.00     0.017 A 
ATOM      5  C4  UNL d   1       0.755  -2.337  -1.159  0.00  0.00     0.017 A 
ATOM      6  C5  UNL d   1       1.574  -2.616  -2.257  0.00  0.00     0.034 A 
ATOM      7 Cl   UNL d   1       1.343  -1.218   0.020  0.00  0.00    -0.070 Cl
ATOM      8 Cl1  UNL d   1      -1.561  -2.667   0.281  0.00  0.00    -0.070 Cl
ENDROOT
TORSDOF 0
ENDMDL
