MODEL 1
REMARK minimizedAffinity -1.10003102
REMARK minimizedRMSD -1
REMARK  0 active torsions:
REMARK  status: ('A' for Active; 'I' for Inactive)
ROOT
ATOM      1  C   UNL d   1      -0.930   3.008   0.360  0.00  0.00     0.020 A 
ATOM      2  C1  UNL d   1      -1.938   2.066   0.163  0.00  0.00     0.020 A 
ATOM      3  C2  UNL d   1      -1.615   0.713   0.043  0.00  0.00     0.034 A 
ATOM      4  C3  UNL d   1      -0.280   0.298   0.120  0.00  0.00     0.017 A 
ATOM      5  C4  UNL d   1       0.731   1.245   0.318  0.00  0.00     0.017 A 
ATOM      6  C5  UNL d   1       0.402   2.598   0.438  0.00  0.00     0.034 A 
ATOM      7 Cl   UNL d   1       2.400   0.809   0.424  0.00  0.00    -0.070 Cl
ATOM      8 Cl1  UNL d   1       0.046  -1.392  -0.036  0.00  0.00    -0.070 Cl
ENDROOT
TORSDOF 0
ENDMDL
