MODEL 1
REMARK minimizedAffinity -5.8444705
REMARK minimizedRMSD -1
REMARK  0 active torsions:
REMARK  status: ('A' for Active; 'I' for Inactive)
ROOT
ATOM      1  C2' OXE d   1       2.167  -0.020  -3.207  0.00  0.00     0.078 C 
ATOM      2  C1' OXE d   1       2.642   2.254  -1.630  0.00  0.00     0.078 C 
ATOM      3  C1  OXE d   1       1.731   1.189  -1.072  0.00  0.00    -0.078 A 
ATOM      4  C2  OXE d   1       1.467   0.101  -1.870  0.00  0.00    -0.078 A 
ATOM      5  C3  OXE d   1       0.677  -0.936  -1.382  0.00  0.00     0.003 A 
ATOM      6  C4  OXE d   1       0.026  -0.811  -0.149  0.00  0.00    -0.002 A 
ATOM      7  C5  OXE d   1       0.250   0.306   0.662  0.00  0.00    -0.002 A 
ATOM      8  C6  OXE d   1       1.131   1.293   0.235  0.00  0.00     0.003 A 
ENDROOT
TORSDOF 0
ENDMDL
