MODEL 1
REMARK minimizedAffinity -3.97946167
REMARK minimizedRMSD -1
REMARK  0 active torsions:
REMARK  status: ('A' for Active; 'I' for Inactive)
ROOT
ATOM      1  C2' OXE d   1       1.116   2.272   0.166  0.00  0.00     0.078 C 
ATOM      2  C1' OXE d   1       1.907   0.432  -1.801  0.00  0.00     0.078 C 
ATOM      3  C1  OXE d   1       1.020  -0.066  -0.687  0.00  0.00    -0.078 A 
ATOM      4  C2  OXE d   1       0.676   0.830   0.296  0.00  0.00    -0.078 A 
ATOM      5  C3  OXE d   1      -0.185   0.437   1.317  0.00  0.00     0.003 A 
ATOM      6  C4  OXE d   1      -0.579  -0.901   1.435  0.00  0.00    -0.002 A 
ATOM      7  C5  OXE d   1      -0.208  -1.839   0.466  0.00  0.00    -0.002 A 
ATOM      8  C6  OXE d   1       0.555  -1.429  -0.622  0.00  0.00     0.003 A 
ENDROOT
TORSDOF 0
ENDMDL
