MODEL 1
REMARK minimizedAffinity -2.43414593
REMARK minimizedRMSD -1
REMARK  0 active torsions:
REMARK  status: ('A' for Active; 'I' for Inactive)
ROOT
ATOM      1  C2' OXE d   1      -0.512  -0.301   1.689  0.00  0.00     0.078 C 
ATOM      2  C1' OXE d   1       0.384  -2.416   0.075  0.00  0.00     0.078 C 
ATOM      3  C1  OXE d   1       0.621  -1.009  -0.413  0.00  0.00    -0.078 A 
ATOM      4  C2  OXE d   1       0.138   0.018   0.360  0.00  0.00    -0.078 A 
ATOM      5  C3  OXE d   1       0.378   1.337  -0.017  0.00  0.00     0.003 A 
ATOM      6  C4  OXE d   1       0.971   1.624  -1.253  0.00  0.00    -0.002 A 
ATOM      7  C5  OXE d   1       1.435   0.591  -2.074  0.00  0.00    -0.002 A 
ATOM      8  C6  OXE d   1       1.306  -0.727  -1.651  0.00  0.00     0.003 A 
ENDROOT
TORSDOF 0
ENDMDL
