MODEL 1
REMARK minimizedAffinity -5.81894112
REMARK minimizedRMSD -1
REMARK  0 active torsions:
REMARK  status: ('A' for Active; 'I' for Inactive)
ROOT
ATOM      1  C2' OXE d   1       1.044   2.451  -0.556  0.00  0.00     0.078 C 
ATOM      2  C1' OXE d   1      -0.251   0.331   0.751  0.00  0.00     0.078 C 
ATOM      3  C1  OXE d   1       0.705  -0.010  -0.365  0.00  0.00    -0.078 A 
ATOM      4  C2  OXE d   1       1.298   1.036  -1.030  0.00  0.00    -0.078 A 
ATOM      5  C3  OXE d   1       2.230   0.776  -2.031  0.00  0.00     0.003 A 
ATOM      6  C4  OXE d   1       2.452  -0.535  -2.470  0.00  0.00    -0.002 A 
ATOM      7  C5  OXE d   1       1.827  -1.612  -1.833  0.00  0.00    -0.002 A 
ATOM      8  C6  OXE d   1       0.985  -1.370  -0.753  0.00  0.00     0.003 A 
ENDROOT
TORSDOF 0
ENDMDL
