MODEL 1
REMARK minimizedAffinity -6.01451254
REMARK minimizedRMSD -1
REMARK  0 active torsions:
REMARK  status: ('A' for Active; 'I' for Inactive)
ROOT
ATOM      1  C2' OXE d   1       1.796  -0.378  -3.019  0.00  0.00     0.078 C 
ATOM      2  C1' OXE d   1       0.554  -2.255  -1.341  0.00  0.00     0.078 C 
ATOM      3  C1  OXE d   1       0.570  -0.814  -0.895  0.00  0.00    -0.078 A 
ATOM      4  C2  OXE d   1       1.220   0.090  -1.700  0.00  0.00    -0.078 A 
ATOM      5  C3  OXE d   1       1.217   1.440  -1.362  0.00  0.00     0.003 A 
ATOM      6  C4  OXE d   1       0.692   1.863  -0.135  0.00  0.00    -0.002 A 
ATOM      7  C5  OXE d   1       0.060   0.952   0.718  0.00  0.00    -0.002 A 
ATOM      8  C6  OXE d   1      -0.047  -0.380   0.334  0.00  0.00     0.003 A 
ENDROOT
TORSDOF 0
ENDMDL
