MODEL 1
REMARK minimizedAffinity -3.36457562
REMARK minimizedRMSD -1
REMARK  0 active torsions:
REMARK  status: ('A' for Active; 'I' for Inactive)
ROOT
ATOM      1  C2' OXE d   1       1.289   1.736   0.997  0.00  0.00     0.078 C 
ATOM      2  C1' OXE d   1      -0.833  -0.065   0.634  0.00  0.00     0.078 C 
ATOM      3  C1  OXE d   1       0.202   0.031  -0.458  0.00  0.00    -0.078 A 
ATOM      4  C2  OXE d   1       1.212   0.949  -0.293  0.00  0.00    -0.078 A 
ATOM      5  C3  OXE d   1       2.223   1.040  -1.245  0.00  0.00     0.003 A 
ATOM      6  C4  OXE d   1       2.138   0.316  -2.441  0.00  0.00    -0.002 A 
ATOM      7  C5  OXE d   1       1.097  -0.595  -2.646  0.00  0.00    -0.002 A 
ATOM      8  C6  OXE d   1       0.147  -0.780  -1.649  0.00  0.00     0.003 A 
ENDROOT
TORSDOF 0
ENDMDL
