MODEL 1
REMARK minimizedAffinity -4.71086073
REMARK minimizedRMSD -1
REMARK  0 active torsions:
REMARK  status: ('A' for Active; 'I' for Inactive)
ROOT
ATOM      1  C2' OXE d   1       0.936   0.578  -2.155  0.00  0.00     0.078 C 
ATOM      2  C1' OXE d   1       1.851  -2.068  -2.362  0.00  0.00     0.078 C 
ATOM      3  C1  OXE d   1       2.821  -1.025  -1.866  0.00  0.00    -0.078 A 
ATOM      4  C2  OXE d   1       2.379   0.275  -1.812  0.00  0.00    -0.078 A 
ATOM      5  C3  OXE d   1       3.216   1.267  -1.310  0.00  0.00     0.003 A 
ATOM      6  C4  OXE d   1       4.552   0.980  -1.005  0.00  0.00    -0.002 A 
ATOM      7  C5  OXE d   1       5.034  -0.330  -1.090  0.00  0.00    -0.002 A 
ATOM      8  C6  OXE d   1       4.171  -1.350  -1.478  0.00  0.00     0.003 A 
ENDROOT
TORSDOF 0
ENDMDL
