MODEL 1
REMARK minimizedAffinity -4.150383
REMARK minimizedRMSD -1
REMARK  0 active torsions:
REMARK  status: ('A' for Active; 'I' for Inactive)
ROOT
ATOM      1  C2' OXE d   1       1.689   0.643  -2.919  0.00  0.00     0.078 C 
ATOM      2  C1' OXE d   1       1.403   2.533  -0.862  0.00  0.00     0.078 C 
ATOM      3  C1  OXE d   1       0.949   1.120  -0.589  0.00  0.00    -0.078 A 
ATOM      4  C2  OXE d   1       1.050   0.214  -1.616  0.00  0.00    -0.078 A 
ATOM      5  C3  OXE d   1       0.696  -1.115  -1.400  0.00  0.00     0.003 A 
ATOM      6  C4  OXE d   1       0.096  -1.502  -0.195  0.00  0.00    -0.002 A 
ATOM      7  C5  OXE d   1      -0.052  -0.585   0.851  0.00  0.00    -0.002 A 
ATOM      8  C6  OXE d   1       0.407   0.717   0.685  0.00  0.00     0.003 A 
ENDROOT
TORSDOF 0
ENDMDL
