MODEL 1
REMARK minimizedAffinity -4.54956245
REMARK minimizedRMSD -1
REMARK  0 active torsions:
REMARK  status: ('A' for Active; 'I' for Inactive)
ROOT
ATOM      1  C2' OXE d   1      -0.866  -0.394   1.805  0.00  0.00     0.078 C 
ATOM      2  C1' OXE d   1      -0.111  -2.179  -0.226  0.00  0.00     0.078 C 
ATOM      3  C1  OXE d   1       0.413  -0.767  -0.300  0.00  0.00    -0.078 A 
ATOM      4  C2  OXE d   1       0.000   0.112   0.672  0.00  0.00    -0.078 A 
ATOM      5  C3  OXE d   1       0.497   1.413   0.681  0.00  0.00     0.003 A 
ATOM      6  C4  OXE d   1       1.290   1.876  -0.376  0.00  0.00    -0.002 A 
ATOM      7  C5  OXE d   1       1.689   1.008  -1.397  0.00  0.00    -0.002 A 
ATOM      8  C6  OXE d   1       1.295  -0.325  -1.352  0.00  0.00     0.003 A 
ENDROOT
TORSDOF 0
ENDMDL
