MODEL 1
REMARK minimizedAffinity -4.47100353
REMARK minimizedRMSD -1
REMARK  0 active torsions:
REMARK  status: ('A' for Active; 'I' for Inactive)
ROOT
ATOM      1  C2' OXE d   1      -0.728  -0.017   1.093  0.00  0.00     0.078 C 
ATOM      2  C1' OXE d   1      -0.471  -2.793   0.769  0.00  0.00     0.078 C 
ATOM      3  C1  OXE d   1       0.185  -1.901  -0.256  0.00  0.00    -0.078 A 
ATOM      4  C2  OXE d   1       0.015  -0.545  -0.115  0.00  0.00    -0.078 A 
ATOM      5  C3  OXE d   1       0.644   0.324  -1.001  0.00  0.00     0.003 A 
ATOM      6  C4  OXE d   1       1.321  -0.173  -2.121  0.00  0.00    -0.002 A 
ATOM      7  C5  OXE d   1       1.473  -1.551  -2.305  0.00  0.00    -0.002 A 
ATOM      8  C6  OXE d   1       0.948  -2.426  -1.361  0.00  0.00     0.003 A 
ENDROOT
TORSDOF 0
ENDMDL
