MODEL 1
REMARK minimizedAffinity -5.44642115
REMARK minimizedRMSD -1
REMARK  0 active torsions:
REMARK  status: ('A' for Active; 'I' for Inactive)
ROOT
ATOM      1  C2' OXE d   1      -0.312  -0.416   1.421  0.00  0.00     0.078 C 
ATOM      2  C1' OXE d   1       0.139  -2.587  -0.300  0.00  0.00     0.078 C 
ATOM      3  C1  OXE d   1       0.565  -1.218  -0.768  0.00  0.00    -0.078 A 
ATOM      4  C2  OXE d   1       0.298  -0.155   0.061  0.00  0.00    -0.078 A 
ATOM      5  C3  OXE d   1       0.720   1.122  -0.298  0.00  0.00     0.003 A 
ATOM      6  C4  OXE d   1       1.274   1.356  -1.563  0.00  0.00    -0.002 A 
ATOM      7  C5  OXE d   1       1.518   0.293  -2.439  0.00  0.00    -0.002 A 
ATOM      8  C6  OXE d   1       1.209  -1.003  -2.041  0.00  0.00     0.003 A 
ENDROOT
TORSDOF 0
ENDMDL
