MODEL 1
REMARK minimizedAffinity -4.33346128
REMARK minimizedRMSD -1
REMARK  0 active torsions:
REMARK  status: ('A' for Active; 'I' for Inactive)
ROOT
ATOM      1  C2' OXE d   1       1.034   0.148  -2.551  0.00  0.00     0.078 C 
ATOM      2  C1' OXE d   1       1.547   2.169  -0.671  0.00  0.00     0.078 C 
ATOM      3  C1  OXE d   1       0.812   0.939  -0.199  0.00  0.00    -0.078 A 
ATOM      4  C2  OXE d   1       0.524  -0.024  -1.136  0.00  0.00    -0.078 A 
ATOM      5  C3  OXE d   1      -0.104  -1.202  -0.743  0.00  0.00     0.003 A 
ATOM      6  C4  OXE d   1      -0.581  -1.349   0.565  0.00  0.00    -0.002 A 
ATOM      7  C5  OXE d   1      -0.333  -0.363   1.526  0.00  0.00    -0.002 A 
ATOM      8  C6  OXE d   1       0.397   0.766   1.171  0.00  0.00     0.003 A 
ENDROOT
TORSDOF 0
ENDMDL
