MODEL 1
REMARK minimizedAffinity -2.66874361
REMARK minimizedRMSD -1
REMARK  0 active torsions:
REMARK  status: ('A' for Active; 'I' for Inactive)
ROOT
ATOM      1  C2' OXE d   1      -0.350  -0.708   1.168  0.00  0.00     0.078 C 
ATOM      2  C1' OXE d   1       0.339  -2.429  -0.940  0.00  0.00     0.078 C 
ATOM      3  C1  OXE d   1       0.775  -0.988  -1.037  0.00  0.00    -0.078 A 
ATOM      4  C2  OXE d   1       0.393  -0.142  -0.023  0.00  0.00    -0.078 A 
ATOM      5  C3  OXE d   1       0.815   1.184  -0.036  0.00  0.00     0.003 A 
ATOM      6  C4  OXE d   1       1.493   1.701  -1.147  0.00  0.00    -0.002 A 
ATOM      7  C5  OXE d   1       1.857   0.866  -2.209  0.00  0.00    -0.002 A 
ATOM      8  C6  OXE d   1       1.543  -0.487  -2.150  0.00  0.00     0.003 A 
ENDROOT
TORSDOF 0
ENDMDL
