MODEL 1
REMARK minimizedAffinity -4.13918114
REMARK minimizedRMSD -1
REMARK  0 active torsions:
REMARK  status: ('A' for Active; 'I' for Inactive)
ROOT
ATOM      1  C2' OXE d   1       1.067   2.777  -0.331  0.00  0.00     0.078 C 
ATOM      2  C1' OXE d   1       1.857   0.959  -2.318  0.00  0.00     0.078 C 
ATOM      3  C1  OXE d   1       0.910   0.468  -1.252  0.00  0.00    -0.078 A 
ATOM      4  C2  OXE d   1       0.565   1.351  -0.257  0.00  0.00    -0.078 A 
ATOM      5  C3  OXE d   1      -0.348   0.967   0.720  0.00  0.00     0.003 A 
ATOM      6  C4  OXE d   1      -0.800  -0.357   0.787  0.00  0.00    -0.002 A 
ATOM      7  C5  OXE d   1      -0.430  -1.283  -0.194  0.00  0.00    -0.002 A 
ATOM      8  C6  OXE d   1       0.389  -0.876  -1.242  0.00  0.00     0.003 A 
ENDROOT
TORSDOF 0
ENDMDL
