MODEL 1
REMARK minimizedAffinity -5.1632266
REMARK minimizedRMSD -1
REMARK  0 active torsions:
REMARK  status: ('A' for Active; 'I' for Inactive)
ROOT
ATOM      1  C2' OXE d   1       1.142   2.780   0.638  0.00  0.00     0.078 C 
ATOM      2  C1' OXE d   1      -0.482   0.598   1.332  0.00  0.00     0.078 C 
ATOM      3  C1  OXE d   1       0.197   0.570  -0.015  0.00  0.00    -0.078 A 
ATOM      4  C2  OXE d   1       0.952   1.663  -0.365  0.00  0.00    -0.078 A 
ATOM      5  C3  OXE d   1       1.644   1.664  -1.573  0.00  0.00     0.003 A 
ATOM      6  C4  OXE d   1       1.455   0.632  -2.499  0.00  0.00    -0.002 A 
ATOM      7  C5  OXE d   1       0.659  -0.473  -2.178  0.00  0.00    -0.002 A 
ATOM      8  C6  OXE d   1       0.058  -0.539  -0.926  0.00  0.00     0.003 A 
ENDROOT
TORSDOF 0
ENDMDL
