MODEL 1
REMARK minimizedAffinity -4.21282578
REMARK minimizedRMSD -1
REMARK  0 active torsions:
REMARK  status: ('A' for Active; 'I' for Inactive)
ROOT
ATOM      1  C2' OXE d   1       1.024   1.807  -0.378  0.00  0.00     0.078 C 
ATOM      2  C1' OXE d   1      -0.292  -0.241   1.019  0.00  0.00     0.078 C 
ATOM      3  C1  OXE d   1       0.637  -0.638  -0.101  0.00  0.00    -0.078 A 
ATOM      4  C2  OXE d   1       1.241   0.373  -0.809  0.00  0.00    -0.078 A 
ATOM      5  C3  OXE d   1       2.149   0.061  -1.817  0.00  0.00     0.003 A 
ATOM      6  C4  OXE d   1       2.336  -1.268  -2.216  0.00  0.00    -0.002 A 
ATOM      7  C5  OXE d   1       1.700  -2.311  -1.534  0.00  0.00    -0.002 A 
ATOM      8  C6  OXE d   1       0.882  -2.016  -0.449  0.00  0.00     0.003 A 
ENDROOT
TORSDOF 0
ENDMDL
