MODEL 1
REMARK minimizedAffinity -6.46372032
REMARK minimizedRMSD -1
REMARK  3 active torsions:
REMARK  status: ('A' for Active; 'I' for Inactive)
REMARK    1  A    between atoms: C3'_2  and  C2'_3 
REMARK    2  A    between atoms: C2'_3  and  C1'_4 
REMARK    3  A    between atoms: C1'_4  and  C1_5 
ROOT
ATOM      1  C1  N4B d   1       0.291   0.428  -0.566  0.00  0.00    -0.075 A 
ATOM      2  C2  N4B d   1      -0.276  -0.244   0.539  0.00  0.00     0.002 A 
ATOM      3  C3  N4B d   1      -1.229   0.379   1.306  0.00  0.00     0.002 A 
ATOM      4  C4  N4B d   1      -1.616   1.675   1.000  0.00  0.00    -0.004 A 
ATOM      5  C5  N4B d   1      -1.082   2.308  -0.084  0.00  0.00     0.002 A 
ATOM      6  C6  N4B d   1      -0.125   1.692  -0.866  0.00  0.00     0.002 A 
ENDROOT
BRANCH   1   7
ATOM      7  C1' N4B d   1       1.399  -0.180  -1.383  0.00  0.00     0.057 C 
BRANCH   7   8
ATOM      8  C2' N4B d   1       1.271  -1.700  -1.345  0.00  0.00     0.009 C 
BRANCH   8   9
ATOM      9  C3' N4B d   1       0.414  -2.227  -2.483  0.00  0.00     0.004 C 
ATOM     10  C4' N4B d   1      -0.569  -3.268  -2.036  0.00  0.00     0.003 C 
ENDBRANCH   8   9
ENDBRANCH   7   8
ENDBRANCH   1   7
TORSDOF 3
ENDMDL
