MODEL 1
REMARK minimizedAffinity -5.47451878
REMARK minimizedRMSD -1
REMARK  3 active torsions:
REMARK  status: ('A' for Active; 'I' for Inactive)
REMARK    1  A    between atoms: C3'_2  and  C2'_3 
REMARK    2  A    between atoms: C2'_3  and  C1'_4 
REMARK    3  A    between atoms: C1'_4  and  C1_5 
ROOT
ATOM      1  C1  N4B d   1      -0.116  -0.064   0.433  0.00  0.00    -0.075 A 
ATOM      2  C2  N4B d   1      -0.764  -0.147   1.685  0.00  0.00     0.002 A 
ATOM      3  C3  N4B d   1      -1.564   0.884   2.114  0.00  0.00     0.002 A 
ATOM      4  C4  N4B d   1      -1.716   2.010   1.319  0.00  0.00    -0.004 A 
ATOM      5  C5  N4B d   1      -1.107   2.071   0.100  0.00  0.00     0.002 A 
ATOM      6  C6  N4B d   1      -0.303   1.042  -0.345  0.00  0.00     0.002 A 
ENDROOT
BRANCH   1   7
ATOM      7  C1' N4B d   1       0.837  -1.127  -0.040  0.00  0.00     0.057 C 
BRANCH   7   8
ATOM      8  C2' N4B d   1       0.699  -1.287  -1.551  0.00  0.00     0.009 C 
BRANCH   8   9
ATOM      9  C3' N4B d   1       0.642  -2.748  -1.965  0.00  0.00     0.004 C 
ATOM     10  C4' N4B d   1      -0.154  -2.965  -3.217  0.00  0.00     0.003 C 
ENDBRANCH   8   9
ENDBRANCH   7   8
ENDBRANCH   1   7
TORSDOF 3
ENDMDL
