MODEL 1
REMARK minimizedAffinity -2.98987269
REMARK minimizedRMSD -1
REMARK  3 active torsions:
REMARK  status: ('A' for Active; 'I' for Inactive)
REMARK    1  A    between atoms: C3'_2  and  C2'_3 
REMARK    2  A    between atoms: C2'_3  and  C1'_4 
REMARK    3  A    between atoms: C1'_4  and  C1_5 
ROOT
ATOM      1  C1  N4B d   1      -0.115   0.979  -0.069  0.00  0.00    -0.075 A 
ATOM      2  C2  N4B d   1      -0.744   0.287   0.989  0.00  0.00     0.002 A 
ATOM      3  C3  N4B d   1      -1.499   0.976   1.907  0.00  0.00     0.002 A 
ATOM      4  C4  N4B d   1      -1.622   2.353   1.798  0.00  0.00    -0.004 A 
ATOM      5  C5  N4B d   1      -1.032   3.010   0.759  0.00  0.00     0.002 A 
ATOM      6  C6  N4B d   1      -0.274   2.330  -0.173  0.00  0.00     0.002 A 
ENDROOT
BRANCH   1   7
ATOM      7  C1' N4B d   1       0.790   0.281  -1.047  0.00  0.00     0.057 C 
BRANCH   7   8
ATOM      8  C2' N4B d   1       0.574  -1.226  -0.941  0.00  0.00     0.009 C 
BRANCH   8   9
ATOM      9  C3' N4B d   1       0.301  -1.857  -2.296  0.00  0.00     0.004 C 
ATOM     10  C4' N4B d   1       0.579  -3.331  -2.317  0.00  0.00     0.003 C 
ENDBRANCH   8   9
ENDBRANCH   7   8
ENDBRANCH   1   7
TORSDOF 3
ENDMDL
