MODEL 1
REMARK minimizedAffinity -5.40123987
REMARK minimizedRMSD -1
REMARK  3 active torsions:
REMARK  status: ('A' for Active; 'I' for Inactive)
REMARK    1  A    between atoms: C3'_2  and  C2'_3 
REMARK    2  A    between atoms: C2'_3  and  C1'_4 
REMARK    3  A    between atoms: C1'_4  and  C1_5 
ROOT
ATOM      1  C1  N4B d   1       0.244   0.643  -0.067  0.00  0.00    -0.075 A 
ATOM      2  C2  N4B d   1      -0.129   0.276   1.244  0.00  0.00     0.002 A 
ATOM      3  C3  N4B d   1      -1.205   0.881   1.846  0.00  0.00     0.002 A 
ATOM      4  C4  N4B d   1      -1.907   1.865   1.167  0.00  0.00    -0.004 A 
ATOM      5  C5  N4B d   1      -1.556   2.196  -0.109  0.00  0.00     0.002 A 
ATOM      6  C6  N4B d   1      -0.479   1.594  -0.728  0.00  0.00     0.002 A 
ENDROOT
BRANCH   1   7
ATOM      7  C1' N4B d   1       1.465   0.071  -0.735  0.00  0.00     0.057 C 
BRANCH   7   8
ATOM      8  C2' N4B d   1       1.367  -1.451  -0.737  0.00  0.00     0.009 C 
BRANCH   8   9
ATOM      9  C3' N4B d   1       0.305  -1.951  -1.700  0.00  0.00     0.004 C 
ATOM     10  C4' N4B d   1       0.299  -3.445  -1.835  0.00  0.00     0.003 C 
ENDBRANCH   8   9
ENDBRANCH   7   8
ENDBRANCH   1   7
TORSDOF 3
ENDMDL
