MODEL 1
REMARK minimizedAffinity -3.17641544
REMARK minimizedRMSD -1
REMARK  3 active torsions:
REMARK  status: ('A' for Active; 'I' for Inactive)
REMARK    1  A    between atoms: C3'_2  and  C2'_3 
REMARK    2  A    between atoms: C2'_3  and  C1'_4 
REMARK    3  A    between atoms: C1'_4  and  C1_5 
ROOT
ATOM      1  C1  N4B d   1      -0.265   0.392   0.746  0.00  0.00    -0.075 A 
ATOM      2  C2  N4B d   1      -0.317   1.766   1.067  0.00  0.00     0.002 A 
ATOM      3  C3  N4B d   1      -1.152   2.208   2.064  0.00  0.00     0.002 A 
ATOM      4  C4  N4B d   1      -1.955   1.300   2.738  0.00  0.00    -0.004 A 
ATOM      5  C5  N4B d   1      -1.881  -0.029   2.439  0.00  0.00     0.002 A 
ATOM      6  C6  N4B d   1      -1.043  -0.487   1.442  0.00  0.00     0.002 A 
ENDROOT
BRANCH   1   7
ATOM      7  C1' N4B d   1       0.569  -0.126  -0.393  0.00  0.00     0.057 C 
BRANCH   7   8
ATOM      8  C2' N4B d   1       0.053  -1.502  -0.806  0.00  0.00     0.009 C 
BRANCH   8   9
ATOM      9  C3' N4B d   1       0.892  -2.114  -1.915  0.00  0.00     0.004 C 
ATOM     10  C4' N4B d   1       2.129  -1.321  -2.212  0.00  0.00     0.003 C 
ENDBRANCH   8   9
ENDBRANCH   7   8
ENDBRANCH   1   7
TORSDOF 3
ENDMDL
