MODEL 1
REMARK minimizedAffinity -4.16439724
REMARK minimizedRMSD -1
REMARK  0 active torsions:
REMARK  status: ('A' for Active; 'I' for Inactive)
ROOT
ATOM      1  C1  BNZ d   1       0.130  -1.070  -0.580  0.00  0.00     0.000 A 
ATOM      2  C2  BNZ d   1       1.245  -1.323   0.173  0.00  0.00     0.000 A 
ATOM      3  C3  BNZ d   1       1.897  -0.312   0.821  0.00  0.00     0.000 A 
ATOM      4  C4  BNZ d   1       1.458   0.956   0.682  0.00  0.00     0.000 A 
ATOM      5  C5  BNZ d   1       0.340   1.229  -0.081  0.00  0.00     0.000 A 
ATOM      6  C6  BNZ d   1      -0.336   0.203  -0.700  0.00  0.00     0.000 A 
ENDROOT
TORSDOF 0
ENDMDL
