MODEL 1
REMARK minimizedAffinity -2.50877333
REMARK minimizedRMSD -1
REMARK  0 active torsions:
REMARK  status: ('A' for Active; 'I' for Inactive)
ROOT
ATOM      1  C1  BNZ d   1      -4.406   0.461   0.813  0.00  0.00     0.000 A 
ATOM      2  C2  BNZ d   1      -3.694   0.664  -0.339  0.00  0.00     0.000 A 
ATOM      3  C3  BNZ d   1      -2.370   1.002  -0.293  0.00  0.00     0.000 A 
ATOM      4  C4  BNZ d   1      -1.772   1.176   0.903  0.00  0.00     0.000 A 
ATOM      5  C5  BNZ d   1      -2.479   0.985   2.073  0.00  0.00     0.000 A 
ATOM      6  C6  BNZ d   1      -3.801   0.607   2.023  0.00  0.00     0.000 A 
ENDROOT
TORSDOF 0
ENDMDL
