MODEL 1
REMARK minimizedAffinity -4.24486065
REMARK minimizedRMSD -1
REMARK  0 active torsions:
REMARK  status: ('A' for Active; 'I' for Inactive)
ROOT
ATOM      1  C1  BNZ d   1       0.673  -1.730  -0.377  0.00  0.00     0.000 A 
ATOM      2  C2  BNZ d   1       1.970  -1.801   0.056  0.00  0.00     0.000 A 
ATOM      3  C3  BNZ d   1       2.556  -0.741   0.689  0.00  0.00     0.000 A 
ATOM      4  C4  BNZ d   1       1.858   0.401   0.853  0.00  0.00     0.000 A 
ATOM      5  C5  BNZ d   1       0.552   0.492   0.414  0.00  0.00     0.000 A 
ATOM      6  C6  BNZ d   1      -0.047  -0.591  -0.188  0.00  0.00     0.000 A 
ENDROOT
TORSDOF 0
ENDMDL
