MODEL 1
REMARK minimizedAffinity -3.71002245
REMARK minimizedRMSD -1
REMARK  0 active torsions:
REMARK  status: ('A' for Active; 'I' for Inactive)
ROOT
ATOM      1  C1  BNZ d   1       0.642   1.040  -0.534  0.00  0.00     0.000 A 
ATOM      2  C2  BNZ d   1       1.971   0.732  -0.416  0.00  0.00     0.000 A 
ATOM      3  C3  BNZ d   1       2.395  -0.567  -0.463  0.00  0.00     0.000 A 
ATOM      4  C4  BNZ d   1       1.488  -1.557  -0.587  0.00  0.00     0.000 A 
ATOM      5  C5  BNZ d   1       0.143  -1.263  -0.698  0.00  0.00     0.000 A 
ATOM      6  C6  BNZ d   1      -0.276   0.048  -0.689  0.00  0.00     0.000 A 
ENDROOT
TORSDOF 0
ENDMDL
