MODEL 1
REMARK minimizedAffinity -4.76108694
REMARK minimizedRMSD -1
REMARK  0 active torsions:
REMARK  status: ('A' for Active; 'I' for Inactive)
ROOT
ATOM      1  C1  BNZ d   1       0.136  -0.021  -0.190  0.00  0.00     0.000 A 
ATOM      2  C2  BNZ d   1       0.575  -1.313  -0.070  0.00  0.00     0.000 A 
ATOM      3  C3  BNZ d   1       1.816  -1.587   0.431  0.00  0.00     0.000 A 
ATOM      4  C4  BNZ d   1       2.632  -0.569   0.774  0.00  0.00     0.000 A 
ATOM      5  C5  BNZ d   1       2.209   0.739   0.650  0.00  0.00     0.000 A 
ATOM      6  C6  BNZ d   1       0.944   1.010   0.182  0.00  0.00     0.000 A 
ENDROOT
TORSDOF 0
ENDMDL
