MODEL 1
REMARK minimizedAffinity -3.85855293
REMARK minimizedRMSD -1
REMARK  0 active torsions:
REMARK  status: ('A' for Active; 'I' for Inactive)
ROOT
ATOM      1  C1  BNZ d   1       0.984   0.320   0.946  0.00  0.00     0.000 A 
ATOM      2  C2  BNZ d   1      -0.066   0.915   0.299  0.00  0.00     0.000 A 
ATOM      3  C3  BNZ d   1      -0.719   0.272  -0.715  0.00  0.00     0.000 A 
ATOM      4  C4  BNZ d   1      -0.297  -0.947  -1.107  0.00  0.00     0.000 A 
ATOM      5  C5  BNZ d   1       0.766  -1.557  -0.471  0.00  0.00     0.000 A 
ATOM      6  C6  BNZ d   1       1.396  -0.923   0.576  0.00  0.00     0.000 A 
ENDROOT
TORSDOF 0
ENDMDL
