MODEL 1
REMARK minimizedAffinity -3.44528985
REMARK minimizedRMSD -1
REMARK  0 active torsions:
REMARK  status: ('A' for Active; 'I' for Inactive)
ROOT
ATOM      1  C1  BNZ d   1       2.826  -1.172  -0.424  0.00  0.00     0.000 A 
ATOM      2  C2  BNZ d   1       1.699  -1.948  -0.377  0.00  0.00     0.000 A 
ATOM      3  C3  BNZ d   1       0.457  -1.377  -0.354  0.00  0.00     0.000 A 
ATOM      4  C4  BNZ d   1       0.345  -0.033  -0.338  0.00  0.00     0.000 A 
ATOM      5  C5  BNZ d   1       1.473   0.763  -0.376  0.00  0.00     0.000 A 
ATOM      6  C6  BNZ d   1       2.720   0.184  -0.438  0.00  0.00     0.000 A 
ENDROOT
TORSDOF 0
ENDMDL
