MODEL 1
REMARK minimizedAffinity -3.4849112
REMARK minimizedRMSD -1
REMARK  0 active torsions:
REMARK  status: ('A' for Active; 'I' for Inactive)
ROOT
ATOM      1  C1  BNZ d   1       0.172  -0.614  -0.916  0.00  0.00     0.000 A 
ATOM      2  C2  BNZ d   1      -0.639   0.478  -0.757  0.00  0.00     0.000 A 
ATOM      3  C3  BNZ d   1      -1.341   0.667   0.400  0.00  0.00     0.000 A 
ATOM      4  C4  BNZ d   1      -1.263  -0.256   1.381  0.00  0.00     0.000 A 
ATOM      5  C5  BNZ d   1      -0.457  -1.367   1.232  0.00  0.00     0.000 A 
ATOM      6  C6  BNZ d   1       0.278  -1.534   0.081  0.00  0.00     0.000 A 
ENDROOT
TORSDOF 0
ENDMDL
