MODEL 1
REMARK minimizedAffinity 1.72490501
REMARK minimizedRMSD -1
REMARK  0 active torsions:
REMARK  status: ('A' for Active; 'I' for Inactive)
ROOT
ATOM      1  C1  BNZ d   1       1.729  -2.642  -0.282  0.00  0.00     0.000 A 
ATOM      2  C2  BNZ d   1       0.365  -2.679  -0.392  0.00  0.00     0.000 A 
ATOM      3  C3  BNZ d   1      -0.347  -1.542  -0.656  0.00  0.00     0.000 A 
ATOM      4  C4  BNZ d   1       0.302  -0.365  -0.769  0.00  0.00     0.000 A 
ATOM      5  C5  BNZ d   1       1.676  -0.310  -0.651  0.00  0.00     0.000 A 
ATOM      6  C6  BNZ d   1       2.393  -1.463  -0.424  0.00  0.00     0.000 A 
ENDROOT
TORSDOF 0
ENDMDL
