MODEL 1
REMARK minimizedAffinity 1.82155597
REMARK minimizedRMSD -1
REMARK  0 active torsions:
REMARK  status: ('A' for Active; 'I' for Inactive)
ROOT
ATOM      1  C1  BNZ d   1       1.382  -3.405  -0.173  0.00  0.00     0.000 A 
ATOM      2  C2  BNZ d   1       0.297  -4.212  -0.390  0.00  0.00     0.000 A 
ATOM      3  C3  BNZ d   1      -0.668  -3.860  -1.292  0.00  0.00     0.000 A 
ATOM      4  C4  BNZ d   1      -0.567  -2.685  -1.946  0.00  0.00     0.000 A 
ATOM      5  C5  BNZ d   1       0.516  -1.856  -1.731  0.00  0.00     0.000 A 
ATOM      6  C6  BNZ d   1       1.505  -2.232  -0.852  0.00  0.00     0.000 A 
ENDROOT
TORSDOF 0
ENDMDL
