MODEL 1
REMARK minimizedAffinity 11.515008
REMARK minimizedRMSD -1
REMARK  3 active torsions:
REMARK  status: ('A' for Active; 'I' for Inactive)
REMARK    1  A    between atoms: C3'_2  and  C2'_3 
REMARK    2  A    between atoms: C2'_3  and  C1'_4 
REMARK    3  A    between atoms: C1'_4  and  C1_5 
ROOT
ATOM      1  C1  N4B d   1      -0.531  -1.520  -0.639  0.00  0.00    -0.075 A 
ATOM      2  C2  N4B d   1      -0.477  -1.972   0.698  0.00  0.00     0.002 A 
ATOM      3  C3  N4B d   1       0.231  -1.260   1.635  0.00  0.00     0.002 A 
ATOM      4  C4  N4B d   1       0.905  -0.109   1.257  0.00  0.00    -0.004 A 
ATOM      5  C5  N4B d   1       0.827   0.335  -0.031  0.00  0.00     0.002 A 
ATOM      6  C6  N4B d   1       0.116  -0.368  -0.983  0.00  0.00     0.002 A 
ENDROOT
BRANCH   1   7
ATOM      7  C1' N4B d   1      -1.222  -2.310  -1.717  0.00  0.00     0.057 C 
BRANCH   7   8
ATOM      8  C2' N4B d   1      -1.612  -3.677  -1.164  0.00  0.00     0.009 C 
BRANCH   8   9
ATOM      9  C3' N4B d   1      -0.834  -4.801  -1.826  0.00  0.00     0.004 C 
ATOM     10  C4' N4B d   1       0.268  -5.333  -0.960  0.00  0.00     0.003 C 
ENDBRANCH   8   9
ENDBRANCH   7   8
ENDBRANCH   1   7
TORSDOF 3
ENDMDL
