MODEL 1
REMARK minimizedAffinity 7.03497458
REMARK minimizedRMSD -1
REMARK  0 active torsions:
REMARK  status: ('A' for Active; 'I' for Inactive)
ROOT
ATOM      1  C   UNL d   1      -5.406  -1.118   3.039  0.00  0.00     0.020 A 
ATOM      2  C1  UNL d   1      -4.018  -1.079   2.913  0.00  0.00     0.020 A 
ATOM      3  C2  UNL d   1      -3.219  -1.864   3.746  0.00  0.00     0.034 A 
ATOM      4  C3  UNL d   1      -3.806  -2.692   4.709  0.00  0.00     0.017 A 
ATOM      5  C4  UNL d   1      -5.200  -2.732   4.834  0.00  0.00     0.017 A 
ATOM      6  C5  UNL d   1      -5.995  -1.943   3.997  0.00  0.00     0.034 A 
ATOM      7 Cl   UNL d   1      -5.998  -3.729   5.998  0.00  0.00    -0.070 Cl
ATOM      8 Cl1  UNL d   1      -2.757  -3.637   5.705  0.00  0.00    -0.070 Cl
ENDROOT
TORSDOF 0
ENDMDL
