MODEL 1
REMARK minimizedAffinity 3.68418574
REMARK minimizedRMSD -1
REMARK  0 active torsions:
REMARK  status: ('A' for Active; 'I' for Inactive)
ROOT
ATOM      1  C   UNL d   1      -1.930   5.294  -1.087  0.00  0.00     0.020 A 
ATOM      2  C1  UNL d   1      -0.648   5.762  -1.371  0.00  0.00     0.020 A 
ATOM      3  C2  UNL d   1      -0.104   5.575  -2.644  0.00  0.00     0.034 A 
ATOM      4  C3  UNL d   1      -0.842   4.920  -3.636  0.00  0.00     0.017 A 
ATOM      5  C4  UNL d   1      -2.129   4.451  -3.349  0.00  0.00     0.017 A 
ATOM      6  C5  UNL d   1      -2.669   4.641  -2.073  0.00  0.00     0.034 A 
ATOM      7 Cl   UNL d   1      -3.100   3.634  -4.522  0.00  0.00    -0.070 Cl
ATOM      8 Cl1  UNL d   1      -0.106   4.725  -5.187  0.00  0.00    -0.070 Cl
ENDROOT
TORSDOF 0
ENDMDL
