MODEL 1
REMARK minimizedAffinity -0.299594969
REMARK minimizedRMSD -1
REMARK  0 active torsions:
REMARK  status: ('A' for Active; 'I' for Inactive)
ROOT
ATOM      1  C   UNL d   1      -1.341  -4.474  -5.999  0.00  0.00     0.020 A 
ATOM      2  C1  UNL d   1      -1.939  -5.734  -5.999  0.00  0.00     0.020 A 
ATOM      3  C2  UNL d   1      -3.331  -5.846  -5.999  0.00  0.00     0.034 A 
ATOM      4  C3  UNL d   1      -4.130  -4.697  -5.999  0.00  0.00     0.017 A 
ATOM      5  C4  UNL d   1      -3.529  -3.433  -5.999  0.00  0.00     0.017 A 
ATOM      6  C5  UNL d   1      -2.135  -3.326  -6.000  0.00  0.00     0.034 A 
ATOM      7 Cl   UNL d   1      -4.449  -1.970  -6.000  0.00  0.00    -0.070 Cl
ATOM      8 Cl1  UNL d   1      -5.845  -4.911  -5.999  0.00  0.00    -0.070 Cl
ENDROOT
TORSDOF 0
ENDMDL
