MODEL 1
REMARK minimizedAffinity 8.47262383
REMARK minimizedRMSD -1
REMARK  0 active torsions:
REMARK  status: ('A' for Active; 'I' for Inactive)
ROOT
ATOM      1  C   UNL d   1       0.209   4.032  -2.372  0.00  0.00     0.020 A 
ATOM      2  C1  UNL d   1      -0.373   5.296  -2.458  0.00  0.00     0.020 A 
ATOM      3  C2  UNL d   1      -1.278   5.716  -1.481  0.00  0.00     0.034 A 
ATOM      4  C3  UNL d   1      -1.604   4.871  -0.414  0.00  0.00     0.017 A 
ATOM      5  C4  UNL d   1      -1.019   3.603  -0.328  0.00  0.00     0.017 A 
ATOM      6  C5  UNL d   1      -0.113   3.187  -1.309  0.00  0.00     0.034 A 
ATOM      7 Cl   UNL d   1      -1.371   2.504   0.959  0.00  0.00    -0.070 Cl
ATOM      8 Cl1  UNL d   1      -2.730   5.456   0.759  0.00  0.00    -0.070 Cl
ENDROOT
TORSDOF 0
ENDMDL
