MODEL 1
REMARK minimizedAffinity 6.83546638
REMARK minimizedRMSD -1
REMARK  0 active torsions:
REMARK  status: ('A' for Active; 'I' for Inactive)
ROOT
ATOM      1  C   UNL d   1      -4.410  -5.132  -5.971  0.00  0.00     0.020 A 
ATOM      2  C1  UNL d   1      -3.163  -5.755  -5.950  0.00  0.00     0.020 A 
ATOM      3  C2  UNL d   1      -1.997  -4.986  -5.944  0.00  0.00     0.034 A 
ATOM      4  C3  UNL d   1      -2.076  -3.589  -5.958  0.00  0.00     0.017 A 
ATOM      5  C4  UNL d   1      -3.328  -2.964  -5.978  0.00  0.00     0.017 A 
ATOM      6  C5  UNL d   1      -4.492  -3.739  -5.985  0.00  0.00     0.034 A 
ATOM      7 Cl   UNL d   1      -3.505  -1.244  -5.996  0.00  0.00    -0.070 Cl
ATOM      8 Cl1  UNL d   1      -0.594  -2.701  -5.948  0.00  0.00    -0.070 Cl
ENDROOT
TORSDOF 0
ENDMDL
