MODEL 1
REMARK minimizedAffinity 1.4932766
REMARK minimizedRMSD -1
REMARK  0 active torsions:
REMARK  status: ('A' for Active; 'I' for Inactive)
ROOT
ATOM      1  C   UNL d   1       0.003   4.264  -2.512  0.00  0.00     0.020 A 
ATOM      2  C1  UNL d   1      -0.666   5.483  -2.613  0.00  0.00     0.020 A 
ATOM      3  C2  UNL d   1      -1.345   6.000  -1.508  0.00  0.00     0.034 A 
ATOM      4  C3  UNL d   1      -1.357   5.297  -0.297  0.00  0.00     0.017 A 
ATOM      5  C4  UNL d   1      -0.685   4.074  -0.197  0.00  0.00     0.017 A 
ATOM      6  C5  UNL d   1      -0.007   3.561  -1.307  0.00  0.00     0.034 A 
ATOM      7 Cl   UNL d   1      -0.655   3.150   1.263  0.00  0.00    -0.070 Cl
ATOM      8 Cl1  UNL d   1      -2.217   5.996   1.029  0.00  0.00    -0.070 Cl
ENDROOT
TORSDOF 0
ENDMDL
