MODEL 1
REMARK minimizedAffinity 4.88682795
REMARK minimizedRMSD -1
REMARK  0 active torsions:
REMARK  status: ('A' for Active; 'I' for Inactive)
ROOT
ATOM      1  C   UNL d   1      -3.749  -4.792  -5.994  0.00  0.00     0.020 A 
ATOM      2  C1  UNL d   1      -3.009  -5.974  -5.995  0.00  0.00     0.020 A 
ATOM      3  C2  UNL d   1      -1.613  -5.923  -5.995  0.00  0.00     0.034 A 
ATOM      4  C3  UNL d   1      -0.954  -4.689  -5.994  0.00  0.00     0.017 A 
ATOM      5  C4  UNL d   1      -1.698  -3.504  -5.993  0.00  0.00     0.017 A 
ATOM      6  C5  UNL d   1      -3.095  -3.560  -5.993  0.00  0.00     0.034 A 
ATOM      7 Cl   UNL d   1      -0.955  -1.943  -5.992  0.00  0.00    -0.070 Cl
ATOM      8 Cl1  UNL d   1       0.774  -4.701  -5.995  0.00  0.00    -0.070 Cl
ENDROOT
TORSDOF 0
ENDMDL
