MODEL 1
REMARK minimizedAffinity -3.50299335
REMARK minimizedRMSD -1
REMARK  0 active torsions:
REMARK  status: ('A' for Active; 'I' for Inactive)
ROOT
ATOM      1  C1  BNZ d   1       0.860   0.014   1.073  0.00  0.00     0.000 A 
ATOM      2  C2  BNZ d   1       0.439   0.921   2.009  0.00  0.00     0.000 A 
ATOM      3  C3  BNZ d   1      -0.478   1.883   1.689  0.00  0.00     0.000 A 
ATOM      4  C4  BNZ d   1      -0.941   1.963   0.425  0.00  0.00     0.000 A 
ATOM      5  C5  BNZ d   1      -0.519   1.062  -0.533  0.00  0.00     0.000 A 
ATOM      6  C6  BNZ d   1       0.374   0.070  -0.197  0.00  0.00     0.000 A 
ENDROOT
TORSDOF 0
ENDMDL
