MODEL 1
REMARK minimizedAffinity -3.00143623
REMARK minimizedRMSD -1
REMARK  0 active torsions:
REMARK  status: ('A' for Active; 'I' for Inactive)
ROOT
ATOM      1  C1  BNZ d   1      -0.975   0.890  -0.324  0.00  0.00     0.000 A 
ATOM      2  C2  BNZ d   1      -1.331   1.763   0.669  0.00  0.00     0.000 A 
ATOM      3  C3  BNZ d   1      -0.793   1.656   1.921  0.00  0.00     0.000 A 
ATOM      4  C4  BNZ d   1       0.069   0.653   2.189  0.00  0.00     0.000 A 
ATOM      5  C5  BNZ d   1       0.430  -0.240   1.200  0.00  0.00     0.000 A 
ATOM      6  C6  BNZ d   1      -0.084  -0.106  -0.069  0.00  0.00     0.000 A 
ENDROOT
TORSDOF 0
ENDMDL
