MODEL 1
REMARK minimizedAffinity -4.88397837
REMARK minimizedRMSD -1
REMARK  0 active torsions:
REMARK  status: ('A' for Active; 'I' for Inactive)
ROOT
ATOM      1  C1  BNZ d   1      -0.306   0.715  -0.805  0.00  0.00     0.000 A 
ATOM      2  C2  BNZ d   1      -0.230   0.705   0.562  0.00  0.00     0.000 A 
ATOM      3  C3  BNZ d   1      -0.561   1.814   1.290  0.00  0.00     0.000 A 
ATOM      4  C4  BNZ d   1      -0.928   2.942   0.649  0.00  0.00     0.000 A 
ATOM      5  C5  BNZ d   1      -1.001   2.971  -0.730  0.00  0.00     0.000 A 
ATOM      6  C6  BNZ d   1      -0.705   1.841  -1.457  0.00  0.00     0.000 A 
ENDROOT
TORSDOF 0
ENDMDL
