MODEL 1
REMARK minimizedAffinity -5.05033493
REMARK minimizedRMSD -1
REMARK  0 active torsions:
REMARK  status: ('A' for Active; 'I' for Inactive)
ROOT
ATOM      1  C1  BNZ d   1      -1.271   3.066   1.378  0.00  0.00     0.000 A 
ATOM      2  C2  BNZ d   1      -1.445   2.959   0.024  0.00  0.00     0.000 A 
ATOM      3  C3  BNZ d   1      -0.987   1.866  -0.657  0.00  0.00     0.000 A 
ATOM      4  C4  BNZ d   1      -0.320   0.902   0.010  0.00  0.00     0.000 A 
ATOM      5  C5  BNZ d   1      -0.128   1.000   1.373  0.00  0.00     0.000 A 
ATOM      6  C6  BNZ d   1      -0.625   2.083   2.061  0.00  0.00     0.000 A 
ENDROOT
TORSDOF 0
ENDMDL
