MODEL 1
REMARK minimizedAffinity -4.46752977
REMARK minimizedRMSD -1
REMARK  0 active torsions:
REMARK  status: ('A' for Active; 'I' for Inactive)
ROOT
ATOM      1  C1  BNZ d   1      -0.355   0.651   1.216  0.00  0.00     0.000 A 
ATOM      2  C2  BNZ d   1      -0.589   1.859   1.817  0.00  0.00     0.000 A 
ATOM      3  C3  BNZ d   1      -0.736   2.995   1.072  0.00  0.00     0.000 A 
ATOM      4  C4  BNZ d   1      -0.608   2.929  -0.269  0.00  0.00     0.000 A 
ATOM      5  C5  BNZ d   1      -0.363   1.720  -0.890  0.00  0.00     0.000 A 
ATOM      6  C6  BNZ d   1      -0.255   0.572  -0.139  0.00  0.00     0.000 A 
ENDROOT
TORSDOF 0
ENDMDL
