MODEL 1
REMARK minimizedAffinity -4.95390701
REMARK minimizedRMSD -1
REMARK  0 active torsions:
REMARK  status: ('A' for Active; 'I' for Inactive)
ROOT
ATOM      1  C1  BNZ d   1      -0.161   1.938   2.009  0.00  0.00     0.000 A 
ATOM      2  C2  BNZ d   1      -0.634   3.080   1.420  0.00  0.00     0.000 A 
ATOM      3  C3  BNZ d   1      -1.085   3.068   0.130  0.00  0.00     0.000 A 
ATOM      4  C4  BNZ d   1      -1.025   1.925  -0.582  0.00  0.00     0.000 A 
ATOM      5  C5  BNZ d   1      -0.542   0.767  -0.006  0.00  0.00     0.000 A 
ATOM      6  C6  BNZ d   1      -0.125   0.774   1.305  0.00  0.00     0.000 A 
ENDROOT
TORSDOF 0
ENDMDL
