MODEL 1
REMARK minimizedAffinity -5.32592201
REMARK minimizedRMSD -1
REMARK  0 active torsions:
REMARK  status: ('A' for Active; 'I' for Inactive)
ROOT
ATOM      1  C1  BNZ d   1      -0.605   3.716   0.648  0.00  0.00     0.000 A 
ATOM      2  C2  BNZ d   1      -0.342   3.403  -0.659  0.00  0.00     0.000 A 
ATOM      3  C3  BNZ d   1      -0.094   2.112  -1.033  0.00  0.00     0.000 A 
ATOM      4  C4  BNZ d   1      -0.070   1.142  -0.096  0.00  0.00     0.000 A 
ATOM      5  C5  BNZ d   1      -0.324   1.443   1.227  0.00  0.00     0.000 A 
ATOM      6  C6  BNZ d   1      -0.612   2.738   1.595  0.00  0.00     0.000 A 
ENDROOT
TORSDOF 0
ENDMDL
