MODEL 1
REMARK minimizedAffinity -5.32515287
REMARK minimizedRMSD -1
REMARK  0 active torsions:
REMARK  status: ('A' for Active; 'I' for Inactive)
ROOT
ATOM      1  C1  BNZ d   1      -0.678   1.043  -0.015  0.00  0.00     0.000 A 
ATOM      2  C2  BNZ d   1      -0.875   2.208  -0.709  0.00  0.00     0.000 A 
ATOM      3  C3  BNZ d   1      -1.063   3.391  -0.050  0.00  0.00     0.000 A 
ATOM      4  C4  BNZ d   1      -1.094   3.402   1.298  0.00  0.00     0.000 A 
ATOM      5  C5  BNZ d   1      -0.906   2.235   2.011  0.00  0.00     0.000 A 
ATOM      6  C6  BNZ d   1      -0.678   1.052   1.345  0.00  0.00     0.000 A 
ENDROOT
TORSDOF 0
ENDMDL
