MODEL 1
REMARK minimizedAffinity -4.1663022
REMARK minimizedRMSD -1
REMARK  0 active torsions:
REMARK  status: ('A' for Active; 'I' for Inactive)
ROOT
ATOM      1  C1  BNZ d   1      -0.803   2.189  -1.115  0.00  0.00     0.000 A 
ATOM      2  C2  BNZ d   1      -0.631   1.047  -0.379  0.00  0.00     0.000 A 
ATOM      3  C3  BNZ d   1      -0.562   1.098   0.985  0.00  0.00     0.000 A 
ATOM      4  C4  BNZ d   1      -0.624   2.293   1.608  0.00  0.00     0.000 A 
ATOM      5  C5  BNZ d   1      -0.788   3.454   0.879  0.00  0.00     0.000 A 
ATOM      6  C6  BNZ d   1      -0.896   3.395  -0.491  0.00  0.00     0.000 A 
ENDROOT
TORSDOF 0
ENDMDL
