MODEL 1
REMARK minimizedAffinity -4.8738265
REMARK minimizedRMSD -1
REMARK  0 active torsions:
REMARK  status: ('A' for Active; 'I' for Inactive)
ROOT
ATOM      1  C1  BNZ d   1      -0.918   3.217  -0.033  0.00  0.00     0.000 A 
ATOM      2  C2  BNZ d   1      -0.749   2.030  -0.694  0.00  0.00     0.000 A 
ATOM      3  C3  BNZ d   1      -0.275   0.927  -0.041  0.00  0.00     0.000 A 
ATOM      4  C4  BNZ d   1       0.067   1.022   1.260  0.00  0.00     0.000 A 
ATOM      5  C5  BNZ d   1      -0.088   2.215   1.938  0.00  0.00     0.000 A 
ATOM      6  C6  BNZ d   1      -0.602   3.313   1.287  0.00  0.00     0.000 A 
ENDROOT
TORSDOF 0
ENDMDL
