MODEL 1
REMARK minimizedAffinity -3.40089822
REMARK minimizedRMSD -1
REMARK  3 active torsions:
REMARK  status: ('A' for Active; 'I' for Inactive)
REMARK    1  A    between atoms: C3'_2  and  C2'_3 
REMARK    2  A    between atoms: C2'_3  and  C1'_4 
REMARK    3  A    between atoms: C1'_4  and  C1_5 
ROOT
ATOM      1  C1  N4B d   1       0.244  -0.032  -0.166  0.00  0.00    -0.075 A 
ATOM      2  C2  N4B d   1       1.194   0.769   0.506  0.00  0.00     0.002 A 
ATOM      3  C3  N4B d   1       1.169   0.859   1.876  0.00  0.00     0.002 A 
ATOM      4  C4  N4B d   1       0.197   0.176   2.591  0.00  0.00    -0.004 A 
ATOM      5  C5  N4B d   1      -0.701  -0.615   1.937  0.00  0.00     0.002 A 
ATOM      6  C6  N4B d   1      -0.686  -0.719   0.560  0.00  0.00     0.002 A 
ENDROOT
BRANCH   1   7
ATOM      7  C1' N4B d   1       0.178  -0.094  -1.667  0.00  0.00     0.057 C 
BRANCH   7   8
ATOM      8  C2' N4B d   1      -0.002  -1.546  -2.101  0.00  0.00     0.009 C 
BRANCH   8   9
ATOM      9  C3' N4B d   1       0.362  -1.752  -3.561  0.00  0.00     0.004 C 
ATOM     10  C4' N4B d   1       1.724  -2.355  -3.740  0.00  0.00     0.003 C 
ENDBRANCH   8   9
ENDBRANCH   7   8
ENDBRANCH   1   7
TORSDOF 3
ENDMDL
