MODEL 1
REMARK minimizedAffinity -2.67283249
REMARK minimizedRMSD -1
REMARK  3 active torsions:
REMARK  status: ('A' for Active; 'I' for Inactive)
REMARK    1  A    between atoms: C3'_2  and  C2'_3 
REMARK    2  A    between atoms: C2'_3  and  C1'_4 
REMARK    3  A    between atoms: C1'_4  and  C1_5 
ROOT
ATOM      1  C1  N4B d   1       0.468  -0.036  -2.040  0.00  0.00    -0.075 A 
ATOM      2  C2  N4B d   1       1.587   0.439  -2.760  0.00  0.00     0.002 A 
ATOM      3  C3  N4B d   1       1.902  -0.109  -3.979  0.00  0.00     0.002 A 
ATOM      4  C4  N4B d   1       1.129  -1.142  -4.487  0.00  0.00    -0.004 A 
ATOM      5  C5  N4B d   1       0.035  -1.577  -3.798  0.00  0.00     0.002 A 
ATOM      6  C6  N4B d   1      -0.297  -1.033  -2.574  0.00  0.00     0.002 A 
ENDROOT
BRANCH   1   7
ATOM      7  C1' N4B d   1       0.133   0.473  -0.665  0.00  0.00     0.057 C 
BRANCH   7   8
ATOM      8  C2' N4B d   1      -0.168  -0.711   0.248  0.00  0.00     0.009 C 
BRANCH   8   9
ATOM      9  C3' N4B d   1      -1.214  -0.369   1.296  0.00  0.00     0.004 C 
ATOM     10  C4' N4B d   1      -2.534   0.012   0.696  0.00  0.00     0.003 C 
ENDBRANCH   8   9
ENDBRANCH   7   8
ENDBRANCH   1   7
TORSDOF 3
ENDMDL
