MODEL 1
REMARK minimizedAffinity -4.41764259
REMARK minimizedRMSD -1
REMARK  3 active torsions:
REMARK  status: ('A' for Active; 'I' for Inactive)
REMARK    1  A    between atoms: C3'_2  and  C2'_3 
REMARK    2  A    between atoms: C2'_3  and  C1'_4 
REMARK    3  A    between atoms: C1'_4  and  C1_5 
ROOT
ATOM      1  C1  N4B d   1       0.159   0.150  -0.582  0.00  0.00    -0.075 A 
ATOM      2  C2  N4B d   1      -1.017  -0.277   0.071  0.00  0.00     0.002 A 
ATOM      3  C3  N4B d   1      -1.021  -0.453   1.433  0.00  0.00     0.002 A 
ATOM      4  C4  N4B d   1       0.140  -0.227   2.157  0.00  0.00    -0.004 A 
ATOM      5  C5  N4B d   1       1.266   0.211   1.521  0.00  0.00     0.002 A 
ATOM      6  C6  N4B d   1       1.282   0.395   0.153  0.00  0.00     0.002 A 
ENDROOT
BRANCH   1   7
ATOM      7  C1' N4B d   1       0.236   0.273  -2.080  0.00  0.00     0.057 C 
BRANCH   7   8
ATOM      8  C2' N4B d   1       0.298  -1.122  -2.695  0.00  0.00     0.009 C 
BRANCH   8   9
ATOM      9  C3' N4B d   1       1.687  -1.452  -3.213  0.00  0.00     0.004 C 
ATOM     10  C4' N4B d   1       2.515  -0.230  -3.476  0.00  0.00     0.003 C 
ENDBRANCH   8   9
ENDBRANCH   7   8
ENDBRANCH   1   7
TORSDOF 3
ENDMDL
