MODEL 1
REMARK minimizedAffinity -6.07939005
REMARK minimizedRMSD -1
REMARK  3 active torsions:
REMARK  status: ('A' for Active; 'I' for Inactive)
REMARK    1  A    between atoms: C3'_2  and  C2'_3 
REMARK    2  A    between atoms: C2'_3  and  C1'_4 
REMARK    3  A    between atoms: C1'_4  and  C1_5 
ROOT
ATOM      1  C1  N4B d   1       0.268  -0.288   0.272  0.00  0.00    -0.075 A 
ATOM      2  C2  N4B d   1      -0.802  -1.085   0.733  0.00  0.00     0.002 A 
ATOM      3  C3  N4B d   1      -1.068  -1.166   2.078  0.00  0.00     0.002 A 
ATOM      4  C4  N4B d   1      -0.268  -0.477   2.978  0.00  0.00    -0.004 A 
ATOM      5  C5  N4B d   1       0.749   0.310   2.522  0.00  0.00     0.002 A 
ATOM      6  C6  N4B d   1       1.024   0.405   1.173  0.00  0.00     0.002 A 
ENDROOT
BRANCH   1   7
ATOM      7  C1' N4B d   1       0.650  -0.236  -1.183  0.00  0.00     0.057 C 
BRANCH   7   8
ATOM      8  C2' N4B d   1       0.288  -1.563  -1.843  0.00  0.00     0.009 C 
BRANCH   8   9
ATOM      9  C3' N4B d   1       1.447  -2.135  -2.640  0.00  0.00     0.004 C 
ATOM     10  C4' N4B d   1       1.882  -1.237  -3.760  0.00  0.00     0.003 C 
ENDBRANCH   8   9
ENDBRANCH   7   8
ENDBRANCH   1   7
TORSDOF 3
ENDMDL
