MODEL 1
REMARK minimizedAffinity 1.99986315
REMARK minimizedRMSD -1
REMARK  3 active torsions:
REMARK  status: ('A' for Active; 'I' for Inactive)
REMARK    1  A    between atoms: C3'_2  and  C2'_3 
REMARK    2  A    between atoms: C2'_3  and  C1'_4 
REMARK    3  A    between atoms: C1'_4  and  C1_5 
ROOT
ATOM      1  C1  N4B d   1      -0.136  -0.123  -1.065  0.00  0.00    -0.075 A 
ATOM      2  C2  N4B d   1      -1.350   0.591  -1.167  0.00  0.00     0.002 A 
ATOM      3  C3  N4B d   1      -2.349   0.383  -0.248  0.00  0.00     0.002 A 
ATOM      4  C4  N4B d   1      -2.165  -0.544   0.767  0.00  0.00    -0.004 A 
ATOM      5  C5  N4B d   1      -0.979  -1.211   0.874  0.00  0.00     0.002 A 
ATOM      6  C6  N4B d   1       0.035  -1.009  -0.041  0.00  0.00     0.002 A 
ENDROOT
BRANCH   1   7
ATOM      7  C1' N4B d   1       0.952   0.007  -2.096  0.00  0.00     0.057 C 
BRANCH   7   8
ATOM      8  C2' N4B d   1       0.840  -1.144  -3.090  0.00  0.00     0.009 C 
BRANCH   8   9
ATOM      9  C3' N4B d   1       2.199  -1.573  -3.618  0.00  0.00     0.004 C 
ATOM     10  C4' N4B d   1       3.246  -0.511  -3.457  0.00  0.00     0.003 C 
ENDBRANCH   8   9
ENDBRANCH   7   8
ENDBRANCH   1   7
TORSDOF 3
ENDMDL
