MODEL 1
REMARK minimizedAffinity -2.39273477
REMARK minimizedRMSD -1
REMARK  3 active torsions:
REMARK  status: ('A' for Active; 'I' for Inactive)
REMARK    1  A    between atoms: C3'_2  and  C2'_3 
REMARK    2  A    between atoms: C2'_3  and  C1'_4 
REMARK    3  A    between atoms: C1'_4  and  C1_5 
ROOT
ATOM      1  C1  N4B d   1      -0.117  -0.145  -0.900  0.00  0.00    -0.075 A 
ATOM      2  C2  N4B d   1       1.039   0.073  -0.120  0.00  0.00     0.002 A 
ATOM      3  C3  N4B d   1       0.990  -0.093   1.243  0.00  0.00     0.002 A 
ATOM      4  C4  N4B d   1      -0.205  -0.457   1.846  0.00  0.00    -0.004 A 
ATOM      5  C5  N4B d   1      -1.311  -0.691   1.083  0.00  0.00     0.002 A 
ATOM      6  C6  N4B d   1      -1.274  -0.532  -0.288  0.00  0.00     0.002 A 
ENDROOT
BRANCH   1   7
ATOM      7  C1' N4B d   1      -0.134   0.107  -2.383  0.00  0.00     0.057 C 
BRANCH   7   8
ATOM      8  C2' N4B d   1       0.042  -1.218  -3.118  0.00  0.00     0.009 C 
BRANCH   8   9
ATOM      9  C3' N4B d   1       1.180  -1.163  -4.123  0.00  0.00     0.004 C 
ATOM     10  C4' N4B d   1       2.447  -1.771  -3.599  0.00  0.00     0.003 C 
ENDBRANCH   8   9
ENDBRANCH   7   8
ENDBRANCH   1   7
TORSDOF 3
ENDMDL
