MODEL 1
REMARK minimizedAffinity -5.9124651
REMARK minimizedRMSD -1
REMARK  3 active torsions:
REMARK  status: ('A' for Active; 'I' for Inactive)
REMARK    1  A    between atoms: C3'_2  and  C2'_3 
REMARK    2  A    between atoms: C2'_3  and  C1'_4 
REMARK    3  A    between atoms: C1'_4  and  C1_5 
ROOT
ATOM      1  C1  N4B d   1      -0.142   0.053   0.769  0.00  0.00    -0.075 A 
ATOM      2  C2  N4B d   1       0.304   0.757   1.909  0.00  0.00     0.002 A 
ATOM      3  C3  N4B d   1      -0.149   0.401   3.156  0.00  0.00     0.002 A 
ATOM      4  C4  N4B d   1      -1.058  -0.638   3.285  0.00  0.00    -0.004 A 
ATOM      5  C5  N4B d   1      -1.464  -1.330   2.181  0.00  0.00     0.002 A 
ATOM      6  C6  N4B d   1      -1.014  -0.986   0.922  0.00  0.00     0.002 A 
ENDROOT
BRANCH   1   7
ATOM      7  C1' N4B d   1       0.259   0.460  -0.623  0.00  0.00     0.057 C 
BRANCH   7   8
ATOM      8  C2' N4B d   1      -0.143  -0.639  -1.602  0.00  0.00     0.009 C 
BRANCH   8   9
ATOM      9  C3' N4B d   1       0.934  -0.896  -2.642  0.00  0.00     0.004 C 
ATOM     10  C4' N4B d   1       0.555  -1.969  -3.617  0.00  0.00     0.003 C 
ENDBRANCH   8   9
ENDBRANCH   7   8
ENDBRANCH   1   7
TORSDOF 3
ENDMDL
