MODEL 1
REMARK minimizedAffinity -5.09785795
REMARK minimizedRMSD -1
REMARK  3 active torsions:
REMARK  status: ('A' for Active; 'I' for Inactive)
REMARK    1  A    between atoms: C3'_2  and  C2'_3 
REMARK    2  A    between atoms: C2'_3  and  C1'_4 
REMARK    3  A    between atoms: C1'_4  and  C1_5 
ROOT
ATOM      1  C1  N4B d   1       0.346   0.240   0.145  0.00  0.00    -0.075 A 
ATOM      2  C2  N4B d   1      -0.976  -0.086   0.518  0.00  0.00     0.002 A 
ATOM      3  C3  N4B d   1      -1.283  -0.304   1.839  0.00  0.00     0.002 A 
ATOM      4  C4  N4B d   1      -0.285  -0.221   2.798  0.00  0.00    -0.004 A 
ATOM      5  C5  N4B d   1       0.985   0.119   2.432  0.00  0.00     0.002 A 
ATOM      6  C6  N4B d   1       1.307   0.345   1.109  0.00  0.00     0.002 A 
ENDROOT
BRANCH   1   7
ATOM      7  C1' N4B d   1       0.748   0.403  -1.295  0.00  0.00     0.057 C 
BRANCH   7   8
ATOM      8  C2' N4B d   1       0.452  -0.891  -2.047  0.00  0.00     0.009 C 
BRANCH   8   9
ATOM      9  C3' N4B d   1       1.537  -1.222  -3.058  0.00  0.00     0.004 C 
ATOM     10  C4' N4B d   1       1.257  -2.485  -3.818  0.00  0.00     0.003 C 
ENDBRANCH   8   9
ENDBRANCH   7   8
ENDBRANCH   1   7
TORSDOF 3
ENDMDL
