MODEL 1
REMARK minimizedAffinity -2.63017416
REMARK minimizedRMSD -1
REMARK  3 active torsions:
REMARK  status: ('A' for Active; 'I' for Inactive)
REMARK    1  A    between atoms: C3'_2  and  C2'_3 
REMARK    2  A    between atoms: C2'_3  and  C1'_4 
REMARK    3  A    between atoms: C1'_4  and  C1_5 
ROOT
ATOM      1  C1  N4B d   1       0.044   0.306   0.164  0.00  0.00    -0.075 A 
ATOM      2  C2  N4B d   1       1.342   0.192   0.707  0.00  0.00     0.002 A 
ATOM      3  C3  N4B d   1       1.508   0.006   2.057  0.00  0.00     0.002 A 
ATOM      4  C4  N4B d   1       0.396  -0.050   2.884  0.00  0.00    -0.004 A 
ATOM      5  C5  N4B d   1      -0.856   0.037   2.348  0.00  0.00     0.002 A 
ATOM      6  C6  N4B d   1      -1.038   0.220   0.992  0.00  0.00     0.002 A 
ENDROOT
BRANCH   1   7
ATOM      7  C1' N4B d   1      -0.185   0.596  -1.294  0.00  0.00     0.057 C 
BRANCH   7   8
ATOM      8  C2' N4B d   1       0.178  -0.639  -2.113  0.00  0.00     0.009 C 
BRANCH   8   9
ATOM      9  C3' N4B d   1       1.311  -0.363  -3.086  0.00  0.00     0.004 C 
ATOM     10  C4' N4B d   1       1.769  -1.594  -3.810  0.00  0.00     0.003 C 
ENDBRANCH   8   9
ENDBRANCH   7   8
ENDBRANCH   1   7
TORSDOF 3
ENDMDL
