MODEL 1
REMARK minimizedAffinity -3.68768668
REMARK minimizedRMSD -1
REMARK  0 active torsions:
REMARK  status: ('A' for Active; 'I' for Inactive)
ROOT
ATOM      1  C1  BNZ d   1      -5.016   5.042  -5.482  0.00  0.00     0.000 A 
ATOM      2  C2  BNZ d   1      -4.682   3.762  -5.837  0.00  0.00     0.000 A 
ATOM      3  C3  BNZ d   1      -3.398   3.313  -5.708  0.00  0.00     0.000 A 
ATOM      4  C4  BNZ d   1      -2.443   4.154  -5.263  0.00  0.00     0.000 A 
ATOM      5  C5  BNZ d   1      -2.762   5.451  -4.910  0.00  0.00     0.000 A 
ATOM      6  C6  BNZ d   1      -4.063   5.888  -5.005  0.00  0.00     0.000 A 
ENDROOT
TORSDOF 0
ENDMDL
