MODEL 1
REMARK minimizedAffinity 3.95187283
REMARK minimizedRMSD -1
REMARK  0 active torsions:
REMARK  status: ('A' for Active; 'I' for Inactive)
ROOT
ATOM      1  C1  BNZ d   1      -0.786   1.561   0.001  0.00  0.00     0.000 A 
ATOM      2  C2  BNZ d   1      -1.371   1.277   1.206  0.00  0.00     0.000 A 
ATOM      3  C3  BNZ d   1      -1.463   2.230   2.182  0.00  0.00     0.000 A 
ATOM      4  C4  BNZ d   1      -0.935   3.452   1.966  0.00  0.00     0.000 A 
ATOM      5  C5  BNZ d   1      -0.333   3.751   0.760  0.00  0.00     0.000 A 
ATOM      6  C6  BNZ d   1      -0.277   2.801  -0.234  0.00  0.00     0.000 A 
ENDROOT
TORSDOF 0
ENDMDL
