MODEL 1
REMARK minimizedAffinity -1.50722897
REMARK minimizedRMSD -1
REMARK  0 active torsions:
REMARK  status: ('A' for Active; 'I' for Inactive)
ROOT
ATOM      1  C1  BNZ d   1      -4.949   3.489  -5.978  0.00  0.00     0.000 A 
ATOM      2  C2  BNZ d   1      -3.656   3.039  -5.998  0.00  0.00     0.000 A 
ATOM      3  C3  BNZ d   1      -2.609   3.917  -5.988  0.00  0.00     0.000 A 
ATOM      4  C4  BNZ d   1      -2.855   5.243  -5.999  0.00  0.00     0.000 A 
ATOM      5  C5  BNZ d   1      -4.153   5.713  -5.989  0.00  0.00     0.000 A 
ATOM      6  C6  BNZ d   1      -5.205   4.825  -5.959  0.00  0.00     0.000 A 
ENDROOT
TORSDOF 0
ENDMDL
