MODEL 1
REMARK minimizedAffinity -2.01118779
REMARK minimizedRMSD -1
REMARK  0 active torsions:
REMARK  status: ('A' for Active; 'I' for Inactive)
ROOT
ATOM      1  C1  BNZ d   1       0.059   0.548   0.592  0.00  0.00     0.000 A 
ATOM      2  C2  BNZ d   1       0.249   1.903   0.664  0.00  0.00     0.000 A 
ATOM      3  C3  BNZ d   1      -0.795   2.743   0.932  0.00  0.00     0.000 A 
ATOM      4  C4  BNZ d   1      -2.034   2.233   1.087  0.00  0.00     0.000 A 
ATOM      5  C5  BNZ d   1      -2.244   0.870   1.008  0.00  0.00     0.000 A 
ATOM      6  C6  BNZ d   1      -1.183   0.024   0.777  0.00  0.00     0.000 A 
ENDROOT
TORSDOF 0
ENDMDL
