MODEL 1
REMARK minimizedAffinity 2.57026792
REMARK minimizedRMSD -1
REMARK  0 active torsions:
REMARK  status: ('A' for Active; 'I' for Inactive)
ROOT
ATOM      1  C1  BNZ d   1      -1.576   1.373   1.088  0.00  0.00     0.000 A 
ATOM      2  C2  BNZ d   1      -1.582   0.007   0.997  0.00  0.00     0.000 A 
ATOM      3  C3  BNZ d   1      -0.424  -0.685   0.776  0.00  0.00     0.000 A 
ATOM      4  C4  BNZ d   1       0.730  -0.009   0.608  0.00  0.00     0.000 A 
ATOM      5  C5  BNZ d   1       0.751   1.370   0.688  0.00  0.00     0.000 A 
ATOM      6  C6  BNZ d   1      -0.410   2.060   0.949  0.00  0.00     0.000 A 
ENDROOT
TORSDOF 0
ENDMDL
