MODEL 1
REMARK minimizedAffinity -2.65199184
REMARK minimizedRMSD -1
REMARK  0 active torsions:
REMARK  status: ('A' for Active; 'I' for Inactive)
ROOT
ATOM      1  C1  BNZ d   1      -2.876   3.328  -5.957  0.00  0.00     0.000 A 
ATOM      2  C2  BNZ d   1      -4.189   3.717  -5.944  0.00  0.00     0.000 A 
ATOM      3  C3  BNZ d   1      -4.527   5.041  -5.984  0.00  0.00     0.000 A 
ATOM      4  C4  BNZ d   1      -3.553   5.974  -5.996  0.00  0.00     0.000 A 
ATOM      5  C5  BNZ d   1      -2.225   5.597  -5.999  0.00  0.00     0.000 A 
ATOM      6  C6  BNZ d   1      -1.889   4.263  -5.999  0.00  0.00     0.000 A 
ENDROOT
TORSDOF 0
ENDMDL
