MODEL 1
REMARK minimizedAffinity 0.757253885
REMARK minimizedRMSD -1
REMARK  0 active torsions:
REMARK  status: ('A' for Active; 'I' for Inactive)
ROOT
ATOM      1  C1  BNZ d   1      -4.624   5.316  -5.895  0.00  0.00     0.000 A 
ATOM      2  C2  BNZ d   1      -5.359   4.162  -5.961  0.00  0.00     0.000 A 
ATOM      3  C3  BNZ d   1      -4.744   2.942  -5.992  0.00  0.00     0.000 A 
ATOM      4  C4  BNZ d   1      -3.397   2.878  -5.999  0.00  0.00     0.000 A 
ATOM      5  C5  BNZ d   1      -2.642   4.032  -5.943  0.00  0.00     0.000 A 
ATOM      6  C6  BNZ d   1      -3.265   5.257  -5.871  0.00  0.00     0.000 A 
ENDROOT
TORSDOF 0
ENDMDL
