MODEL 1
REMARK minimizedAffinity -2.23460865
REMARK minimizedRMSD -1
REMARK  0 active torsions:
REMARK  status: ('A' for Active; 'I' for Inactive)
ROOT
ATOM      1  C1  BNZ d   1      -2.535   4.390  -5.818  0.00  0.00     0.000 A 
ATOM      2  C2  BNZ d   1      -3.482   3.414  -5.981  0.00  0.00     0.000 A 
ATOM      3  C3  BNZ d   1      -4.813   3.726  -5.998  0.00  0.00     0.000 A 
ATOM      4  C4  BNZ d   1      -5.197   5.006  -5.812  0.00  0.00     0.000 A 
ATOM      5  C5  BNZ d   1      -4.254   6.000  -5.637  0.00  0.00     0.000 A 
ATOM      6  C6  BNZ d   1      -2.914   5.688  -5.660  0.00  0.00     0.000 A 
ENDROOT
TORSDOF 0
ENDMDL
