MODEL 1
REMARK minimizedAffinity 2.44373918
REMARK minimizedRMSD -1
REMARK  0 active torsions:
REMARK  status: ('A' for Active; 'I' for Inactive)
ROOT
ATOM      1  C1  BNZ d   1      -4.735   5.979  -4.359  0.00  0.00     0.000 A 
ATOM      2  C2  BNZ d   1      -3.758   5.021  -4.419  0.00  0.00     0.000 A 
ATOM      3  C3  BNZ d   1      -3.882   3.946  -5.255  0.00  0.00     0.000 A 
ATOM      4  C4  BNZ d   1      -4.998   3.810  -5.998  0.00  0.00     0.000 A 
ATOM      5  C5  BNZ d   1      -5.996   4.763  -5.942  0.00  0.00     0.000 A 
ATOM      6  C6  BNZ d   1      -5.851   5.863  -5.129  0.00  0.00     0.000 A 
ENDROOT
TORSDOF 0
ENDMDL
