MODEL 1
REMARK minimizedAffinity -0.350174069
REMARK minimizedRMSD -1
REMARK  0 active torsions:
REMARK  status: ('A' for Active; 'I' for Inactive)
ROOT
ATOM      1  C1  BNZ d   1      -2.791   4.623  -5.990  0.00  0.00     0.000 A 
ATOM      2  C2  BNZ d   1      -2.696   3.257  -6.000  0.00  0.00     0.000 A 
ATOM      3  C3  BNZ d   1      -1.476   2.640  -5.984  0.00  0.00     0.000 A 
ATOM      4  C4  BNZ d   1      -0.354   3.388  -5.999  0.00  0.00     0.000 A 
ATOM      5  C5  BNZ d   1      -0.433   4.767  -5.999  0.00  0.00     0.000 A 
ATOM      6  C6  BNZ d   1      -1.663   5.384  -5.976  0.00  0.00     0.000 A 
ENDROOT
TORSDOF 0
ENDMDL
