MODEL 1
REMARK minimizedAffinity 4.45815802
REMARK minimizedRMSD -1
REMARK  0 active torsions:
REMARK  status: ('A' for Active; 'I' for Inactive)
ROOT
ATOM      1  C1  BNZ d   1       1.419   3.406   3.740  0.00  0.00     0.000 A 
ATOM      2  C2  BNZ d   1       0.279   3.666   4.454  0.00  0.00     0.000 A 
ATOM      3  C3  BNZ d   1      -0.954   3.474   3.897  0.00  0.00     0.000 A 
ATOM      4  C4  BNZ d   1      -1.047   3.061   2.617  0.00  0.00     0.000 A 
ATOM      5  C5  BNZ d   1       0.093   2.803   1.881  0.00  0.00     0.000 A 
ATOM      6  C6  BNZ d   1       1.333   2.960   2.458  0.00  0.00     0.000 A 
ENDROOT
TORSDOF 0
ENDMDL
