MODEL 1
REMARK minimizedAffinity -1.54166865
REMARK minimizedRMSD -1
REMARK  0 active torsions:
REMARK  status: ('A' for Active; 'I' for Inactive)
ROOT
ATOM      1  C1  BNZ d   1      -1.842   5.281  -5.959  0.00  0.00     0.000 A 
ATOM      2  C2  BNZ d   1      -1.775   3.913  -5.953  0.00  0.00     0.000 A 
ATOM      3  C3  BNZ d   1      -2.913   3.156  -5.994  0.00  0.00     0.000 A 
ATOM      4  C4  BNZ d   1      -4.115   3.767  -6.000  0.00  0.00     0.000 A 
ATOM      5  C5  BNZ d   1      -4.199   5.145  -5.996  0.00  0.00     0.000 A 
ATOM      6  C6  BNZ d   1      -3.051   5.904  -5.995  0.00  0.00     0.000 A 
ENDROOT
TORSDOF 0
ENDMDL
