MODEL 1
REMARK minimizedAffinity 0.0241961163
REMARK minimizedRMSD -1
REMARK  0 active torsions:
REMARK  status: ('A' for Active; 'I' for Inactive)
ROOT
ATOM      1  C1  BNZ d   1       1.747   1.365   0.924  0.00  0.00     0.000 A 
ATOM      2  C2  BNZ d   1       0.604   0.840   0.384  0.00  0.00     0.000 A 
ATOM      3  C3  BNZ d   1      -0.610   1.427   0.609  0.00  0.00     0.000 A 
ATOM      4  C4  BNZ d   1      -0.684   2.512   1.406  0.00  0.00     0.000 A 
ATOM      5  C5  BNZ d   1       0.458   3.047   1.966  0.00  0.00     0.000 A 
ATOM      6  C6  BNZ d   1       1.683   2.477   1.706  0.00  0.00     0.000 A 
ENDROOT
TORSDOF 0
ENDMDL
