MODEL 1
REMARK minimizedAffinity 17.3276157
REMARK minimizedRMSD -1
REMARK  1 active torsions:
REMARK  status: ('A' for Active; 'I' for Inactive)
REMARK    1  A    between atoms: N_2  and  C1_3 
ROOT
ATOM      1  C1  UNL d   1       1.850  -3.330  -0.593  0.00  0.00     0.143 A 
ATOM      2  C2  UNL d   1       1.854  -1.931  -0.591  0.00  0.00    -0.057 A 
ATOM      3  C3  UNL d   1       3.013  -1.209  -0.282  0.00  0.00     0.033 A 
ATOM      4  C4  UNL d   1       4.185  -1.875   0.059  0.00  0.00    -0.042 A 
ATOM      5  C5  UNL d   1       4.198  -3.265   0.087  0.00  0.00     0.033 A 
ATOM      6  C6  UNL d   1       3.039  -3.981  -0.229  0.00  0.00    -0.057 A 
ENDROOT
BRANCH   1   7
ATOM      7  N   UNL d   1       0.705  -4.105  -0.795  0.00  0.00    -0.732 N 
ATOM      8  C   UNL d   1       0.782  -5.361  -1.510  0.00  0.00     0.284 C 
ATOM      9  H3  UNL d   1       0.103  -4.129   0.025  0.00  0.00     0.395 HD
ENDBRANCH   1   7
TORSDOF 1
ENDMDL
