MODEL 1
REMARK minimizedAffinity 4.47034454
REMARK minimizedRMSD -1
REMARK  1 active torsions:
REMARK  status: ('A' for Active; 'I' for Inactive)
REMARK    1  A    between atoms: N_2  and  C1_3 
ROOT
ATOM      1  C1  UNL d   1      -2.164  -4.851  -5.942  0.00  0.00     0.143 A 
ATOM      2  C2  UNL d   1      -2.535  -3.502  -5.967  0.00  0.00    -0.057 A 
ATOM      3  C3  UNL d   1      -1.575  -2.484  -5.942  0.00  0.00     0.033 A 
ATOM      4  C4  UNL d   1      -0.222  -2.798  -5.860  0.00  0.00    -0.042 A 
ATOM      5  C5  UNL d   1       0.169  -4.131  -5.808  0.00  0.00     0.033 A 
ATOM      6  C6  UNL d   1      -0.795  -5.143  -5.841  0.00  0.00    -0.057 A 
ENDROOT
BRANCH   1   7
ATOM      7  N   UNL d   1      -3.076  -5.907  -5.866  0.00  0.00    -0.732 N 
ATOM      8  C   UNL d   1      -4.496  -5.666  -5.997  0.00  0.00     0.284 C 
ATOM      9  H3  UNL d   1      -2.748  -6.738  -6.353  0.00  0.00     0.395 HD
ENDBRANCH   1   7
TORSDOF 1
ENDMDL
