MODEL 1
REMARK minimizedAffinity 6.6298871
REMARK minimizedRMSD -1
REMARK  1 active torsions:
REMARK  status: ('A' for Active; 'I' for Inactive)
REMARK    1  A    between atoms: N_2  and  C1_3 
ROOT
ATOM      1  C1  UNL d   1      -2.407  -3.701  -5.912  0.00  0.00     0.143 A 
ATOM      2  C2  UNL d   1      -3.734  -3.263  -5.971  0.00  0.00    -0.057 A 
ATOM      3  C3  UNL d   1      -4.799  -4.173  -6.000  0.00  0.00     0.033 A 
ATOM      4  C4  UNL d   1      -4.551  -5.542  -6.000  0.00  0.00    -0.042 A 
ATOM      5  C5  UNL d   1      -3.239  -6.000  -5.967  0.00  0.00     0.033 A 
ATOM      6  C6  UNL d   1      -2.181  -5.087  -5.931  0.00  0.00    -0.057 A 
ENDROOT
BRANCH   1   7
ATOM      7  N   UNL d   1      -1.303  -2.848  -5.980  0.00  0.00    -0.732 N 
ATOM      8  C   UNL d   1       0.020  -3.327  -5.642  0.00  0.00     0.284 C 
ATOM      9  H3  UNL d   1      -1.330  -2.243  -6.798  0.00  0.00     0.395 HD
ENDBRANCH   1   7
TORSDOF 1
ENDMDL
