MODEL 1
REMARK minimizedAffinity 0.865797937
REMARK minimizedRMSD -1
REMARK  1 active torsions:
REMARK  status: ('A' for Active; 'I' for Inactive)
REMARK    1  A    between atoms: N_2  and  C1_3 
ROOT
ATOM      1  C1  UNL d   1      -3.396  -2.987   5.421  0.00  0.00     0.143 A 
ATOM      2  C2  UNL d   1      -4.437  -3.733   5.985  0.00  0.00    -0.057 A 
ATOM      3  C3  UNL d   1      -5.721  -3.724   5.427  0.00  0.00     0.033 A 
ATOM      4  C4  UNL d   1      -5.994  -2.944   4.308  0.00  0.00    -0.042 A 
ATOM      5  C5  UNL d   1      -4.981  -2.175   3.746  0.00  0.00     0.033 A 
ATOM      6  C6  UNL d   1      -3.699  -2.193   4.304  0.00  0.00    -0.057 A 
ENDROOT
BRANCH   1   7
ATOM      7  N   UNL d   1      -2.123  -2.877   5.987  0.00  0.00    -0.732 N 
ATOM      8  C   UNL d   1      -1.420  -1.612   5.980  0.00  0.00     0.284 C 
ATOM      9  H3  UNL d   1      -2.040  -3.393   6.860  0.00  0.00     0.395 HD
ENDBRANCH   1   7
TORSDOF 1
ENDMDL
