MODEL 1
REMARK minimizedAffinity 5.71080303
REMARK minimizedRMSD -1
REMARK  1 active torsions:
REMARK  status: ('A' for Active; 'I' for Inactive)
REMARK    1  A    between atoms: N_2  and  C1_3 
ROOT
ATOM      1  C1  UNL d   1      -0.285   3.620  -1.028  0.00  0.00     0.143 A 
ATOM      2  C2  UNL d   1      -1.288   3.650  -2.003  0.00  0.00    -0.057 A 
ATOM      3  C3  UNL d   1      -1.580   4.824  -2.709  0.00  0.00     0.033 A 
ATOM      4  C4  UNL d   1      -0.891   6.000  -2.429  0.00  0.00    -0.042 A 
ATOM      5  C5  UNL d   1       0.092   5.999  -1.447  0.00  0.00     0.033 A 
ATOM      6  C6  UNL d   1       0.384   4.822  -0.751  0.00  0.00    -0.057 A 
ENDROOT
BRANCH   1   7
ATOM      7  N   UNL d   1      -0.015   2.510  -0.224  0.00  0.00    -0.732 N 
ATOM      8  C   UNL d   1      -0.012   2.627   1.218  0.00  0.00     0.284 C 
ATOM      9  H3  UNL d   1      -0.457   1.662  -0.571  0.00  0.00     0.395 HD
ENDBRANCH   1   7
TORSDOF 1
ENDMDL
