MODEL 1
REMARK minimizedAffinity 6.29309654
REMARK minimizedRMSD -1
REMARK  1 active torsions:
REMARK  status: ('A' for Active; 'I' for Inactive)
REMARK    1  A    between atoms: N_2  and  C1_3 
ROOT
ATOM      1  C1  UNL d   1       0.241   4.935  -1.303  0.00  0.00     0.143 A 
ATOM      2  C2  UNL d   1      -0.315   4.007  -2.190  0.00  0.00    -0.057 A 
ATOM      3  C3  UNL d   1      -1.658   4.086  -2.577  0.00  0.00     0.033 A 
ATOM      4  C4  UNL d   1      -2.480   5.081  -2.059  0.00  0.00    -0.042 A 
ATOM      5  C5  UNL d   1      -1.956   6.000  -1.156  0.00  0.00     0.033 A 
ATOM      6  C6  UNL d   1      -0.612   5.920  -0.779  0.00  0.00    -0.057 A 
ENDROOT
BRANCH   1   7
ATOM      7  N   UNL d   1       1.543   4.851  -0.804  0.00  0.00    -0.732 N 
ATOM      8  C   UNL d   1       2.423   5.999  -0.845  0.00  0.00     0.284 C 
ATOM      9  H3  UNL d   1       1.594   4.319   0.061  0.00  0.00     0.395 HD
ENDBRANCH   1   7
TORSDOF 1
ENDMDL
