MODEL 1
REMARK minimizedAffinity 1.05466771
REMARK minimizedRMSD -1
REMARK  1 active torsions:
REMARK  status: ('A' for Active; 'I' for Inactive)
REMARK    1  A    between atoms: N_2  and  C1_3 
ROOT
ATOM      1  C1  UNL d   1      -2.382  -4.507  -5.691  0.00  0.00     0.143 A 
ATOM      2  C2  UNL d   1      -1.030  -4.234  -5.454  0.00  0.00    -0.057 A 
ATOM      3  C3  UNL d   1      -0.542  -2.921  -5.462  0.00  0.00     0.033 A 
ATOM      4  C4  UNL d   1      -1.395  -1.857  -5.737  0.00  0.00    -0.042 A 
ATOM      5  C5  UNL d   1      -2.737  -2.107  -6.000  0.00  0.00     0.033 A 
ATOM      6  C6  UNL d   1      -3.220  -3.420  -5.984  0.00  0.00    -0.057 A 
ENDROOT
BRANCH   1   7
ATOM      7  N   UNL d   1      -2.908  -5.797  -5.795  0.00  0.00    -0.732 N 
ATOM      8  C   UNL d   1      -4.326  -6.000  -6.000  0.00  0.00     0.284 C 
ATOM      9  H3  UNL d   1      -2.316  -6.415  -6.344  0.00  0.00     0.395 HD
ENDBRANCH   1   7
TORSDOF 1
ENDMDL
