MODEL 1
REMARK minimizedAffinity 0.768700302
REMARK minimizedRMSD -1
REMARK  1 active torsions:
REMARK  status: ('A' for Active; 'I' for Inactive)
REMARK    1  A    between atoms: N_2  and  C1_3 
ROOT
ATOM      1  C1  UNL d   1      -5.283  -2.201   3.881  0.00  0.00     0.143 A 
ATOM      2  C2  UNL d   1      -6.000  -1.068   4.280  0.00  0.00    -0.057 A 
ATOM      3  C3  UNL d   1      -5.832   0.163   3.634  0.00  0.00     0.033 A 
ATOM      4  C4  UNL d   1      -4.919   0.290   2.592  0.00  0.00    -0.042 A 
ATOM      5  C5  UNL d   1      -4.178  -0.817   2.195  0.00  0.00     0.033 A 
ATOM      6  C6  UNL d   1      -4.355  -2.045   2.839  0.00  0.00    -0.057 A 
ENDROOT
BRANCH   1   7
ATOM      7  N   UNL d   1      -5.333  -3.428   4.547  0.00  0.00    -0.732 N 
ATOM      8  C   UNL d   1      -5.885  -3.520   5.881  0.00  0.00     0.284 C 
ATOM      9  H3  UNL d   1      -5.601  -4.193   3.932  0.00  0.00     0.395 HD
ENDBRANCH   1   7
TORSDOF 1
ENDMDL
