MODEL 1
REMARK minimizedAffinity 5.67570925
REMARK minimizedRMSD -1
REMARK  1 active torsions:
REMARK  status: ('A' for Active; 'I' for Inactive)
REMARK    1  A    between atoms: N_2  and  C1_3 
ROOT
ATOM      1  C1  UNL d   1      -5.130   0.062   2.024  0.00  0.00     0.143 A 
ATOM      2  C2  UNL d   1      -3.832  -0.324   1.673  0.00  0.00    -0.057 A 
ATOM      3  C3  UNL d   1      -3.401  -0.298   0.341  0.00  0.00     0.033 A 
ATOM      4  C4  UNL d   1      -4.274   0.088  -0.670  0.00  0.00    -0.042 A 
ATOM      5  C5  UNL d   1      -5.577   0.452  -0.348  0.00  0.00     0.033 A 
ATOM      6  C6  UNL d   1      -5.998   0.431   0.985  0.00  0.00    -0.057 A 
ENDROOT
BRANCH   1   7
ATOM      7  N   UNL d   1      -5.647  -0.036   3.318  0.00  0.00    -0.732 N 
ATOM      8  C   UNL d   1      -5.998  -1.324   3.876  0.00  0.00     0.284 C 
ATOM      9  H3  UNL d   1      -5.178   0.587   3.972  0.00  0.00     0.395 HD
ENDBRANCH   1   7
TORSDOF 1
ENDMDL
