MODEL 1
REMARK minimizedAffinity 8.64458275
REMARK minimizedRMSD -1
REMARK  0 active torsions:
REMARK  status: ('A' for Active; 'I' for Inactive)
ROOT
ATOM      1  C1  BNZ d   1       3.929   2.346  -1.265  0.00  0.00     0.000 A 
ATOM      2  C2  BNZ d   1       4.985   2.243  -2.131  0.00  0.00     0.000 A 
ATOM      3  C3  BNZ d   1       6.000   3.158  -2.110  0.00  0.00     0.000 A 
ATOM      4  C4  BNZ d   1       5.938   4.197  -1.252  0.00  0.00     0.000 A 
ATOM      5  C5  BNZ d   1       4.875   4.321  -0.380  0.00  0.00     0.000 A 
ATOM      6  C6  BNZ d   1       3.875   3.376  -0.377  0.00  0.00     0.000 A 
ENDROOT
TORSDOF 0
ENDMDL
