MODEL 1
REMARK minimizedAffinity 11.2785301
REMARK minimizedRMSD -1
REMARK  0 active torsions:
REMARK  status: ('A' for Active; 'I' for Inactive)
ROOT
ATOM      1  C1  BNZ d   1      -4.133   3.949  -4.939  0.00  0.00     0.000 A 
ATOM      2  C2  BNZ d   1      -5.107   3.947  -5.902  0.00  0.00     0.000 A 
ATOM      3  C3  BNZ d   1      -5.999   4.977  -5.997  0.00  0.00     0.000 A 
ATOM      4  C4  BNZ d   1      -5.944   5.987  -5.106  0.00  0.00     0.000 A 
ATOM      5  C5  BNZ d   1      -4.974   5.999  -4.123  0.00  0.00     0.000 A 
ATOM      6  C6  BNZ d   1      -4.053   4.980  -4.054  0.00  0.00     0.000 A 
ENDROOT
TORSDOF 0
ENDMDL
