MODEL 1
REMARK minimizedAffinity 11.6820698
REMARK minimizedRMSD -1
REMARK  0 active torsions:
REMARK  status: ('A' for Active; 'I' for Inactive)
ROOT
ATOM      1  C1  BNZ d   1      -4.328   3.146   5.996  0.00  0.00     0.000 A 
ATOM      2  C2  BNZ d   1      -5.513   2.459   5.990  0.00  0.00     0.000 A 
ATOM      3  C3  BNZ d   1      -5.530   1.093   5.988  0.00  0.00     0.000 A 
ATOM      4  C4  BNZ d   1      -4.365   0.415   5.952  0.00  0.00     0.000 A 
ATOM      5  C5  BNZ d   1      -3.162   1.093   5.949  0.00  0.00     0.000 A 
ATOM      6  C6  BNZ d   1      -3.148   2.468   5.990  0.00  0.00     0.000 A 
ENDROOT
TORSDOF 0
ENDMDL
