MODEL 1
REMARK minimizedAffinity 7.01572752
REMARK minimizedRMSD -1
REMARK  0 active torsions:
REMARK  status: ('A' for Active; 'I' for Inactive)
ROOT
ATOM      1  C1  BNZ d   1       4.771   5.276  -0.381  0.00  0.00     0.000 A 
ATOM      2  C2  BNZ d   1       4.367   4.028  -0.775  0.00  0.00     0.000 A 
ATOM      3  C3  BNZ d   1       4.061   3.067   0.147  0.00  0.00     0.000 A 
ATOM      4  C4  BNZ d   1       4.198   3.341   1.461  0.00  0.00     0.000 A 
ATOM      5  C5  BNZ d   1       4.613   4.591   1.874  0.00  0.00     0.000 A 
ATOM      6  C6  BNZ d   1       4.883   5.569   0.944  0.00  0.00     0.000 A 
ENDROOT
TORSDOF 0
ENDMDL
