MODEL 1
REMARK minimizedAffinity 3.29559207
REMARK minimizedRMSD -1
REMARK  0 active torsions:
REMARK  status: ('A' for Active; 'I' for Inactive)
ROOT
ATOM      1  C1  BNZ d   1      -0.800  -2.255   5.994  0.00  0.00     0.000 A 
ATOM      2  C2  BNZ d   1      -1.128  -3.312   5.187  0.00  0.00     0.000 A 
ATOM      3  C3  BNZ d   1      -2.223  -3.256   4.371  0.00  0.00     0.000 A 
ATOM      4  C4  BNZ d   1      -3.011  -2.162   4.394  0.00  0.00     0.000 A 
ATOM      5  C5  BNZ d   1      -2.700  -1.092   5.209  0.00  0.00     0.000 A 
ATOM      6  C6  BNZ d   1      -1.574  -1.136   6.000  0.00  0.00     0.000 A 
ENDROOT
TORSDOF 0
ENDMDL
