MODEL 1
REMARK minimizedAffinity 3.49978161
REMARK minimizedRMSD -1
REMARK  0 active torsions:
REMARK  status: ('A' for Active; 'I' for Inactive)
ROOT
ATOM      1  C1  BNZ d   1      -1.819  -2.657   1.194  0.00  0.00     0.000 A 
ATOM      2  C2  BNZ d   1      -1.006  -3.506   0.491  0.00  0.00     0.000 A 
ATOM      3  C3  BNZ d   1      -0.652  -4.722   1.005  0.00  0.00     0.000 A 
ATOM      4  C4  BNZ d   1      -1.079  -5.071   2.236  0.00  0.00     0.000 A 
ATOM      5  C5  BNZ d   1      -1.892  -4.222   2.961  0.00  0.00     0.000 A 
ATOM      6  C6  BNZ d   1      -2.277  -3.015   2.424  0.00  0.00     0.000 A 
ENDROOT
TORSDOF 0
ENDMDL
