MODEL 1
REMARK minimizedAffinity 2.55687165
REMARK minimizedRMSD -1
REMARK  0 active torsions:
REMARK  status: ('A' for Active; 'I' for Inactive)
ROOT
ATOM      1  C1  BNZ d   1      -0.654   3.397  -5.637  0.00  0.00     0.000 A 
ATOM      2  C2  BNZ d   1      -1.910   3.806  -5.999  0.00  0.00     0.000 A 
ATOM      3  C3  BNZ d   1      -2.995   3.498  -5.227  0.00  0.00     0.000 A 
ATOM      4  C4  BNZ d   1      -2.829   2.750  -4.118  0.00  0.00     0.000 A 
ATOM      5  C5  BNZ d   1      -1.570   2.322  -3.745  0.00  0.00     0.000 A 
ATOM      6  C6  BNZ d   1      -0.475   2.666  -4.503  0.00  0.00     0.000 A 
ENDROOT
TORSDOF 0
ENDMDL
