MODEL 1
REMARK minimizedAffinity 5.37063122
REMARK minimizedRMSD -1
REMARK  0 active torsions:
REMARK  status: ('A' for Active; 'I' for Inactive)
ROOT
ATOM      1  C1  BNZ d   1      -1.905  -0.696  -2.419  0.00  0.00     0.000 A 
ATOM      2  C2  BNZ d   1      -1.571  -1.689  -1.538  0.00  0.00     0.000 A 
ATOM      3  C3  BNZ d   1      -2.340  -1.935  -0.435  0.00  0.00     0.000 A 
ATOM      4  C4  BNZ d   1      -3.419  -1.162  -0.194  0.00  0.00     0.000 A 
ATOM      5  C5  BNZ d   1      -3.764  -0.150  -1.068  0.00  0.00     0.000 A 
ATOM      6  C6  BNZ d   1      -3.009   0.069  -2.198  0.00  0.00     0.000 A 
ENDROOT
TORSDOF 0
ENDMDL
