MODEL 1
REMARK minimizedAffinity 3.69155335
REMARK minimizedRMSD -1
REMARK  0 active torsions:
REMARK  status: ('A' for Active; 'I' for Inactive)
ROOT
ATOM      1  C1  BNZ d   1      -0.889   3.375  -6.000  0.00  0.00     0.000 A 
ATOM      2  C2  BNZ d   1      -2.258   3.380  -5.999  0.00  0.00     0.000 A 
ATOM      3  C3  BNZ d   1      -2.959   2.830  -4.962  0.00  0.00     0.000 A 
ATOM      4  C4  BNZ d   1      -2.292   2.242  -3.948  0.00  0.00     0.000 A 
ATOM      5  C5  BNZ d   1      -0.911   2.222  -3.939  0.00  0.00     0.000 A 
ATOM      6  C6  BNZ d   1      -0.208   2.810  -4.965  0.00  0.00     0.000 A 
ENDROOT
TORSDOF 0
ENDMDL
