MODEL 1
REMARK minimizedAffinity 5.36428452
REMARK minimizedRMSD -1
REMARK  0 active torsions:
REMARK  status: ('A' for Active; 'I' for Inactive)
ROOT
ATOM      1  C1  BNZ d   1      -5.482   1.271   6.000  0.00  0.00     0.000 A 
ATOM      2  C2  BNZ d   1      -5.274  -0.082   5.997  0.00  0.00     0.000 A 
ATOM      3  C3  BNZ d   1      -4.008  -0.596   5.997  0.00  0.00     0.000 A 
ATOM      4  C4  BNZ d   1      -2.952   0.242   5.959  0.00  0.00     0.000 A 
ATOM      5  C5  BNZ d   1      -3.145   1.609   5.951  0.00  0.00     0.000 A 
ATOM      6  C6  BNZ d   1      -4.420   2.123   5.991  0.00  0.00     0.000 A 
ENDROOT
TORSDOF 0
ENDMDL
