MODEL 1
REMARK minimizedAffinity 4.04429245
REMARK minimizedRMSD -1
REMARK  0 active torsions:
REMARK  status: ('A' for Active; 'I' for Inactive)
ROOT
ATOM      1  C1  BNZ d   1      -2.480  -1.833   0.401  0.00  0.00     0.000 A 
ATOM      2  C2  BNZ d   1      -2.681  -1.177  -0.784  0.00  0.00     0.000 A 
ATOM      3  C3  BNZ d   1      -1.890  -1.435  -1.869  0.00  0.00     0.000 A 
ATOM      4  C4  BNZ d   1      -0.877  -2.318  -1.756  0.00  0.00     0.000 A 
ATOM      5  C5  BNZ d   1      -0.656  -2.980  -0.565  0.00  0.00     0.000 A 
ATOM      6  C6  BNZ d   1      -1.478  -2.747   0.513  0.00  0.00     0.000 A 
ENDROOT
TORSDOF 0
ENDMDL
