MODEL 1
REMARK minimizedAffinity 4.38196278
REMARK minimizedRMSD -1
REMARK  0 active torsions:
REMARK  status: ('A' for Active; 'I' for Inactive)
ROOT
ATOM      1  C1  BNZ d   1      -2.540   5.227  -4.535  0.00  0.00     0.000 A 
ATOM      2  C2  BNZ d   1      -3.783   5.801  -4.552  0.00  0.00     0.000 A 
ATOM      3  C3  BNZ d   1      -4.803   5.241  -5.269  0.00  0.00     0.000 A 
ATOM      4  C4  BNZ d   1      -4.569   4.131  -5.999  0.00  0.00     0.000 A 
ATOM      5  C5  BNZ d   1      -3.319   3.545  -5.999  0.00  0.00     0.000 A 
ATOM      6  C6  BNZ d   1      -2.305   4.090  -5.246  0.00  0.00     0.000 A 
ENDROOT
TORSDOF 0
ENDMDL
