MODEL 1
REMARK minimizedAffinity 8.91971779
REMARK minimizedRMSD -1
REMARK  0 active torsions:
REMARK  status: ('A' for Active; 'I' for Inactive)
ROOT
ATOM      1  C1  BNZ d   1      -0.043   3.023  -5.224  0.00  0.00     0.000 A 
ATOM      2  C2  BNZ d   1      -0.903   3.754  -6.000  0.00  0.00     0.000 A 
ATOM      3  C3  BNZ d   1      -2.236   3.809  -5.705  0.00  0.00     0.000 A 
ATOM      4  C4  BNZ d   1      -2.714   3.103  -4.660  0.00  0.00     0.000 A 
ATOM      5  C5  BNZ d   1      -1.862   2.355  -3.873  0.00  0.00     0.000 A 
ATOM      6  C6  BNZ d   1      -0.514   2.332  -4.150  0.00  0.00     0.000 A 
ENDROOT
TORSDOF 0
ENDMDL
