MODEL 1
REMARK minimizedAffinity 5.01090622
REMARK minimizedRMSD -1
REMARK  0 active torsions:
REMARK  status: ('A' for Active; 'I' for Inactive)
ROOT
ATOM      1  C1  BNZ d   1      -2.453   0.675   5.937  0.00  0.00     0.000 A 
ATOM      2  C2  BNZ d   1      -3.136  -0.508   5.845  0.00  0.00     0.000 A 
ATOM      3  C3  BNZ d   1      -4.502  -0.526   5.803  0.00  0.00     0.000 A 
ATOM      4  C4  BNZ d   1      -5.183   0.635   5.894  0.00  0.00     0.000 A 
ATOM      5  C5  BNZ d   1      -4.509   1.835   5.997  0.00  0.00     0.000 A 
ATOM      6  C6  BNZ d   1      -3.133   1.852   6.000  0.00  0.00     0.000 A 
ENDROOT
TORSDOF 0
ENDMDL
