MODEL 1
REMARK minimizedAffinity 2.86815524
REMARK minimizedRMSD -1
REMARK  0 active torsions:
REMARK  status: ('A' for Active; 'I' for Inactive)
ROOT
ATOM      1  C1  BNZ d   1      -3.747   4.924  -4.187  0.00  0.00     0.000 A 
ATOM      2  C2  BNZ d   1      -4.637   5.965  -4.181  0.00  0.00     0.000 A 
ATOM      3  C3  BNZ d   1      -5.682   5.997  -5.062  0.00  0.00     0.000 A 
ATOM      4  C4  BNZ d   1      -5.812   5.011  -5.972  0.00  0.00     0.000 A 
ATOM      5  C5  BNZ d   1      -4.918   3.960  -5.997  0.00  0.00     0.000 A 
ATOM      6  C6  BNZ d   1      -3.889   3.911  -5.084  0.00  0.00     0.000 A 
ENDROOT
TORSDOF 0
ENDMDL
