MODEL 1
REMARK minimizedAffinity 9.40508938
REMARK minimizedRMSD -1
REMARK  0 active torsions:
REMARK  status: ('A' for Active; 'I' for Inactive)
ROOT
ATOM      1  N1  IND d   1       4.663  -0.777  -3.847  0.00  0.00    -0.196 N 
ATOM      2  C2  IND d   1       3.711  -1.732  -4.068  0.00  0.00     0.054 A 
ATOM      3  C3  IND d   1       2.981  -1.935  -2.948  0.00  0.00    -0.031 A 
ATOM      4  C4  IND d   1       3.110  -0.740  -0.672  0.00  0.00     0.051 A 
ATOM      5  C5  IND d   1       3.845   0.181   0.021  0.00  0.00    -0.031 A 
ATOM      6  C6  IND d   1       4.910   0.844  -0.552  0.00  0.00     0.015 A 
ATOM      7  C7  IND d   1       5.275   0.620  -1.849  0.00  0.00    -0.016 A 
ATOM      8  C8  IND d   1       4.535  -0.319  -2.554  0.00  0.00    -0.047 A 
ATOM      9  C9  IND d   1       3.480  -1.027  -1.964  0.00  0.00    -0.096 A 
ATOM     10  HN1 IND d   1       5.245  -0.507  -4.420  0.00  0.00     0.298 HD
ENDROOT
TORSDOF 0
ENDMDL
