MODEL 1
REMARK minimizedAffinity 14.3606796
REMARK minimizedRMSD -1
REMARK  0 active torsions:
REMARK  status: ('A' for Active; 'I' for Inactive)
ROOT
ATOM      1  N1  IND d   1       5.622   4.487  -1.877  0.00  0.00    -0.196 N 
ATOM      2  C2  IND d   1       5.969   5.510  -1.039  0.00  0.00     0.054 A 
ATOM      3  C3  IND d   1       5.999   5.080   0.242  0.00  0.00    -0.031 A 
ATOM      4  C4  IND d   1       5.613   2.714   1.182  0.00  0.00     0.051 A 
ATOM      5  C5  IND d   1       5.234   1.455   0.809  0.00  0.00    -0.031 A 
ATOM      6  C6  IND d   1       4.962   1.135  -0.506  0.00  0.00     0.015 A 
ATOM      7  C7  IND d   1       5.071   2.064  -1.502  0.00  0.00    -0.016 A 
ATOM      8  C8  IND d   1       5.448   3.345  -1.125  0.00  0.00    -0.047 A 
ATOM      9  C9  IND d   1       5.684   3.686   0.213  0.00  0.00    -0.096 A 
ATOM     10  HN1 IND d   1       5.528   4.546  -2.729  0.00  0.00     0.298 HD
ENDROOT
TORSDOF 0
ENDMDL
