MODEL 1
REMARK minimizedAffinity 15.9769888
REMARK minimizedRMSD -1
REMARK  0 active torsions:
REMARK  status: ('A' for Active; 'I' for Inactive)
ROOT
ATOM      1  N1  IND d   1       2.806  -0.018  -1.327  0.00  0.00    -0.196 N 
ATOM      2  C2  IND d   1       3.892  -0.621  -0.755  0.00  0.00     0.054 A 
ATOM      3  C3  IND d   1       3.708  -0.755   0.577  0.00  0.00    -0.031 A 
ATOM      4  C4  IND d   1       1.661  -0.149   2.015  0.00  0.00     0.051 A 
ATOM      5  C5  IND d   1       0.439   0.460   1.948  0.00  0.00    -0.031 A 
ATOM      6  C6  IND d   1      -0.068   0.948   0.760  0.00  0.00     0.015 A 
ATOM      7  C7  IND d   1       0.627   0.834  -0.411  0.00  0.00    -0.016 A 
ATOM      8  C8  IND d   1       1.871   0.223  -0.344  0.00  0.00    -0.047 A 
ATOM      9  C9  IND d   1       2.409  -0.235   0.865  0.00  0.00    -0.096 A 
ATOM     10  HN1 IND d   1       2.722   0.178  -2.160  0.00  0.00     0.298 HD
ENDROOT
TORSDOF 0
ENDMDL
