MODEL 1
REMARK minimizedAffinity 14.6968613
REMARK minimizedRMSD -1
REMARK  0 active torsions:
REMARK  status: ('A' for Active; 'I' for Inactive)
ROOT
ATOM      1  N1  IND d   1       1.477   1.498   5.972  0.00  0.00    -0.196 N 
ATOM      2  C2  IND d   1       2.504   2.399   5.997  0.00  0.00     0.054 A 
ATOM      3  C3  IND d   1       2.998   2.584   4.752  0.00  0.00    -0.031 A 
ATOM      4  C4  IND d   1       2.207   1.588   2.514  0.00  0.00     0.051 A 
ATOM      5  C5  IND d   1       1.326   0.686   1.988  0.00  0.00    -0.031 A 
ATOM      6  C6  IND d   1       0.430  -0.004   2.779  0.00  0.00     0.015 A 
ATOM      7  C7  IND d   1       0.374   0.192   4.130  0.00  0.00    -0.016 A 
ATOM      8  C8  IND d   1       1.272   1.103   4.668  0.00  0.00    -0.047 A 
ATOM      9  C9  IND d   1       2.212   1.774   3.876  0.00  0.00    -0.096 A 
ATOM     10  HN1 IND d   1       1.033   1.224   6.655  0.00  0.00     0.298 HD
ENDROOT
TORSDOF 0
ENDMDL
