MODEL 1
REMARK minimizedAffinity 12.007761
REMARK minimizedRMSD -1
REMARK  0 active torsions:
REMARK  status: ('A' for Active; 'I' for Inactive)
ROOT
ATOM      1  N1  IND d   1      -0.648  -5.145   5.007  0.00  0.00    -0.196 N 
ATOM      2  C2  IND d   1       0.073  -5.979   5.815  0.00  0.00     0.054 A 
ATOM      3  C3  IND d   1       1.321  -5.493   5.999  0.00  0.00    -0.031 A 
ATOM      4  C4  IND d   1       2.361  -3.295   5.153  0.00  0.00     0.051 A 
ATOM      5  C5  IND d   1       2.104  -2.221   4.348  0.00  0.00    -0.031 A 
ATOM      6  C6  IND d   1       0.890  -2.062   3.711  0.00  0.00     0.015 A 
ATOM      7  C7  IND d   1      -0.120  -2.970   3.865  0.00  0.00    -0.016 A 
ATOM      8  C8  IND d   1       0.141  -4.065   4.676  0.00  0.00    -0.047 A 
ATOM      9  C9  IND d   1       1.385  -4.254   5.291  0.00  0.00    -0.096 A 
ATOM     10  HN1 IND d   1      -1.458  -5.273   4.749  0.00  0.00     0.298 HD
ENDROOT
TORSDOF 0
ENDMDL
