MODEL 1
REMARK minimizedAffinity 9.37065887
REMARK minimizedRMSD -1
REMARK  0 active torsions:
REMARK  status: ('A' for Active; 'I' for Inactive)
ROOT
ATOM      1  N1  IND d   1      -1.096  -4.485   4.469  0.00  0.00    -0.196 N 
ATOM      2  C2  IND d   1      -1.154  -5.565   5.304  0.00  0.00     0.054 A 
ATOM      3  C3  IND d   1      -0.000  -5.685   5.999  0.00  0.00    -0.031 A 
ATOM      4  C4  IND d   1       2.074  -4.160   5.999  0.00  0.00     0.051 A 
ATOM      5  C5  IND d   1       2.610  -3.070   5.374  0.00  0.00    -0.031 A 
ATOM      6  C6  IND d   1       1.922  -2.379   4.397  0.00  0.00     0.015 A 
ATOM      7  C7  IND d   1       0.663  -2.749   4.015  0.00  0.00    -0.016 A 
ATOM      8  C8  IND d   1       0.119  -3.860   4.643  0.00  0.00    -0.047 A 
ATOM      9  C9  IND d   1       0.829  -4.590   5.605  0.00  0.00    -0.096 A 
ATOM     10  HN1 IND d   1      -1.715  -4.237   3.926  0.00  0.00     0.298 HD
ENDROOT
TORSDOF 0
ENDMDL
