MODEL 1
REMARK minimizedAffinity 15.1079159
REMARK minimizedRMSD -1
REMARK  0 active torsions:
REMARK  status: ('A' for Active; 'I' for Inactive)
ROOT
ATOM      1  N1  IND d   1      -2.652  -3.003  -2.291  0.00  0.00    -0.196 N 
ATOM      2  C2  IND d   1      -2.507  -1.712  -2.716  0.00  0.00     0.054 A 
ATOM      3  C3  IND d   1      -1.203  -1.353  -2.694  0.00  0.00    -0.031 A 
ATOM      4  C4  IND d   1       0.869  -2.758  -2.093  0.00  0.00     0.051 A 
ATOM      5  C5  IND d   1       1.237  -3.982  -1.610  0.00  0.00    -0.031 A 
ATOM      6  C6  IND d   1       0.310  -4.963  -1.327  0.00  0.00     0.015 A 
ATOM      7  C7  IND d   1      -1.026  -4.760  -1.527  0.00  0.00    -0.016 A 
ATOM      8  C8  IND d   1      -1.405  -3.515  -2.010  0.00  0.00    -0.047 A 
ATOM      9  C9  IND d   1      -0.471  -2.501  -2.260  0.00  0.00    -0.096 A 
ATOM     10  HN1 IND d   1      -3.398  -3.424  -2.212  0.00  0.00     0.298 HD
ENDROOT
TORSDOF 0
ENDMDL
