MODEL 1
REMARK minimizedAffinity 10.4283466
REMARK minimizedRMSD -1
REMARK  0 active torsions:
REMARK  status: ('A' for Active; 'I' for Inactive)
ROOT
ATOM      1  N1  IND d   1      -4.157   3.839  -4.506  0.00  0.00    -0.196 N 
ATOM      2  C2  IND d   1      -5.118   4.295  -3.648  0.00  0.00     0.054 A 
ATOM      3  C3  IND d   1      -5.999   3.310  -3.362  0.00  0.00    -0.031 A 
ATOM      4  C4  IND d   1      -5.999   0.847  -4.111  0.00  0.00     0.051 A 
ATOM      5  C5  IND d   1      -5.343  -0.030  -4.928  0.00  0.00    -0.031 A 
ATOM      6  C6  IND d   1      -4.234   0.344  -5.659  0.00  0.00     0.015 A 
ATOM      7  C7  IND d   1      -3.731   1.613  -5.591  0.00  0.00    -0.016 A 
ATOM      8  C8  IND d   1      -4.398   2.508  -4.768  0.00  0.00    -0.047 A 
ATOM      9  C9  IND d   1      -5.550   2.146  -4.056  0.00  0.00    -0.096 A 
ATOM     10  HN1 IND d   1      -3.510   4.305  -4.829  0.00  0.00     0.298 HD
ENDROOT
TORSDOF 0
ENDMDL
