MODEL 1
REMARK minimizedAffinity 15.2216148
REMARK minimizedRMSD -1
REMARK  0 active torsions:
REMARK  status: ('A' for Active; 'I' for Inactive)
ROOT
ATOM      1  N1  IND d   1       5.971  -2.255  -3.027  0.00  0.00    -0.196 N 
ATOM      2  C2  IND d   1       6.000  -1.021  -2.438  0.00  0.00     0.054 A 
ATOM      3  C3  IND d   1       4.744  -0.543  -2.287  0.00  0.00    -0.031 A 
ATOM      4  C4  IND d   1       2.491  -1.658  -2.843  0.00  0.00     0.051 A 
ATOM      5  C5  IND d   1       1.955  -2.769  -3.430  0.00  0.00    -0.031 A 
ATOM      6  C6  IND d   1       2.747  -3.788  -3.920  0.00  0.00     0.015 A 
ATOM      7  C7  IND d   1       4.109  -3.738  -3.830  0.00  0.00    -0.016 A 
ATOM      8  C8  IND d   1       4.657  -2.608  -3.241  0.00  0.00    -0.047 A 
ATOM      9  C9  IND d   1       3.861  -1.551  -2.781  0.00  0.00    -0.096 A 
ATOM     10  HN1 IND d   1       6.658  -2.730  -3.229  0.00  0.00     0.298 HD
ENDROOT
TORSDOF 0
ENDMDL
