MODEL 1
REMARK minimizedAffinity -1.58069766
REMARK minimizedRMSD -1
REMARK  0 active torsions:
REMARK  status: ('A' for Active; 'I' for Inactive)
ROOT
ATOM      1  C   UNL d   1       0.249  -1.857  -0.054  0.00  0.00     0.077 C 
ATOM      2  C1  UNL d   1       0.404  -0.441  -0.523  0.00  0.00    -0.074 A 
ATOM      3  C2  UNL d   1       0.263   0.630   0.366  0.00  0.00    -0.005 A 
ATOM      4  C3  UNL d   1       0.418   1.941  -0.083  0.00  0.00     0.006 A 
ATOM      5  C4  UNL d   1       0.716   2.195  -1.422  0.00  0.00    -0.005 A 
ATOM      6  C5  UNL d   1       0.862   1.137  -2.325  0.00  0.00    -0.074 A 
ATOM      7  C6  UNL d   1       1.191   1.392  -3.766  0.00  0.00     0.077 C 
ATOM      8  C7  UNL d   1       0.711  -0.178  -1.865  0.00  0.00    -0.001 A 
ENDROOT
TORSDOF 0
ENDMDL
