MODEL 1
REMARK minimizedAffinity 0.780409694
REMARK minimizedRMSD -1
REMARK  0 active torsions:
REMARK  status: ('A' for Active; 'I' for Inactive)
ROOT
ATOM      1  C   UNL d   1       0.066  -1.531  -0.080  0.00  0.00     0.077 C 
ATOM      2  C1  UNL d   1       0.323  -0.107  -0.478  0.00  0.00    -0.074 A 
ATOM      3  C2  UNL d   1       0.300   0.919   0.472  0.00  0.00    -0.005 A 
ATOM      4  C3  UNL d   1       0.551   2.237   0.089  0.00  0.00     0.006 A 
ATOM      5  C4  UNL d   1       0.827   2.541  -1.245  0.00  0.00    -0.005 A 
ATOM      6  C5  UNL d   1       0.855   1.527  -2.208  0.00  0.00    -0.074 A 
ATOM      7  C6  UNL d   1       1.159   1.835  -3.644  0.00  0.00     0.077 C 
ATOM      8  C7  UNL d   1       0.609   0.205  -1.814  0.00  0.00    -0.001 A 
ENDROOT
TORSDOF 0
ENDMDL
