MODEL 1
REMARK minimizedAffinity -1.27769959
REMARK minimizedRMSD -1
REMARK  0 active torsions:
REMARK  status: ('A' for Active; 'I' for Inactive)
ROOT
ATOM      1  C   UNL d   1       1.512   1.852  -1.777  0.00  0.00     0.077 C 
ATOM      2  C1  UNL d   1       1.051   0.825  -0.785  0.00  0.00    -0.074 A 
ATOM      3  C2  UNL d   1       1.959  -0.054  -0.186  0.00  0.00    -0.005 A 
ATOM      4  C3  UNL d   1       1.516  -0.997   0.742  0.00  0.00     0.006 A 
ATOM      5  C4  UNL d   1       0.164  -1.070   1.079  0.00  0.00    -0.005 A 
ATOM      6  C5  UNL d   1      -0.758  -0.199   0.491  0.00  0.00    -0.074 A 
ATOM      7  C6  UNL d   1      -2.213  -0.258   0.850  0.00  0.00     0.077 C 
ATOM      8  C7  UNL d   1      -0.305   0.751  -0.435  0.00  0.00    -0.001 A 
ENDROOT
TORSDOF 0
ENDMDL
