MODEL 1
REMARK minimizedAffinity -5.34677696
REMARK minimizedRMSD -1
REMARK  0 active torsions:
REMARK  status: ('A' for Active; 'I' for Inactive)
ROOT
ATOM      1  C   UNL d   1       4.548   2.252  -2.075  0.00  0.00     0.077 C 
ATOM      2  C1  UNL d   1       3.082   1.996  -2.265  0.00  0.00    -0.074 A 
ATOM      3  C2  UNL d   1       2.463   2.244  -3.494  0.00  0.00    -0.005 A 
ATOM      4  C3  UNL d   1       1.101   1.992  -3.658  0.00  0.00     0.006 A 
ATOM      5  C4  UNL d   1       0.346   1.492  -2.597  0.00  0.00    -0.005 A 
ATOM      6  C5  UNL d   1       0.948   1.238  -1.360  0.00  0.00    -0.074 A 
ATOM      7  C6  UNL d   1       0.153   0.690  -0.212  0.00  0.00     0.077 C 
ATOM      8  C7  UNL d   1       2.319   1.486  -1.205  0.00  0.00    -0.001 A 
ENDROOT
TORSDOF 0
ENDMDL
