MODEL 1
REMARK minimizedAffinity -5.46942329
REMARK minimizedRMSD -1
REMARK  0 active torsions:
REMARK  status: ('A' for Active; 'I' for Inactive)
ROOT
ATOM      1  C   UNL d   1       0.050   1.174   0.453  0.00  0.00     0.077 C 
ATOM      2  C1  UNL d   1      -0.093  -0.313   0.321  0.00  0.00    -0.074 A 
ATOM      3  C2  UNL d   1      -0.653  -1.076   1.351  0.00  0.00    -0.005 A 
ATOM      4  C3  UNL d   1      -0.788  -2.457   1.209  0.00  0.00     0.006 A 
ATOM      5  C4  UNL d   1      -0.365  -3.088   0.039  0.00  0.00    -0.005 A 
ATOM      6  C5  UNL d   1       0.195  -2.341  -1.002  0.00  0.00    -0.074 A 
ATOM      7  C6  UNL d   1       0.645  -3.003  -2.271  0.00  0.00     0.077 C 
ATOM      8  C7  UNL d   1       0.321  -0.953  -0.856  0.00  0.00    -0.001 A 
ENDROOT
TORSDOF 0
ENDMDL
