MODEL 1
REMARK minimizedAffinity -4.8352704
REMARK minimizedRMSD -1
REMARK  0 active torsions:
REMARK  status: ('A' for Active; 'I' for Inactive)
ROOT
ATOM      1  C   UNL d   1       1.439   1.047  -1.669  0.00  0.00     0.077 C 
ATOM      2  C1  UNL d   1       0.381   0.519  -0.746  0.00  0.00    -0.074 A 
ATOM      3  C2  UNL d   1      -0.185   1.335   0.239  0.00  0.00    -0.005 A 
ATOM      4  C3  UNL d   1      -1.175   0.832   1.084  0.00  0.00     0.006 A 
ATOM      5  C4  UNL d   1      -1.608  -0.488   0.952  0.00  0.00    -0.005 A 
ATOM      6  C5  UNL d   1      -1.054  -1.317  -0.028  0.00  0.00    -0.074 A 
ATOM      7  C6  UNL d   1      -1.515  -2.735  -0.189  0.00  0.00     0.077 C 
ATOM      8  C7  UNL d   1      -0.065  -0.803  -0.877  0.00  0.00    -0.001 A 
ENDROOT
TORSDOF 0
ENDMDL
