MODEL 1
REMARK minimizedAffinity -2.81101608
REMARK minimizedRMSD -1
REMARK  0 active torsions:
REMARK  status: ('A' for Active; 'I' for Inactive)
ROOT
ATOM      1  C   UNL d   1       0.174  -2.650   3.495  0.00  0.00     0.077 C 
ATOM      2  C1  UNL d   1      -0.322  -2.064   2.206  0.00  0.00    -0.074 A 
ATOM      3  C2  UNL d   1      -1.618  -2.324   1.749  0.00  0.00    -0.005 A 
ATOM      4  C3  UNL d   1      -2.068  -1.765   0.554  0.00  0.00     0.006 A 
ATOM      5  C4  UNL d   1      -1.228  -0.940  -0.196  0.00  0.00    -0.005 A 
ATOM      6  C5  UNL d   1       0.070  -0.668   0.245  0.00  0.00    -0.074 A 
ATOM      7  C6  UNL d   1       0.982   0.224  -0.544  0.00  0.00     0.077 C 
ATOM      8  C7  UNL d   1       0.513  -1.228   1.451  0.00  0.00    -0.001 A 
ENDROOT
TORSDOF 0
ENDMDL
