MODEL 1
REMARK minimizedAffinity -4.71850348
REMARK minimizedRMSD -1
REMARK  0 active torsions:
REMARK  status: ('A' for Active; 'I' for Inactive)
ROOT
ATOM      1  C   UNL d   1       1.078   1.497  -0.797  0.00  0.00     0.077 C 
ATOM      2  C1  UNL d   1       0.006   0.997   0.125  0.00  0.00    -0.074 A 
ATOM      3  C2  UNL d   1      -0.931   1.875   0.680  0.00  0.00    -0.005 A 
ATOM      4  C3  UNL d   1      -1.928   1.394   1.528  0.00  0.00     0.006 A 
ATOM      5  C4  UNL d   1      -1.999   0.034   1.829  0.00  0.00    -0.005 A 
ATOM      6  C5  UNL d   1      -1.072  -0.859   1.283  0.00  0.00    -0.074 A 
ATOM      7  C6  UNL d   1      -1.139  -2.326   1.589  0.00  0.00     0.077 C 
ATOM      8  C7  UNL d   1      -0.076  -0.369   0.426  0.00  0.00    -0.001 A 
ENDROOT
TORSDOF 0
ENDMDL
