MODEL 1
REMARK minimizedAffinity -4.62182713
REMARK minimizedRMSD -1
REMARK  0 active torsions:
REMARK  status: ('A' for Active; 'I' for Inactive)
ROOT
ATOM      1  C   UNL d   1      -1.819  -2.476   1.920  0.00  0.00     0.077 C 
ATOM      2  C1  UNL d   1      -0.560  -2.066   1.217  0.00  0.00    -0.074 A 
ATOM      3  C2  UNL d   1       0.501  -2.964   1.060  0.00  0.00    -0.005 A 
ATOM      4  C3  UNL d   1       1.663  -2.571   0.396  0.00  0.00     0.006 A 
ATOM      5  C4  UNL d   1       1.776  -1.279  -0.118  0.00  0.00    -0.005 A 
ATOM      6  C5  UNL d   1       0.725  -0.367   0.028  0.00  0.00    -0.074 A 
ATOM      7  C6  UNL d   1       0.826   1.023  -0.527  0.00  0.00     0.077 C 
ATOM      8  C7  UNL d   1      -0.442  -0.772   0.691  0.00  0.00    -0.001 A 
ENDROOT
TORSDOF 0
ENDMDL
