MODEL 1
REMARK minimizedAffinity -4.88555813
REMARK minimizedRMSD -1
REMARK  0 active torsions:
REMARK  status: ('A' for Active; 'I' for Inactive)
ROOT
ATOM      1  C   UNL d   1      -1.735  -2.978   1.031  0.00  0.00     0.077 C 
ATOM      2  C1  UNL d   1      -0.790  -1.863   0.696  0.00  0.00    -0.074 A 
ATOM      3  C2  UNL d   1      -1.268  -0.610   0.297  0.00  0.00    -0.005 A 
ATOM      4  C3  UNL d   1      -0.377   0.420  -0.002  0.00  0.00     0.006 A 
ATOM      5  C4  UNL d   1       0.999   0.209   0.094  0.00  0.00    -0.005 A 
ATOM      6  C5  UNL d   1       1.495  -1.036   0.492  0.00  0.00    -0.074 A 
ATOM      7  C6  UNL d   1       2.971  -1.277   0.609  0.00  0.00     0.077 C 
ATOM      8  C7  UNL d   1       0.593  -2.064   0.797  0.00  0.00    -0.001 A 
ENDROOT
TORSDOF 0
ENDMDL
