MODEL 1
REMARK minimizedAffinity -3.59567761
REMARK minimizedRMSD -1
REMARK  0 active torsions:
REMARK  status: ('A' for Active; 'I' for Inactive)
ROOT
ATOM      1  C   UNL d   1       4.548   1.654  -2.603  0.00  0.00     0.077 C 
ATOM      2  C1  UNL d   1       3.061   1.692  -2.411  0.00  0.00    -0.074 A 
ATOM      3  C2  UNL d   1       2.249   2.476  -3.237  0.00  0.00    -0.005 A 
ATOM      4  C3  UNL d   1       0.867   2.494  -3.053  0.00  0.00     0.006 A 
ATOM      5  C4  UNL d   1       0.283   1.730  -2.041  0.00  0.00    -0.005 A 
ATOM      6  C5  UNL d   1       1.078   0.940  -1.206  0.00  0.00    -0.074 A 
ATOM      7  C6  UNL d   1       0.465   0.105  -0.121  0.00  0.00     0.077 C 
ATOM      8  C7  UNL d   1       2.466   0.921  -1.402  0.00  0.00    -0.001 A 
ENDROOT
TORSDOF 0
ENDMDL
