MODEL 1
REMARK minimizedAffinity -3.05966258
REMARK minimizedRMSD -1
REMARK  0 active torsions:
REMARK  status: ('A' for Active; 'I' for Inactive)
ROOT
ATOM      1  C   UNL d   1       1.426   0.499  -3.341  0.00  0.00     0.077 C 
ATOM      2  C1  UNL d   1       1.131   0.504  -1.870  0.00  0.00    -0.074 A 
ATOM      3  C2  UNL d   1       1.122   1.699  -1.143  0.00  0.00    -0.005 A 
ATOM      4  C3  UNL d   1       0.836   1.689   0.222  0.00  0.00     0.006 A 
ATOM      5  C4  UNL d   1       0.557   0.487   0.873  0.00  0.00    -0.005 A 
ATOM      6  C5  UNL d   1       0.561  -0.717   0.162  0.00  0.00    -0.074 A 
ATOM      7  C6  UNL d   1       0.253  -2.017   0.845  0.00  0.00     0.077 C 
ATOM      8  C7  UNL d   1       0.842  -0.699  -1.211  0.00  0.00    -0.001 A 
ENDROOT
TORSDOF 0
ENDMDL
