MODEL 1
REMARK minimizedAffinity -1.78634715
REMARK minimizedRMSD -1
REMARK  0 active torsions:
REMARK  status: ('A' for Active; 'I' for Inactive)
ROOT
ATOM      1  C   UNL d   1       0.602  -2.450   0.218  0.00  0.00     0.077 C 
ATOM      2  C1  UNL d   1       0.744  -1.021  -0.214  0.00  0.00    -0.074 A 
ATOM      3  C2  UNL d   1       0.423   0.028   0.655  0.00  0.00    -0.005 A 
ATOM      4  C3  UNL d   1       0.569   1.352   0.243  0.00  0.00     0.006 A 
ATOM      5  C4  UNL d   1       1.038   1.641  -1.040  0.00  0.00    -0.005 A 
ATOM      6  C5  UNL d   1       1.364   0.606  -1.921  0.00  0.00    -0.074 A 
ATOM      7  C6  UNL d   1       1.878   0.900  -3.300  0.00  0.00     0.077 C 
ATOM      8  C7  UNL d   1       1.221  -0.722  -1.498  0.00  0.00    -0.001 A 
ENDROOT
TORSDOF 0
ENDMDL
