MODEL 1
REMARK minimizedAffinity -2.53846812
REMARK minimizedRMSD -1
REMARK  0 active torsions:
REMARK  status: ('A' for Active; 'I' for Inactive)
ROOT
ATOM      1  C   UNL d   1       0.432  -1.810   0.255  0.00  0.00     0.077 C 
ATOM      2  C1  UNL d   1       0.484  -0.461  -0.398  0.00  0.00    -0.074 A 
ATOM      3  C2  UNL d   1       0.181   0.699   0.322  0.00  0.00    -0.005 A 
ATOM      4  C3  UNL d   1       0.243   1.948  -0.297  0.00  0.00     0.006 A 
ATOM      5  C4  UNL d   1       0.607   2.049  -1.640  0.00  0.00    -0.005 A 
ATOM      6  C5  UNL d   1       0.915   0.900  -2.376  0.00  0.00    -0.074 A 
ATOM      7  C6  UNL d   1       1.318   0.992  -3.818  0.00  0.00     0.077 C 
ATOM      8  C7  UNL d   1       0.857  -0.350  -1.745  0.00  0.00    -0.001 A 
ENDROOT
TORSDOF 0
ENDMDL
