MODEL 1
REMARK minimizedAffinity -2.61886954
REMARK minimizedRMSD -1
REMARK  0 active torsions:
REMARK  status: ('A' for Active; 'I' for Inactive)
ROOT
ATOM      1  C   UNL d   1      -2.229  -0.851   2.556  0.00  0.00     0.077 C 
ATOM      2  C1  UNL d   1      -1.100  -1.042   1.587  0.00  0.00    -0.074 A 
ATOM      3  C2  UNL d   1      -0.406  -2.255   1.522  0.00  0.00    -0.005 A 
ATOM      4  C3  UNL d   1       0.636  -2.421   0.609  0.00  0.00     0.006 A 
ATOM      5  C4  UNL d   1       0.992  -1.378  -0.247  0.00  0.00    -0.005 A 
ATOM      6  C5  UNL d   1       0.309  -0.159  -0.197  0.00  0.00    -0.074 A 
ATOM      7  C6  UNL d   1       0.673   0.969  -1.116  0.00  0.00     0.077 C 
ATOM      8  C7  UNL d   1      -0.741  -0.002   0.719  0.00  0.00    -0.001 A 
ENDROOT
TORSDOF 0
ENDMDL
