MODEL 1
REMARK minimizedAffinity -2.44886661
REMARK minimizedRMSD -1
REMARK  0 active torsions:
REMARK  status: ('A' for Active; 'I' for Inactive)
ROOT
ATOM      1  C2' OXE d   1       3.360  -0.284  -3.532  0.00  0.00     0.078 C 
ATOM      2  C1' OXE d   1       1.420  -1.982  -4.642  0.00  0.00     0.078 C 
ATOM      3  C1  OXE d   1       0.970  -0.983  -3.605  0.00  0.00    -0.078 A 
ATOM      4  C2  OXE d   1       1.934  -0.189  -3.033  0.00  0.00    -0.078 A 
ATOM      5  C3  OXE d   1       1.566   0.786  -2.110  0.00  0.00     0.003 A 
ATOM      6  C4  OXE d   1       0.247   0.861  -1.647  0.00  0.00    -0.002 A 
ATOM      7  C5  OXE d   1      -0.744   0.034  -2.187  0.00  0.00    -0.002 A 
ATOM      8  C6  OXE d   1      -0.407  -0.862  -3.196  0.00  0.00     0.003 A 
ENDROOT
TORSDOF 0
ENDMDL
