MODEL 1
REMARK minimizedAffinity -4.32930994
REMARK minimizedRMSD -1
REMARK  0 active torsions:
REMARK  status: ('A' for Active; 'I' for Inactive)
ROOT
ATOM      1  C2' OXE d   1      -2.619   0.403   3.201  0.00  0.00     0.078 C 
ATOM      2  C1' OXE d   1      -3.205   0.297   0.458  0.00  0.00     0.078 C 
ATOM      3  C1  OXE d   1      -1.765   0.136   0.876  0.00  0.00    -0.078 A 
ATOM      4  C2  OXE d   1      -1.481   0.236   2.217  0.00  0.00    -0.078 A 
ATOM      5  C3  OXE d   1      -0.177   0.040   2.662  0.00  0.00     0.003 A 
ATOM      6  C4  OXE d   1       0.871  -0.103   1.744  0.00  0.00    -0.002 A 
ATOM      7  C5  OXE d   1       0.609  -0.168   0.372  0.00  0.00    -0.002 A 
ATOM      8  C6  OXE d   1      -0.705  -0.092  -0.075  0.00  0.00     0.003 A 
ENDROOT
TORSDOF 0
ENDMDL
