MODEL 1
REMARK minimizedAffinity -6.0013442
REMARK minimizedRMSD -1
REMARK  0 active torsions:
REMARK  status: ('A' for Active; 'I' for Inactive)
ROOT
ATOM      1  C2' OXE d   1      -0.855   0.254  -1.089  0.00  0.00     0.078 C 
ATOM      2  C1' OXE d   1       1.235  -0.564   0.597  0.00  0.00     0.078 C 
ATOM      3  C1  OXE d   1      -0.099  -0.256   1.229  0.00  0.00    -0.078 A 
ATOM      4  C2  OXE d   1      -1.103   0.188   0.402  0.00  0.00    -0.078 A 
ATOM      5  C3  OXE d   1      -2.369   0.434   0.925  0.00  0.00     0.003 A 
ATOM      6  C4  OXE d   1      -2.588   0.380   2.307  0.00  0.00    -0.002 A 
ATOM      7  C5  OXE d   1      -1.568  -0.031   3.172  0.00  0.00    -0.002 A 
ATOM      8  C6  OXE d   1      -0.333  -0.394   2.645  0.00  0.00     0.003 A 
ENDROOT
TORSDOF 0
ENDMDL
