MODEL 1
REMARK minimizedAffinity -3.35156059
REMARK minimizedRMSD -1
REMARK  0 active torsions:
REMARK  status: ('A' for Active; 'I' for Inactive)
ROOT
ATOM      1  C2' OXE d   1      -0.800  -0.804   2.888  0.00  0.00     0.078 C 
ATOM      2  C1' OXE d   1      -2.666  -0.699   0.794  0.00  0.00     0.078 C 
ATOM      3  C1  OXE d   1      -1.243  -0.304   0.488  0.00  0.00    -0.078 A 
ATOM      4  C2  OXE d   1      -0.347  -0.313   1.530  0.00  0.00    -0.078 A 
ATOM      5  C3  OXE d   1       0.990  -0.011   1.291  0.00  0.00     0.003 A 
ATOM      6  C4  OXE d   1       1.399   0.452   0.034  0.00  0.00    -0.002 A 
ATOM      7  C5  OXE d   1       0.494   0.507  -1.031  0.00  0.00    -0.002 A 
ATOM      8  C6  OXE d   1      -0.819   0.093  -0.832  0.00  0.00     0.003 A 
ENDROOT
TORSDOF 0
ENDMDL
