MODEL 1
REMARK minimizedAffinity -4.14232159
REMARK minimizedRMSD -1
REMARK  0 active torsions:
REMARK  status: ('A' for Active; 'I' for Inactive)
ROOT
ATOM      1  C2' OXE d   1      -1.132  -0.741   2.667  0.00  0.00     0.078 C 
ATOM      2  C1' OXE d   1       1.483   0.174   2.210  0.00  0.00     0.078 C 
ATOM      3  C1  OXE d   1       0.457   0.407   1.129  0.00  0.00    -0.078 A 
ATOM      4  C2  OXE d   1      -0.809  -0.085   1.342  0.00  0.00    -0.078 A 
ATOM      5  C3  OXE d   1      -1.807   0.150   0.401  0.00  0.00     0.003 A 
ATOM      6  C4  OXE d   1      -1.498   0.749  -0.826  0.00  0.00    -0.002 A 
ATOM      7  C5  OXE d   1      -0.206   1.223  -1.079  0.00  0.00    -0.002 A 
ATOM      8  C6  OXE d   1       0.770   1.098  -0.097  0.00  0.00     0.003 A 
ENDROOT
TORSDOF 0
ENDMDL
