MODEL 1
REMARK minimizedAffinity -3.75352407
REMARK minimizedRMSD -1
REMARK  0 active torsions:
REMARK  status: ('A' for Active; 'I' for Inactive)
ROOT
ATOM      1  C2' OXE d   1      -2.696  -0.386   0.993  0.00  0.00     0.078 C 
ATOM      2  C1' OXE d   1      -0.522  -0.588   2.758  0.00  0.00     0.078 C 
ATOM      3  C1  OXE d   1      -0.245  -0.119   1.352  0.00  0.00    -0.078 A 
ATOM      4  C2  OXE d   1      -1.307  -0.067   0.482  0.00  0.00    -0.078 A 
ATOM      5  C3  OXE d   1      -1.117   0.411  -0.812  0.00  0.00     0.003 A 
ATOM      6  C4  OXE d   1       0.172   0.694  -1.280  0.00  0.00    -0.002 A 
ATOM      7  C5  OXE d   1       1.274   0.610  -0.422  0.00  0.00    -0.002 A 
ATOM      8  C6  OXE d   1       1.077   0.247   0.906  0.00  0.00     0.003 A 
ENDROOT
TORSDOF 0
ENDMDL
