MODEL 1
REMARK minimizedAffinity -3.86662769
REMARK minimizedRMSD -1
REMARK  0 active torsions:
REMARK  status: ('A' for Active; 'I' for Inactive)
ROOT
ATOM      1  C2' OXE d   1      -1.155  -0.816   3.158  0.00  0.00     0.078 C 
ATOM      2  C1' OXE d   1       0.944   1.046   3.218  0.00  0.00     0.078 C 
ATOM      3  C1  OXE d   1       0.457   0.578   1.869  0.00  0.00    -0.078 A 
ATOM      4  C2  OXE d   1      -0.539  -0.368   1.851  0.00  0.00    -0.078 A 
ATOM      5  C3  OXE d   1      -1.063  -0.794   0.633  0.00  0.00     0.003 A 
ATOM      6  C4  OXE d   1      -0.480  -0.383  -0.572  0.00  0.00    -0.002 A 
ATOM      7  C5  OXE d   1       0.562   0.551  -0.574  0.00  0.00    -0.002 A 
ATOM      8  C6  OXE d   1       1.013   1.072   0.633  0.00  0.00     0.003 A 
ENDROOT
TORSDOF 0
ENDMDL
