MODEL 1
REMARK minimizedAffinity -4.38440657
REMARK minimizedRMSD -1
REMARK  0 active torsions:
REMARK  status: ('A' for Active; 'I' for Inactive)
ROOT
ATOM      1  C2' OXE d   1      -3.134  -0.441   1.575  0.00  0.00     0.078 C 
ATOM      2  C1' OXE d   1      -0.812  -0.629   3.141  0.00  0.00     0.078 C 
ATOM      3  C1  OXE d   1      -0.653  -0.253   1.689  0.00  0.00    -0.078 A 
ATOM      4  C2  OXE d   1      -1.790  -0.209   0.919  0.00  0.00    -0.078 A 
ATOM      5  C3  OXE d   1      -1.705   0.186  -0.413  0.00  0.00     0.003 A 
ATOM      6  C4  OXE d   1      -0.457   0.389  -1.014  0.00  0.00    -0.002 A 
ATOM      7  C5  OXE d   1       0.717   0.310  -0.258  0.00  0.00    -0.002 A 
ATOM      8  C6  OXE d   1       0.633   0.033   1.102  0.00  0.00     0.003 A 
ENDROOT
TORSDOF 0
ENDMDL
