MODEL 1
REMARK minimizedAffinity -3.18118906
REMARK minimizedRMSD -1
REMARK  0 active torsions:
REMARK  status: ('A' for Active; 'I' for Inactive)
ROOT
ATOM      1  C2' OXE d   1      -0.464  -0.752   2.909  0.00  0.00     0.078 C 
ATOM      2  C1' OXE d   1      -2.414  -0.618   0.895  0.00  0.00     0.078 C 
ATOM      3  C1  OXE d   1      -0.972  -0.434   0.492  0.00  0.00    -0.078 A 
ATOM      4  C2  OXE d   1      -0.029  -0.454   1.491  0.00  0.00    -0.078 A 
ATOM      5  C3  OXE d   1       1.320  -0.343   1.167  0.00  0.00     0.003 A 
ATOM      6  C4  OXE d   1       1.713  -0.058  -0.146  0.00  0.00    -0.002 A 
ATOM      7  C5  OXE d   1       0.765   0.006  -1.173  0.00  0.00    -0.002 A 
ATOM      8  C6  OXE d   1      -0.575  -0.221  -0.878  0.00  0.00     0.003 A 
ENDROOT
TORSDOF 0
ENDMDL
