MODEL 1
REMARK minimizedAffinity -4.01494312
REMARK minimizedRMSD -1
REMARK  0 active torsions:
REMARK  status: ('A' for Active; 'I' for Inactive)
ROOT
ATOM      1  C2' OXE d   1       2.145  -2.061  -4.071  0.00  0.00     0.078 C 
ATOM      2  C1' OXE d   1       3.012   0.388  -3.008  0.00  0.00     0.078 C 
ATOM      3  C1  OXE d   1       1.639  -0.101  -2.619  0.00  0.00    -0.078 A 
ATOM      4  C2  OXE d   1       1.204  -1.278  -3.181  0.00  0.00    -0.078 A 
ATOM      5  C3  OXE d   1      -0.032  -1.801  -2.814  0.00  0.00     0.003 A 
ATOM      6  C4  OXE d   1      -0.900  -1.065  -1.998  0.00  0.00    -0.002 A 
ATOM      7  C5  OXE d   1      -0.492   0.154  -1.447  0.00  0.00    -0.002 A 
ATOM      8  C6  OXE d   1       0.787   0.629  -1.713  0.00  0.00     0.003 A 
ENDROOT
TORSDOF 0
ENDMDL
