MODEL 1
REMARK minimizedAffinity -3.20854425
REMARK minimizedRMSD -1
REMARK  0 active torsions:
REMARK  status: ('A' for Active; 'I' for Inactive)
ROOT
ATOM      1  C2' OXE d   1       0.362   0.076  -0.019  0.00  0.00     0.078 C 
ATOM      2  C1' OXE d   1      -1.450   0.942  -1.980  0.00  0.00     0.078 C 
ATOM      3  C1  OXE d   1      -0.284   0.095  -2.425  0.00  0.00    -0.078 A 
ATOM      4  C2  OXE d   1       0.623  -0.285  -1.466  0.00  0.00    -0.078 A 
ATOM      5  C3  OXE d   1       1.687  -1.113  -1.813  0.00  0.00     0.003 A 
ATOM      6  C4  OXE d   1       1.927  -1.434  -3.154  0.00  0.00    -0.002 A 
ATOM      7  C5  OXE d   1       1.037  -1.024  -4.153  0.00  0.00    -0.002 A 
ATOM      8  C6  OXE d   1      -0.094  -0.296  -3.800  0.00  0.00     0.003 A 
ENDROOT
TORSDOF 0
ENDMDL
