MODEL 1
REMARK minimizedAffinity -3.12540507
REMARK minimizedRMSD -1
REMARK  0 active torsions:
REMARK  status: ('A' for Active; 'I' for Inactive)
ROOT
ATOM      1  C2' OXE d   1       1.120  -2.259  -3.410  0.00  0.00     0.078 C 
ATOM      2  C1' OXE d   1       0.542   0.332  -2.498  0.00  0.00     0.078 C 
ATOM      3  C1  OXE d   1       1.942   0.054  -2.984  0.00  0.00    -0.078 A 
ATOM      4  C2  OXE d   1       2.229  -1.229  -3.385  0.00  0.00    -0.078 A 
ATOM      5  C3  OXE d   1       3.490  -1.526  -3.894  0.00  0.00     0.003 A 
ATOM      6  C4  OXE d   1       4.513  -0.570  -3.858  0.00  0.00    -0.002 A 
ATOM      7  C5  OXE d   1       4.252   0.731  -3.416  0.00  0.00    -0.002 A 
ATOM      8  C6  OXE d   1       2.964   1.071  -3.017  0.00  0.00     0.003 A 
ENDROOT
TORSDOF 0
ENDMDL
