MODEL 1
REMARK minimizedAffinity -5.41473675
REMARK minimizedRMSD -1
REMARK  0 active torsions:
REMARK  status: ('A' for Active; 'I' for Inactive)
ROOT
ATOM      1  C2' OXE d   1      -2.238   0.612  -1.003  0.00  0.00     0.078 C 
ATOM      2  C1' OXE d   1       0.544   0.986  -1.056  0.00  0.00     0.078 C 
ATOM      3  C1  OXE d   1      -0.066   0.422   0.202  0.00  0.00    -0.078 A 
ATOM      4  C2  OXE d   1      -1.433   0.286   0.237  0.00  0.00    -0.078 A 
ATOM      5  C3  OXE d   1      -2.042  -0.281   1.353  0.00  0.00     0.003 A 
ATOM      6  C4  OXE d   1      -1.291  -0.570   2.499  0.00  0.00    -0.002 A 
ATOM      7  C5  OXE d   1       0.098  -0.401   2.500  0.00  0.00    -0.002 A 
ATOM      8  C6  OXE d   1       0.729   0.052   1.347  0.00  0.00     0.003 A 
ENDROOT
TORSDOF 0
ENDMDL
