MODEL 1
REMARK minimizedAffinity -0.638572335
REMARK minimizedRMSD -1
REMARK  0 active torsions:
REMARK  status: ('A' for Active; 'I' for Inactive)
ROOT
ATOM      1  C2' OXE d   1       1.432   1.622   0.751  0.00  0.00     0.078 C 
ATOM      2  C1' OXE d   1       0.273  -0.168  -1.075  0.00  0.00     0.078 C 
ATOM      3  C1  OXE d   1      -0.141  -0.272   0.372  0.00  0.00    -0.078 A 
ATOM      4  C2  OXE d   1       0.466   0.577   1.266  0.00  0.00    -0.078 A 
ATOM      5  C3  OXE d   1       0.080   0.559   2.604  0.00  0.00     0.003 A 
ATOM      6  C4  OXE d   1      -0.806  -0.417   3.073  0.00  0.00    -0.002 A 
ATOM      7  C5  OXE d   1      -1.406  -1.317   2.186  0.00  0.00    -0.002 A 
ATOM      8  C6  OXE d   1      -1.117  -1.231   0.829  0.00  0.00     0.003 A 
ENDROOT
TORSDOF 0
ENDMDL
