MODEL 1
REMARK minimizedAffinity -3.45077634
REMARK minimizedRMSD -1
REMARK  0 active torsions:
REMARK  status: ('A' for Active; 'I' for Inactive)
ROOT
ATOM      1  C2' OXE d   1       1.389   0.722   2.531  0.00  0.00     0.078 C 
ATOM      2  C1' OXE d   1      -0.759  -0.994   3.098  0.00  0.00     0.078 C 
ATOM      3  C1  OXE d   1      -0.693  -0.380   1.722  0.00  0.00    -0.078 A 
ATOM      4  C2  OXE d   1       0.336   0.495   1.469  0.00  0.00    -0.078 A 
ATOM      5  C3  OXE d   1       0.474   1.048   0.198  0.00  0.00     0.003 A 
ATOM      6  C4  OXE d   1      -0.510   0.841  -0.776  0.00  0.00    -0.002 A 
ATOM      7  C5  OXE d   1      -1.588  -0.016  -0.525  0.00  0.00    -0.002 A 
ATOM      8  C6  OXE d   1      -1.671  -0.666   0.701  0.00  0.00     0.003 A 
ENDROOT
TORSDOF 0
ENDMDL
