MODEL 1
REMARK minimizedAffinity -6.03412485
REMARK minimizedRMSD -1
REMARK  0 active torsions:
REMARK  status: ('A' for Active; 'I' for Inactive)
ROOT
ATOM      1  C2' OXE d   1       1.168  -1.430  -0.066  0.00  0.00     0.078 C 
ATOM      2  C1' OXE d   1       0.014   1.115   0.205  0.00  0.00     0.078 C 
ATOM      3  C1  OXE d   1      -0.759  -0.068   0.732  0.00  0.00    -0.078 A 
ATOM      4  C2  OXE d   1      -0.208  -1.314   0.553  0.00  0.00    -0.078 A 
ATOM      5  C3  OXE d   1      -0.854  -2.434   1.069  0.00  0.00     0.003 A 
ATOM      6  C4  OXE d   1      -2.131  -2.319   1.632  0.00  0.00    -0.002 A 
ATOM      7  C5  OXE d   1      -2.728  -1.064   1.788  0.00  0.00    -0.002 A 
ATOM      8  C6  OXE d   1      -2.038   0.074   1.383  0.00  0.00     0.003 A 
ENDROOT
TORSDOF 0
ENDMDL
