MODEL 1
REMARK minimizedAffinity -4.82825089
REMARK minimizedRMSD -1
REMARK  0 active torsions:
REMARK  status: ('A' for Active; 'I' for Inactive)
ROOT
ATOM      1  C2' OXE d   1       1.515  -1.668  -0.080  0.00  0.00     0.078 C 
ATOM      2  C1' OXE d   1       0.312   0.865  -0.208  0.00  0.00     0.078 C 
ATOM      3  C1  OXE d   1      -0.483  -0.261   0.404  0.00  0.00    -0.078 A 
ATOM      4  C2  OXE d   1       0.095  -1.507   0.420  0.00  0.00    -0.078 A 
ATOM      5  C3  OXE d   1      -0.573  -2.570   1.022  0.00  0.00     0.003 A 
ATOM      6  C4  OXE d   1      -1.889  -2.415   1.473  0.00  0.00    -0.002 A 
ATOM      7  C5  OXE d   1      -2.512  -1.164   1.430  0.00  0.00    -0.002 A 
ATOM      8  C6  OXE d   1      -1.809  -0.069   0.938  0.00  0.00     0.003 A 
ENDROOT
TORSDOF 0
ENDMDL
