MODEL 1
REMARK minimizedAffinity -4.04480839
REMARK minimizedRMSD -1
REMARK  0 active torsions:
REMARK  status: ('A' for Active; 'I' for Inactive)
ROOT
ATOM      1  C2' OXE d   1      -2.433  -2.827   1.496  0.00  0.00     0.078 C 
ATOM      2  C1' OXE d   1       0.213  -3.342   2.279  0.00  0.00     0.078 C 
ATOM      3  C1  OXE d   1      -0.036  -2.158   1.379  0.00  0.00    -0.078 A 
ATOM      4  C2  OXE d   1      -1.328  -1.941   0.963  0.00  0.00    -0.078 A 
ATOM      5  C3  OXE d   1      -1.621  -0.831   0.177  0.00  0.00     0.003 A 
ATOM      6  C4  OXE d   1      -0.592  -0.022  -0.320  0.00  0.00    -0.002 A 
ATOM      7  C5  OXE d   1       0.735  -0.249   0.059  0.00  0.00    -0.002 A 
ATOM      8  C6  OXE d   1       1.025  -1.285   0.941  0.00  0.00     0.003 A 
ENDROOT
TORSDOF 0
ENDMDL
