MODEL 1
REMARK minimizedAffinity -1.52799571
REMARK minimizedRMSD -1
REMARK  0 active torsions:
REMARK  status: ('A' for Active; 'I' for Inactive)
ROOT
ATOM      1  C2' OXE d   1       0.264   1.103  -2.203  0.00  0.00     0.078 C 
ATOM      2  C1' OXE d   1      -0.197   1.833   0.468  0.00  0.00     0.078 C 
ATOM      3  C1  OXE d   1      -0.017   0.367   0.160  0.00  0.00    -0.078 A 
ATOM      4  C2  OXE d   1       0.161   0.015  -1.156  0.00  0.00    -0.078 A 
ATOM      5  C3  OXE d   1       0.386  -1.318  -1.489  0.00  0.00     0.003 A 
ATOM      6  C4  OXE d   1       0.279  -2.319  -0.516  0.00  0.00    -0.002 A 
ATOM      7  C5  OXE d   1       0.058  -1.985   0.825  0.00  0.00    -0.002 A 
ATOM      8  C6  OXE d   1      -0.049  -0.646   1.185  0.00  0.00     0.003 A 
ENDROOT
TORSDOF 0
ENDMDL
