MODEL 1
REMARK minimizedAffinity -5.11262894
REMARK minimizedRMSD -1
REMARK  0 active torsions:
REMARK  status: ('A' for Active; 'I' for Inactive)
ROOT
ATOM      1  C2' OXE d   1       1.783  -1.317   0.450  0.00  0.00     0.078 C 
ATOM      2  C1' OXE d   1       0.248   0.474  -1.071  0.00  0.00     0.078 C 
ATOM      3  C1  OXE d   1      -0.481  -0.462  -0.140  0.00  0.00    -0.078 A 
ATOM      4  C2  OXE d   1       0.275  -1.366   0.566  0.00  0.00    -0.078 A 
ATOM      5  C3  OXE d   1      -0.342  -2.216   1.480  0.00  0.00     0.003 A 
ATOM      6  C4  OXE d   1      -1.738  -2.262   1.574  0.00  0.00    -0.002 A 
ATOM      7  C5  OXE d   1      -2.529  -1.377   0.835  0.00  0.00    -0.002 A 
ATOM      8  C6  OXE d   1      -1.916  -0.443   0.007  0.00  0.00     0.003 A 
ENDROOT
TORSDOF 0
ENDMDL
