MODEL 1
REMARK minimizedAffinity -5.83530903
REMARK minimizedRMSD -1
REMARK  0 active torsions:
REMARK  status: ('A' for Active; 'I' for Inactive)
ROOT
ATOM      1  C2' OXE d   1       0.099   0.731   0.127  0.00  0.00     0.078 C 
ATOM      2  C1' OXE d   1       0.565  -1.902  -0.728  0.00  0.00     0.078 C 
ATOM      3  C1  OXE d   1      -0.563  -1.668   0.245  0.00  0.00    -0.078 A 
ATOM      4  C2  OXE d   1      -0.754  -0.383   0.694  0.00  0.00    -0.078 A 
ATOM      5  C3  OXE d   1      -1.815  -0.103   1.551  0.00  0.00     0.003 A 
ATOM      6  C4  OXE d   1      -2.593  -1.141   2.078  0.00  0.00    -0.002 A 
ATOM      7  C5  OXE d   1      -2.390  -2.461   1.665  0.00  0.00    -0.002 A 
ATOM      8  C6  OXE d   1      -1.409  -2.736   0.718  0.00  0.00     0.003 A 
ENDROOT
TORSDOF 0
ENDMDL
