MODEL 1
REMARK minimizedAffinity -4.9141345
REMARK minimizedRMSD -1
REMARK  0 active torsions:
REMARK  status: ('A' for Active; 'I' for Inactive)
ROOT
ATOM      1  C2' OXE d   1      -0.194   1.159  -0.231  0.00  0.00     0.078 C 
ATOM      2  C1' OXE d   1       1.319  -1.203  -0.114  0.00  0.00     0.078 C 
ATOM      3  C1  OXE d   1      -0.070  -1.227   0.474  0.00  0.00    -0.078 A 
ATOM      4  C2  OXE d   1      -0.785  -0.054   0.454  0.00  0.00    -0.078 A 
ATOM      5  C3  OXE d   1      -2.092  -0.035   0.934  0.00  0.00     0.003 A 
ATOM      6  C4  OXE d   1      -2.628  -1.159   1.575  0.00  0.00    -0.002 A 
ATOM      7  C5  OXE d   1      -1.901  -2.352   1.642  0.00  0.00    -0.002 A 
ATOM      8  C6  OXE d   1      -0.640  -2.416   1.059  0.00  0.00     0.003 A 
ENDROOT
TORSDOF 0
ENDMDL
