MODEL 1
REMARK minimizedAffinity -6.45919991
REMARK minimizedRMSD -1
REMARK  0 active torsions:
REMARK  status: ('A' for Active; 'I' for Inactive)
ROOT
ATOM      1  C2' OXE d   1       1.597  -1.404   0.234  0.00  0.00     0.078 C 
ATOM      2  C1' OXE d   1       0.267   1.062   0.061  0.00  0.00     0.078 C 
ATOM      3  C1  OXE d   1      -0.485  -0.103   0.654  0.00  0.00    -0.078 A 
ATOM      4  C2  OXE d   1       0.157  -1.317   0.692  0.00  0.00    -0.078 A 
ATOM      5  C3  OXE d   1      -0.472  -2.411   1.278  0.00  0.00     0.003 A 
ATOM      6  C4  OXE d   1      -1.808  -2.325   1.690  0.00  0.00    -0.002 A 
ATOM      7  C5  OXE d   1      -2.493  -1.107   1.624  0.00  0.00    -0.002 A 
ATOM      8  C6  OXE d   1      -1.834   0.021   1.149  0.00  0.00     0.003 A 
ENDROOT
TORSDOF 0
ENDMDL
