MODEL 1
REMARK minimizedAffinity -3.74107957
REMARK minimizedRMSD -1
REMARK  0 active torsions:
REMARK  status: ('A' for Active; 'I' for Inactive)
ROOT
ATOM      1  C2' OXE d   1       2.030  -0.578   0.914  0.00  0.00     0.078 C 
ATOM      2  C1' OXE d   1       0.328   1.156  -0.491  0.00  0.00     0.078 C 
ATOM      3  C1  OXE d   1      -0.252  -0.141   0.015  0.00  0.00    -0.078 A 
ATOM      4  C2  OXE d   1       0.600  -1.005   0.660  0.00  0.00    -0.078 A 
ATOM      5  C3  OXE d   1       0.104  -2.190   1.195  0.00  0.00     0.003 A 
ATOM      6  C4  OXE d   1      -1.217  -2.582   0.947  0.00  0.00    -0.002 A 
ATOM      7  C5  OXE d   1      -2.091  -1.735   0.257  0.00  0.00    -0.002 A 
ATOM      8  C6  OXE d   1      -1.636  -0.495  -0.178  0.00  0.00     0.003 A 
ENDROOT
TORSDOF 0
ENDMDL
