MODEL 1
REMARK minimizedAffinity -5.99313498
REMARK minimizedRMSD -1
REMARK  0 active torsions:
REMARK  status: ('A' for Active; 'I' for Inactive)
ROOT
ATOM      1  C2' OXE d   1       0.003   1.194  -0.016  0.00  0.00     0.078 C 
ATOM      2  C1' OXE d   1       1.122  -1.379  -0.094  0.00  0.00     0.078 C 
ATOM      3  C1  OXE d   1      -0.265  -1.233   0.478  0.00  0.00    -0.078 A 
ATOM      4  C2  OXE d   1      -0.787   0.036   0.556  0.00  0.00    -0.078 A 
ATOM      5  C3  OXE d   1      -2.084   0.221   1.025  0.00  0.00     0.003 A 
ATOM      6  C4  OXE d   1      -2.804  -0.854   1.562  0.00  0.00    -0.002 A 
ATOM      7  C5  OXE d   1      -2.275  -2.149   1.529  0.00  0.00    -0.002 A 
ATOM      8  C6  OXE d   1      -1.028  -2.361   0.953  0.00  0.00     0.003 A 
ENDROOT
TORSDOF 0
ENDMDL
