MODEL 1
REMARK minimizedAffinity -6.62022161
REMARK minimizedRMSD -1
REMARK  0 active torsions:
REMARK  status: ('A' for Active; 'I' for Inactive)
ROOT
ATOM      1  C2' OXE d   1      -0.006   0.494  -0.611  0.00  0.00     0.078 C 
ATOM      2  C1' OXE d   1       0.641  -2.198  -0.147  0.00  0.00     0.078 C 
ATOM      3  C1  OXE d   1      -0.593  -1.646   0.520  0.00  0.00    -0.078 A 
ATOM      4  C2  OXE d   1      -0.877  -0.316   0.325  0.00  0.00    -0.078 A 
ATOM      5  C3  OXE d   1      -2.034   0.231   0.873  0.00  0.00     0.003 A 
ATOM      6  C4  OXE d   1      -2.828  -0.522   1.746  0.00  0.00    -0.002 A 
ATOM      7  C5  OXE d   1      -2.536  -1.868   1.990  0.00  0.00    -0.002 A 
ATOM      8  C6  OXE d   1      -1.448  -2.456   1.353  0.00  0.00     0.003 A 
ENDROOT
TORSDOF 0
ENDMDL
