MODEL 1
REMARK minimizedAffinity -6.63189936
REMARK minimizedRMSD -1
REMARK  0 active torsions:
REMARK  status: ('A' for Active; 'I' for Inactive)
ROOT
ATOM      1  C2' OXE d   1       0.901  -1.741  -0.079  0.00  0.00     0.078 C 
ATOM      2  C1' OXE d   1       0.078   0.940  -0.211  0.00  0.00     0.078 C 
ATOM      3  C1  OXE d   1      -0.744  -0.008   0.626  0.00  0.00    -0.078 A 
ATOM      4  C2  OXE d   1      -0.361  -1.328   0.648  0.00  0.00    -0.078 A 
ATOM      5  C3  OXE d   1      -1.051  -2.233   1.448  0.00  0.00     0.003 A 
ATOM      6  C4  OXE d   1      -2.223  -1.845   2.109  0.00  0.00    -0.002 A 
ATOM      7  C5  OXE d   1      -2.654  -0.515   2.068  0.00  0.00    -0.002 A 
ATOM      8  C6  OXE d   1      -1.904   0.423   1.367  0.00  0.00     0.003 A 
ENDROOT
TORSDOF 0
ENDMDL
