MODEL 1
REMARK minimizedAffinity -5.86309862
REMARK minimizedRMSD -1
REMARK  0 active torsions:
REMARK  status: ('A' for Active; 'I' for Inactive)
ROOT
ATOM      1  C2' OXE d   1       1.327  -1.373   0.128  0.00  0.00     0.078 C 
ATOM      2  C1' OXE d   1       0.028   1.113   0.221  0.00  0.00     0.078 C 
ATOM      3  C1  OXE d   1      -0.733  -0.097   0.704  0.00  0.00    -0.078 A 
ATOM      4  C2  OXE d   1      -0.106  -1.316   0.611  0.00  0.00    -0.078 A 
ATOM      5  C3  OXE d   1      -0.741  -2.457   1.093  0.00  0.00     0.003 A 
ATOM      6  C4  OXE d   1      -2.070  -2.396   1.529  0.00  0.00    -0.002 A 
ATOM      7  C5  OXE d   1      -2.741  -1.171   1.595  0.00  0.00    -0.002 A 
ATOM      8  C6  OXE d   1      -2.074  -0.008   1.227  0.00  0.00     0.003 A 
ENDROOT
TORSDOF 0
ENDMDL
