MODEL 1
REMARK minimizedAffinity 0.214817777
REMARK minimizedRMSD -1
REMARK  0 active torsions:
REMARK  status: ('A' for Active; 'I' for Inactive)
ROOT
ATOM      1  C2' OXE d   1       0.193   0.845  -0.447  0.00  0.00     0.078 C 
ATOM      2  C1' OXE d   1       0.807  -1.723   0.507  0.00  0.00     0.078 C 
ATOM      3  C1  OXE d   1      -0.393  -1.022   1.094  0.00  0.00    -0.078 A 
ATOM      4  C2  OXE d   1      -0.658   0.252   0.655  0.00  0.00    -0.078 A 
ATOM      5  C3  OXE d   1      -1.785   0.922   1.124  0.00  0.00     0.003 A 
ATOM      6  C4  OXE d   1      -2.561   0.371   2.150  0.00  0.00    -0.002 A 
ATOM      7  C5  OXE d   1      -2.285  -0.910   2.640  0.00  0.00    -0.002 A 
ATOM      8  C6  OXE d   1      -1.232  -1.636   2.093  0.00  0.00     0.003 A 
ENDROOT
TORSDOF 0
ENDMDL
