MODEL 1
REMARK minimizedAffinity -4.98384476
REMARK minimizedRMSD -1
REMARK  0 active torsions:
REMARK  status: ('A' for Active; 'I' for Inactive)
ROOT
ATOM      1  C2' OXE d   1      -1.840  -2.788   1.625  0.00  0.00     0.078 C 
ATOM      2  C1' OXE d   1      -3.030  -0.269   1.975  0.00  0.00     0.078 C 
ATOM      3  C1  OXE d   1      -1.774  -0.345   1.143  0.00  0.00    -0.078 A 
ATOM      4  C2  OXE d   1      -1.172  -1.574   1.016  0.00  0.00    -0.078 A 
ATOM      5  C3  OXE d   1      -0.042  -1.709   0.215  0.00  0.00     0.003 A 
ATOM      6  C4  OXE d   1       0.575  -0.579  -0.336  0.00  0.00    -0.002 A 
ATOM      7  C5  OXE d   1       0.001   0.688  -0.186  0.00  0.00    -0.002 A 
ATOM      8  C6  OXE d   1      -1.194   0.816   0.513  0.00  0.00     0.003 A 
ENDROOT
TORSDOF 0
ENDMDL
