MODEL 1
REMARK minimizedAffinity -5.52987099
REMARK minimizedRMSD -1
REMARK  0 active torsions:
REMARK  status: ('A' for Active; 'I' for Inactive)
ROOT
ATOM      1  C2' OXE d   1      -1.504  -2.899   1.409  0.00  0.00     0.078 C 
ATOM      2  C1' OXE d   1      -2.903  -0.471   1.571  0.00  0.00     0.078 C 
ATOM      3  C1  OXE d   1      -1.489  -0.434   1.048  0.00  0.00    -0.078 A 
ATOM      4  C2  OXE d   1      -0.796  -1.620   1.016  0.00  0.00    -0.078 A 
ATOM      5  C3  OXE d   1       0.493  -1.651   0.491  0.00  0.00     0.003 A 
ATOM      6  C4  OXE d   1       1.144  -0.463   0.139  0.00  0.00    -0.002 A 
ATOM      7  C5  OXE d   1       0.470   0.761   0.201  0.00  0.00    -0.002 A 
ATOM      8  C6  OXE d   1      -0.858   0.787   0.612  0.00  0.00     0.003 A 
ENDROOT
TORSDOF 0
ENDMDL
