MODEL 1
REMARK minimizedAffinity -4.68680334
REMARK minimizedRMSD -1
REMARK  0 active torsions:
REMARK  status: ('A' for Active; 'I' for Inactive)
ROOT
ATOM      1  C2' OXE d   1       1.075  -1.121  -0.017  0.00  0.00     0.078 C 
ATOM      2  C1' OXE d   1      -0.352   1.294  -0.118  0.00  0.00     0.078 C 
ATOM      3  C1  OXE d   1      -0.980   0.136   0.616  0.00  0.00    -0.078 A 
ATOM      4  C2  OXE d   1      -0.296  -1.056   0.621  0.00  0.00    -0.078 A 
ATOM      5  C3  OXE d   1      -0.804  -2.140   1.330  0.00  0.00     0.003 A 
ATOM      6  C4  OXE d   1      -2.078  -2.075   1.909  0.00  0.00    -0.002 A 
ATOM      7  C5  OXE d   1      -2.809  -0.883   1.881  0.00  0.00    -0.002 A 
ATOM      8  C6  OXE d   1      -2.257   0.242   1.277  0.00  0.00     0.003 A 
ENDROOT
TORSDOF 0
ENDMDL
