MODEL 1
REMARK minimizedAffinity -0.848398089
REMARK minimizedRMSD -1
REMARK  0 active torsions:
REMARK  status: ('A' for Active; 'I' for Inactive)
ROOT
ATOM      1  C2' OXE d   1      -0.896   2.665  -2.940  0.00  0.00     0.078 C 
ATOM      2  C1' OXE d   1       0.492   2.124  -0.561  0.00  0.00     0.078 C 
ATOM      3  C1  OXE d   1       1.261   2.052  -1.856  0.00  0.00    -0.078 A 
ATOM      4  C2  OXE d   1       0.563   2.272  -3.019  0.00  0.00    -0.078 A 
ATOM      5  C3  OXE d   1       1.236   2.271  -4.238  0.00  0.00     0.003 A 
ATOM      6  C4  OXE d   1       2.584   1.896  -4.303  0.00  0.00    -0.002 A 
ATOM      7  C5  OXE d   1       3.303   1.629  -3.134  0.00  0.00    -0.002 A 
ATOM      8  C6  OXE d   1       2.669   1.743  -1.902  0.00  0.00     0.003 A 
ENDROOT
TORSDOF 0
ENDMDL
