MODEL 1
REMARK minimizedAffinity -4.46040916
REMARK minimizedRMSD -1
REMARK  0 active torsions:
REMARK  status: ('A' for Active; 'I' for Inactive)
ROOT
ATOM      1  C2' OXE d   1      -2.066  -2.558   1.398  0.00  0.00     0.078 C 
ATOM      2  C1' OXE d   1      -3.248  -0.052   1.847  0.00  0.00     0.078 C 
ATOM      3  C1  OXE d   1      -1.909  -0.084   1.154  0.00  0.00    -0.078 A 
ATOM      4  C2  OXE d   1      -1.316  -1.312   0.980  0.00  0.00    -0.078 A 
ATOM      5  C3  OXE d   1      -0.106  -1.402   0.298  0.00  0.00     0.003 A 
ATOM      6  C4  OXE d   1       0.585  -0.244  -0.076  0.00  0.00    -0.002 A 
ATOM      7  C5  OXE d   1       0.017   1.018   0.127  0.00  0.00    -0.002 A 
ATOM      8  C6  OXE d   1      -1.245   1.113   0.701  0.00  0.00     0.003 A 
ENDROOT
TORSDOF 0
ENDMDL
