MODEL 1
REMARK minimizedAffinity 2.06754541
REMARK minimizedRMSD -1
REMARK  1 active torsions:
REMARK  status: ('A' for Active; 'I' for Inactive)
REMARK    1  A    between atoms: N_2  and  C1_3 
ROOT
ATOM      1  C1  UNL d   1      -0.402  -1.108   2.621  0.00  0.00     0.143 A 
ATOM      2  C2  UNL d   1       0.925  -0.729   2.394  0.00  0.00    -0.057 A 
ATOM      3  C3  UNL d   1       1.987  -1.399   3.013  0.00  0.00     0.033 A 
ATOM      4  C4  UNL d   1       1.738  -2.444   3.896  0.00  0.00    -0.042 A 
ATOM      5  C5  UNL d   1       0.425  -2.822   4.156  0.00  0.00     0.033 A 
ATOM      6  C6  UNL d   1      -0.631  -2.153   3.529  0.00  0.00    -0.057 A 
ENDROOT
BRANCH   1   7
ATOM      7  N   UNL d   1      -1.506  -0.418   2.112  0.00  0.00    -0.732 N 
ATOM      8  C   UNL d   1      -1.603   1.019   2.247  0.00  0.00     0.284 C 
ATOM      9  H3  UNL d   1      -1.799  -0.771   1.204  0.00  0.00     0.395 HD
ENDBRANCH   1   7
TORSDOF 1
ENDMDL
