MODEL 1
REMARK minimizedAffinity 0.12986958
REMARK minimizedRMSD -1
REMARK  1 active torsions:
REMARK  status: ('A' for Active; 'I' for Inactive)
REMARK    1  A    between atoms: N_2  and  C1_3 
ROOT
ATOM      1  C1  UNL d   1      -0.527  -0.559   2.665  0.00  0.00     0.143 A 
ATOM      2  C2  UNL d   1       0.148  -1.292   3.647  0.00  0.00    -0.057 A 
ATOM      3  C3  UNL d   1       1.534  -1.484   3.586  0.00  0.00     0.033 A 
ATOM      4  C4  UNL d   1       2.267  -0.968   2.522  0.00  0.00    -0.042 A 
ATOM      5  C5  UNL d   1       1.614  -0.257   1.522  0.00  0.00     0.033 A 
ATOM      6  C6  UNL d   1       0.231  -0.063   1.592  0.00  0.00    -0.057 A 
ENDROOT
BRANCH   1   7
ATOM      7  N   UNL d   1      -1.916  -0.417   2.618  0.00  0.00    -0.732 N 
ATOM      8  C   UNL d   1      -2.782  -1.531   2.936  0.00  0.00     0.284 C 
ATOM      9  H3  UNL d   1      -2.228   0.474   2.997  0.00  0.00     0.395 HD
ENDBRANCH   1   7
TORSDOF 1
ENDMDL
