MODEL 1
REMARK minimizedAffinity -0.225789994
REMARK minimizedRMSD -1
REMARK  1 active torsions:
REMARK  status: ('A' for Active; 'I' for Inactive)
REMARK    1  A    between atoms: N_2  and  C1_3 
ROOT
ATOM      1  C1  UNL d   1      -0.900  -0.871   3.108  0.00  0.00     0.143 A 
ATOM      2  C2  UNL d   1      -0.455  -1.444   4.304  0.00  0.00    -0.057 A 
ATOM      3  C3  UNL d   1       0.907  -1.671   4.537  0.00  0.00     0.033 A 
ATOM      4  C4  UNL d   1       1.848  -1.355   3.562  0.00  0.00    -0.042 A 
ATOM      5  C5  UNL d   1       1.426  -0.808   2.356  0.00  0.00     0.033 A 
ATOM      6  C6  UNL d   1       0.065  -0.577   2.132  0.00  0.00    -0.057 A 
ENDROOT
BRANCH   1   7
ATOM      7  N   UNL d   1      -2.248  -0.710   2.778  0.00  0.00    -0.732 N 
ATOM      8  C   UNL d   1      -3.268  -1.498   3.437  0.00  0.00     0.284 C 
ATOM      9  H3  UNL d   1      -2.501   0.266   2.640  0.00  0.00     0.395 HD
ENDBRANCH   1   7
TORSDOF 1
ENDMDL
