MODEL 1
REMARK minimizedAffinity 5.24448919
REMARK minimizedRMSD -1
REMARK  1 active torsions:
REMARK  status: ('A' for Active; 'I' for Inactive)
REMARK    1  A    between atoms: N_2  and  C1_3 
ROOT
ATOM      1  C1  UNL d   1      -0.249   0.079   2.183  0.00  0.00     0.143 A 
ATOM      2  C2  UNL d   1       0.906  -0.470   1.615  0.00  0.00    -0.057 A 
ATOM      3  C3  UNL d   1       1.810  -1.212   2.384  0.00  0.00     0.033 A 
ATOM      4  C4  UNL d   1       1.590  -1.395   3.745  0.00  0.00    -0.042 A 
ATOM      5  C5  UNL d   1       0.461  -0.838   4.336  0.00  0.00     0.033 A 
ATOM      6  C6  UNL d   1      -0.442  -0.104   3.561  0.00  0.00    -0.057 A 
ENDROOT
BRANCH   1   7
ATOM      7  N   UNL d   1      -1.136   0.909   1.493  0.00  0.00    -0.732 N 
ATOM      8  C   UNL d   1      -2.319   0.363   0.863  0.00  0.00     0.284 C 
ATOM      9  H3  UNL d   1      -1.291   1.794   1.971  0.00  0.00     0.395 HD
ENDBRANCH   1   7
TORSDOF 1
ENDMDL
