MODEL 1
REMARK minimizedAffinity 4.18838358
REMARK minimizedRMSD -1
REMARK  1 active torsions:
REMARK  status: ('A' for Active; 'I' for Inactive)
REMARK    1  A    between atoms: N_2  and  C1_3 
ROOT
ATOM      1  C1  UNL d   1      -0.681  -3.781  -4.660  0.00  0.00     0.143 A 
ATOM      2  C2  UNL d   1      -0.398  -3.687  -3.293  0.00  0.00    -0.057 A 
ATOM      3  C3  UNL d   1       0.269  -4.715  -2.617  0.00  0.00     0.033 A 
ATOM      4  C4  UNL d   1       0.641  -5.873  -3.293  0.00  0.00    -0.042 A 
ATOM      5  C5  UNL d   1       0.347  -5.999  -4.646  0.00  0.00     0.033 A 
ATOM      6  C6  UNL d   1      -0.314  -4.966  -5.317  0.00  0.00    -0.057 A 
ENDROOT
BRANCH   1   7
ATOM      7  N   UNL d   1      -1.429  -2.836  -5.366  0.00  0.00    -0.732 N 
ATOM      8  C   UNL d   1      -1.440  -1.448  -4.956  0.00  0.00     0.284 C 
ATOM      9  H3  UNL d   1      -1.374  -2.971  -6.373  0.00  0.00     0.395 HD
ENDBRANCH   1   7
TORSDOF 1
ENDMDL
