MODEL 1
REMARK minimizedAffinity 3.78479338
REMARK minimizedRMSD -1
REMARK  1 active torsions:
REMARK  status: ('A' for Active; 'I' for Inactive)
REMARK    1  A    between atoms: N_2  and  C1_3 
ROOT
ATOM      1  C1  UNL d   1      -1.272  -0.144   1.273  0.00  0.00     0.143 A 
ATOM      2  C2  UNL d   1      -1.621   1.158   0.898  0.00  0.00    -0.057 A 
ATOM      3  C3  UNL d   1      -2.368   1.404  -0.260  0.00  0.00     0.033 A 
ATOM      4  C4  UNL d   1      -2.756   0.351  -1.082  0.00  0.00    -0.042 A 
ATOM      5  C5  UNL d   1      -2.399  -0.949  -0.742  0.00  0.00     0.033 A 
ATOM      6  C6  UNL d   1      -1.658  -1.189   0.419  0.00  0.00    -0.057 A 
ENDROOT
BRANCH   1   7
ATOM      7  N   UNL d   1      -0.446  -0.446   2.359  0.00  0.00    -0.732 N 
ATOM      8  C   UNL d   1       0.905  -0.918   2.149  0.00  0.00     0.284 C 
ATOM      9  H3  UNL d   1      -0.538   0.228   3.116  0.00  0.00     0.395 HD
ENDBRANCH   1   7
TORSDOF 1
ENDMDL
