MODEL 1
REMARK minimizedAffinity -1.62162364
REMARK minimizedRMSD -1
REMARK  1 active torsions:
REMARK  status: ('A' for Active; 'I' for Inactive)
REMARK    1  A    between atoms: N_2  and  C1_3 
ROOT
ATOM      1  C1  UNL d   1       1.130  -0.804   3.412  0.00  0.00     0.143 A 
ATOM      2  C2  UNL d   1       0.884  -2.176   3.531  0.00  0.00    -0.057 A 
ATOM      3  C3  UNL d   1       1.574  -2.960   4.464  0.00  0.00     0.033 A 
ATOM      4  C4  UNL d   1       2.546  -2.388   5.277  0.00  0.00    -0.042 A 
ATOM      5  C5  UNL d   1       2.825  -1.031   5.160  0.00  0.00     0.033 A 
ATOM      6  C6  UNL d   1       2.128  -0.253   4.231  0.00  0.00    -0.057 A 
ENDROOT
BRANCH   1   7
ATOM      7  N   UNL d   1       0.547   0.009   2.437  0.00  0.00    -0.732 N 
ATOM      8  C   UNL d   1      -0.835  -0.178   2.050  0.00  0.00     0.284 C 
ATOM      9  H3  UNL d   1       0.825   0.984   2.527  0.00  0.00     0.395 HD
ENDBRANCH   1   7
TORSDOF 1
ENDMDL
