MODEL 1
REMARK minimizedAffinity 0.12036784
REMARK minimizedRMSD -1
REMARK  0 active torsions:
REMARK  status: ('A' for Active; 'I' for Inactive)
ROOT
ATOM      1  C   UNL d   1       2.116  -5.998  -1.228  0.00  0.00    -0.002 A 
ATOM      2  C1  UNL d   1       3.502  -5.994  -1.295  0.00  0.00     0.010 A 
ATOM      3  C2  UNL d   1       4.153  -5.993  -2.530  0.00  0.00     0.041 A 
ATOM      4  C3  UNL d   1       3.380  -5.994  -3.708  0.00  0.00    -0.075 A 
ATOM      5  S   UNL d   1       3.960  -5.992  -5.332  0.00  0.00     0.015 SA
ATOM      6  C4  UNL d   1       2.382  -5.996  -5.975  0.00  0.00     0.022 A 
ATOM      7  C5  UNL d   1       1.424  -5.999  -4.989  0.00  0.00     0.026 A 
ATOM      8  C6  UNL d   1       1.983  -5.998  -3.666  0.00  0.00    -0.082 A 
ATOM      9  C7  UNL d   1       1.352  -6.000  -2.399  0.00  0.00     0.045 A 
ENDROOT
TORSDOF 0
ENDMDL
