MODEL 1
REMARK minimizedAffinity 10.9846334
REMARK minimizedRMSD -1
REMARK  0 active torsions:
REMARK  status: ('A' for Active; 'I' for Inactive)
ROOT
ATOM      1  C   UNL d   1      -5.127   3.714   1.420  0.00  0.00    -0.002 A 
ATOM      2  C1  UNL d   1      -5.995   3.627   0.341  0.00  0.00     0.010 A 
ATOM      3  C2  UNL d   1      -5.606   2.975  -0.831  0.00  0.00     0.041 A 
ATOM      4  C3  UNL d   1      -4.319   2.406  -0.900  0.00  0.00    -0.075 A 
ATOM      5  S   UNL d   1      -3.627   1.559  -2.233  0.00  0.00     0.015 SA
ATOM      6  C4  UNL d   1      -2.164   1.292  -1.400  0.00  0.00     0.022 A 
ATOM      7  C5  UNL d   1      -2.186   1.830  -0.135  0.00  0.00     0.026 A 
ATOM      8  C6  UNL d   1      -3.428   2.480   0.174  0.00  0.00    -0.082 A 
ATOM      9  C7  UNL d   1      -3.852   3.148   1.348  0.00  0.00     0.045 A 
ENDROOT
TORSDOF 0
ENDMDL
