MODEL 1
REMARK minimizedAffinity 5.21196175
REMARK minimizedRMSD -1
REMARK  0 active torsions:
REMARK  status: ('A' for Active; 'I' for Inactive)
ROOT
ATOM      1  C   UNL d   1       1.678  -5.995  -1.351  0.00  0.00    -0.002 A 
ATOM      2  C1  UNL d   1       3.048  -5.997  -1.127  0.00  0.00     0.010 A 
ATOM      3  C2  UNL d   1       3.943  -5.997  -2.199  0.00  0.00     0.041 A 
ATOM      4  C3  UNL d   1       3.433  -5.993  -3.512  0.00  0.00    -0.075 A 
ATOM      5  S   UNL d   1       4.340  -5.991  -4.979  0.00  0.00     0.015 SA
ATOM      6  C4  UNL d   1       2.931  -5.987  -5.937  0.00  0.00     0.022 A 
ATOM      7  C5  UNL d   1       1.788  -5.987  -5.174  0.00  0.00     0.026 A 
ATOM      8  C6  UNL d   1       2.058  -5.990  -3.763  0.00  0.00    -0.082 A 
ATOM      9  C7  UNL d   1       1.177  -5.991  -2.656  0.00  0.00     0.045 A 
ENDROOT
TORSDOF 0
ENDMDL
