MODEL 1
REMARK minimizedAffinity 0.70822674
REMARK minimizedRMSD -1
REMARK  0 active torsions:
REMARK  status: ('A' for Active; 'I' for Inactive)
ROOT
ATOM      1  C   UNL d   1       3.119  -5.998  -1.258  0.00  0.00    -0.002 A 
ATOM      2  C1  UNL d   1       1.780  -6.000  -1.622  0.00  0.00     0.010 A 
ATOM      3  C2  UNL d   1       1.410  -5.999  -2.969  0.00  0.00     0.041 A 
ATOM      4  C3  UNL d   1       2.418  -5.998  -3.953  0.00  0.00    -0.075 A 
ATOM      5  S   UNL d   1       2.202  -5.999  -5.663  0.00  0.00     0.015 SA
ATOM      6  C4  UNL d   1       3.882  -5.997  -5.951  0.00  0.00     0.022 A 
ATOM      7  C5  UNL d   1       4.605  -5.996  -4.781  0.00  0.00     0.026 A 
ATOM      8  C6  UNL d   1       3.774  -5.997  -3.611  0.00  0.00    -0.082 A 
ATOM      9  C7  UNL d   1       4.116  -5.997  -2.237  0.00  0.00     0.045 A 
ENDROOT
TORSDOF 0
ENDMDL
