MODEL 1
REMARK minimizedAffinity 0.648867369
REMARK minimizedRMSD -1
REMARK  0 active torsions:
REMARK  status: ('A' for Active; 'I' for Inactive)
ROOT
ATOM      1  C   UNL d   1       5.044  -5.995  -5.960  0.00  0.00    -0.002 A 
ATOM      2  C1  UNL d   1       3.656  -5.996  -5.942  0.00  0.00     0.010 A 
ATOM      3  C2  UNL d   1       2.962  -5.999  -4.730  0.00  0.00     0.041 A 
ATOM      4  C3  UNL d   1       3.693  -5.998  -3.526  0.00  0.00    -0.075 A 
ATOM      5  S   UNL d   1       3.057  -5.999  -1.924  0.00  0.00     0.015 SA
ATOM      6  C4  UNL d   1       4.612  -5.998  -1.226  0.00  0.00     0.022 A 
ATOM      7  C5  UNL d   1       5.604  -5.997  -2.178  0.00  0.00     0.026 A 
ATOM      8  C6  UNL d   1       5.091  -5.996  -3.519  0.00  0.00    -0.082 A 
ATOM      9  C7  UNL d   1       5.765  -5.995  -4.764  0.00  0.00     0.045 A 
ENDROOT
TORSDOF 0
ENDMDL
