MODEL 1
REMARK minimizedAffinity 7.52720451
REMARK minimizedRMSD -1
REMARK  0 active torsions:
REMARK  status: ('A' for Active; 'I' for Inactive)
ROOT
ATOM      1  C   UNL d   1      -2.010   1.227  -0.701  0.00  0.00    -0.002 A 
ATOM      2  C1  UNL d   1      -2.500   1.508  -1.969  0.00  0.00     0.010 A 
ATOM      3  C2  UNL d   1      -3.698   2.208  -2.128  0.00  0.00     0.041 A 
ATOM      4  C3  UNL d   1      -4.400   2.627  -0.981  0.00  0.00    -0.075 A 
ATOM      5  S   UNL d   1      -5.886   3.499  -0.933  0.00  0.00     0.015 SA
ATOM      6  C4  UNL d   1      -5.905   3.520   0.771  0.00  0.00     0.022 A 
ATOM      7  C5  UNL d   1      -4.812   2.882   1.307  0.00  0.00     0.026 A 
ATOM      8  C6  UNL d   1      -3.926   2.357   0.306  0.00  0.00    -0.082 A 
ATOM      9  C7  UNL d   1      -2.709   1.644   0.434  0.00  0.00     0.045 A 
ENDROOT
TORSDOF 0
ENDMDL
