MODEL 1
REMARK minimizedAffinity 4.25821877
REMARK minimizedRMSD -1
REMARK  0 active torsions:
REMARK  status: ('A' for Active; 'I' for Inactive)
ROOT
ATOM      1  C   UNL d   1       1.392  -5.999  -4.941  0.00  0.00    -0.002 A 
ATOM      2  C1  UNL d   1       2.310  -5.999  -5.982  0.00  0.00     0.010 A 
ATOM      3  C2  UNL d   1       3.681  -5.999  -5.719  0.00  0.00     0.041 A 
ATOM      4  C3  UNL d   1       4.118  -5.999  -4.380  0.00  0.00    -0.075 A 
ATOM      5  S   UNL d   1       5.749  -5.999  -3.818  0.00  0.00     0.015 SA
ATOM      6  C4  UNL d   1       5.265  -6.000  -2.184  0.00  0.00     0.022 A 
ATOM      7  C5  UNL d   1       3.896  -5.999  -2.052  0.00  0.00     0.026 A 
ATOM      8  C6  UNL d   1       3.213  -5.999  -3.315  0.00  0.00    -0.082 A 
ATOM      9  C7  UNL d   1       1.829  -5.999  -3.614  0.00  0.00     0.045 A 
ENDROOT
TORSDOF 0
ENDMDL
