MODEL 1
REMARK minimizedAffinity 18.1741982
REMARK minimizedRMSD -1
REMARK  0 active torsions:
REMARK  status: ('A' for Active; 'I' for Inactive)
ROOT
ATOM      1  C   UNL d   1      -4.986   3.032   1.480  0.00  0.00    -0.002 A 
ATOM      2  C1  UNL d   1      -5.999   2.933   0.537  0.00  0.00     0.010 A 
ATOM      3  C2  UNL d   1      -5.721   2.502  -0.762  0.00  0.00     0.041 A 
ATOM      4  C3  UNL d   1      -4.395   2.167  -1.099  0.00  0.00    -0.075 A 
ATOM      5  S   UNL d   1      -3.819   1.614  -2.627  0.00  0.00     0.015 SA
ATOM      6  C4  UNL d   1      -2.215   1.495  -2.064  0.00  0.00     0.022 A 
ATOM      7  C5  UNL d   1      -2.103   1.865  -0.744  0.00  0.00     0.026 A 
ATOM      8  C6  UNL d   1      -3.358   2.257  -0.166  0.00  0.00    -0.082 A 
ATOM      9  C7  UNL d   1      -3.672   2.699   1.142  0.00  0.00     0.045 A 
ENDROOT
TORSDOF 0
ENDMDL
