MODEL 1
REMARK minimizedAffinity -0.0326431133
REMARK minimizedRMSD -1
REMARK  0 active torsions:
REMARK  status: ('A' for Active; 'I' for Inactive)
ROOT
ATOM      1  C   UNL d   1      -1.458  -0.742  -0.561  0.00  0.00     0.078 C 
ATOM      2  C1  UNL d   1      -1.851  -1.767  -1.583  0.00  0.00    -0.077 A 
ATOM      3  C2  UNL d   1      -2.035  -3.108  -1.225  0.00  0.00    -0.001 A 
ATOM      4  C3  UNL d   1      -2.392  -4.054  -2.188  0.00  0.00     0.003 A 
ATOM      5  C4  UNL d   1      -2.566  -3.668  -3.516  0.00  0.00    -0.005 A 
ATOM      6  C5  UNL d   1      -2.383  -2.336  -3.882  0.00  0.00     0.003 A 
ATOM      7  C6  UNL d   1      -2.026  -1.390  -2.920  0.00  0.00    -0.001 A 
ENDROOT
TORSDOF 0
ENDMDL
