MODEL 1
REMARK minimizedAffinity -0.835335791
REMARK minimizedRMSD -1
REMARK  0 active torsions:
REMARK  status: ('A' for Active; 'I' for Inactive)
ROOT
ATOM      1  C   UNL d   1      -3.014  -2.528  -2.989  0.00  0.00     0.078 C 
ATOM      2  C1  UNL d   1      -2.050  -1.513  -2.451  0.00  0.00    -0.077 A 
ATOM      3  C2  UNL d   1      -1.597  -0.455  -3.248  0.00  0.00    -0.001 A 
ATOM      4  C3  UNL d   1      -0.692   0.477  -2.737  0.00  0.00     0.003 A 
ATOM      5  C4  UNL d   1      -0.231   0.359  -1.427  0.00  0.00    -0.005 A 
ATOM      6  C5  UNL d   1      -0.675  -0.692  -0.627  0.00  0.00     0.003 A 
ATOM      7  C6  UNL d   1      -1.580  -1.625  -1.136  0.00  0.00    -0.001 A 
ENDROOT
TORSDOF 0
ENDMDL
