MODEL 1
REMARK minimizedAffinity -1.48319638
REMARK minimizedRMSD -1
REMARK  0 active torsions:
REMARK  status: ('A' for Active; 'I' for Inactive)
ROOT
ATOM      1  C   UNL d   1      -4.499   5.991   3.763  0.00  0.00     0.078 C 
ATOM      2  C1  UNL d   1      -4.869   5.388   2.441  0.00  0.00    -0.077 A 
ATOM      3  C2  UNL d   1      -4.493   5.999   1.239  0.00  0.00    -0.001 A 
ATOM      4  C3  UNL d   1      -4.853   5.432   0.015  0.00  0.00     0.003 A 
ATOM      5  C4  UNL d   1      -5.592   4.251  -0.017  0.00  0.00    -0.005 A 
ATOM      6  C5  UNL d   1      -5.973   3.636   1.174  0.00  0.00     0.003 A 
ATOM      7  C6  UNL d   1      -5.614   4.202   2.398  0.00  0.00    -0.001 A 
ENDROOT
TORSDOF 0
ENDMDL
