MODEL 1
REMARK minimizedAffinity -1.62800455
REMARK minimizedRMSD -1
REMARK  0 active torsions:
REMARK  status: ('A' for Active; 'I' for Inactive)
ROOT
ATOM      1  C   UNL d   1      -5.006   5.337   5.769  0.00  0.00     0.078 C 
ATOM      2  C1  UNL d   1      -4.957   5.381   4.271  0.00  0.00    -0.077 A 
ATOM      3  C2  UNL d   1      -5.992   4.838   3.499  0.00  0.00    -0.001 A 
ATOM      4  C3  UNL d   1      -5.928   4.878   2.105  0.00  0.00     0.003 A 
ATOM      5  C4  UNL d   1      -4.832   5.459   1.471  0.00  0.00    -0.005 A 
ATOM      6  C5  UNL d   1      -3.796   5.999   2.231  0.00  0.00     0.003 A 
ATOM      7  C6  UNL d   1      -3.858   5.961   3.624  0.00  0.00    -0.001 A 
ENDROOT
TORSDOF 0
ENDMDL
