MODEL 1
REMARK minimizedAffinity -3.86670804
REMARK minimizedRMSD -1
REMARK  0 active torsions:
REMARK  status: ('A' for Active; 'I' for Inactive)
ROOT
ATOM      1  C   UNL d   1      -4.935   5.351   1.807  0.00  0.00     0.078 C 
ATOM      2  C1  UNL d   1      -4.865   4.628   3.119  0.00  0.00    -0.077 A 
ATOM      3  C2  UNL d   1      -4.972   5.321   4.331  0.00  0.00    -0.001 A 
ATOM      4  C3  UNL d   1      -4.895   4.637   5.545  0.00  0.00     0.003 A 
ATOM      5  C4  UNL d   1      -4.710   3.256   5.559  0.00  0.00    -0.005 A 
ATOM      6  C5  UNL d   1      -4.600   2.558   4.358  0.00  0.00     0.003 A 
ATOM      7  C6  UNL d   1      -4.676   3.241   3.143  0.00  0.00    -0.001 A 
ENDROOT
TORSDOF 0
ENDMDL
