MODEL 1
REMARK minimizedAffinity 2.09727478
REMARK minimizedRMSD -1
REMARK  0 active torsions:
REMARK  status: ('A' for Active; 'I' for Inactive)
ROOT
ATOM      1  C   UNL d   1      -4.669   5.696   2.931  0.00  0.00     0.078 C 
ATOM      2  C1  UNL d   1      -4.848   5.176   1.536  0.00  0.00    -0.077 A 
ATOM      3  C2  UNL d   1      -5.292   3.869   1.304  0.00  0.00    -0.001 A 
ATOM      4  C3  UNL d   1      -5.445   3.395   0.000  0.00  0.00     0.003 A 
ATOM      5  C4  UNL d   1      -5.154   4.222  -1.083  0.00  0.00    -0.005 A 
ATOM      6  C5  UNL d   1      -4.709   5.524  -0.863  0.00  0.00     0.003 A 
ATOM      7  C6  UNL d   1      -4.556   5.999   0.441  0.00  0.00    -0.001 A 
ENDROOT
TORSDOF 0
ENDMDL
