MODEL 1
REMARK minimizedAffinity 0.281342685
REMARK minimizedRMSD -1
REMARK  0 active torsions:
REMARK  status: ('A' for Active; 'I' for Inactive)
ROOT
ATOM      1  C   UNL d   1      -0.442   0.589  -0.690  0.00  0.00     0.078 C 
ATOM      2  C1  UNL d   1       0.553   0.259  -1.763  0.00  0.00    -0.077 A 
ATOM      3  C2  UNL d   1       1.864  -0.113  -1.440  0.00  0.00    -0.001 A 
ATOM      4  C3  UNL d   1       2.783  -0.407  -2.449  0.00  0.00     0.003 A 
ATOM      5  C4  UNL d   1       2.401  -0.332  -3.787  0.00  0.00    -0.005 A 
ATOM      6  C5  UNL d   1       1.099   0.039  -4.117  0.00  0.00     0.003 A 
ATOM      7  C6  UNL d   1       0.179   0.334  -3.110  0.00  0.00    -0.001 A 
ENDROOT
TORSDOF 0
ENDMDL
