MODEL 1
REMARK minimizedAffinity -0.402389437
REMARK minimizedRMSD -1
REMARK  0 active torsions:
REMARK  status: ('A' for Active; 'I' for Inactive)
ROOT
ATOM      1  C   UNL d   1      -4.906   5.848  -0.148  0.00  0.00     0.078 C 
ATOM      2  C1  UNL d   1      -4.835   5.876   1.349  0.00  0.00    -0.077 A 
ATOM      3  C2  UNL d   1      -5.998   5.964   2.124  0.00  0.00    -0.001 A 
ATOM      4  C3  UNL d   1      -5.917   5.999   3.517  0.00  0.00     0.003 A 
ATOM      5  C4  UNL d   1      -4.675   5.948   4.147  0.00  0.00    -0.005 A 
ATOM      6  C5  UNL d   1      -3.512   5.862   3.384  0.00  0.00     0.003 A 
ATOM      7  C6  UNL d   1      -3.592   5.827   1.991  0.00  0.00    -0.001 A 
ENDROOT
TORSDOF 0
ENDMDL
