MODEL 1
REMARK minimizedAffinity 3.34625483
REMARK minimizedRMSD -1
REMARK  0 active torsions:
REMARK  status: ('A' for Active; 'I' for Inactive)
ROOT
ATOM      1  C   UNL d   1      -5.014   5.766   2.611  0.00  0.00     0.078 C 
ATOM      2  C1  UNL d   1      -5.071   5.351   1.172  0.00  0.00    -0.077 A 
ATOM      3  C2  UNL d   1      -4.250   4.326   0.684  0.00  0.00    -0.001 A 
ATOM      4  C3  UNL d   1      -4.306   3.956  -0.660  0.00  0.00     0.003 A 
ATOM      5  C4  UNL d   1      -5.181   4.606  -1.529  0.00  0.00    -0.005 A 
ATOM      6  C5  UNL d   1      -6.000   5.628  -1.053  0.00  0.00     0.003 A 
ATOM      7  C6  UNL d   1      -5.945   6.000   0.291  0.00  0.00    -0.001 A 
ENDROOT
TORSDOF 0
ENDMDL
