MODEL 1
REMARK minimizedAffinity -3.22312689
REMARK minimizedRMSD -1
REMARK  0 active torsions:
REMARK  status: ('A' for Active; 'I' for Inactive)
ROOT
ATOM      1  C   UNL d   1      -4.815   5.970   0.959  0.00  0.00     0.078 C 
ATOM      2  C1  UNL d   1      -4.795   5.980   2.458  0.00  0.00    -0.077 A 
ATOM      3  C2  UNL d   1      -3.586   5.980   3.163  0.00  0.00    -0.001 A 
ATOM      4  C3  UNL d   1      -3.582   5.980   4.559  0.00  0.00     0.003 A 
ATOM      5  C4  UNL d   1      -4.785   5.978   5.262  0.00  0.00    -0.005 A 
ATOM      6  C5  UNL d   1      -5.994   5.976   4.569  0.00  0.00     0.003 A 
ATOM      7  C6  UNL d   1      -6.000   5.976   3.173  0.00  0.00    -0.001 A 
ENDROOT
TORSDOF 0
ENDMDL
