MODEL 1
REMARK minimizedAffinity -2.27104187
REMARK minimizedRMSD -1
REMARK  0 active torsions:
REMARK  status: ('A' for Active; 'I' for Inactive)
ROOT
ATOM      1  C   UNL d   1      -4.590   5.850   3.613  0.00  0.00     0.078 C 
ATOM      2  C1  UNL d   1      -4.874   5.378   2.219  0.00  0.00    -0.077 A 
ATOM      3  C2  UNL d   1      -5.752   4.314   1.982  0.00  0.00    -0.001 A 
ATOM      4  C3  UNL d   1      -5.999   3.878   0.679  0.00  0.00     0.003 A 
ATOM      5  C4  UNL d   1      -5.370   4.501  -0.398  0.00  0.00    -0.005 A 
ATOM      6  C5  UNL d   1      -4.493   5.560  -0.172  0.00  0.00     0.003 A 
ATOM      7  C6  UNL d   1      -4.245   5.996   1.130  0.00  0.00    -0.001 A 
ENDROOT
TORSDOF 0
ENDMDL
