MODEL 1
REMARK minimizedAffinity 2.88665247
REMARK minimizedRMSD -1
REMARK  0 active torsions:
REMARK  status: ('A' for Active; 'I' for Inactive)
ROOT
ATOM      1  C   UNL d   1      -3.417   1.732   5.980  0.00  0.00     0.078 C 
ATOM      2  C1  UNL d   1      -3.151   0.436   5.274  0.00  0.00    -0.077 A 
ATOM      3  C2  UNL d   1      -2.935   0.399   3.891  0.00  0.00    -0.001 A 
ATOM      4  C3  UNL d   1      -2.698  -0.815   3.246  0.00  0.00     0.003 A 
ATOM      5  C4  UNL d   1      -2.678  -2.003   3.974  0.00  0.00    -0.005 A 
ATOM      6  C5  UNL d   1      -2.895  -1.977   5.351  0.00  0.00     0.003 A 
ATOM      7  C6  UNL d   1      -3.131  -0.763   5.998  0.00  0.00    -0.001 A 
ENDROOT
TORSDOF 0
ENDMDL
