MODEL 1
REMARK minimizedAffinity -2.37121487
REMARK minimizedRMSD -1
REMARK  0 active torsions:
REMARK  status: ('A' for Active; 'I' for Inactive)
ROOT
ATOM      1  C   UNL d   1      -4.860   2.146   5.257  0.00  0.00     0.078 C 
ATOM      2  C1  UNL d   1      -4.332   0.743   5.211  0.00  0.00    -0.077 A 
ATOM      3  C2  UNL d   1      -4.897  -0.266   5.999  0.00  0.00    -0.001 A 
ATOM      4  C3  UNL d   1      -4.389  -1.566   5.953  0.00  0.00     0.003 A 
ATOM      5  C4  UNL d   1      -3.313  -1.867   5.121  0.00  0.00    -0.005 A 
ATOM      6  C5  UNL d   1      -2.743  -0.869   4.335  0.00  0.00     0.003 A 
ATOM      7  C6  UNL d   1      -3.249   0.431   4.379  0.00  0.00    -0.001 A 
ENDROOT
TORSDOF 0
ENDMDL
