MODEL 1
REMARK minimizedAffinity -5.45060396
REMARK minimizedRMSD -1
REMARK  0 active torsions:
REMARK  status: ('A' for Active; 'I' for Inactive)
ROOT
ATOM      1  C   UNL d   1      -5.072  -4.983   0.095  0.00  0.00     0.078 C 
ATOM      2  C1  UNL d   1      -4.213  -3.754   0.088  0.00  0.00    -0.077 A 
ATOM      3  C2  UNL d   1      -4.513  -2.659   0.908  0.00  0.00    -0.001 A 
ATOM      4  C3  UNL d   1      -3.710  -1.518   0.884  0.00  0.00     0.003 A 
ATOM      5  C4  UNL d   1      -2.602  -1.460   0.042  0.00  0.00    -0.005 A 
ATOM      6  C5  UNL d   1      -2.296  -2.544  -0.780  0.00  0.00     0.003 A 
ATOM      7  C6  UNL d   1      -3.098  -3.686  -0.757  0.00  0.00    -0.001 A 
ENDROOT
TORSDOF 0
ENDMDL
