MODEL 1
REMARK minimizedAffinity -2.34409618
REMARK minimizedRMSD -1
REMARK  0 active torsions:
REMARK  status: ('A' for Active; 'I' for Inactive)
ROOT
ATOM      1  C   UNL d   1      -5.389   5.443  -0.379  0.00  0.00     0.078 C 
ATOM      2  C1  UNL d   1      -5.089   5.452   1.090  0.00  0.00    -0.077 A 
ATOM      3  C2  UNL d   1      -6.000   5.986   2.010  0.00  0.00    -0.001 A 
ATOM      4  C3  UNL d   1      -5.702   5.998   3.373  0.00  0.00     0.003 A 
ATOM      5  C4  UNL d   1      -4.493   5.477   3.830  0.00  0.00    -0.005 A 
ATOM      6  C5  UNL d   1      -3.579   4.945   2.922  0.00  0.00     0.003 A 
ATOM      7  C6  UNL d   1      -3.875   4.933   1.558  0.00  0.00    -0.001 A 
ENDROOT
TORSDOF 0
ENDMDL
