MODEL 1
REMARK minimizedAffinity 0.71529907
REMARK minimizedRMSD -1
REMARK  0 active torsions:
REMARK  status: ('A' for Active; 'I' for Inactive)
ROOT
ATOM      1  C   UNL d   1       2.655   3.099   2.070  0.00  0.00     0.078 C 
ATOM      2  C1  UNL d   1       2.328   2.151   3.185  0.00  0.00    -0.077 A 
ATOM      3  C2  UNL d   1       2.696   0.802   3.116  0.00  0.00    -0.001 A 
ATOM      4  C3  UNL d   1       2.377  -0.071   4.158  0.00  0.00     0.003 A 
ATOM      5  C4  UNL d   1       1.688   0.395   5.275  0.00  0.00    -0.005 A 
ATOM      6  C5  UNL d   1       1.315   1.735   5.351  0.00  0.00     0.003 A 
ATOM      7  C6  UNL d   1       1.633   2.610   4.311  0.00  0.00    -0.001 A 
ENDROOT
TORSDOF 0
ENDMDL
