MODEL 1
REMARK minimizedAffinity 7.74082422
REMARK minimizedRMSD -1
REMARK  0 active torsions:
REMARK  status: ('A' for Active; 'I' for Inactive)
ROOT
ATOM      1  C   UNL d   1      -1.149  -0.919  -1.094  0.00  0.00     0.078 C 
ATOM      2  C1  UNL d   1      -1.681  -1.755  -2.219  0.00  0.00    -0.077 A 
ATOM      3  C2  UNL d   1      -2.240  -3.016  -1.978  0.00  0.00    -0.001 A 
ATOM      4  C3  UNL d   1      -2.723  -3.788  -3.037  0.00  0.00     0.003 A 
ATOM      5  C4  UNL d   1      -2.649  -3.308  -4.343  0.00  0.00    -0.005 A 
ATOM      6  C5  UNL d   1      -2.091  -2.056  -4.592  0.00  0.00     0.003 A 
ATOM      7  C6  UNL d   1      -1.609  -1.283  -3.535  0.00  0.00    -0.001 A 
ENDROOT
TORSDOF 0
ENDMDL
