MODEL 1
REMARK minimizedAffinity -1.60389793
REMARK minimizedRMSD -1
REMARK  0 active torsions:
REMARK  status: ('A' for Active; 'I' for Inactive)
ROOT
ATOM      1  N1  IND d   1       0.944  -0.553  -0.073  0.00  0.00    -0.196 N 
ATOM      2  C2  IND d   1       0.400  -0.379  -1.315  0.00  0.00     0.054 A 
ATOM      3  C3  IND d   1      -0.821   0.192  -1.218  0.00  0.00    -0.031 A 
ATOM      4  C4  IND d   1      -2.078   1.020   0.871  0.00  0.00     0.051 A 
ATOM      5  C5  IND d   1      -2.000   1.046   2.235  0.00  0.00    -0.031 A 
ATOM      6  C6  IND d   1      -0.914   0.533   2.913  0.00  0.00     0.015 A 
ATOM      7  C7  IND d   1       0.146  -0.018   2.249  0.00  0.00    -0.016 A 
ATOM      8  C8  IND d   1       0.067  -0.053   0.864  0.00  0.00    -0.047 A 
ATOM      9  C9  IND d   1      -1.052   0.428   0.172  0.00  0.00    -0.096 A 
ATOM     10  HN1 IND d   1       1.707  -0.913   0.095  0.00  0.00     0.298 HD
ENDROOT
TORSDOF 0
ENDMDL
