MODEL 1
REMARK minimizedAffinity -2.9597683
REMARK minimizedRMSD -1
REMARK  0 active torsions:
REMARK  status: ('A' for Active; 'I' for Inactive)
ROOT
ATOM      1  N1  IND d   1       1.009  -0.488  -0.689  0.00  0.00    -0.196 N 
ATOM      2  C2  IND d   1       0.183  -0.240  -1.750  0.00  0.00     0.054 A 
ATOM      3  C3  IND d   1      -0.995   0.265  -1.322  0.00  0.00    -0.031 A 
ATOM      4  C4  IND d   1      -1.747   0.863   1.067  0.00  0.00     0.051 A 
ATOM      5  C5  IND d   1      -1.351   0.783   2.372  0.00  0.00    -0.031 A 
ATOM      6  C6  IND d   1      -0.123   0.267   2.732  0.00  0.00     0.015 A 
ATOM      7  C7  IND d   1       0.764  -0.179   1.793  0.00  0.00    -0.016 A 
ATOM      8  C8  IND d   1       0.363  -0.106   0.467  0.00  0.00    -0.047 A 
ATOM      9  C9  IND d   1      -0.899   0.377   0.099  0.00  0.00    -0.096 A 
ATOM     10  HN1 IND d   1       1.798  -0.825  -0.735  0.00  0.00     0.298 HD
ENDROOT
TORSDOF 0
ENDMDL
