MODEL 1
REMARK minimizedAffinity -1.96748197
REMARK minimizedRMSD -1
REMARK  0 active torsions:
REMARK  status: ('A' for Active; 'I' for Inactive)
ROOT
ATOM      1  N1  IND d   1       1.222   0.742  -0.586  0.00  0.00    -0.196 N 
ATOM      2  C2  IND d   1       1.035   0.041  -1.744  0.00  0.00     0.054 A 
ATOM      3  C3  IND d   1      -0.143  -0.621  -1.708  0.00  0.00    -0.031 A 
ATOM      4  C4  IND d   1      -1.967  -0.616   0.109  0.00  0.00     0.051 A 
ATOM      5  C5  IND d   1      -2.232  -0.154   1.367  0.00  0.00    -0.031 A 
ATOM      6  C6  IND d   1      -1.343   0.649   2.052  0.00  0.00     0.015 A 
ATOM      7  C7  IND d   1      -0.155   1.031   1.496  0.00  0.00    -0.016 A 
ATOM      8  C8  IND d   1       0.121   0.558   0.221  0.00  0.00    -0.047 A 
ATOM      9  C9  IND d   1      -0.758  -0.293  -0.461  0.00  0.00    -0.096 A 
ATOM     10  HN1 IND d   1       1.912   1.219  -0.393  0.00  0.00     0.298 HD
ENDROOT
TORSDOF 0
ENDMDL
