MODEL 1
REMARK minimizedAffinity -1.30256808
REMARK minimizedRMSD -1
REMARK  0 active torsions:
REMARK  status: ('A' for Active; 'I' for Inactive)
ROOT
ATOM      1  N1  IND d   1       0.871  -0.351  -1.912  0.00  0.00    -0.196 N 
ATOM      2  C2  IND d   1       0.961   0.574  -2.914  0.00  0.00     0.054 A 
ATOM      3  C3  IND d   1       0.130   1.613  -2.670  0.00  0.00    -0.031 A 
ATOM      4  C4  IND d   1      -1.390   2.050  -0.639  0.00  0.00     0.051 A 
ATOM      5  C5  IND d   1      -1.836   1.473   0.516  0.00  0.00    -0.031 A 
ATOM      6  C6  IND d   1      -1.392   0.234   0.931  0.00  0.00     0.015 A 
ATOM      7  C7  IND d   1      -0.472  -0.471   0.209  0.00  0.00    -0.016 A 
ATOM      8  C8  IND d   1      -0.022   0.109  -0.969  0.00  0.00    -0.047 A 
ATOM      9  C9  IND d   1      -0.501   1.347  -1.417  0.00  0.00    -0.096 A 
ATOM     10  HN1 IND d   1       1.301  -1.095  -1.876  0.00  0.00     0.298 HD
ENDROOT
TORSDOF 0
ENDMDL
