MODEL 1
REMARK minimizedAffinity -1.09776378
REMARK minimizedRMSD -1
REMARK  0 active torsions:
REMARK  status: ('A' for Active; 'I' for Inactive)
ROOT
ATOM      1  N1  IND d   1       0.711   0.866  -0.463  0.00  0.00    -0.196 N 
ATOM      2  C2  IND d   1       0.078  -0.162   0.179  0.00  0.00     0.054 A 
ATOM      3  C3  IND d   1      -0.389  -1.060  -0.717  0.00  0.00    -0.031 A 
ATOM      4  C4  IND d   1      -0.140  -1.095  -3.280  0.00  0.00     0.051 A 
ATOM      5  C5  IND d   1       0.327  -0.351  -4.327  0.00  0.00    -0.031 A 
ATOM      6  C6  IND d   1       0.961   0.860  -4.135  0.00  0.00     0.015 A 
ATOM      7  C7  IND d   1       1.163   1.368  -2.884  0.00  0.00    -0.016 A 
ATOM      8  C8  IND d   1       0.684   0.619  -1.818  0.00  0.00    -0.047 A 
ATOM      9  C9  IND d   1       0.002  -0.590  -2.009  0.00  0.00    -0.096 A 
ATOM     10  HN1 IND d   1       1.067   1.551  -0.084  0.00  0.00     0.298 HD
ENDROOT
TORSDOF 0
ENDMDL
