MODEL 1
REMARK minimizedAffinity -1.7727648
REMARK minimizedRMSD -1
REMARK  0 active torsions:
REMARK  status: ('A' for Active; 'I' for Inactive)
ROOT
ATOM      1  N1  IND d   1       1.065  -0.734  -0.083  0.00  0.00    -0.196 N 
ATOM      2  C2  IND d   1       0.108  -0.438  -1.013  0.00  0.00     0.054 A 
ATOM      3  C3  IND d   1      -0.992   0.068  -0.412  0.00  0.00    -0.031 A 
ATOM      4  C4  IND d   1      -1.401   0.593   2.075  0.00  0.00     0.051 A 
ATOM      5  C5  IND d   1      -0.834   0.462   3.311  0.00  0.00    -0.031 A 
ATOM      6  C6  IND d   1       0.422  -0.083   3.482  0.00  0.00     0.015 A 
ATOM      7  C7  IND d   1       1.165  -0.509   2.418  0.00  0.00    -0.016 A 
ATOM      8  C8  IND d   1       0.589  -0.384   1.162  0.00  0.00    -0.047 A 
ATOM      9  C9  IND d   1      -0.702   0.130   0.985  0.00  0.00    -0.096 A 
ATOM     10  HN1 IND d   1       1.834  -1.081  -0.248  0.00  0.00     0.298 HD
ENDROOT
TORSDOF 0
ENDMDL
