MODEL 1
REMARK minimizedAffinity -3.87155414
REMARK minimizedRMSD -1
REMARK  1 active torsions:
REMARK  status: ('A' for Active; 'I' for Inactive)
REMARK    1  A    between atoms: C1_2  and  C2_3 
ROOT
ATOM      1  C2  UNL d   1      -0.462  -0.718   0.581  0.00  0.00    -0.073 A 
ATOM      2  C3  UNL d   1      -0.856  -0.714   1.924  0.00  0.00    -0.002 A 
ATOM      3  C4  UNL d   1       0.084  -0.920   2.934  0.00  0.00     0.004 A 
ATOM      4  C5  UNL d   1       1.426  -1.125   2.614  0.00  0.00    -0.004 A 
ATOM      5  C6  UNL d   1       1.841  -1.120   1.279  0.00  0.00    -0.075 A 
ATOM      6  C7  UNL d   1       3.280  -1.341   0.917  0.00  0.00     0.076 C 
ATOM      7  C8  UNL d   1       0.891  -0.915   0.269  0.00  0.00     0.001 A 
ENDROOT
BRANCH   1   8
ATOM      8  C1  UNL d   1      -1.472  -0.489  -0.514  0.00  0.00     0.053 C 
ATOM      9  C   UNL d   1      -2.750  -1.281  -0.285  0.00  0.00     0.018 C 
ENDBRANCH   1   8
TORSDOF 1
ENDMDL
