MODEL 1
REMARK minimizedAffinity -1.9274168
REMARK minimizedRMSD -1
REMARK  1 active torsions:
REMARK  status: ('A' for Active; 'I' for Inactive)
REMARK    1  A    between atoms: C1_2  and  C2_3 
ROOT
ATOM      1  C2  UNL d   1       0.403   0.416  -0.871  0.00  0.00    -0.073 A 
ATOM      2  C3  UNL d   1      -0.980   0.204  -0.839  0.00  0.00    -0.002 A 
ATOM      3  C4  UNL d   1      -1.612  -0.140   0.357  0.00  0.00     0.004 A 
ATOM      4  C5  UNL d   1      -0.871  -0.270   1.531  0.00  0.00    -0.004 A 
ATOM      5  C6  UNL d   1       0.510  -0.051   1.521  0.00  0.00    -0.075 A 
ATOM      6  C7  UNL d   1       1.322  -0.189   2.775  0.00  0.00     0.076 C 
ATOM      7  C8  UNL d   1       1.138   0.292   0.316  0.00  0.00     0.001 A 
ENDROOT
BRANCH   1   8
ATOM      8  C1  UNL d   1       1.089   0.794  -2.158  0.00  0.00     0.053 C 
ATOM      9  C   UNL d   1       0.999   2.286  -2.435  0.00  0.00     0.018 C 
ENDBRANCH   1   8
TORSDOF 1
ENDMDL
