MODEL 1
REMARK minimizedAffinity -4.1899395
REMARK minimizedRMSD -1
REMARK  1 active torsions:
REMARK  status: ('A' for Active; 'I' for Inactive)
REMARK    1  A    between atoms: C1_2  and  C2_3 
ROOT
ATOM      1  C2  UNL d   1       0.268  -0.180  -0.003  0.00  0.00    -0.073 A 
ATOM      2  C3  UNL d   1       1.427  -0.390   0.752  0.00  0.00    -0.002 A 
ATOM      3  C4  UNL d   1       1.390  -0.289   2.143  0.00  0.00     0.004 A 
ATOM      4  C5  UNL d   1       0.194   0.015   2.793  0.00  0.00    -0.004 A 
ATOM      5  C6  UNL d   1      -0.978   0.216   2.057  0.00  0.00    -0.075 A 
ATOM      6  C7  UNL d   1      -2.272   0.546   2.741  0.00  0.00     0.076 C 
ATOM      7  C8  UNL d   1      -0.932   0.116   0.660  0.00  0.00     0.001 A 
ENDROOT
BRANCH   1   8
ATOM      8  C1  UNL d   1       0.301  -0.293  -1.505  0.00  0.00     0.053 C 
ATOM      9  C   UNL d   1      -0.764   0.567  -2.166  0.00  0.00     0.018 C 
ENDBRANCH   1   8
TORSDOF 1
ENDMDL
