MODEL 1
REMARK minimizedAffinity -1.08666158
REMARK minimizedRMSD -1
REMARK  1 active torsions:
REMARK  status: ('A' for Active; 'I' for Inactive)
REMARK    1  A    between atoms: C1_2  and  C2_3 
ROOT
ATOM      1  C2  UNL d   1      -0.744   0.672  -1.884  0.00  0.00    -0.073 A 
ATOM      2  C3  UNL d   1       0.395   0.072  -2.432  0.00  0.00    -0.002 A 
ATOM      3  C4  UNL d   1       1.188  -0.775  -1.656  0.00  0.00     0.004 A 
ATOM      4  C5  UNL d   1       0.846  -1.037  -0.329  0.00  0.00    -0.004 A 
ATOM      5  C6  UNL d   1      -0.296  -0.456   0.233  0.00  0.00    -0.075 A 
ATOM      6  C7  UNL d   1      -0.676  -0.726   1.659  0.00  0.00     0.076 C 
ATOM      7  C8  UNL d   1      -1.085   0.396  -0.552  0.00  0.00     0.001 A 
ENDROOT
BRANCH   1   8
ATOM      8  C1  UNL d   1      -1.606   1.583  -2.719  0.00  0.00     0.053 C 
ATOM      9  C   UNL d   1      -0.901   2.887  -3.054  0.00  0.00     0.018 C 
ENDBRANCH   1   8
TORSDOF 1
ENDMDL
