MODEL 1
REMARK minimizedAffinity -5.6026392
REMARK minimizedRMSD -1
REMARK  1 active torsions:
REMARK  status: ('A' for Active; 'I' for Inactive)
REMARK    1  A    between atoms: C1_2  and  C2_3 
ROOT
ATOM      1  C2  UNL d   1      -1.676  -1.052  -0.052  0.00  0.00    -0.073 A 
ATOM      2  C3  UNL d   1      -2.143  -0.519  -1.259  0.00  0.00    -0.002 A 
ATOM      3  C4  UNL d   1      -1.355   0.371  -1.989  0.00  0.00     0.004 A 
ATOM      4  C5  UNL d   1      -0.091   0.733  -1.524  0.00  0.00    -0.004 A 
ATOM      5  C6  UNL d   1       0.399   0.202  -0.326  0.00  0.00    -0.075 A 
ATOM      6  C7  UNL d   1       1.756   0.583   0.188  0.00  0.00     0.076 C 
ATOM      7  C8  UNL d   1      -0.400  -0.689   0.402  0.00  0.00     0.001 A 
ENDROOT
BRANCH   1   8
ATOM      8  C1  UNL d   1      -2.521  -2.019   0.737  0.00  0.00     0.053 C 
ATOM      9  C   UNL d   1      -1.690  -2.838   1.711  0.00  0.00     0.018 C 
ENDBRANCH   1   8
TORSDOF 1
ENDMDL
