MODEL 1
REMARK minimizedAffinity -2.24167848
REMARK minimizedRMSD -1
REMARK  1 active torsions:
REMARK  status: ('A' for Active; 'I' for Inactive)
REMARK    1  A    between atoms: C1_2  and  C2_3 
ROOT
ATOM      1  C2  UNL d   1       0.296   0.738   0.276  0.00  0.00    -0.073 A 
ATOM      2  C3  UNL d   1       0.796   0.241  -0.933  0.00  0.00    -0.002 A 
ATOM      3  C4  UNL d   1      -0.033  -0.475  -1.797  0.00  0.00     0.004 A 
ATOM      4  C5  UNL d   1      -1.370  -0.696  -1.466  0.00  0.00    -0.004 A 
ATOM      5  C6  UNL d   1      -1.891  -0.197  -0.268  0.00  0.00    -0.075 A 
ATOM      6  C7  UNL d   1      -3.326  -0.427   0.104  0.00  0.00     0.076 C 
ATOM      7  C8  UNL d   1      -1.051   0.520   0.596  0.00  0.00     0.001 A 
ENDROOT
BRANCH   1   8
ATOM      8  C1  UNL d   1       1.186   1.518   1.209  0.00  0.00     0.053 C 
ATOM      9  C   UNL d   1       2.243   2.312   0.458  0.00  0.00     0.018 C 
ENDBRANCH   1   8
TORSDOF 1
ENDMDL
