MODEL 1
REMARK minimizedAffinity -5.48882723
REMARK minimizedRMSD -1
REMARK  1 active torsions:
REMARK  status: ('A' for Active; 'I' for Inactive)
REMARK    1  A    between atoms: C1_2  and  C2_3 
ROOT
ATOM      1  C2  UNL d   1       0.046  -0.756   0.225  0.00  0.00    -0.073 A 
ATOM      2  C3  UNL d   1       0.183  -1.812   1.134  0.00  0.00    -0.002 A 
ATOM      3  C4  UNL d   1      -0.945  -2.473   1.622  0.00  0.00     0.004 A 
ATOM      4  C5  UNL d   1      -2.219  -2.091   1.202  0.00  0.00    -0.004 A 
ATOM      5  C6  UNL d   1      -2.376  -1.046   0.285  0.00  0.00    -0.075 A 
ATOM      6  C7  UNL d   1      -3.740  -0.622  -0.175  0.00  0.00     0.076 C 
ATOM      7  C8  UNL d   1      -1.239  -0.386  -0.198  0.00  0.00     0.001 A 
ENDROOT
BRANCH   1   8
ATOM      8  C1  UNL d   1       1.261  -0.044  -0.309  0.00  0.00     0.053 C 
ATOM      9  C   UNL d   1       1.807   0.973   0.681  0.00  0.00     0.018 C 
ENDBRANCH   1   8
TORSDOF 1
ENDMDL
