MODEL 1
REMARK minimizedAffinity 1.61769545
REMARK minimizedRMSD -1
REMARK  1 active torsions:
REMARK  status: ('A' for Active; 'I' for Inactive)
REMARK    1  A    between atoms: C1_2  and  C2_3 
ROOT
ATOM      1  C2  UNL d   1      -1.957  -1.300   0.379  0.00  0.00    -0.073 A 
ATOM      2  C3  UNL d   1      -2.738  -2.024  -0.530  0.00  0.00    -0.002 A 
ATOM      3  C4  UNL d   1      -2.616  -1.795  -1.901  0.00  0.00     0.004 A 
ATOM      4  C5  UNL d   1      -1.710  -0.848  -2.378  0.00  0.00    -0.004 A 
ATOM      5  C6  UNL d   1      -0.913  -0.124  -1.486  0.00  0.00    -0.075 A 
ATOM      6  C7  UNL d   1       0.066   0.900  -1.982  0.00  0.00     0.076 C 
ATOM      7  C8  UNL d   1      -1.042  -0.357  -0.110  0.00  0.00     0.001 A 
ENDROOT
BRANCH   1   8
ATOM      8  C1  UNL d   1      -2.080  -1.548   1.860  0.00  0.00     0.053 C 
ATOM      9  C   UNL d   1      -0.930  -2.385   2.396  0.00  0.00     0.018 C 
ENDBRANCH   1   8
TORSDOF 1
ENDMDL
