MODEL 1
REMARK minimizedAffinity -3.35678577
REMARK minimizedRMSD -1
REMARK  1 active torsions:
REMARK  status: ('A' for Active; 'I' for Inactive)
REMARK    1  A    between atoms: C1_2  and  C2_3 
ROOT
ATOM      1  C2  UNL d   1       1.124   0.238   0.059  0.00  0.00    -0.073 A 
ATOM      2  C3  UNL d   1       1.519  -0.754   0.964  0.00  0.00    -0.002 A 
ATOM      3  C4  UNL d   1       0.605  -1.715   1.399  0.00  0.00     0.004 A 
ATOM      4  C5  UNL d   1      -0.708  -1.698   0.930  0.00  0.00    -0.004 A 
ATOM      5  C6  UNL d   1      -1.118  -0.721   0.017  0.00  0.00    -0.075 A 
ATOM      6  C7  UNL d   1      -2.528  -0.688  -0.496  0.00  0.00     0.076 C 
ATOM      7  C8  UNL d   1      -0.196   0.242  -0.414  0.00  0.00     0.001 A 
ENDROOT
BRANCH   1   8
ATOM      8  C1  UNL d   1       2.109   1.274  -0.419  0.00  0.00     0.053 C 
ATOM      9  C   UNL d   1       2.702   2.071   0.732  0.00  0.00     0.018 C 
ENDBRANCH   1   8
TORSDOF 1
ENDMDL
