MODEL 1
REMARK minimizedAffinity -3.7011795
REMARK minimizedRMSD -1
REMARK  1 active torsions:
REMARK  status: ('A' for Active; 'I' for Inactive)
REMARK    1  A    between atoms: C1_2  and  C2_3 
ROOT
ATOM      1  C2  UNL d   1       0.032  -0.098  -0.361  0.00  0.00    -0.073 A 
ATOM      2  C3  UNL d   1      -0.657   0.707  -1.276  0.00  0.00    -0.002 A 
ATOM      3  C4  UNL d   1      -2.003   0.466  -1.553  0.00  0.00     0.004 A 
ATOM      4  C5  UNL d   1      -2.676  -0.575  -0.914  0.00  0.00    -0.004 A 
ATOM      5  C6  UNL d   1      -2.009  -1.382   0.013  0.00  0.00    -0.075 A 
ATOM      6  C7  UNL d   1      -2.718  -2.508   0.707  0.00  0.00     0.076 C 
ATOM      7  C8  UNL d   1      -0.656  -1.136   0.283  0.00  0.00     0.001 A 
ENDROOT
BRANCH   1   8
ATOM      8  C1  UNL d   1       1.484   0.162  -0.054  0.00  0.00     0.053 C 
ATOM      9  C   UNL d   1       1.733   1.609   0.342  0.00  0.00     0.018 C 
ENDBRANCH   1   8
TORSDOF 1
ENDMDL
