MODEL 1
REMARK minimizedAffinity -5.44317579
REMARK minimizedRMSD -1
REMARK  1 active torsions:
REMARK  status: ('A' for Active; 'I' for Inactive)
REMARK    1  A    between atoms: C1_2  and  C2_3 
ROOT
ATOM      1  C2  UNL d   1      -0.586  -0.014   0.359  0.00  0.00    -0.073 A 
ATOM      2  C3  UNL d   1      -1.533   0.277  -0.631  0.00  0.00    -0.002 A 
ATOM      3  C4  UNL d   1      -2.637  -0.555  -0.816  0.00  0.00     0.004 A 
ATOM      4  C5  UNL d   1      -2.811  -1.681  -0.012  0.00  0.00    -0.004 A 
ATOM      5  C6  UNL d   1      -1.883  -1.982   0.990  0.00  0.00    -0.075 A 
ATOM      6  C7  UNL d   1      -2.054  -3.191   1.863  0.00  0.00     0.076 C 
ATOM      7  C8  UNL d   1      -0.774  -1.143   1.169  0.00  0.00     0.001 A 
ENDROOT
BRANCH   1   8
ATOM      8  C1  UNL d   1       0.605   0.885   0.567  0.00  0.00     0.053 C 
ATOM      9  C   UNL d   1       1.918   0.127   0.456  0.00  0.00     0.018 C 
ENDBRANCH   1   8
TORSDOF 1
ENDMDL
