MODEL 1
REMARK minimizedAffinity -4.18165874
REMARK minimizedRMSD -1
REMARK  1 active torsions:
REMARK  status: ('A' for Active; 'I' for Inactive)
REMARK    1  A    between atoms: C1_2  and  C2_3 
ROOT
ATOM      1  C2  UNL d   1      -1.938  -1.236   0.041  0.00  0.00    -0.073 A 
ATOM      2  C3  UNL d   1      -2.429  -0.716  -1.162  0.00  0.00    -0.002 A 
ATOM      3  C4  UNL d   1      -1.765   0.332  -1.800  0.00  0.00     0.004 A 
ATOM      4  C5  UNL d   1      -0.601   0.866  -1.248  0.00  0.00    -0.004 A 
ATOM      5  C6  UNL d   1      -0.087   0.351  -0.053  0.00  0.00    -0.075 A 
ATOM      6  C7  UNL d   1       1.163   0.915   0.556  0.00  0.00     0.076 C 
ATOM      7  C8  UNL d   1      -0.762  -0.699   0.584  0.00  0.00     0.001 A 
ENDROOT
BRANCH   1   8
ATOM      8  C1  UNL d   1      -2.648  -2.372   0.730  0.00  0.00     0.053 C 
ATOM      9  C   UNL d   1      -1.736  -3.114   1.694  0.00  0.00     0.018 C 
ENDBRANCH   1   8
TORSDOF 1
ENDMDL
