MODEL 1
REMARK minimizedAffinity -5.78436184
REMARK minimizedRMSD -1
REMARK  1 active torsions:
REMARK  status: ('A' for Active; 'I' for Inactive)
REMARK    1  A    between atoms: C1_2  and  C2_3 
ROOT
ATOM      1  C2  UNL d   1       0.014  -0.257  -0.064  0.00  0.00    -0.073 A 
ATOM      2  C3  UNL d   1      -0.960   0.075  -1.011  0.00  0.00    -0.002 A 
ATOM      3  C4  UNL d   1      -2.232  -0.496  -0.944  0.00  0.00     0.004 A 
ATOM      4  C5  UNL d   1      -2.544  -1.398   0.073  0.00  0.00    -0.004 A 
ATOM      5  C6  UNL d   1      -1.587  -1.733   1.036  0.00  0.00    -0.075 A 
ATOM      6  C7  UNL d   1      -1.906  -2.703   2.136  0.00  0.00     0.076 C 
ATOM      7  C8  UNL d   1      -0.311  -1.158   0.961  0.00  0.00     0.001 A 
ENDROOT
BRANCH   1   8
ATOM      8  C1  UNL d   1       1.387   0.362  -0.128  0.00  0.00     0.053 C 
ATOM      9  C   UNL d   1       1.623   1.345   1.007  0.00  0.00     0.018 C 
ENDBRANCH   1   8
TORSDOF 1
ENDMDL
