MODEL 1
REMARK minimizedAffinity -6.09751987
REMARK minimizedRMSD -1
REMARK  1 active torsions:
REMARK  status: ('A' for Active; 'I' for Inactive)
REMARK    1  A    between atoms: C1_2  and  C2_3 
ROOT
ATOM      1  C2  UNL d   1      -1.700  -1.714   0.474  0.00  0.00    -0.073 A 
ATOM      2  C3  UNL d   1      -2.386  -1.389  -0.702  0.00  0.00    -0.002 A 
ATOM      3  C4  UNL d   1      -1.911  -0.377  -1.538  0.00  0.00     0.004 A 
ATOM      4  C5  UNL d   1      -0.745   0.314  -1.211  0.00  0.00    -0.004 A 
ATOM      5  C6  UNL d   1      -0.039  -0.005  -0.046  0.00  0.00    -0.075 A 
ATOM      6  C7  UNL d   1       1.216   0.731   0.321  0.00  0.00     0.076 C 
ATOM      7  C8  UNL d   1      -0.523  -1.020   0.789  0.00  0.00     0.001 A 
ENDROOT
BRANCH   1   8
ATOM      8  C1  UNL d   1      -2.205  -2.811   1.376  0.00  0.00     0.053 C 
ATOM      9  C   UNL d   1      -1.812  -4.190   0.872  0.00  0.00     0.018 C 
ENDBRANCH   1   8
TORSDOF 1
ENDMDL
