MODEL 1
REMARK minimizedAffinity -3.77439117
REMARK minimizedRMSD -1
REMARK  1 active torsions:
REMARK  status: ('A' for Active; 'I' for Inactive)
REMARK    1  A    between atoms: C1_2  and  C2_3 
ROOT
ATOM      1  C2  UNL d   1       0.148   0.179  -0.034  0.00  0.00    -0.073 A 
ATOM      2  C3  UNL d   1       0.186   0.530  -1.388  0.00  0.00    -0.002 A 
ATOM      3  C4  UNL d   1      -0.956   0.407  -2.181  0.00  0.00     0.004 A 
ATOM      4  C5  UNL d   1      -2.148  -0.061  -1.627  0.00  0.00    -0.004 A 
ATOM      5  C6  UNL d   1      -2.209  -0.405  -0.272  0.00  0.00    -0.075 A 
ATOM      6  C7  UNL d   1      -3.482  -0.912   0.338  0.00  0.00     0.076 C 
ATOM      7  C8  UNL d   1      -1.057  -0.282   0.516  0.00  0.00     0.001 A 
ENDROOT
BRANCH   1   8
ATOM      8  C1  UNL d   1       1.377   0.316   0.827  0.00  0.00     0.053 C 
ATOM      9  C   UNL d   1       1.925   1.734   0.816  0.00  0.00     0.018 C 
ENDBRANCH   1   8
TORSDOF 1
ENDMDL
