MODEL 1
REMARK minimizedAffinity 13.9149275
REMARK minimizedRMSD -1
REMARK  0 active torsions:
REMARK  status: ('A' for Active; 'I' for Inactive)
ROOT
ATOM      1  C   UNL d   1       0.893  -0.418   0.602  0.00  0.00     0.124 A 
ATOM      2  C1  UNL d   1       1.225  -1.692   0.160  0.00  0.00     0.062 A 
ATOM      3  C2  UNL d   1       2.167  -1.859  -0.851  0.00  0.00     0.162 A 
ATOM      4  C3  UNL d   1       2.784  -0.749  -1.428  0.00  0.00    -0.034 A 
ATOM      5  C4  UNL d   1       2.445   0.528  -0.979  0.00  0.00     0.162 A 
ATOM      6  C5  UNL d   1       1.503   0.690   0.032  0.00  0.00     0.062 A 
ATOM      7  F   UNL d   1       1.184   1.921   0.457  0.00  0.00    -0.097 F 
ATOM      8  F1  UNL d   1       3.020   1.617  -1.512  0.00  0.00    -0.096 F 
ATOM      9  I   UNL d   1       4.193  -0.995  -2.940  0.00  0.00    -0.060 I 
ATOM     10  F2  UNL d   1       2.468  -3.101  -1.258  0.00  0.00    -0.096 F 
ATOM     11  F3  UNL d   1       0.636  -2.764   0.709  0.00  0.00    -0.097 F 
ATOM     12  F4  UNL d   1      -0.014  -0.260   1.574  0.00  0.00    -0.092 F 
ENDROOT
TORSDOF 0
ENDMDL
