MODEL 1
REMARK minimizedAffinity 15.1562243
REMARK minimizedRMSD -1
REMARK  0 active torsions:
REMARK  status: ('A' for Active; 'I' for Inactive)
ROOT
ATOM      1  C   UNL d   1      -0.955  -2.452   1.886  0.00  0.00     0.124 A 
ATOM      2  C1  UNL d   1      -2.319  -2.612   1.686  0.00  0.00     0.062 A 
ATOM      3  C2  UNL d   1      -3.159  -1.502   1.672  0.00  0.00     0.162 A 
ATOM      4  C3  UNL d   1      -2.637  -0.222   1.857  0.00  0.00    -0.034 A 
ATOM      5  C4  UNL d   1      -1.264  -0.069   2.059  0.00  0.00     0.162 A 
ATOM      6  C5  UNL d   1      -0.429  -1.182   2.073  0.00  0.00     0.062 A 
ATOM      7  F   UNL d   1       0.889  -1.026   2.267  0.00  0.00    -0.097 F 
ATOM      8  F1  UNL d   1      -0.729   1.147   2.241  0.00  0.00    -0.096 F 
ATOM      9  I   UNL d   1      -3.889   1.440   1.836  0.00  0.00    -0.060 I 
ATOM     10  F2  UNL d   1      -4.473  -1.685   1.476  0.00  0.00    -0.096 F 
ATOM     11  F3  UNL d   1      -2.830  -3.838   1.507  0.00  0.00    -0.097 F 
ATOM     12  F4  UNL d   1      -0.149  -3.522   1.901  0.00  0.00    -0.092 F 
ENDROOT
TORSDOF 0
ENDMDL
