MODEL 1
REMARK minimizedAffinity 0.0872311071
REMARK minimizedRMSD -1
REMARK  0 active torsions:
REMARK  status: ('A' for Active; 'I' for Inactive)
ROOT
ATOM      1  C   UNL d   1      -1.599   4.330  -3.228  0.00  0.00     0.124 A 
ATOM      2  C1  UNL d   1      -2.397   3.625  -4.118  0.00  0.00     0.062 A 
ATOM      3  C2  UNL d   1      -3.653   3.173  -3.726  0.00  0.00     0.162 A 
ATOM      4  C3  UNL d   1      -4.121   3.426  -2.436  0.00  0.00    -0.034 A 
ATOM      5  C4  UNL d   1      -3.313   4.135  -1.546  0.00  0.00     0.162 A 
ATOM      6  C5  UNL d   1      -2.058   4.585  -1.943  0.00  0.00     0.062 A 
ATOM      7  F   UNL d   1      -1.289   5.267  -1.082  0.00  0.00    -0.097 F 
ATOM      8  F1  UNL d   1      -3.732   4.396  -0.299  0.00  0.00    -0.096 F 
ATOM      9  I   UNL d   1      -6.000   2.752  -1.846  0.00  0.00    -0.060 I 
ATOM     10  F2  UNL d   1      -4.403   2.493  -4.607  0.00  0.00    -0.096 F 
ATOM     11  F3  UNL d   1      -1.956   3.376  -5.360  0.00  0.00    -0.097 F 
ATOM     12  F4  UNL d   1      -0.390   4.763  -3.608  0.00  0.00    -0.092 F 
ENDROOT
TORSDOF 0
ENDMDL
