MODEL 1
REMARK minimizedAffinity 9.45894337
REMARK minimizedRMSD -1
REMARK  0 active torsions:
REMARK  status: ('A' for Active; 'I' for Inactive)
ROOT
ATOM      1  C   UNL d   1       3.380   0.015  -2.532  0.00  0.00     0.124 A 
ATOM      2  C1  UNL d   1       2.869  -1.253  -2.296  0.00  0.00     0.062 A 
ATOM      3  C2  UNL d   1       2.095  -1.497  -1.165  0.00  0.00     0.162 A 
ATOM      4  C3  UNL d   1       1.827  -0.470  -0.261  0.00  0.00    -0.034 A 
ATOM      5  C4  UNL d   1       2.345   0.804  -0.505  0.00  0.00     0.162 A 
ATOM      6  C5  UNL d   1       3.118   1.042  -1.636  0.00  0.00     0.062 A 
ATOM      7  F   UNL d   1       3.611   2.269  -1.862  0.00  0.00    -0.097 F 
ATOM      8  F1  UNL d   1       2.107   1.814   0.344  0.00  0.00    -0.096 F 
ATOM      9  I   UNL d   1       0.670  -0.830   1.431  0.00  0.00    -0.060 I 
ATOM     10  F2  UNL d   1       1.614  -2.733  -0.963  0.00  0.00    -0.096 F 
ATOM     11  F3  UNL d   1       3.122  -2.248  -3.160  0.00  0.00    -0.097 F 
ATOM     12  F4  UNL d   1       4.126   0.247  -3.620  0.00  0.00    -0.092 F 
ENDROOT
TORSDOF 0
ENDMDL
