MODEL 1
REMARK minimizedAffinity 7.14315033
REMARK minimizedRMSD -1
REMARK  0 active torsions:
REMARK  status: ('A' for Active; 'I' for Inactive)
ROOT
ATOM      1  C   UNL d   1      -3.325   3.486  -4.413  0.00  0.00     0.124 A 
ATOM      2  C1  UNL d   1      -4.508   2.831  -4.097  0.00  0.00     0.062 A 
ATOM      3  C2  UNL d   1      -4.851   2.609  -2.766  0.00  0.00     0.162 A 
ATOM      4  C3  UNL d   1      -4.011   3.043  -1.741  0.00  0.00    -0.034 A 
ATOM      5  C4  UNL d   1      -2.823   3.700  -2.066  0.00  0.00     0.162 A 
ATOM      6  C5  UNL d   1      -2.484   3.919  -3.398  0.00  0.00     0.062 A 
ATOM      7  F   UNL d   1      -1.341   4.552  -3.701  0.00  0.00    -0.097 F 
ATOM      8  F1  UNL d   1      -1.992   4.130  -1.105  0.00  0.00    -0.096 F 
ATOM      9  I   UNL d   1      -4.521   2.713   0.250  0.00  0.00    -0.060 I 
ATOM     10  F2  UNL d   1      -6.000   1.974  -2.490  0.00  0.00    -0.096 F 
ATOM     11  F3  UNL d   1      -5.321   2.410  -5.076  0.00  0.00    -0.097 F 
ATOM     12  F4  UNL d   1      -2.997   3.697  -5.694  0.00  0.00    -0.092 F 
ENDROOT
TORSDOF 0
ENDMDL
