MODEL 1
REMARK minimizedAffinity 13.0256205
REMARK minimizedRMSD -1
REMARK  0 active torsions:
REMARK  status: ('A' for Active; 'I' for Inactive)
ROOT
ATOM      1  C   UNL d   1       2.279  -2.109  -0.384  0.00  0.00     0.124 A 
ATOM      2  C1  UNL d   1       2.951  -1.169  -1.154  0.00  0.00     0.062 A 
ATOM      3  C2  UNL d   1       2.770   0.190  -0.915  0.00  0.00     0.162 A 
ATOM      4  C3  UNL d   1       1.914   0.618   0.100  0.00  0.00    -0.034 A 
ATOM      5  C4  UNL d   1       1.241  -0.333   0.869  0.00  0.00     0.162 A 
ATOM      6  C5  UNL d   1       1.425  -1.690   0.626  0.00  0.00     0.062 A 
ATOM      7  F   UNL d   1       0.775  -2.597   1.371  0.00  0.00    -0.097 F 
ATOM      8  F1  UNL d   1       0.411   0.044   1.853  0.00  0.00    -0.096 F 
ATOM      9  I   UNL d   1       1.641   2.649   0.461  0.00  0.00    -0.060 I 
ATOM     10  F2  UNL d   1       3.432   1.076  -1.674  0.00  0.00    -0.096 F 
ATOM     11  F3  UNL d   1       3.776  -1.571  -2.132  0.00  0.00    -0.097 F 
ATOM     12  F4  UNL d   1       2.454  -3.416  -0.617  0.00  0.00    -0.092 F 
ENDROOT
TORSDOF 0
ENDMDL
