MODEL 1
REMARK minimizedAffinity 15.7591639
REMARK minimizedRMSD -1
REMARK  0 active torsions:
REMARK  status: ('A' for Active; 'I' for Inactive)
ROOT
ATOM      1  C   UNL d   1      -2.332   4.090  -3.529  0.00  0.00     0.124 A 
ATOM      2  C1  UNL d   1      -1.876   2.860  -3.981  0.00  0.00     0.062 A 
ATOM      3  C2  UNL d   1      -0.668   2.347  -3.516  0.00  0.00     0.162 A 
ATOM      4  C3  UNL d   1       0.092   3.064  -2.592  0.00  0.00    -0.034 A 
ATOM      5  C4  UNL d   1      -0.373   4.302  -2.143  0.00  0.00     0.162 A 
ATOM      6  C5  UNL d   1      -1.581   4.810  -2.611  0.00  0.00     0.062 A 
ATOM      7  F   UNL d   1      -2.020   5.999  -2.174  0.00  0.00    -0.097 F 
ATOM      8  F1  UNL d   1       0.332   5.018  -1.255  0.00  0.00    -0.096 F 
ATOM      9  I   UNL d   1       1.897   2.301  -1.894  0.00  0.00    -0.060 I 
ATOM     10  F2  UNL d   1      -0.252   1.155  -3.969  0.00  0.00    -0.096 F 
ATOM     11  F3  UNL d   1      -2.600   2.163  -4.869  0.00  0.00    -0.097 F 
ATOM     12  F4  UNL d   1      -3.494   4.582  -3.979  0.00  0.00    -0.092 F 
ENDROOT
TORSDOF 0
ENDMDL
