MODEL 1
REMARK minimizedAffinity 5.70355225
REMARK minimizedRMSD -1
REMARK  0 active torsions:
REMARK  status: ('A' for Active; 'I' for Inactive)
ROOT
ATOM      1  C   UNL d   1       1.582  -0.345   0.425  0.00  0.00     0.124 A 
ATOM      2  C1  UNL d   1       2.221   0.826   0.043  0.00  0.00     0.062 A 
ATOM      3  C2  UNL d   1       3.172   0.806  -0.973  0.00  0.00     0.162 A 
ATOM      4  C3  UNL d   1       3.490  -0.390  -1.616  0.00  0.00    -0.034 A 
ATOM      5  C4  UNL d   1       2.843  -1.565  -1.226  0.00  0.00     0.162 A 
ATOM      6  C5  UNL d   1       1.894  -1.539  -0.210  0.00  0.00     0.062 A 
ATOM      7  F   UNL d   1       1.277  -2.672   0.157  0.00  0.00    -0.097 F 
ATOM      8  F1  UNL d   1       3.125  -2.732  -1.823  0.00  0.00    -0.096 F 
ATOM      9  I   UNL d   1       4.911  -0.425  -3.135  0.00  0.00    -0.060 I 
ATOM     10  F2  UNL d   1       3.774   1.953  -1.321  0.00  0.00    -0.096 F 
ATOM     11  F3  UNL d   1       1.923   1.981   0.656  0.00  0.00    -0.097 F 
ATOM     12  F4  UNL d   1       0.668  -0.323   1.404  0.00  0.00    -0.092 F 
ENDROOT
TORSDOF 0
ENDMDL
