MODEL 1
REMARK minimizedAffinity 2.56111383
REMARK minimizedRMSD -1
REMARK  0 active torsions:
REMARK  status: ('A' for Active; 'I' for Inactive)
ROOT
ATOM      1  C   UNL d   1       3.063  -0.360  -1.378  0.00  0.00     0.124 A 
ATOM      2  C1  UNL d   1       2.415  -1.504  -0.934  0.00  0.00     0.062 A 
ATOM      3  C2  UNL d   1       1.437  -1.417   0.052  0.00  0.00     0.162 A 
ATOM      4  C3  UNL d   1       1.100  -0.180   0.601  0.00  0.00    -0.034 A 
ATOM      5  C4  UNL d   1       1.757   0.967   0.151  0.00  0.00     0.162 A 
ATOM      6  C5  UNL d   1       2.734   0.874  -0.835  0.00  0.00     0.062 A 
ATOM      7  F   UNL d   1       3.359   1.981  -1.262  0.00  0.00    -0.097 F 
ATOM      8  F1  UNL d   1       1.457   2.172   0.657  0.00  0.00    -0.096 F 
ATOM      9  I   UNL d   1      -0.362  -0.045   2.076  0.00  0.00    -0.060 I 
ATOM     10  F2  UNL d   1       0.827  -2.539   0.462  0.00  0.00    -0.096 F 
ATOM     11  F3  UNL d   1       2.732  -2.698  -1.456  0.00  0.00    -0.097 F 
ATOM     12  F4  UNL d   1       4.005  -0.447  -2.326  0.00  0.00    -0.092 F 
ENDROOT
TORSDOF 0
ENDMDL
