MODEL 1
REMARK minimizedAffinity 5.14173841
REMARK minimizedRMSD -1
REMARK  0 active torsions:
REMARK  status: ('A' for Active; 'I' for Inactive)
ROOT
ATOM      1  C   UNL d   1       2.422  -0.771  -0.898  0.00  0.00     0.124 A 
ATOM      2  C1  UNL d   1       2.011  -1.890  -0.189  0.00  0.00     0.062 A 
ATOM      3  C2  UNL d   1       1.136  -1.756   0.885  0.00  0.00     0.162 A 
ATOM      4  C3  UNL d   1       0.666  -0.496   1.257  0.00  0.00    -0.034 A 
ATOM      5  C4  UNL d   1       1.085   0.625   0.539  0.00  0.00     0.162 A 
ATOM      6  C5  UNL d   1       1.959   0.486  -0.534  0.00  0.00     0.062 A 
ATOM      7  F   UNL d   1       2.356   1.569  -1.218  0.00  0.00    -0.097 F 
ATOM      8  F1  UNL d   1       0.652   1.851   0.869  0.00  0.00    -0.096 F 
ATOM      9  I   UNL d   1      -0.642  -0.291   2.862  0.00  0.00    -0.060 I 
ATOM     10  F2  UNL d   1       0.755  -2.855   1.553  0.00  0.00    -0.096 F 
ATOM     11  F3  UNL d   1       2.458  -3.105  -0.538  0.00  0.00    -0.097 F 
ATOM     12  F4  UNL d   1       3.265  -0.903  -1.931  0.00  0.00    -0.092 F 
ENDROOT
TORSDOF 0
ENDMDL
