MODEL 1
REMARK minimizedAffinity 2.43882847
REMARK minimizedRMSD -1
REMARK  0 active torsions:
REMARK  status: ('A' for Active; 'I' for Inactive)
ROOT
ATOM      1  C   UNL d   1       0.492   0.046   0.895  0.00  0.00     0.124 A 
ATOM      2  C1  UNL d   1       0.905  -1.267   0.718  0.00  0.00     0.062 A 
ATOM      3  C2  UNL d   1       1.864  -1.576  -0.242  0.00  0.00     0.162 A 
ATOM      4  C3  UNL d   1       2.418  -0.569  -1.033  0.00  0.00    -0.034 A 
ATOM      5  C4  UNL d   1       1.997   0.749  -0.850  0.00  0.00     0.162 A 
ATOM      6  C5  UNL d   1       1.038   1.053   0.111  0.00  0.00     0.062 A 
ATOM      7  F   UNL d   1       0.640   2.322   0.280  0.00  0.00    -0.097 F 
ATOM      8  F1  UNL d   1       2.509   1.741  -1.593  0.00  0.00    -0.096 F 
ATOM      9  I   UNL d   1       3.853  -1.027  -2.469  0.00  0.00    -0.060 I 
ATOM     10  F2  UNL d   1       2.245  -2.854  -0.391  0.00  0.00    -0.096 F 
ATOM     11  F3  UNL d   1       0.378  -2.241   1.474  0.00  0.00    -0.097 F 
ATOM     12  F4  UNL d   1      -0.432   0.341   1.818  0.00  0.00    -0.092 F 
ENDROOT
TORSDOF 0
ENDMDL
