MODEL 1
REMARK minimizedAffinity 2.6900084
REMARK minimizedRMSD -1
REMARK  0 active torsions:
REMARK  status: ('A' for Active; 'I' for Inactive)
ROOT
ATOM      1  C   UNL d   1      -0.324  -0.409   2.955  0.00  0.00     0.124 A 
ATOM      2  C1  UNL d   1      -0.848  -1.029   1.829  0.00  0.00     0.062 A 
ATOM      3  C2  UNL d   1      -0.019  -1.356   0.760  0.00  0.00     0.162 A 
ATOM      4  C3  UNL d   1       1.344  -1.065   0.812  0.00  0.00    -0.034 A 
ATOM      5  C4  UNL d   1       1.864  -0.441   1.948  0.00  0.00     0.162 A 
ATOM      6  C5  UNL d   1       1.031  -0.116   3.013  0.00  0.00     0.062 A 
ATOM      7  F   UNL d   1       1.539   0.483   4.100  0.00  0.00    -0.097 F 
ATOM      8  F1  UNL d   1       3.170  -0.147   2.031  0.00  0.00    -0.096 F 
ATOM      9  I   UNL d   1       2.588  -1.553  -0.784  0.00  0.00    -0.060 I 
ATOM     10  F2  UNL d   1      -0.553  -1.955  -0.315  0.00  0.00    -0.096 F 
ATOM     11  F3  UNL d   1      -2.157  -1.313   1.770  0.00  0.00    -0.097 F 
ATOM     12  F4  UNL d   1      -1.124  -0.094   3.982  0.00  0.00    -0.092 F 
ENDROOT
TORSDOF 0
ENDMDL
