MODEL 1
REMARK minimizedAffinity 3.71190405
REMARK minimizedRMSD -1
REMARK  0 active torsions:
REMARK  status: ('A' for Active; 'I' for Inactive)
ROOT
ATOM      1  C   UNL d   1       2.947  -0.836  -1.322  0.00  0.00     0.124 A 
ATOM      2  C1  UNL d   1       2.450  -1.965  -0.684  0.00  0.00     0.062 A 
ATOM      3  C2  UNL d   1       1.487  -1.838   0.313  0.00  0.00     0.162 A 
ATOM      4  C3  UNL d   1       1.012  -0.578   0.677  0.00  0.00    -0.034 A 
ATOM      5  C4  UNL d   1       1.517   0.552   0.032  0.00  0.00     0.162 A 
ATOM      6  C5  UNL d   1       2.480   0.420  -0.964  0.00  0.00     0.062 A 
ATOM      7  F   UNL d   1       2.959   1.512  -1.579  0.00  0.00    -0.097 F 
ATOM      8  F1  UNL d   1       1.083   1.779   0.357  0.00  0.00    -0.096 F 
ATOM      9  I   UNL d   1      -0.428  -0.384   2.167  0.00  0.00    -0.060 I 
ATOM     10  F2  UNL d   1       1.025  -2.945   0.913  0.00  0.00    -0.096 F 
ATOM     11  F3  UNL d   1       2.900  -3.180  -1.027  0.00  0.00    -0.097 F 
ATOM     12  F4  UNL d   1       3.874  -0.961  -2.280  0.00  0.00    -0.092 F 
ENDROOT
TORSDOF 0
ENDMDL
