MODEL 1
REMARK minimizedAffinity 3.73519516
REMARK minimizedRMSD -1
REMARK  0 active torsions:
REMARK  status: ('A' for Active; 'I' for Inactive)
ROOT
ATOM      1  C   UNL d   1       1.234   0.230   0.726  0.00  0.00     0.124 A 
ATOM      2  C1  UNL d   1       1.927   1.320   0.219  0.00  0.00     0.062 A 
ATOM      3  C2  UNL d   1       2.885   1.140  -0.775  0.00  0.00     0.162 A 
ATOM      4  C3  UNL d   1       3.154  -0.137  -1.269  0.00  0.00    -0.034 A 
ATOM      5  C4  UNL d   1       2.453  -1.228  -0.753  0.00  0.00     0.162 A 
ATOM      6  C5  UNL d   1       1.497  -1.042   0.240  0.00  0.00     0.062 A 
ATOM      7  F   UNL d   1       0.828  -2.097   0.729  0.00  0.00    -0.097 F 
ATOM      8  F1  UNL d   1       2.687  -2.469  -1.205  0.00  0.00    -0.096 F 
ATOM      9  I   UNL d   1       4.586  -0.411  -2.755  0.00  0.00    -0.060 I 
ATOM     10  F2  UNL d   1       3.540   2.211  -1.247  0.00  0.00    -0.096 F 
ATOM     11  F3  UNL d   1       1.675   2.551   0.688  0.00  0.00    -0.097 F 
ATOM     12  F4  UNL d   1       0.313   0.407   1.683  0.00  0.00    -0.092 F 
ENDROOT
TORSDOF 0
ENDMDL
