MODEL 1
REMARK minimizedAffinity 0.865658343
REMARK minimizedRMSD -1
REMARK  0 active torsions:
REMARK  status: ('A' for Active; 'I' for Inactive)
ROOT
ATOM      1  C   UNL d   1       1.437  -1.037  -0.034  0.00  0.00     0.124 A 
ATOM      2  C1  UNL d   1       1.187   0.195   0.554  0.00  0.00     0.062 A 
ATOM      3  C2  UNL d   1       1.892   1.322   0.143  0.00  0.00     0.162 A 
ATOM      4  C3  UNL d   1       2.854   1.224  -0.863  0.00  0.00    -0.034 A 
ATOM      5  C4  UNL d   1       3.100  -0.019  -1.449  0.00  0.00     0.162 A 
ATOM      6  C5  UNL d   1       2.393  -1.143  -1.035  0.00  0.00     0.062 A 
ATOM      7  F   UNL d   1       2.635  -2.333  -1.605  0.00  0.00    -0.097 F 
ATOM      8  F1  UNL d   1       4.017  -0.150  -2.419  0.00  0.00    -0.096 F 
ATOM      9  I   UNL d   1       3.910   2.907  -1.480  0.00  0.00    -0.060 I 
ATOM     10  F2  UNL d   1       1.630   2.500   0.729  0.00  0.00    -0.096 F 
ATOM     11  F3  UNL d   1       0.265   0.299   1.522  0.00  0.00    -0.097 F 
ATOM     12  F4  UNL d   1       0.758  -2.121   0.364  0.00  0.00    -0.092 F 
ENDROOT
TORSDOF 0
ENDMDL
