MODEL 1
REMARK minimizedAffinity -3.48109531
REMARK minimizedRMSD -1
REMARK  1 active torsions:
REMARK  status: ('A' for Active; 'I' for Inactive)
REMARK    1  A    between atoms: C3_4  and  O_7 
ROOT
ATOM      1  C   UNL d   1      -1.928  -0.730   1.155  0.00  0.00    -0.033 A 
ATOM      2  C1  UNL d   1      -0.853   0.092   0.813  0.00  0.00     0.039 A 
ATOM      3  C2  UNL d   1       0.323   0.056   1.566  0.00  0.00    -0.080 A 
ATOM      4  C3  UNL d   1       0.410  -0.806   2.656  0.00  0.00     0.150 A 
ATOM      5  C4  UNL d   1      -0.656  -1.630   3.000  0.00  0.00    -0.007 A 
ATOM      6  C5  UNL d   1      -1.830  -1.592   2.248  0.00  0.00     0.039 A 
ENDROOT
BRANCH   4   7
ATOM      7  O   UNL d   1       1.535  -0.873   3.423  0.00  0.00    -0.526 OA
ATOM      8  H5  UNL d   1       2.177  -0.227   3.085  0.00  0.00     0.418 HD
ENDBRANCH   4   7
TORSDOF 1
ENDMDL
