MODEL 1
REMARK minimizedAffinity -5.56501198
REMARK minimizedRMSD -1
REMARK  1 active torsions:
REMARK  status: ('A' for Active; 'I' for Inactive)
REMARK    1  A    between atoms: C3_4  and  O_7 
ROOT
ATOM      1  C   UNL d   1       2.479  -1.821   2.516  0.00  0.00    -0.033 A 
ATOM      2  C1  UNL d   1       1.391  -1.011   2.847  0.00  0.00     0.039 A 
ATOM      3  C2  UNL d   1       0.556  -0.515   1.844  0.00  0.00    -0.080 A 
ATOM      4  C3  UNL d   1       0.820  -0.837   0.515  0.00  0.00     0.150 A 
ATOM      5  C4  UNL d   1       1.900  -1.647   0.178  0.00  0.00    -0.007 A 
ATOM      6  C5  UNL d   1       2.732  -2.140   1.182  0.00  0.00     0.039 A 
ENDROOT
BRANCH   4   7
ATOM      7  O   UNL d   1       0.036  -0.373  -0.499  0.00  0.00    -0.526 OA
ATOM      8  H5  UNL d   1      -0.654   0.196  -0.119  0.00  0.00     0.418 HD
ENDBRANCH   4   7
TORSDOF 1
ENDMDL
