MODEL 1
REMARK minimizedAffinity -5.40767145
REMARK minimizedRMSD -1
REMARK  1 active torsions:
REMARK  status: ('A' for Active; 'I' for Inactive)
REMARK    1  A    between atoms: C3_4  and  O_7 
ROOT
ATOM      1  C   UNL d   1       1.344  -1.155   2.920  0.00  0.00    -0.033 A 
ATOM      2  C1  UNL d   1       2.214  -1.277   1.834  0.00  0.00     0.039 A 
ATOM      3  C2  UNL d   1       1.822  -0.833   0.570  0.00  0.00    -0.080 A 
ATOM      4  C3  UNL d   1       0.561  -0.267   0.405  0.00  0.00     0.150 A 
ATOM      5  C4  UNL d   1      -0.309  -0.138   1.482  0.00  0.00    -0.007 A 
ATOM      6  C5  UNL d   1       0.083  -0.584   2.744  0.00  0.00     0.039 A 
ENDROOT
BRANCH   4   7
ATOM      7  O   UNL d   1       0.133   0.177  -0.811  0.00  0.00    -0.526 OA
ATOM      8  H5  UNL d   1       0.828  -0.003  -1.466  0.00  0.00     0.418 HD
ENDBRANCH   4   7
TORSDOF 1
ENDMDL
