MODEL 1
REMARK minimizedAffinity -3.62737155
REMARK minimizedRMSD -1
REMARK  1 active torsions:
REMARK  status: ('A' for Active; 'I' for Inactive)
REMARK    1  A    between atoms: C3_4  and  O_7 
ROOT
ATOM      1  C   UNL d   1       2.327  -1.519   2.490  0.00  0.00    -0.033 A 
ATOM      2  C1  UNL d   1       2.785  -1.799   1.201  0.00  0.00     0.039 A 
ATOM      3  C2  UNL d   1       2.164  -1.214   0.095  0.00  0.00    -0.080 A 
ATOM      4  C3  UNL d   1       1.089  -0.352   0.292  0.00  0.00     0.150 A 
ATOM      5  C4  UNL d   1       0.630  -0.065   1.573  0.00  0.00    -0.007 A 
ATOM      6  C5  UNL d   1       1.250  -0.651   2.676  0.00  0.00     0.039 A 
ENDROOT
BRANCH   4   7
ATOM      7  O   UNL d   1       0.448   0.239  -0.757  0.00  0.00    -0.526 OA
ATOM      8  H5  UNL d   1       0.855  -0.074  -1.582  0.00  0.00     0.418 HD
ENDBRANCH   4   7
TORSDOF 1
ENDMDL
