MODEL 1
REMARK minimizedAffinity -5.20266581
REMARK minimizedRMSD -1
REMARK  1 active torsions:
REMARK  status: ('A' for Active; 'I' for Inactive)
REMARK    1  A    between atoms: C3_4  and  O_7 
ROOT
ATOM      1  C   UNL d   1       2.504  -1.907   1.988  0.00  0.00    -0.033 A 
ATOM      2  C1  UNL d   1       1.517  -1.064   2.504  0.00  0.00     0.039 A 
ATOM      3  C2  UNL d   1       0.740  -0.288   1.642  0.00  0.00    -0.080 A 
ATOM      4  C3  UNL d   1       0.958  -0.364   0.270  0.00  0.00     0.150 A 
ATOM      5  C4  UNL d   1       1.937  -1.204  -0.251  0.00  0.00    -0.007 A 
ATOM      6  C5  UNL d   1       2.713  -1.978   0.611  0.00  0.00     0.039 A 
ENDROOT
BRANCH   4   7
ATOM      7  O   UNL d   1       0.228   0.379  -0.610  0.00  0.00    -0.526 OA
ATOM      8  H5  UNL d   1      -0.390   0.933  -0.106  0.00  0.00     0.418 HD
ENDBRANCH   4   7
TORSDOF 1
ENDMDL
