MODEL 1
REMARK minimizedAffinity -2.65671587
REMARK minimizedRMSD -1
REMARK  0 active torsions:
REMARK  status: ('A' for Active; 'I' for Inactive)
ROOT
ATOM      1  C1  BNZ d   1       0.126   1.473  -4.687  0.00  0.00     0.000 A 
ATOM      2  C2  BNZ d   1       1.144   1.430  -3.772  0.00  0.00     0.000 A 
ATOM      3  C3  BNZ d   1       1.458   0.265  -3.129  0.00  0.00     0.000 A 
ATOM      4  C4  BNZ d   1       0.728  -0.843  -3.371  0.00  0.00     0.000 A 
ATOM      5  C5  BNZ d   1      -0.307  -0.813  -4.283  0.00  0.00     0.000 A 
ATOM      6  C6  BNZ d   1      -0.595   0.352  -4.958  0.00  0.00     0.000 A 
ENDROOT
TORSDOF 0
ENDMDL
