MODEL 1
REMARK minimizedAffinity -2.75912857
REMARK minimizedRMSD -1
REMARK  0 active torsions:
REMARK  status: ('A' for Active; 'I' for Inactive)
ROOT
ATOM      1  C1  BNZ d   1      -1.333  -0.968   0.834  0.00  0.00     0.000 A 
ATOM      2  C2  BNZ d   1      -1.102  -1.418  -0.439  0.00  0.00     0.000 A 
ATOM      3  C3  BNZ d   1      -0.273  -0.735  -1.283  0.00  0.00     0.000 A 
ATOM      4  C4  BNZ d   1       0.293   0.417  -0.869  0.00  0.00     0.000 A 
ATOM      5  C5  BNZ d   1       0.063   0.888   0.408  0.00  0.00     0.000 A 
ATOM      6  C6  BNZ d   1      -0.741   0.178   1.269  0.00  0.00     0.000 A 
ENDROOT
TORSDOF 0
ENDMDL
