MODEL 1
REMARK minimizedAffinity -3.08110857
REMARK minimizedRMSD -1
REMARK  0 active torsions:
REMARK  status: ('A' for Active; 'I' for Inactive)
ROOT
ATOM      1  C1  BNZ d   1       0.048  -0.298  -0.427  0.00  0.00     0.000 A 
ATOM      2  C2  BNZ d   1       1.210  -0.528   0.260  0.00  0.00     0.000 A 
ATOM      3  C3  BNZ d   1       1.309  -0.222   1.589  0.00  0.00     0.000 A 
ATOM      4  C4  BNZ d   1       0.261   0.349   2.218  0.00  0.00     0.000 A 
ATOM      5  C5  BNZ d   1      -0.914   0.596   1.536  0.00  0.00     0.000 A 
ATOM      6  C6  BNZ d   1      -1.023   0.251   0.208  0.00  0.00     0.000 A 
ENDROOT
TORSDOF 0
ENDMDL
