MODEL 1
REMARK minimizedAffinity -1.59809327
REMARK minimizedRMSD -1
REMARK  0 active torsions:
REMARK  status: ('A' for Active; 'I' for Inactive)
ROOT
ATOM      1  C1  BNZ d   1      -0.027  -0.199   3.859  0.00  0.00     0.000 A 
ATOM      2  C2  BNZ d   1      -0.889   0.338   2.940  0.00  0.00     0.000 A 
ATOM      3  C3  BNZ d   1      -0.519   0.478   1.632  0.00  0.00     0.000 A 
ATOM      4  C4  BNZ d   1       0.724   0.118   1.253  0.00  0.00     0.000 A 
ATOM      5  C5  BNZ d   1       1.608  -0.416   2.169  0.00  0.00     0.000 A 
ATOM      6  C6  BNZ d   1       1.218  -0.591   3.477  0.00  0.00     0.000 A 
ENDROOT
TORSDOF 0
ENDMDL
