MODEL 1
REMARK minimizedAffinity -2.68445945
REMARK minimizedRMSD -1
REMARK  0 active torsions:
REMARK  status: ('A' for Active; 'I' for Inactive)
ROOT
ATOM      1  C1  BNZ d   1       1.742  -0.768  -3.305  0.00  0.00     0.000 A 
ATOM      2  C2  BNZ d   1       0.387  -0.812  -3.498  0.00  0.00     0.000 A 
ATOM      3  C3  BNZ d   1      -0.297   0.297  -3.912  0.00  0.00     0.000 A 
ATOM      4  C4  BNZ d   1       0.367   1.457  -4.093  0.00  0.00     0.000 A 
ATOM      5  C5  BNZ d   1       1.732   1.519  -3.893  0.00  0.00     0.000 A 
ATOM      6  C6  BNZ d   1       2.423   0.391  -3.514  0.00  0.00     0.000 A 
ENDROOT
TORSDOF 0
ENDMDL
