MODEL 1
REMARK minimizedAffinity -3.50983119
REMARK minimizedRMSD -1
REMARK  0 active torsions:
REMARK  status: ('A' for Active; 'I' for Inactive)
ROOT
ATOM      1  C1  BNZ d   1       0.748   0.041  -3.718  0.00  0.00     0.000 A 
ATOM      2  C2  BNZ d   1       0.015  -0.633  -2.778  0.00  0.00     0.000 A 
ATOM      3  C3  BNZ d   1       0.399  -0.643  -1.466  0.00  0.00     0.000 A 
ATOM      4  C4  BNZ d   1       1.534  -0.012  -1.103  0.00  0.00     0.000 A 
ATOM      5  C5  BNZ d   1       2.288   0.665  -2.041  0.00  0.00     0.000 A 
ATOM      6  C6  BNZ d   1       1.878   0.705  -3.354  0.00  0.00     0.000 A 
ENDROOT
TORSDOF 0
ENDMDL
