MODEL 1
REMARK minimizedAffinity -2.22741818
REMARK minimizedRMSD -1
REMARK  0 active torsions:
REMARK  status: ('A' for Active; 'I' for Inactive)
ROOT
ATOM      1  C1  BNZ d   1      -1.387   0.543   1.414  0.00  0.00     0.000 A 
ATOM      2  C2  BNZ d   1      -1.352   0.314   0.064  0.00  0.00     0.000 A 
ATOM      3  C3  BNZ d   1      -0.207  -0.123  -0.542  0.00  0.00     0.000 A 
ATOM      4  C4  BNZ d   1       0.911  -0.289   0.194  0.00  0.00     0.000 A 
ATOM      5  C5  BNZ d   1       0.894  -0.053   1.554  0.00  0.00     0.000 A 
ATOM      6  C6  BNZ d   1      -0.270   0.349   2.167  0.00  0.00     0.000 A 
ENDROOT
TORSDOF 0
ENDMDL
