MODEL 1
REMARK minimizedAffinity -1.99480522
REMARK minimizedRMSD -1
REMARK  0 active torsions:
REMARK  status: ('A' for Active; 'I' for Inactive)
ROOT
ATOM      1  C1  BNZ d   1       1.875   1.195  -3.121  0.00  0.00     0.000 A 
ATOM      2  C2  BNZ d   1       1.389   1.014  -1.853  0.00  0.00     0.000 A 
ATOM      3  C3  BNZ d   1       0.493   0.018  -1.582  0.00  0.00     0.000 A 
ATOM      4  C4  BNZ d   1       0.054  -0.769  -2.585  0.00  0.00     0.000 A 
ATOM      5  C5  BNZ d   1       0.527  -0.594  -3.870  0.00  0.00     0.000 A 
ATOM      6  C6  BNZ d   1       1.459   0.385  -4.132  0.00  0.00     0.000 A 
ENDROOT
TORSDOF 0
ENDMDL
