MODEL 1
REMARK minimizedAffinity -3.59151077
REMARK minimizedRMSD -1
REMARK  1 active torsions:
REMARK  status: ('A' for Active; 'I' for Inactive)
REMARK    1  A    between atoms: C1_2  and  C2_3 
ROOT
ATOM      1  C2  UNL d   1      -0.873   0.757  -1.588  0.00  0.00    -0.077 A 
ATOM      2  C3  UNL d   1      -1.090  -0.217  -2.573  0.00  0.00     0.002 A 
ATOM      3  C4  UNL d   1      -1.883   0.069  -3.686  0.00  0.00     0.002 A 
ATOM      4  C5  UNL d   1      -2.460   1.329  -3.827  0.00  0.00    -0.004 A 
ATOM      5  C6  UNL d   1      -2.252   2.304  -2.852  0.00  0.00     0.002 A 
ATOM      6  C7  UNL d   1      -1.461   2.019  -1.738  0.00  0.00     0.002 A 
ENDROOT
BRANCH   1   7
ATOM      7  C1  UNL d   1       0.021   0.466  -0.411  0.00  0.00     0.055 C 
ATOM      8  C   UNL d   1       1.428   0.100  -0.862  0.00  0.00     0.019 C 
ENDBRANCH   1   7
TORSDOF 1
ENDMDL
