MODEL 1
REMARK minimizedAffinity -5.40003824
REMARK minimizedRMSD -1
REMARK  1 active torsions:
REMARK  status: ('A' for Active; 'I' for Inactive)
REMARK    1  A    between atoms: C1_2  and  C2_3 
ROOT
ATOM      1  C2  UNL d   1       0.315  -0.212   0.207  0.00  0.00    -0.077 A 
ATOM      2  C3  UNL d   1      -0.190  -1.264   0.983  0.00  0.00     0.002 A 
ATOM      3  C4  UNL d   1       0.618  -2.358   1.301  0.00  0.00     0.002 A 
ATOM      4  C5  UNL d   1       1.935  -2.407   0.852  0.00  0.00    -0.004 A 
ATOM      5  C6  UNL d   1       2.447  -1.367   0.077  0.00  0.00     0.002 A 
ATOM      6  C7  UNL d   1       1.640  -0.273  -0.243  0.00  0.00     0.002 A 
ENDROOT
BRANCH   1   7
ATOM      7  C1  UNL d   1      -0.539   0.992  -0.097  0.00  0.00     0.055 C 
ATOM      8  C   UNL d   1      -0.959   1.018  -1.559  0.00  0.00     0.019 C 
ENDBRANCH   1   7
TORSDOF 1
ENDMDL
