MODEL 1
REMARK minimizedAffinity -5.45668173
REMARK minimizedRMSD -1
REMARK  1 active torsions:
REMARK  status: ('A' for Active; 'I' for Inactive)
REMARK    1  A    between atoms: C1_2  and  C2_3 
ROOT
ATOM      1  C2  UNL d   1       0.559  -1.183   1.101  0.00  0.00    -0.077 A 
ATOM      2  C3  UNL d   1       0.709  -0.037   0.307  0.00  0.00     0.002 A 
ATOM      3  C4  UNL d   1      -0.154   1.049   0.465  0.00  0.00     0.002 A 
ATOM      4  C5  UNL d   1      -1.169   1.002   1.417  0.00  0.00    -0.004 A 
ATOM      5  C6  UNL d   1      -1.328  -0.134   2.210  0.00  0.00     0.002 A 
ATOM      6  C7  UNL d   1      -0.468  -1.221   2.053  0.00  0.00     0.002 A 
ENDROOT
BRANCH   1   7
ATOM      7  C1  UNL d   1       1.519  -2.336   0.966  0.00  0.00     0.055 C 
ATOM      8  C   UNL d   1       1.750  -2.696  -0.494  0.00  0.00     0.019 C 
ENDBRANCH   1   7
TORSDOF 1
ENDMDL
