MODEL 1
REMARK minimizedAffinity -2.72545958
REMARK minimizedRMSD -1
REMARK  1 active torsions:
REMARK  status: ('A' for Active; 'I' for Inactive)
REMARK    1  A    between atoms: C1_2  and  C2_3 
ROOT
ATOM      1  C2  UNL d   1       2.306  -0.710   0.950  0.00  0.00    -0.077 A 
ATOM      2  C3  UNL d   1       3.056  -1.067  -0.180  0.00  0.00     0.002 A 
ATOM      3  C4  UNL d   1       2.494  -0.984  -1.455  0.00  0.00     0.002 A 
ATOM      4  C5  UNL d   1       1.183  -0.540  -1.614  0.00  0.00    -0.004 A 
ATOM      5  C6  UNL d   1       0.428  -0.184  -0.497  0.00  0.00     0.002 A 
ATOM      6  C7  UNL d   1       0.987  -0.268   0.779  0.00  0.00     0.002 A 
ENDROOT
BRANCH   1   7
ATOM      7  C1  UNL d   1       2.925  -0.752   2.322  0.00  0.00     0.055 C 
ATOM      8  C   UNL d   1       4.248  -0.001   2.356  0.00  0.00     0.019 C 
ENDBRANCH   1   7
TORSDOF 1
ENDMDL
