MODEL 1
REMARK minimizedAffinity -3.99919844
REMARK minimizedRMSD -1
REMARK  1 active torsions:
REMARK  status: ('A' for Active; 'I' for Inactive)
REMARK    1  A    between atoms: C1_2  and  C2_3 
ROOT
ATOM      1  C2  UNL d   1       0.626  -1.019   0.124  0.00  0.00    -0.077 A 
ATOM      2  C3  UNL d   1      -0.614  -0.389   0.303  0.00  0.00     0.002 A 
ATOM      3  C4  UNL d   1      -0.710   1.004   0.267  0.00  0.00     0.002 A 
ATOM      4  C5  UNL d   1       0.429   1.777   0.049  0.00  0.00    -0.004 A 
ATOM      5  C6  UNL d   1       1.666   1.160  -0.128  0.00  0.00     0.002 A 
ATOM      6  C7  UNL d   1       1.764  -0.232  -0.092  0.00  0.00     0.002 A 
ENDROOT
BRANCH   1   7
ATOM      7  C1  UNL d   1       0.724  -2.522   0.113  0.00  0.00     0.055 C 
ATOM      8  C   UNL d   1       1.688  -3.022   1.178  0.00  0.00     0.019 C 
ENDBRANCH   1   7
TORSDOF 1
ENDMDL
