MODEL 1
REMARK minimizedAffinity -4.0297575
REMARK minimizedRMSD -1
REMARK  1 active torsions:
REMARK  status: ('A' for Active; 'I' for Inactive)
REMARK    1  A    between atoms: C1_2  and  C2_3 
ROOT
ATOM      1  C2  UNL d   1       0.439  -0.176  -0.073  0.00  0.00    -0.077 A 
ATOM      2  C3  UNL d   1       0.120  -1.361   0.605  0.00  0.00     0.002 A 
ATOM      3  C4  UNL d   1       1.129  -2.235   1.013  0.00  0.00     0.002 A 
ATOM      4  C5  UNL d   1       2.464  -1.931   0.752  0.00  0.00    -0.004 A 
ATOM      5  C6  UNL d   1       2.791  -0.756   0.078  0.00  0.00     0.002 A 
ATOM      6  C7  UNL d   1       1.784   0.119  -0.332  0.00  0.00     0.002 A 
ENDROOT
BRANCH   1   7
ATOM      7  C1  UNL d   1      -0.645   0.792  -0.470  0.00  0.00     0.055 C 
ATOM      8  C   UNL d   1      -1.251   0.422  -1.816  0.00  0.00     0.019 C 
ENDBRANCH   1   7
TORSDOF 1
ENDMDL
