MODEL 1
REMARK minimizedAffinity -2.82765293
REMARK minimizedRMSD -1
REMARK  1 active torsions:
REMARK  status: ('A' for Active; 'I' for Inactive)
REMARK    1  A    between atoms: C1_2  and  C2_3 
ROOT
ATOM      1  C2  UNL d   1       0.993  -0.591   0.496  0.00  0.00    -0.077 A 
ATOM      2  C3  UNL d   1       0.207  -0.897   1.616  0.00  0.00     0.002 A 
ATOM      3  C4  UNL d   1      -0.969  -0.188   1.869  0.00  0.00     0.002 A 
ATOM      4  C5  UNL d   1      -1.371   0.828   1.004  0.00  0.00    -0.004 A 
ATOM      5  C6  UNL d   1      -0.595   1.141  -0.111  0.00  0.00     0.002 A 
ATOM      6  C7  UNL d   1       0.581   0.435  -0.364  0.00  0.00     0.002 A 
ENDROOT
BRANCH   1   7
ATOM      7  C1  UNL d   1       2.236  -1.387   0.195  0.00  0.00     0.055 C 
ATOM      8  C   UNL d   1       2.140  -2.797   0.759  0.00  0.00     0.019 C 
ENDBRANCH   1   7
TORSDOF 1
ENDMDL
