MODEL 1
REMARK minimizedAffinity -4.27367544
REMARK minimizedRMSD -1
REMARK  1 active torsions:
REMARK  status: ('A' for Active; 'I' for Inactive)
REMARK    1  A    between atoms: C1_2  and  C2_3 
ROOT
ATOM      1  C2  UNL d   1      -0.049   0.111  -0.007  0.00  0.00    -0.077 A 
ATOM      2  C3  UNL d   1       1.293  -0.029  -0.388  0.00  0.00     0.002 A 
ATOM      3  C4  UNL d   1       2.022  -1.156  -0.003  0.00  0.00     0.002 A 
ATOM      4  C5  UNL d   1       1.417  -2.152   0.761  0.00  0.00    -0.004 A 
ATOM      5  C6  UNL d   1       0.083  -2.020   1.147  0.00  0.00     0.002 A 
ATOM      6  C7  UNL d   1      -0.647  -0.894   0.764  0.00  0.00     0.002 A 
ENDROOT
BRANCH   1   7
ATOM      7  C1  UNL d   1      -0.851   1.302  -0.464  0.00  0.00     0.055 C 
ATOM      8  C   UNL d   1      -1.953   0.890  -1.429  0.00  0.00     0.019 C 
ENDBRANCH   1   7
TORSDOF 1
ENDMDL
