MODEL 1
REMARK minimizedAffinity -5.86567402
REMARK minimizedRMSD -1
REMARK  1 active torsions:
REMARK  status: ('A' for Active; 'I' for Inactive)
REMARK    1  A    between atoms: C1_2  and  C2_3 
ROOT
ATOM      1  C2  UNL d   1       0.003   0.313   0.574  0.00  0.00    -0.077 A 
ATOM      2  C3  UNL d   1      -0.447  -0.413   1.686  0.00  0.00     0.002 A 
ATOM      3  C4  UNL d   1       0.337  -1.433   2.228  0.00  0.00     0.002 A 
ATOM      4  C5  UNL d   1       1.576  -1.733   1.667  0.00  0.00    -0.004 A 
ATOM      5  C6  UNL d   1       2.032  -1.019   0.560  0.00  0.00     0.002 A 
ATOM      6  C7  UNL d   1       1.249   0.000   0.016  0.00  0.00     0.002 A 
ENDROOT
BRANCH   1   7
ATOM      7  C1  UNL d   1      -0.820   1.446   0.018  0.00  0.00     0.055 C 
ATOM      8  C   UNL d   1      -0.833   1.427  -1.504  0.00  0.00     0.019 C 
ENDBRANCH   1   7
TORSDOF 1
ENDMDL
