MODEL 1
REMARK minimizedAffinity -4.96706295
REMARK minimizedRMSD -1
REMARK  1 active torsions:
REMARK  status: ('A' for Active; 'I' for Inactive)
REMARK    1  A    between atoms: C1_2  and  C2_3 
ROOT
ATOM      1  C2  UNL d   1       0.118  -0.083   0.251  0.00  0.00    -0.077 A 
ATOM      2  C3  UNL d   1      -0.319  -1.269   0.857  0.00  0.00     0.002 A 
ATOM      3  C4  UNL d   1       0.560  -2.341   1.028  0.00  0.00     0.002 A 
ATOM      4  C5  UNL d   1       1.881  -2.235   0.600  0.00  0.00    -0.004 A 
ATOM      5  C6  UNL d   1       2.325  -1.060  -0.006  0.00  0.00     0.002 A 
ATOM      6  C7  UNL d   1       1.447   0.011  -0.179  0.00  0.00     0.002 A 
ENDROOT
BRANCH   1   7
ATOM      7  C1  UNL d   1      -0.815   1.091   0.110  0.00  0.00     0.055 C 
ATOM      8  C   UNL d   1      -1.306   1.239  -1.323  0.00  0.00     0.019 C 
ENDBRANCH   1   7
TORSDOF 1
ENDMDL
