MODEL 1
REMARK minimizedAffinity -1.26510859
REMARK minimizedRMSD -1
REMARK  1 active torsions:
REMARK  status: ('A' for Active; 'I' for Inactive)
REMARK    1  A    between atoms: C1_2  and  C2_3 
ROOT
ATOM      1  C2  UNL d   1       1.459  -2.376   0.450  0.00  0.00    -0.077 A 
ATOM      2  C3  UNL d   1       2.142  -1.206   0.810  0.00  0.00     0.002 A 
ATOM      3  C4  UNL d   1       1.497  -0.209   1.544  0.00  0.00     0.002 A 
ATOM      4  C5  UNL d   1       0.168  -0.374   1.929  0.00  0.00    -0.004 A 
ATOM      5  C6  UNL d   1      -0.520  -1.533   1.574  0.00  0.00     0.002 A 
ATOM      6  C7  UNL d   1       0.122  -2.530   0.839  0.00  0.00     0.002 A 
ENDROOT
BRANCH   1   7
ATOM      7  C1  UNL d   1       2.168  -3.474  -0.300  0.00  0.00     0.055 C 
ATOM      8  C   UNL d   1       3.429  -3.916   0.427  0.00  0.00     0.019 C 
ENDBRANCH   1   7
TORSDOF 1
ENDMDL
