MODEL 1
REMARK minimizedAffinity 0.535675466
REMARK minimizedRMSD -1
REMARK  1 active torsions:
REMARK  status: ('A' for Active; 'I' for Inactive)
REMARK    1  A    between atoms: C1_2  and  C2_3 
ROOT
ATOM      1  C2  UNL d   1       1.566  -2.739   0.694  0.00  0.00    -0.077 A 
ATOM      2  C3  UNL d   1       1.713  -1.390   0.342  0.00  0.00     0.002 A 
ATOM      3  C4  UNL d   1       0.888  -0.417   0.912  0.00  0.00     0.002 A 
ATOM      4  C5  UNL d   1      -0.084  -0.783   1.841  0.00  0.00    -0.004 A 
ATOM      5  C6  UNL d   1      -0.239  -2.123   2.196  0.00  0.00     0.002 A 
ATOM      6  C7  UNL d   1       0.583  -3.096   1.626  0.00  0.00     0.002 A 
ENDROOT
BRANCH   1   7
ATOM      7  C1  UNL d   1       2.487  -3.782   0.118  0.00  0.00     0.055 C 
ATOM      8  C   UNL d   1       3.300  -4.467   1.207  0.00  0.00     0.019 C 
ENDBRANCH   1   7
TORSDOF 1
ENDMDL
