MODEL 1
REMARK minimizedAffinity 1.9860667
REMARK minimizedRMSD -1
REMARK  1 active torsions:
REMARK  status: ('A' for Active; 'I' for Inactive)
REMARK    1  A    between atoms: C1_2  and  C2_3 
ROOT
ATOM      1  C2  UNL d   1       0.538  -2.520   1.239  0.00  0.00    -0.077 A 
ATOM      2  C3  UNL d   1       1.145  -1.612   0.360  0.00  0.00     0.002 A 
ATOM      3  C4  UNL d   1       2.198  -2.020  -0.460  0.00  0.00     0.002 A 
ATOM      4  C5  UNL d   1       2.651  -3.337  -0.413  0.00  0.00    -0.004 A 
ATOM      5  C6  UNL d   1       2.055  -4.247   0.459  0.00  0.00     0.002 A 
ATOM      6  C7  UNL d   1       1.002  -3.841   1.281  0.00  0.00     0.002 A 
ENDROOT
BRANCH   1   7
ATOM      7  C1  UNL d   1      -0.631  -2.095   2.089  0.00  0.00     0.055 C 
ATOM      8  C   UNL d   1      -0.525  -0.629   2.482  0.00  0.00     0.019 C 
ENDBRANCH   1   7
TORSDOF 1
ENDMDL
