MODEL 1
REMARK minimizedAffinity 0.848552644
REMARK minimizedRMSD -1
REMARK  1 active torsions:
REMARK  status: ('A' for Active; 'I' for Inactive)
REMARK    1  A    between atoms: C1_2  and  C2_3 
ROOT
ATOM      1  C2  UNL d   1      -4.121   3.770   5.437  0.00  0.00    -0.077 A 
ATOM      2  C3  UNL d   1      -5.337   3.359   6.000  0.00  0.00     0.002 A 
ATOM      3  C4  UNL d   1      -6.000   2.234   5.507  0.00  0.00     0.002 A 
ATOM      4  C5  UNL d   1      -5.451   1.507   4.452  0.00  0.00    -0.004 A 
ATOM      5  C6  UNL d   1      -4.243   1.908   3.884  0.00  0.00     0.002 A 
ATOM      6  C7  UNL d   1      -3.580   3.034   4.375  0.00  0.00     0.002 A 
ENDROOT
BRANCH   1   7
ATOM      7  C1  UNL d   1      -3.381   4.955   6.000  0.00  0.00     0.055 C 
ATOM      8  C   UNL d   1      -2.986   5.933   4.903  0.00  0.00     0.019 C 
ENDBRANCH   1   7
TORSDOF 1
ENDMDL
