MODEL 1
REMARK minimizedAffinity -1.82768464
REMARK minimizedRMSD -1
REMARK  1 active torsions:
REMARK  status: ('A' for Active; 'I' for Inactive)
REMARK    1  A    between atoms: C1_2  and  C2_3 
ROOT
ATOM      1  C2  UNL d   1      -4.112  -0.163  -4.893  0.00  0.00    -0.077 A 
ATOM      2  C3  UNL d   1      -4.181  -1.025  -5.997  0.00  0.00     0.002 A 
ATOM      3  C4  UNL d   1      -3.573  -2.281  -5.952  0.00  0.00     0.002 A 
ATOM      4  C5  UNL d   1      -2.895  -2.688  -4.805  0.00  0.00    -0.004 A 
ATOM      5  C6  UNL d   1      -2.818  -1.837  -3.702  0.00  0.00     0.002 A 
ATOM      6  C7  UNL d   1      -3.425  -0.581  -3.746  0.00  0.00     0.002 A 
ENDROOT
BRANCH   1   7
ATOM      7  C1  UNL d   1      -4.809   1.172  -4.921  0.00  0.00     0.055 C 
ATOM      8  C   UNL d   1      -4.287   2.093  -3.828  0.00  0.00     0.019 C 
ENDBRANCH   1   7
TORSDOF 1
ENDMDL
