MODEL 1
REMARK minimizedAffinity -1.8990159
REMARK minimizedRMSD -1
REMARK  0 active torsions:
REMARK  status: ('A' for Active; 'I' for Inactive)
ROOT
ATOM      1  C   UNL d   1      -4.686  -1.931  -2.292  0.00  0.00     0.077 C 
ATOM      2  C1  UNL d   1      -4.860  -3.353  -2.737  0.00  0.00    -0.074 A 
ATOM      3  C2  UNL d   1      -4.858  -4.402  -1.812  0.00  0.00    -0.005 A 
ATOM      4  C3  UNL d   1      -5.031  -5.718  -2.240  0.00  0.00     0.006 A 
ATOM      5  C4  UNL d   1      -5.208  -5.998  -3.596  0.00  0.00    -0.005 A 
ATOM      6  C5  UNL d   1      -5.214  -4.962  -4.535  0.00  0.00    -0.074 A 
ATOM      7  C6  UNL d   1      -5.412  -5.245  -5.995  0.00  0.00     0.077 C 
ATOM      8  C7  UNL d   1      -5.046  -3.642  -4.096  0.00  0.00    -0.001 A 
ENDROOT
TORSDOF 0
ENDMDL
