MODEL 1
REMARK minimizedAffinity 9.64847565
REMARK minimizedRMSD -1
REMARK  0 active torsions:
REMARK  status: ('A' for Active; 'I' for Inactive)
ROOT
ATOM      1  C   UNL d   1       1.387  -3.651   2.218  0.00  0.00     0.077 C 
ATOM      2  C1  UNL d   1       1.402  -2.232   2.702  0.00  0.00    -0.074 A 
ATOM      3  C2  UNL d   1       1.008  -1.913   4.006  0.00  0.00    -0.005 A 
ATOM      4  C3  UNL d   1       1.037  -0.589   4.445  0.00  0.00     0.006 A 
ATOM      5  C4  UNL d   1       1.459   0.427   3.587  0.00  0.00    -0.005 A 
ATOM      6  C5  UNL d   1       1.858   0.127   2.281  0.00  0.00    -0.074 A 
ATOM      7  C6  UNL d   1       2.324   1.206   1.349  0.00  0.00     0.077 C 
ATOM      8  C7  UNL d   1       1.833  -1.206   1.849  0.00  0.00    -0.001 A 
ENDROOT
TORSDOF 0
ENDMDL
