MODEL 1
REMARK minimizedAffinity 2.1355257
REMARK minimizedRMSD -1
REMARK  0 active torsions:
REMARK  status: ('A' for Active; 'I' for Inactive)
ROOT
ATOM      1  C   UNL d   1       5.733  -3.098   3.070  0.00  0.00     0.077 C 
ATOM      2  C1  UNL d   1       4.283  -3.433   2.886  0.00  0.00    -0.074 A 
ATOM      3  C2  UNL d   1       3.892  -4.552   2.143  0.00  0.00    -0.005 A 
ATOM      4  C3  UNL d   1       2.540  -4.857   1.989  0.00  0.00     0.006 A 
ATOM      5  C4  UNL d   1       1.566  -4.047   2.574  0.00  0.00    -0.005 A 
ATOM      6  C5  UNL d   1       1.938  -2.925   3.321  0.00  0.00    -0.074 A 
ATOM      7  C6  UNL d   1       0.904  -2.049   3.966  0.00  0.00     0.077 C 
ATOM      8  C7  UNL d   1       3.299  -2.629   3.478  0.00  0.00    -0.001 A 
ENDROOT
TORSDOF 0
ENDMDL
