MODEL 1
REMARK minimizedAffinity 7.71958065
REMARK minimizedRMSD -1
REMARK  0 active torsions:
REMARK  status: ('A' for Active; 'I' for Inactive)
ROOT
ATOM      1  C   UNL d   1       1.907  -4.857   2.754  0.00  0.00     0.077 C 
ATOM      2  C1  UNL d   1       1.610  -3.387   2.738  0.00  0.00    -0.074 A 
ATOM      3  C2  UNL d   1       0.711  -2.825   3.650  0.00  0.00    -0.005 A 
ATOM      4  C3  UNL d   1       0.453  -1.455   3.630  0.00  0.00     0.006 A 
ATOM      5  C4  UNL d   1       1.090  -0.634   2.698  0.00  0.00    -0.005 A 
ATOM      6  C5  UNL d   1       1.993  -1.178   1.779  0.00  0.00    -0.074 A 
ATOM      7  C6  UNL d   1       2.693  -0.308   0.778  0.00  0.00     0.077 C 
ATOM      8  C7  UNL d   1       2.252  -2.555   1.811  0.00  0.00    -0.001 A 
ENDROOT
TORSDOF 0
ENDMDL
