MODEL 1
REMARK minimizedAffinity 11.0046597
REMARK minimizedRMSD -1
REMARK  0 active torsions:
REMARK  status: ('A' for Active; 'I' for Inactive)
ROOT
ATOM      1  C   UNL d   1       4.258  -5.156  -1.214  0.00  0.00     0.077 C 
ATOM      2  C1  UNL d   1       3.895  -5.453  -2.639  0.00  0.00    -0.074 A 
ATOM      3  C2  UNL d   1       2.560  -5.613  -3.022  0.00  0.00    -0.005 A 
ATOM      4  C3  UNL d   1       2.238  -5.879  -4.353  0.00  0.00     0.006 A 
ATOM      5  C4  UNL d   1       3.245  -5.986  -5.312  0.00  0.00    -0.005 A 
ATOM      6  C5  UNL d   1       4.586  -5.828  -4.947  0.00  0.00    -0.074 A 
ATOM      7  C6  UNL d   1       5.681  -5.931  -5.967  0.00  0.00     0.077 C 
ATOM      8  C7  UNL d   1       4.902  -5.554  -3.609  0.00  0.00    -0.001 A 
ENDROOT
TORSDOF 0
ENDMDL
