MODEL 1
REMARK minimizedAffinity -2.72973394
REMARK minimizedRMSD -1
REMARK  0 active torsions:
REMARK  status: ('A' for Active; 'I' for Inactive)
ROOT
ATOM      1  C   UNL d   1       5.048  -2.839   3.548  0.00  0.00     0.077 C 
ATOM      2  C1  UNL d   1       3.579  -3.126   3.641  0.00  0.00    -0.074 A 
ATOM      3  C2  UNL d   1       2.649  -2.340   2.952  0.00  0.00    -0.005 A 
ATOM      4  C3  UNL d   1       1.286  -2.625   3.040  0.00  0.00     0.006 A 
ATOM      5  C4  UNL d   1       0.841  -3.697   3.816  0.00  0.00    -0.005 A 
ATOM      6  C5  UNL d   1       1.756  -4.494   4.510  0.00  0.00    -0.074 A 
ATOM      7  C6  UNL d   1       1.295  -5.655   5.340  0.00  0.00     0.077 C 
ATOM      8  C7  UNL d   1       3.124  -4.205   4.411  0.00  0.00    -0.001 A 
ENDROOT
TORSDOF 0
ENDMDL
