MODEL 1
REMARK minimizedAffinity 2.83866119
REMARK minimizedRMSD -1
REMARK  0 active torsions:
REMARK  status: ('A' for Active; 'I' for Inactive)
ROOT
ATOM      1  C   UNL d   1       1.194  -2.105   5.162  0.00  0.00     0.077 C 
ATOM      2  C1  UNL d   1       1.929  -1.722   3.912  0.00  0.00    -0.074 A 
ATOM      3  C2  UNL d   1       1.315  -0.943   2.926  0.00  0.00    -0.005 A 
ATOM      4  C3  UNL d   1       2.014  -0.587   1.773  0.00  0.00     0.006 A 
ATOM      5  C4  UNL d   1       3.334  -1.005   1.595  0.00  0.00    -0.005 A 
ATOM      6  C5  UNL d   1       3.965  -1.784   2.570  0.00  0.00    -0.074 A 
ATOM      7  C6  UNL d   1       5.385  -2.234   2.398  0.00  0.00     0.077 C 
ATOM      8  C7  UNL d   1       3.257  -2.132   3.729  0.00  0.00    -0.001 A 
ENDROOT
TORSDOF 0
ENDMDL
