MODEL 1
REMARK minimizedAffinity -2.22775531
REMARK minimizedRMSD -1
REMARK  0 active torsions:
REMARK  status: ('A' for Active; 'I' for Inactive)
ROOT
ATOM      1  C   UNL d   1      -4.446  -5.999  -5.975  0.00  0.00     0.077 C 
ATOM      2  C1  UNL d   1      -4.584  -5.240  -4.689  0.00  0.00    -0.074 A 
ATOM      3  C2  UNL d   1      -4.710  -3.847  -4.688  0.00  0.00    -0.005 A 
ATOM      4  C3  UNL d   1      -4.847  -3.154  -3.484  0.00  0.00     0.006 A 
ATOM      5  C4  UNL d   1      -4.858  -3.847  -2.273  0.00  0.00    -0.005 A 
ATOM      6  C5  UNL d   1      -4.734  -5.240  -2.255  0.00  0.00    -0.074 A 
ATOM      7  C6  UNL d   1      -4.755  -6.000  -0.962  0.00  0.00     0.077 C 
ATOM      8  C7  UNL d   1      -4.604  -5.929  -3.469  0.00  0.00    -0.001 A 
ENDROOT
TORSDOF 0
ENDMDL
