MODEL 1
REMARK minimizedAffinity 0.0711069703
REMARK minimizedRMSD -1
REMARK  0 active torsions:
REMARK  status: ('A' for Active; 'I' for Inactive)
ROOT
ATOM      1  C2' OXE d   1       0.443  -0.988  -1.327  0.00  0.00     0.078 C 
ATOM      2  C1' OXE d   1      -0.402   0.215  -3.719  0.00  0.00     0.078 C 
ATOM      3  C1  OXE d   1      -1.347  -0.748  -3.044  0.00  0.00    -0.078 A 
ATOM      4  C2  OXE d   1      -0.906  -1.368  -1.899  0.00  0.00    -0.078 A 
ATOM      5  C3  OXE d   1      -1.758  -2.224  -1.207  0.00  0.00     0.003 A 
ATOM      6  C4  OXE d   1      -3.000  -2.578  -1.748  0.00  0.00    -0.002 A 
ATOM      7  C5  OXE d   1      -3.452  -1.988  -2.934  0.00  0.00    -0.002 A 
ATOM      8  C6  OXE d   1      -2.657  -1.042  -3.570  0.00  0.00     0.003 A 
ENDROOT
TORSDOF 0
ENDMDL
