MODEL 1
REMARK minimizedAffinity 0.421611428
REMARK minimizedRMSD -1
REMARK  0 active torsions:
REMARK  status: ('A' for Active; 'I' for Inactive)
ROOT
ATOM      1  C2' OXE d   1      -1.063  -1.834  -0.899  0.00  0.00     0.078 C 
ATOM      2  C1' OXE d   1       1.672  -1.217  -0.776  0.00  0.00     0.078 C 
ATOM      3  C1  OXE d   1       0.736  -0.444   0.119  0.00  0.00    -0.078 A 
ATOM      4  C2  OXE d   1      -0.607  -0.720   0.018  0.00  0.00    -0.078 A 
ATOM      5  C3  OXE d   1      -1.509  -0.075   0.859  0.00  0.00     0.003 A 
ATOM      6  C4  OXE d   1      -1.079   0.961   1.697  0.00  0.00    -0.002 A 
ATOM      7  C5  OXE d   1       0.278   1.286   1.786  0.00  0.00    -0.002 A 
ATOM      8  C6  OXE d   1       1.202   0.566   1.037  0.00  0.00     0.003 A 
ENDROOT
TORSDOF 0
ENDMDL
