MODEL 1
REMARK minimizedAffinity -1.42133892
REMARK minimizedRMSD -1
REMARK  0 active torsions:
REMARK  status: ('A' for Active; 'I' for Inactive)
ROOT
ATOM      1  C2' OXE d   1       0.114   1.860   3.052  0.00  0.00     0.078 C 
ATOM      2  C1' OXE d   1       0.502   0.858   0.459  0.00  0.00     0.078 C 
ATOM      3  C1  OXE d   1       1.726   1.192   1.275  0.00  0.00    -0.078 A 
ATOM      4  C2  OXE d   1       1.526   1.726   2.525  0.00  0.00    -0.078 A 
ATOM      5  C3  OXE d   1       2.620   2.000   3.340  0.00  0.00     0.003 A 
ATOM      6  C4  OXE d   1       3.923   1.882   2.841  0.00  0.00    -0.002 A 
ATOM      7  C5  OXE d   1       4.148   1.378   1.556  0.00  0.00    -0.002 A 
ATOM      8  C6  OXE d   1       3.064   0.989   0.777  0.00  0.00     0.003 A 
ENDROOT
TORSDOF 0
ENDMDL
