MODEL 1
REMARK minimizedAffinity 4.65038586
REMARK minimizedRMSD -1
REMARK  0 active torsions:
REMARK  status: ('A' for Active; 'I' for Inactive)
ROOT
ATOM      1  C2' OXE d   1      -0.991   0.883   2.222  0.00  0.00     0.078 C 
ATOM      2  C1' OXE d   1       1.031   2.687   1.488  0.00  0.00     0.078 C 
ATOM      3  C1  OXE d   1       0.985   1.356   0.780  0.00  0.00    -0.078 A 
ATOM      4  C2  OXE d   1       0.021   0.461   1.178  0.00  0.00    -0.078 A 
ATOM      5  C3  OXE d   1      -0.100  -0.759   0.520  0.00  0.00     0.003 A 
ATOM      6  C4  OXE d   1       0.846  -1.146  -0.437  0.00  0.00    -0.002 A 
ATOM      7  C5  OXE d   1       1.860  -0.265  -0.829  0.00  0.00    -0.002 A 
ATOM      8  C6  OXE d   1       1.917   1.003  -0.262  0.00  0.00     0.003 A 
ENDROOT
TORSDOF 0
ENDMDL
