MODEL 1
REMARK minimizedAffinity 1.62723184
REMARK minimizedRMSD -1
REMARK  0 active torsions:
REMARK  status: ('A' for Active; 'I' for Inactive)
ROOT
ATOM      1  C2' OXE d   1      -3.301  -3.033  -0.923  0.00  0.00     0.078 C 
ATOM      2  C1' OXE d   1      -3.512  -5.809  -0.568  0.00  0.00     0.078 C 
ATOM      3  C1  OXE d   1      -2.552  -5.058   0.320  0.00  0.00    -0.078 A 
ATOM      4  C2  OXE d   1      -2.421  -3.706   0.108  0.00  0.00    -0.078 A 
ATOM      5  C3  OXE d   1      -1.590  -2.956   0.935  0.00  0.00     0.003 A 
ATOM      6  C4  OXE d   1      -0.772  -3.588   1.879  0.00  0.00    -0.002 A 
ATOM      7  C5  OXE d   1      -0.861  -4.969   2.084  0.00  0.00    -0.002 A 
ATOM      8  C6  OXE d   1      -1.775  -5.711   1.344  0.00  0.00     0.003 A 
ENDROOT
TORSDOF 0
ENDMDL
