MODEL 1
REMARK minimizedAffinity 0.137794465
REMARK minimizedRMSD -1
REMARK  0 active torsions:
REMARK  status: ('A' for Active; 'I' for Inactive)
ROOT
ATOM      1  C2' OXE d   1      -0.755  -0.761  -3.429  0.00  0.00     0.078 C 
ATOM      2  C1' OXE d   1      -0.018   1.944  -3.280  0.00  0.00     0.078 C 
ATOM      3  C1  OXE d   1       0.642   0.981  -2.325  0.00  0.00    -0.078 A 
ATOM      4  C2  OXE d   1       0.241  -0.332  -2.373  0.00  0.00    -0.078 A 
ATOM      5  C3  OXE d   1       0.857  -1.272  -1.551  0.00  0.00     0.003 A 
ATOM      6  C4  OXE d   1       1.770  -0.865  -0.571  0.00  0.00    -0.002 A 
ATOM      7  C5  OXE d   1       2.163   0.474  -0.478  0.00  0.00    -0.002 A 
ATOM      8  C6  OXE d   1       1.641   1.401  -1.374  0.00  0.00     0.003 A 
ENDROOT
TORSDOF 0
ENDMDL
