MODEL 1
REMARK minimizedAffinity 2.64123368
REMARK minimizedRMSD -1
REMARK  0 active torsions:
REMARK  status: ('A' for Active; 'I' for Inactive)
ROOT
ATOM      1  C2' OXE d   1       0.177   0.108   3.802  0.00  0.00     0.078 C 
ATOM      2  C1' OXE d   1      -2.331   1.043   2.957  0.00  0.00     0.078 C 
ATOM      3  C1  OXE d   1      -1.105   1.634   2.307  0.00  0.00    -0.078 A 
ATOM      4  C2  OXE d   1       0.119   1.204   2.760  0.00  0.00    -0.078 A 
ATOM      5  C3  OXE d   1       1.282   1.677   2.157  0.00  0.00     0.003 A 
ATOM      6  C4  OXE d   1       1.220   2.698   1.202  0.00  0.00    -0.002 A 
ATOM      7  C5  OXE d   1      -0.016   3.178   0.755  0.00  0.00    -0.002 A 
ATOM      8  C6  OXE d   1      -1.186   2.628   1.266  0.00  0.00     0.003 A 
ENDROOT
TORSDOF 0
ENDMDL
