MODEL 1
REMARK minimizedAffinity 6.59053087
REMARK minimizedRMSD -1
REMARK  0 active torsions:
REMARK  status: ('A' for Active; 'I' for Inactive)
ROOT
ATOM      1  C2' OXE d   1      -1.954  -1.067  -0.061  0.00  0.00     0.078 C 
ATOM      2  C1' OXE d   1      -3.220   1.198   1.009  0.00  0.00     0.078 C 
ATOM      3  C1  OXE d   1      -1.738   1.043   1.246  0.00  0.00    -0.078 A 
ATOM      4  C2  OXE d   1      -1.136  -0.092   0.759  0.00  0.00    -0.078 A 
ATOM      5  C3  OXE d   1       0.239  -0.259   0.902  0.00  0.00     0.003 A 
ATOM      6  C4  OXE d   1       0.986   0.643   1.670  0.00  0.00    -0.002 A 
ATOM      7  C5  OXE d   1       0.384   1.785   2.208  0.00  0.00    -0.002 A 
ATOM      8  C6  OXE d   1      -0.965   2.021   1.970  0.00  0.00     0.003 A 
ENDROOT
TORSDOF 0
ENDMDL
