MODEL 1
REMARK minimizedAffinity 3.10600424
REMARK minimizedRMSD -1
REMARK  0 active torsions:
REMARK  status: ('A' for Active; 'I' for Inactive)
ROOT
ATOM      1  C2' OXE d   1       3.926  -0.820  -1.056  0.00  0.00     0.078 C 
ATOM      2  C1' OXE d   1       1.935   0.228   0.622  0.00  0.00     0.078 C 
ATOM      3  C1  OXE d   1       1.645   0.161  -0.857  0.00  0.00    -0.078 A 
ATOM      4  C2  OXE d   1       2.643  -0.310  -1.676  0.00  0.00    -0.078 A 
ATOM      5  C3  OXE d   1       2.408  -0.445  -3.041  0.00  0.00     0.003 A 
ATOM      6  C4  OXE d   1       1.222   0.039  -3.608  0.00  0.00    -0.002 A 
ATOM      7  C5  OXE d   1       0.209   0.559  -2.796  0.00  0.00    -0.002 A 
ATOM      8  C6  OXE d   1       0.387   0.588  -1.417  0.00  0.00     0.003 A 
ENDROOT
TORSDOF 0
ENDMDL
