MODEL 1
REMARK minimizedAffinity 2.0948441
REMARK minimizedRMSD -1
REMARK  0 active torsions:
REMARK  status: ('A' for Active; 'I' for Inactive)
ROOT
ATOM      1  C2' OXE d   1      -4.081  -3.427  -1.896  0.00  0.00     0.078 C 
ATOM      2  C1' OXE d   1      -2.998  -6.000  -1.601  0.00  0.00     0.078 C 
ATOM      3  C1  OXE d   1      -2.497  -4.916  -0.679  0.00  0.00    -0.078 A 
ATOM      4  C2  OXE d   1      -2.998  -3.650  -0.862  0.00  0.00    -0.078 A 
ATOM      5  C3  OXE d   1      -2.610  -2.625  -0.003  0.00  0.00     0.003 A 
ATOM      6  C4  OXE d   1      -1.601  -2.837   0.944  0.00  0.00    -0.002 A 
ATOM      7  C5  OXE d   1      -1.049  -4.110   1.119  0.00  0.00    -0.002 A 
ATOM      8  C6  OXE d   1      -1.515  -5.168   0.346  0.00  0.00     0.003 A 
ENDROOT
TORSDOF 0
ENDMDL
