MODEL 1
REMARK minimizedAffinity 14.6201077
REMARK minimizedRMSD -1
REMARK  0 active torsions:
REMARK  status: ('A' for Active; 'I' for Inactive)
ROOT
ATOM      1  C2' OXE d   1      -1.996   3.213   0.381  0.00  0.00     0.078 C 
ATOM      2  C1' OXE d   1      -3.049   1.335   2.182  0.00  0.00     0.078 C 
ATOM      3  C1  OXE d   1      -1.582   1.669   2.291  0.00  0.00    -0.078 A 
ATOM      4  C2  OXE d   1      -1.065   2.554   1.376  0.00  0.00    -0.078 A 
ATOM      5  C3  OXE d   1       0.270   2.938   1.466  0.00  0.00     0.003 A 
ATOM      6  C4  OXE d   1       1.126   2.316   2.383  0.00  0.00    -0.002 A 
ATOM      7  C5  OXE d   1       0.629   1.383   3.298  0.00  0.00    -0.002 A 
ATOM      8  C6  OXE d   1      -0.728   1.080   3.294  0.00  0.00     0.003 A 
ENDROOT
TORSDOF 0
ENDMDL
