MODEL 1
REMARK minimizedAffinity 3.72803164
REMARK minimizedRMSD -1
REMARK  0 active torsions:
REMARK  status: ('A' for Active; 'I' for Inactive)
ROOT
ATOM      1  C2' OXE d   1       1.749  -1.158  -0.640  0.00  0.00     0.078 C 
ATOM      2  C1' OXE d   1       3.507   0.786   0.365  0.00  0.00     0.078 C 
ATOM      3  C1  OXE d   1       2.128   0.705   0.969  0.00  0.00    -0.078 A 
ATOM      4  C2  OXE d   1       1.258  -0.218   0.439  0.00  0.00    -0.078 A 
ATOM      5  C3  OXE d   1      -0.008  -0.371   0.996  0.00  0.00     0.003 A 
ATOM      6  C4  OXE d   1      -0.458   0.510   1.987  0.00  0.00    -0.002 A 
ATOM      7  C5  OXE d   1       0.398   1.484   2.513  0.00  0.00    -0.002 A 
ATOM      8  C6  OXE d   1       1.705   1.566   2.046  0.00  0.00     0.003 A 
ENDROOT
TORSDOF 0
ENDMDL
