MODEL 1
REMARK minimizedAffinity 11.5108109
REMARK minimizedRMSD -1
REMARK  0 active torsions:
REMARK  status: ('A' for Active; 'I' for Inactive)
ROOT
ATOM      1  C2' OXE d   1       3.482   2.330   1.002  0.00  0.00     0.078 C 
ATOM      2  C1' OXE d   1       1.046   1.351   1.995  0.00  0.00     0.078 C 
ATOM      3  C1  OXE d   1       1.701   0.593   0.867  0.00  0.00    -0.078 A 
ATOM      4  C2  OXE d   1       2.869   1.106   0.356  0.00  0.00    -0.078 A 
ATOM      5  C3  OXE d   1       3.542   0.417  -0.649  0.00  0.00     0.003 A 
ATOM      6  C4  OXE d   1       2.963  -0.708  -1.247  0.00  0.00    -0.002 A 
ATOM      7  C5  OXE d   1       1.755  -1.224  -0.768  0.00  0.00    -0.002 A 
ATOM      8  C6  OXE d   1       1.133  -0.611   0.314  0.00  0.00     0.003 A 
ENDROOT
TORSDOF 0
ENDMDL
