MODEL 1
REMARK minimizedAffinity 6.66828823
REMARK minimizedRMSD -1
REMARK  0 active torsions:
REMARK  status: ('A' for Active; 'I' for Inactive)
ROOT
ATOM      1  C2' OXE d   1      -0.769  -0.971   1.887  0.00  0.00     0.078 C 
ATOM      2  C1' OXE d   1      -2.537   1.123   2.494  0.00  0.00     0.078 C 
ATOM      3  C1  OXE d   1      -1.097   1.477   2.215  0.00  0.00    -0.078 A 
ATOM      4  C2  OXE d   1      -0.229   0.441   1.965  0.00  0.00    -0.078 A 
ATOM      5  C3  OXE d   1       1.098   0.715   1.648  0.00  0.00     0.003 A 
ATOM      6  C4  OXE d   1       1.591   2.023   1.732  0.00  0.00    -0.002 A 
ATOM      7  C5  OXE d   1       0.733   3.088   2.024  0.00  0.00    -0.002 A 
ATOM      8  C6  OXE d   1      -0.620   2.837   2.226  0.00  0.00     0.003 A 
ENDROOT
TORSDOF 0
ENDMDL
