MODEL 1
REMARK minimizedAffinity 3.1218276
REMARK minimizedRMSD -1
REMARK  0 active torsions:
REMARK  status: ('A' for Active; 'I' for Inactive)
ROOT
ATOM      1  C2' OXE d   1      -4.628   2.649   4.130  0.00  0.00     0.078 C 
ATOM      2  C1' OXE d   1      -3.384   2.719   1.614  0.00  0.00     0.078 C 
ATOM      3  C1  OXE d   1      -4.281   3.872   1.988  0.00  0.00    -0.078 A 
ATOM      4  C2  OXE d   1      -4.922   3.807   3.201  0.00  0.00    -0.078 A 
ATOM      5  C3  OXE d   1      -5.718   4.871   3.618  0.00  0.00     0.003 A 
ATOM      6  C4  OXE d   1      -5.993   5.933   2.749  0.00  0.00    -0.002 A 
ATOM      7  C5  OXE d   1      -5.382   6.000   1.493  0.00  0.00    -0.002 A 
ATOM      8  C6  OXE d   1      -4.492   5.000   1.115  0.00  0.00     0.003 A 
ENDROOT
TORSDOF 0
ENDMDL
