MODEL 1
REMARK minimizedAffinity 14.6435575
REMARK minimizedRMSD -1
REMARK  0 active torsions:
REMARK  status: ('A' for Active; 'I' for Inactive)
ROOT
ATOM      1  C2' OXE d   1      -2.918   0.013   2.576  0.00  0.00     0.078 C 
ATOM      2  C1' OXE d   1      -0.759  -0.864   4.141  0.00  0.00     0.078 C 
ATOM      3  C1  OXE d   1      -0.565   0.377   3.307  0.00  0.00    -0.078 A 
ATOM      4  C2  OXE d   1      -1.611   0.772   2.509  0.00  0.00    -0.078 A 
ATOM      5  C3  OXE d   1      -1.503   1.942   1.761  0.00  0.00     0.003 A 
ATOM      6  C4  OXE d   1      -0.288   2.633   1.696  0.00  0.00    -0.002 A 
ATOM      7  C5  OXE d   1       0.803   2.224   2.471  0.00  0.00    -0.002 A 
ATOM      8  C6  OXE d   1       0.668   1.126   3.313  0.00  0.00     0.003 A 
ENDROOT
TORSDOF 0
ENDMDL
