MODEL 1
REMARK minimizedAffinity 8.1448679
REMARK minimizedRMSD -1
REMARK  0 active torsions:
REMARK  status: ('A' for Active; 'I' for Inactive)
ROOT
ATOM      1  C2' OXE d   1       1.222  -1.045  -0.686  0.00  0.00     0.078 C 
ATOM      2  C1' OXE d   1       3.531   0.499  -0.283  0.00  0.00     0.078 C 
ATOM      3  C1  OXE d   1       2.260   0.942   0.398  0.00  0.00    -0.078 A 
ATOM      4  C2  OXE d   1       1.125   0.207   0.158  0.00  0.00    -0.078 A 
ATOM      5  C3  OXE d   1      -0.062   0.541   0.804  0.00  0.00     0.003 A 
ATOM      6  C4  OXE d   1      -0.146   1.706   1.575  0.00  0.00    -0.002 A 
ATOM      7  C5  OXE d   1       0.990   2.492   1.801  0.00  0.00    -0.002 A 
ATOM      8  C6  OXE d   1       2.208   2.101   1.255  0.00  0.00     0.003 A 
ENDROOT
TORSDOF 0
ENDMDL
