MODEL 1
REMARK minimizedAffinity -0.852065921
REMARK minimizedRMSD -1
REMARK  0 active torsions:
REMARK  status: ('A' for Active; 'I' for Inactive)
ROOT
ATOM      1  C2' OXE d   1       0.753   3.180   1.408  0.00  0.00     0.078 C 
ATOM      2  C1' OXE d   1      -1.536   1.592   1.756  0.00  0.00     0.078 C 
ATOM      3  C1  OXE d   1      -0.387   1.008   0.974  0.00  0.00    -0.078 A 
ATOM      4  C2  OXE d   1       0.710   1.809   0.769  0.00  0.00    -0.078 A 
ATOM      5  C3  OXE d   1       1.820   1.300   0.100  0.00  0.00     0.003 A 
ATOM      6  C4  OXE d   1       1.769   0.034  -0.497  0.00  0.00    -0.002 A 
ATOM      7  C5  OXE d   1       0.645  -0.783  -0.334  0.00  0.00    -0.002 A 
ATOM      8  C6  OXE d   1      -0.422  -0.329   0.433  0.00  0.00     0.003 A 
ENDROOT
TORSDOF 0
ENDMDL
