MODEL 1
REMARK minimizedAffinity -1.94544387
REMARK minimizedRMSD -1
REMARK  0 active torsions:
REMARK  status: ('A' for Active; 'I' for Inactive)
ROOT
ATOM      1  C2' OXE d   1       0.652  -1.449  -0.517  0.00  0.00     0.078 C 
ATOM      2  C1' OXE d   1       2.763   0.303   0.075  0.00  0.00     0.078 C 
ATOM      3  C1  OXE d   1       1.437   0.545   0.753  0.00  0.00    -0.078 A 
ATOM      4  C2  OXE d   1       0.397  -0.289   0.421  0.00  0.00    -0.078 A 
ATOM      5  C3  OXE d   1      -0.832  -0.145   1.058  0.00  0.00     0.003 A 
ATOM      6  C4  OXE d   1      -1.063   0.937   1.917  0.00  0.00    -0.002 A 
ATOM      7  C5  OXE d   1      -0.028   1.822   2.237  0.00  0.00    -0.002 A 
ATOM      8  C6  OXE d   1       1.237   1.615   1.698  0.00  0.00     0.003 A 
ENDROOT
TORSDOF 0
ENDMDL
