MODEL 1
REMARK minimizedAffinity 3.42134309
REMARK minimizedRMSD -1
REMARK  0 active torsions:
REMARK  status: ('A' for Active; 'I' for Inactive)
ROOT
ATOM      1  C   UNL d   1       4.983  -2.401   5.352  0.00  0.00     0.078 C 
ATOM      2  C1  UNL d   1       3.831  -1.949   4.504  0.00  0.00    -0.077 A 
ATOM      3  C2  UNL d   1       3.949  -0.838   3.660  0.00  0.00    -0.001 A 
ATOM      4  C3  UNL d   1       2.866  -0.424   2.883  0.00  0.00     0.003 A 
ATOM      5  C4  UNL d   1       1.657  -1.113   2.944  0.00  0.00    -0.005 A 
ATOM      6  C5  UNL d   1       1.529  -2.218   3.783  0.00  0.00     0.003 A 
ATOM      7  C6  UNL d   1       2.611  -2.635   4.560  0.00  0.00    -0.001 A 
ENDROOT
TORSDOF 0
ENDMDL
