MODEL 1
REMARK minimizedAffinity 11.3355112
REMARK minimizedRMSD -1
REMARK  0 active torsions:
REMARK  status: ('A' for Active; 'I' for Inactive)
ROOT
ATOM      1  C   UNL d   1       1.803  -1.344   2.873  0.00  0.00     0.078 C 
ATOM      2  C1  UNL d   1       1.106  -1.549   1.561  0.00  0.00    -0.077 A 
ATOM      3  C2  UNL d   1      -0.146  -0.972   1.312  0.00  0.00    -0.001 A 
ATOM      4  C3  UNL d   1      -0.788  -1.180   0.090  0.00  0.00     0.003 A 
ATOM      5  C4  UNL d   1      -0.186  -1.964  -0.892  0.00  0.00    -0.005 A 
ATOM      6  C5  UNL d   1       1.058  -2.543  -0.652  0.00  0.00     0.003 A 
ATOM      7  C6  UNL d   1       1.702  -2.337   0.569  0.00  0.00    -0.001 A 
ENDROOT
TORSDOF 0
ENDMDL
