MODEL 1
REMARK minimizedAffinity 9.65531731
REMARK minimizedRMSD -1
REMARK  0 active torsions:
REMARK  status: ('A' for Active; 'I' for Inactive)
ROOT
ATOM      1  C   UNL d   1       1.898  -1.496   2.352  0.00  0.00     0.078 C 
ATOM      2  C1  UNL d   1       2.242  -0.216   3.054  0.00  0.00    -0.077 A 
ATOM      3  C2  UNL d   1       1.984  -0.051   4.420  0.00  0.00    -0.001 A 
ATOM      4  C3  UNL d   1       2.300   1.149   5.058  0.00  0.00     0.003 A 
ATOM      5  C4  UNL d   1       2.875   2.194   4.338  0.00  0.00    -0.005 A 
ATOM      6  C5  UNL d   1       3.133   2.040   2.978  0.00  0.00     0.003 A 
ATOM      7  C6  UNL d   1       2.818   0.841   2.338  0.00  0.00    -0.001 A 
ENDROOT
TORSDOF 0
ENDMDL
