MODEL 1
REMARK minimizedAffinity 7.74573421
REMARK minimizedRMSD -1
REMARK  0 active torsions:
REMARK  status: ('A' for Active; 'I' for Inactive)
ROOT
ATOM      1  C   UNL d   1      -2.382   1.520   0.568  0.00  0.00     0.078 C 
ATOM      2  C1  UNL d   1      -3.506   2.504   0.703  0.00  0.00    -0.077 A 
ATOM      3  C2  UNL d   1      -4.492   2.614  -0.285  0.00  0.00    -0.001 A 
ATOM      4  C3  UNL d   1      -5.526   3.541  -0.150  0.00  0.00     0.003 A 
ATOM      5  C4  UNL d   1      -5.583   4.367   0.971  0.00  0.00    -0.005 A 
ATOM      6  C5  UNL d   1      -4.605   4.267   1.958  0.00  0.00     0.003 A 
ATOM      7  C6  UNL d   1      -3.570   3.340   1.825  0.00  0.00    -0.001 A 
ENDROOT
TORSDOF 0
ENDMDL
