MODEL 1
REMARK minimizedAffinity 8.29329109
REMARK minimizedRMSD -1
REMARK  0 active torsions:
REMARK  status: ('A' for Active; 'I' for Inactive)
ROOT
ATOM      1  C   UNL d   1       1.884  -1.100   2.471  0.00  0.00     0.078 C 
ATOM      2  C1  UNL d   1       2.589  -1.631   3.684  0.00  0.00    -0.077 A 
ATOM      3  C2  UNL d   1       1.895  -1.867   4.876  0.00  0.00    -0.001 A 
ATOM      4  C3  UNL d   1       2.566  -2.352   6.000  0.00  0.00     0.003 A 
ATOM      5  C4  UNL d   1       3.936  -2.604   5.942  0.00  0.00    -0.005 A 
ATOM      6  C5  UNL d   1       4.636  -2.369   4.761  0.00  0.00     0.003 A 
ATOM      7  C6  UNL d   1       3.966  -1.884   3.636  0.00  0.00    -0.001 A 
ENDROOT
TORSDOF 0
ENDMDL
