MODEL 1
REMARK minimizedAffinity 0.322695762
REMARK minimizedRMSD -1
REMARK  0 active torsions:
REMARK  status: ('A' for Active; 'I' for Inactive)
ROOT
ATOM      1  C   UNL d   1       0.461   4.440  -0.512  0.00  0.00     0.078 C 
ATOM      2  C1  UNL d   1       1.305   3.340   0.059  0.00  0.00    -0.077 A 
ATOM      3  C2  UNL d   1       0.800   2.480   1.042  0.00  0.00    -0.001 A 
ATOM      4  C3  UNL d   1       1.600   1.466   1.571  0.00  0.00     0.003 A 
ATOM      5  C4  UNL d   1       2.910   1.303   1.124  0.00  0.00    -0.005 A 
ATOM      6  C5  UNL d   1       3.422   2.156   0.148  0.00  0.00     0.003 A 
ATOM      7  C6  UNL d   1       2.623   3.170  -0.382  0.00  0.00    -0.001 A 
ENDROOT
TORSDOF 0
ENDMDL
