MODEL 1
REMARK minimizedAffinity 3.7752614
REMARK minimizedRMSD -1
REMARK  0 active torsions:
REMARK  status: ('A' for Active; 'I' for Inactive)
ROOT
ATOM      1  C   UNL d   1       5.551  -2.170   5.066  0.00  0.00     0.078 C 
ATOM      2  C1  UNL d   1       4.222  -1.967   4.401  0.00  0.00    -0.077 A 
ATOM      3  C2  UNL d   1       4.026  -0.927   3.484  0.00  0.00    -0.001 A 
ATOM      4  C3  UNL d   1       2.781  -0.744   2.880  0.00  0.00     0.003 A 
ATOM      5  C4  UNL d   1       1.722  -1.596   3.188  0.00  0.00    -0.005 A 
ATOM      6  C5  UNL d   1       1.907  -2.632   4.101  0.00  0.00     0.003 A 
ATOM      7  C6  UNL d   1       3.152  -2.817   4.706  0.00  0.00    -0.001 A 
ENDROOT
TORSDOF 0
ENDMDL
