MODEL 1
REMARK minimizedAffinity -0.546430171
REMARK minimizedRMSD -1
REMARK  0 active torsions:
REMARK  status: ('A' for Active; 'I' for Inactive)
ROOT
ATOM      1  C   UNL d   1       2.305  -1.360   3.216  0.00  0.00     0.078 C 
ATOM      2  C1  UNL d   1       3.552  -1.783   3.933  0.00  0.00    -0.077 A 
ATOM      3  C2  UNL d   1       3.513  -2.178   5.276  0.00  0.00    -0.001 A 
ATOM      4  C3  UNL d   1       4.683  -2.560   5.934  0.00  0.00     0.003 A 
ATOM      5  C4  UNL d   1       5.902  -2.550   5.257  0.00  0.00    -0.005 A 
ATOM      6  C5  UNL d   1       5.951  -2.155   3.922  0.00  0.00     0.003 A 
ATOM      7  C6  UNL d   1       4.781  -1.773   3.262  0.00  0.00    -0.001 A 
ENDROOT
TORSDOF 0
ENDMDL
