MODEL 1
REMARK minimizedAffinity 5.72257471
REMARK minimizedRMSD -1
REMARK  0 active torsions:
REMARK  status: ('A' for Active; 'I' for Inactive)
ROOT
ATOM      1  C4' PXY d   1       3.070  -5.876  -2.047  0.00  0.00     0.077 C 
ATOM      2  C1' PXY d   1      -1.136  -5.558  -6.000  0.00  0.00     0.077 C 
ATOM      3  C1  PXY d   1      -0.026  -5.649  -4.971  0.00  0.00    -0.082 A 
ATOM      4  C2  PXY d   1      -0.304  -5.467  -3.690  0.00  0.00     0.003 A 
ATOM      5  C3  PXY d   1       0.693  -5.514  -2.751  0.00  0.00     0.003 A 
ATOM      6  C4  PXY d   1       1.979  -5.803  -3.119  0.00  0.00    -0.082 A 
ATOM      7  C5  PXY d   1       2.270  -6.000  -4.423  0.00  0.00     0.003 A 
ATOM      8  C6  PXY d   1       1.250  -5.907  -5.366  0.00  0.00     0.003 A 
ENDROOT
TORSDOF 0
ENDMDL
