MODEL 1
REMARK minimizedAffinity -1.1002996
REMARK minimizedRMSD -1
REMARK  0 active torsions:
REMARK  status: ('A' for Active; 'I' for Inactive)
ROOT
ATOM      1  C4' PXY d   1       1.902  -2.175   4.287  0.00  0.00     0.077 C 
ATOM      2  C1' PXY d   1      -1.683   0.637   0.730  0.00  0.00     0.077 C 
ATOM      3  C1  PXY d   1      -0.734  -0.102   1.654  0.00  0.00    -0.082 A 
ATOM      4  C2  PXY d   1      -1.213  -0.745   2.706  0.00  0.00     0.003 A 
ATOM      5  C3  PXY d   1      -0.366  -1.391   3.569  0.00  0.00     0.003 A 
ATOM      6  C4  PXY d   1       0.981  -1.424   3.323  0.00  0.00    -0.082 A 
ATOM      7  C5  PXY d   1       1.476  -0.780   2.245  0.00  0.00     0.003 A 
ATOM      8  C6  PXY d   1       0.604  -0.095   1.404  0.00  0.00     0.003 A 
ENDROOT
TORSDOF 0
ENDMDL
