MODEL 1
REMARK minimizedAffinity -1.80419445
REMARK minimizedRMSD -1
REMARK  0 active torsions:
REMARK  status: ('A' for Active; 'I' for Inactive)
ROOT
ATOM      1  C4' PXY d   1       2.983  -5.967  -5.998  0.00  0.00     0.077 C 
ATOM      2  C1' PXY d   1      -1.040  -5.620  -1.862  0.00  0.00     0.077 C 
ATOM      3  C1  PXY d   1       0.007  -5.717  -2.954  0.00  0.00    -0.082 A 
ATOM      4  C2  PXY d   1       1.288  -5.615  -2.643  0.00  0.00     0.003 A 
ATOM      5  C3  PXY d   1       2.247  -5.669  -3.622  0.00  0.00     0.003 A 
ATOM      6  C4  PXY d   1       1.892  -5.883  -4.927  0.00  0.00    -0.082 A 
ATOM      7  C5  PXY d   1       0.587  -6.000  -5.251  0.00  0.00     0.003 A 
ATOM      8  C6  PXY d   1      -0.373  -5.901  -4.248  0.00  0.00     0.003 A 
ENDROOT
TORSDOF 0
ENDMDL
