MODEL 1
REMARK minimizedAffinity 0.225618944
REMARK minimizedRMSD -1
REMARK  0 active torsions:
REMARK  status: ('A' for Active; 'I' for Inactive)
ROOT
ATOM      1  C4' PXY d   1       0.239  -1.127   3.846  0.00  0.00     0.077 C 
ATOM      2  C1' PXY d   1      -2.609   0.791  -0.804  0.00  0.00     0.077 C 
ATOM      3  C1  PXY d   1      -1.873   0.291   0.422  0.00  0.00    -0.082 A 
ATOM      4  C2  PXY d   1      -0.550   0.254   0.421  0.00  0.00     0.003 A 
ATOM      5  C3  PXY d   1       0.131  -0.226   1.510  0.00  0.00     0.003 A 
ATOM      6  C4  PXY d   1      -0.546  -0.621   2.632  0.00  0.00    -0.082 A 
ATOM      7  C5  PXY d   1      -1.895  -0.577   2.645  0.00  0.00     0.003 A 
ATOM      8  C6  PXY d   1      -2.570  -0.126   1.514  0.00  0.00     0.003 A 
ENDROOT
TORSDOF 0
ENDMDL
