MODEL 1
REMARK minimizedAffinity 5.93153954
REMARK minimizedRMSD -1
REMARK  0 active torsions:
REMARK  status: ('A' for Active; 'I' for Inactive)
ROOT
ATOM      1  C4' PXY d   1       3.206  -2.316   6.000  0.00  0.00     0.077 C 
ATOM      2  C1' PXY d   1      -1.155  -0.728   2.554  0.00  0.00     0.077 C 
ATOM      3  C1  PXY d   1      -0.004  -1.147   3.447  0.00  0.00    -0.082 A 
ATOM      4  C2  PXY d   1      -0.251  -1.578   4.673  0.00  0.00     0.003 A 
ATOM      5  C3  PXY d   1       0.781  -1.931   5.506  0.00  0.00     0.003 A 
ATOM      6  C4  PXY d   1       2.075  -1.892   5.060  0.00  0.00    -0.082 A 
ATOM      7  C5  PXY d   1       2.334  -1.463   3.807  0.00  0.00     0.003 A 
ATOM      8  C6  PXY d   1       1.276  -1.071   2.992  0.00  0.00     0.003 A 
ENDROOT
TORSDOF 0
ENDMDL
