MODEL 1
REMARK minimizedAffinity -2.74256253
REMARK minimizedRMSD -1
REMARK  0 active torsions:
REMARK  status: ('A' for Active; 'I' for Inactive)
ROOT
ATOM      1  C4' PXY d   1       3.409  -2.253   6.000  0.00  0.00     0.077 C 
ATOM      2  C1' PXY d   1      -1.025  -0.527   2.718  0.00  0.00     0.077 C 
ATOM      3  C1  PXY d   1       0.135  -0.970   3.587  0.00  0.00    -0.082 A 
ATOM      4  C2  PXY d   1       1.111  -1.690   3.058  0.00  0.00     0.003 A 
ATOM      5  C3  PXY d   1       2.152  -2.126   3.837  0.00  0.00     0.003 A 
ATOM      6  C4  PXY d   1       2.222  -1.776   5.158  0.00  0.00    -0.082 A 
ATOM      7  C5  PXY d   1       1.236  -1.032   5.703  0.00  0.00     0.003 A 
ATOM      8  C6  PXY d   1       0.167  -0.634   4.905  0.00  0.00     0.003 A 
ENDROOT
TORSDOF 0
ENDMDL
