MODEL 1
REMARK minimizedAffinity 0.420909464
REMARK minimizedRMSD -1
REMARK  0 active torsions:
REMARK  status: ('A' for Active; 'I' for Inactive)
ROOT
ATOM      1  C4' PXY d   1       2.788  -1.497   5.712  0.00  0.00     0.077 C 
ATOM      2  C1' PXY d   1      -1.914  -0.625   2.464  0.00  0.00     0.077 C 
ATOM      3  C1  PXY d   1      -0.675  -0.860   3.306  0.00  0.00    -0.082 A 
ATOM      4  C2  PXY d   1      -0.760  -0.800   4.625  0.00  0.00     0.003 A 
ATOM      5  C3  PXY d   1       0.356  -0.979   5.401  0.00  0.00     0.003 A 
ATOM      6  C4  PXY d   1       1.562  -1.275   4.822  0.00  0.00    -0.082 A 
ATOM      7  C5  PXY d   1       1.654  -1.349   3.477  0.00  0.00     0.003 A 
ATOM      8  C6  PXY d   1       0.517  -1.123   2.706  0.00  0.00     0.003 A 
ENDROOT
TORSDOF 0
ENDMDL
