MODEL 1
REMARK minimizedAffinity 0.520076156
REMARK minimizedRMSD -1
REMARK  0 active torsions:
REMARK  status: ('A' for Active; 'I' for Inactive)
ROOT
ATOM      1  C4' PXY d   1       1.659  -2.093   4.527  0.00  0.00     0.077 C 
ATOM      2  C1' PXY d   1      -0.999   0.279  -0.026  0.00  0.00     0.077 C 
ATOM      3  C1  PXY d   1      -0.292  -0.347   1.160  0.00  0.00    -0.082 A 
ATOM      4  C2  PXY d   1      -0.999  -0.759   2.200  0.00  0.00     0.003 A 
ATOM      5  C3  PXY d   1      -0.373  -1.297   3.295  0.00  0.00     0.003 A 
ATOM      6  C4  PXY d   1       0.986  -1.464   3.303  0.00  0.00    -0.082 A 
ATOM      7  C5  PXY d   1       1.713  -1.056   2.242  0.00  0.00     0.003 A 
ATOM      8  C6  PXY d   1       1.063  -0.474   1.158  0.00  0.00     0.003 A 
ENDROOT
TORSDOF 0
ENDMDL
