MODEL 1
REMARK minimizedAffinity 5.34576035
REMARK minimizedRMSD -1
REMARK  0 active torsions:
REMARK  status: ('A' for Active; 'I' for Inactive)
ROOT
ATOM      1  C4' PXY d   1      -0.548   0.499   1.586  0.00  0.00     0.077 C 
ATOM      2  C1' PXY d   1       3.180  -2.243   5.051  0.00  0.00     0.077 C 
ATOM      3  C1  PXY d   1       2.211  -1.523   4.133  0.00  0.00    -0.082 A 
ATOM      4  C2  PXY d   1       1.187  -0.864   4.650  0.00  0.00     0.003 A 
ATOM      5  C3  PXY d   1       0.284  -0.234   3.833  0.00  0.00     0.003 A 
ATOM      6  C4  PXY d   1       0.460  -0.235   2.475  0.00  0.00    -0.082 A 
ATOM      7  C5  PXY d   1       1.509  -0.896   1.940  0.00  0.00     0.003 A 
ATOM      8  C6  PXY d   1       2.391  -1.563   2.785  0.00  0.00     0.003 A 
ENDROOT
TORSDOF 0
ENDMDL
