MODEL 1
REMARK minimizedAffinity 6.34446812
REMARK minimizedRMSD -1
REMARK  0 active torsions:
REMARK  status: ('A' for Active; 'I' for Inactive)
ROOT
ATOM      1  C   UNL d   1       0.625   4.487  -1.079  0.00  0.00     0.020 A 
ATOM      2  C1  UNL d   1      -0.535   3.747  -0.855  0.00  0.00     0.020 A 
ATOM      3  C2  UNL d   1      -0.664   2.988   0.311  0.00  0.00     0.034 A 
ATOM      4  C3  UNL d   1       0.368   2.968   1.256  0.00  0.00     0.017 A 
ATOM      5  C4  UNL d   1       1.532   3.712   1.030  0.00  0.00     0.017 A 
ATOM      6  C5  UNL d   1       1.656   4.470  -0.139  0.00  0.00     0.034 A 
ATOM      7 Cl   UNL d   1       2.848   3.737   2.150  0.00  0.00    -0.070 Cl
ATOM      8 Cl1  UNL d   1       0.140   2.009   2.675  0.00  0.00    -0.070 Cl
ENDROOT
TORSDOF 0
ENDMDL
