MODEL 1
REMARK minimizedAffinity 7.25635815
REMARK minimizedRMSD -1
REMARK  0 active torsions:
REMARK  status: ('A' for Active; 'I' for Inactive)
ROOT
ATOM      1  C   UNL d   1       0.574   0.407   2.817  0.00  0.00     0.020 A 
ATOM      2  C1  UNL d   1       1.296   1.498   3.299  0.00  0.00     0.020 A 
ATOM      3  C2  UNL d   1       1.404   2.659   2.531  0.00  0.00     0.034 A 
ATOM      4  C3  UNL d   1       0.788   2.732   1.276  0.00  0.00     0.017 A 
ATOM      5  C4  UNL d   1       0.063   1.637   0.793  0.00  0.00     0.017 A 
ATOM      6  C5  UNL d   1      -0.042   0.477   1.566  0.00  0.00     0.034 A 
ATOM      7 Cl   UNL d   1      -0.724   1.653  -0.746  0.00  0.00    -0.070 Cl
ATOM      8 Cl1  UNL d   1       0.963   4.200   0.380  0.00  0.00    -0.070 Cl
ENDROOT
TORSDOF 0
ENDMDL
