MODEL 1
REMARK minimizedAffinity 8.98675346
REMARK minimizedRMSD -1
REMARK  0 active torsions:
REMARK  status: ('A' for Active; 'I' for Inactive)
ROOT
ATOM      1  C   UNL d   1       2.600  -0.064   2.125  0.00  0.00     0.020 A 
ATOM      2  C1  UNL d   1       2.037   1.166   1.783  0.00  0.00     0.020 A 
ATOM      3  C2  UNL d   1       0.715   1.449   2.131  0.00  0.00     0.034 A 
ATOM      4  C3  UNL d   1      -0.049   0.502   2.823  0.00  0.00     0.017 A 
ATOM      5  C4  UNL d   1       0.517  -0.731   3.166  0.00  0.00     0.017 A 
ATOM      6  C5  UNL d   1       1.841  -1.010   2.815  0.00  0.00     0.034 A 
ATOM      7 Cl   UNL d   1      -0.363  -1.950   4.019  0.00  0.00    -0.070 Cl
ATOM      8 Cl1  UNL d   1      -1.677   0.920   3.222  0.00  0.00    -0.070 Cl
ENDROOT
TORSDOF 0
ENDMDL
