MODEL 1
REMARK minimizedAffinity 8.50512028
REMARK minimizedRMSD -1
REMARK  0 active torsions:
REMARK  status: ('A' for Active; 'I' for Inactive)
ROOT
ATOM      1  C   UNL d   1      -1.183   0.027  -0.574  0.00  0.00     0.020 A 
ATOM      2  C1  UNL d   1      -2.465  -0.162  -1.089  0.00  0.00     0.020 A 
ATOM      3  C2  UNL d   1      -3.130   0.898  -1.710  0.00  0.00     0.034 A 
ATOM      4  C3  UNL d   1      -2.515   2.150  -1.817  0.00  0.00     0.017 A 
ATOM      5  C4  UNL d   1      -1.228   2.338  -1.299  0.00  0.00     0.017 A 
ATOM      6  C5  UNL d   1      -0.566   1.274  -0.678  0.00  0.00     0.034 A 
ATOM      7 Cl   UNL d   1      -0.404   3.854  -1.392  0.00  0.00    -0.070 Cl
ATOM      8 Cl1  UNL d   1      -3.396   3.415  -2.597  0.00  0.00    -0.070 Cl
ENDROOT
TORSDOF 0
ENDMDL
