MODEL 1
REMARK minimizedAffinity 2.35393143
REMARK minimizedRMSD -1
REMARK  0 active torsions:
REMARK  status: ('A' for Active; 'I' for Inactive)
ROOT
ATOM      1  C   UNL d   1       3.862  -2.283  -2.201  0.00  0.00     0.020 A 
ATOM      2  C1  UNL d   1       4.028  -2.282  -3.585  0.00  0.00     0.020 A 
ATOM      3  C2  UNL d   1       4.457  -3.440  -4.237  0.00  0.00     0.034 A 
ATOM      4  C3  UNL d   1       4.721  -4.603  -3.505  0.00  0.00     0.017 A 
ATOM      5  C4  UNL d   1       4.554  -4.603  -2.116  0.00  0.00     0.017 A 
ATOM      6  C5  UNL d   1       4.124  -3.441  -1.468  0.00  0.00     0.034 A 
ATOM      7 Cl   UNL d   1       4.860  -6.000  -1.145  0.00  0.00    -0.070 Cl
ATOM      8 Cl1  UNL d   1       5.248  -5.999  -4.377  0.00  0.00    -0.070 Cl
ENDROOT
TORSDOF 0
ENDMDL
