MODEL 1
REMARK minimizedAffinity 7.14341736
REMARK minimizedRMSD -1
REMARK  0 active torsions:
REMARK  status: ('A' for Active; 'I' for Inactive)
ROOT
ATOM      1  C   UNL d   1       4.448  -6.000  -2.498  0.00  0.00     0.020 A 
ATOM      2  C1  UNL d   1       4.753  -5.272  -3.648  0.00  0.00     0.020 A 
ATOM      3  C2  UNL d   1       4.339  -3.944  -3.764  0.00  0.00     0.034 A 
ATOM      4  C3  UNL d   1       3.617  -3.338  -2.729  0.00  0.00     0.017 A 
ATOM      5  C4  UNL d   1       3.311  -4.070  -1.575  0.00  0.00     0.017 A 
ATOM      6  C5  UNL d   1       3.728  -5.400  -1.464  0.00  0.00     0.034 A 
ATOM      7 Cl   UNL d   1       2.424  -3.391  -0.256  0.00  0.00    -0.070 Cl
ATOM      8 Cl1  UNL d   1       3.138  -1.692  -2.940  0.00  0.00    -0.070 Cl
ENDROOT
TORSDOF 0
ENDMDL
