MODEL 1
REMARK minimizedAffinity 9.54796505
REMARK minimizedRMSD -1
REMARK  0 active torsions:
REMARK  status: ('A' for Active; 'I' for Inactive)
ROOT
ATOM      1  C   UNL d   1       5.851  -2.652  -2.052  0.00  0.00     0.020 A 
ATOM      2  C1  UNL d   1       4.704  -1.859  -2.033  0.00  0.00     0.020 A 
ATOM      3  C2  UNL d   1       3.706  -2.098  -1.086  0.00  0.00     0.034 A 
ATOM      4  C3  UNL d   1       3.852  -3.132  -0.155  0.00  0.00     0.017 A 
ATOM      5  C4  UNL d   1       5.003  -3.928  -0.175  0.00  0.00     0.017 A 
ATOM      6  C5  UNL d   1       6.000  -3.684  -1.125  0.00  0.00     0.034 A 
ATOM      7 Cl   UNL d   1       5.255  -5.223   0.942  0.00  0.00    -0.070 Cl
ATOM      8 Cl1  UNL d   1       2.578  -3.371   0.987  0.00  0.00    -0.070 Cl
ENDROOT
TORSDOF 0
ENDMDL
