MODEL 1
REMARK minimizedAffinity 6.56428432
REMARK minimizedRMSD -1
REMARK  0 active torsions:
REMARK  status: ('A' for Active; 'I' for Inactive)
ROOT
ATOM      1  C   UNL d   1       4.399  -2.004  -1.915  0.00  0.00     0.020 A 
ATOM      2  C1  UNL d   1       4.173  -2.876  -2.979  0.00  0.00     0.020 A 
ATOM      3  C2  UNL d   1       3.512  -4.087  -2.761  0.00  0.00     0.034 A 
ATOM      4  C3  UNL d   1       3.076  -4.429  -1.476  0.00  0.00     0.017 A 
ATOM      5  C4  UNL d   1       3.303  -3.553  -0.409  0.00  0.00     0.017 A 
ATOM      6  C5  UNL d   1       3.965  -2.341  -0.633  0.00  0.00     0.034 A 
ATOM      7 Cl   UNL d   1       2.794  -3.905   1.205  0.00  0.00    -0.070 Cl
ATOM      8 Cl1  UNL d   1       2.265  -5.942  -1.279  0.00  0.00    -0.070 Cl
ENDROOT
TORSDOF 0
ENDMDL
