MODEL 1
REMARK minimizedAffinity -1.72926891
REMARK minimizedRMSD -1
REMARK  0 active torsions:
REMARK  status: ('A' for Active; 'I' for Inactive)
ROOT
ATOM      1  C   UNL d   1       4.947  -5.522  -1.621  0.00  0.00     0.020 A 
ATOM      2  C1  UNL d   1       4.728  -5.404  -2.993  0.00  0.00     0.020 A 
ATOM      3  C2  UNL d   1       4.393  -4.165  -3.543  0.00  0.00     0.034 A 
ATOM      4  C3  UNL d   1       4.276  -3.038  -2.720  0.00  0.00     0.017 A 
ATOM      5  C4  UNL d   1       4.495  -3.158  -1.343  0.00  0.00     0.017 A 
ATOM      6  C5  UNL d   1       4.830  -4.401  -0.798  0.00  0.00     0.034 A 
ATOM      7 Cl   UNL d   1       4.369  -1.814  -0.264  0.00  0.00    -0.070 Cl
ATOM      8 Cl1  UNL d   1       3.859  -1.537  -3.467  0.00  0.00    -0.070 Cl
ENDROOT
TORSDOF 0
ENDMDL
