MODEL 1
REMARK minimizedAffinity -2.89260697
REMARK minimizedRMSD -1
REMARK  0 active torsions:
REMARK  status: ('A' for Active; 'I' for Inactive)
ROOT
ATOM      1  C   UNL d   1       3.560  -3.753  -3.814  0.00  0.00     0.020 A 
ATOM      2  C1  UNL d   1       4.102  -5.032  -3.706  0.00  0.00     0.020 A 
ATOM      3  C2  UNL d   1       4.824  -5.391  -2.566  0.00  0.00     0.034 A 
ATOM      4  C3  UNL d   1       5.006  -4.469  -1.529  0.00  0.00     0.017 A 
ATOM      5  C4  UNL d   1       4.461  -3.184  -1.638  0.00  0.00     0.017 A 
ATOM      6  C5  UNL d   1       3.738  -2.831  -2.782  0.00  0.00     0.034 A 
ATOM      7 Cl   UNL d   1       4.642  -1.992  -0.400  0.00  0.00    -0.070 Cl
ATOM      8 Cl1  UNL d   1       5.909  -4.980  -0.148  0.00  0.00    -0.070 Cl
ENDROOT
TORSDOF 0
ENDMDL
