MODEL 1
REMARK minimizedAffinity 3.76468778
REMARK minimizedRMSD -1
REMARK  0 active torsions:
REMARK  status: ('A' for Active; 'I' for Inactive)
ROOT
ATOM      1  C   UNL d   1       5.144  -5.359  -3.369  0.00  0.00     0.020 A 
ATOM      2  C1  UNL d   1       5.644  -4.163  -3.883  0.00  0.00     0.020 A 
ATOM      3  C2  UNL d   1       4.980  -2.961  -3.629  0.00  0.00     0.034 A 
ATOM      4  C3  UNL d   1       3.812  -2.952  -2.858  0.00  0.00     0.017 A 
ATOM      5  C4  UNL d   1       3.310  -4.153  -2.342  0.00  0.00     0.017 A 
ATOM      6  C5  UNL d   1       3.979  -5.353  -2.600  0.00  0.00     0.034 A 
ATOM      7 Cl   UNL d   1       1.874  -4.221  -1.383  0.00  0.00    -0.070 Cl
ATOM      8 Cl1  UNL d   1       3.042  -1.430  -2.583  0.00  0.00    -0.070 Cl
ENDROOT
TORSDOF 0
ENDMDL
