MODEL 1
REMARK minimizedAffinity 7.72447872
REMARK minimizedRMSD -1
REMARK  0 active torsions:
REMARK  status: ('A' for Active; 'I' for Inactive)
ROOT
ATOM      1  C2' OXE d   1       2.492   5.967  -2.588  0.00  0.00     0.078 C 
ATOM      2  C1' OXE d   1       4.866   6.000  -1.091  0.00  0.00     0.078 C 
ATOM      3  C1  OXE d   1       4.846   5.185  -2.360  0.00  0.00    -0.078 A 
ATOM      4  C2  OXE d   1       3.665   5.137  -3.062  0.00  0.00    -0.078 A 
ATOM      5  C3  OXE d   1       3.608   4.444  -4.268  0.00  0.00     0.003 A 
ATOM      6  C4  OXE d   1       4.694   3.671  -4.694  0.00  0.00    -0.002 A 
ATOM      7  C5  OXE d   1       5.893   3.674  -3.973  0.00  0.00    -0.002 A 
ATOM      8  C6  OXE d   1       5.999   4.457  -2.829  0.00  0.00     0.003 A 
ENDROOT
TORSDOF 0
ENDMDL
