MODEL 1
REMARK minimizedAffinity -0.0472431891
REMARK minimizedRMSD -1
REMARK  0 active torsions:
REMARK  status: ('A' for Active; 'I' for Inactive)
ROOT
ATOM      1  C2' OXE d   1       4.123   5.793  -5.975  0.00  0.00     0.078 C 
ATOM      2  C1' OXE d   1       5.641   3.431  -5.973  0.00  0.00     0.078 C 
ATOM      3  C1  OXE d   1       5.453   4.148  -4.659  0.00  0.00    -0.078 A 
ATOM      4  C2  OXE d   1       4.748   5.327  -4.677  0.00  0.00    -0.078 A 
ATOM      5  C3  OXE d   1       4.499   5.999  -3.484  0.00  0.00     0.003 A 
ATOM      6  C4  OXE d   1       5.089   5.567  -2.290  0.00  0.00    -0.002 A 
ATOM      7  C5  OXE d   1       5.844   4.390  -2.257  0.00  0.00    -0.002 A 
ATOM      8  C6  OXE d   1       6.000   3.647  -3.422  0.00  0.00     0.003 A 
ENDROOT
TORSDOF 0
ENDMDL
