MODEL 1
REMARK minimizedAffinity 7.12155628
REMARK minimizedRMSD -1
REMARK  0 active torsions:
REMARK  status: ('A' for Active; 'I' for Inactive)
ROOT
ATOM      1  C2' OXE d   1       3.735   6.000  -4.893  0.00  0.00     0.078 C 
ATOM      2  C1' OXE d   1       1.828   5.272  -2.966  0.00  0.00     0.078 C 
ATOM      3  C1  OXE d   1       3.285   5.119  -2.606  0.00  0.00    -0.078 A 
ATOM      4  C2  OXE d   1       4.210   5.433  -3.572  0.00  0.00    -0.078 A 
ATOM      5  C3  OXE d   1       5.568   5.362  -3.274  0.00  0.00     0.003 A 
ATOM      6  C4  OXE d   1       6.000   4.828  -2.054  0.00  0.00    -0.002 A 
ATOM      7  C5  OXE d   1       5.073   4.465  -1.071  0.00  0.00    -0.002 A 
ATOM      8  C6  OXE d   1       3.716   4.644  -1.315  0.00  0.00     0.003 A 
ENDROOT
TORSDOF 0
ENDMDL
