MODEL 1
REMARK minimizedAffinity 0.424996167
REMARK minimizedRMSD -1
REMARK  0 active torsions:
REMARK  status: ('A' for Active; 'I' for Inactive)
ROOT
ATOM      1  C2' OXE d   1       2.500   5.999  -2.859  0.00  0.00     0.078 C 
ATOM      2  C1' OXE d   1       4.733   4.818  -1.635  0.00  0.00     0.078 C 
ATOM      3  C1  OXE d   1       4.817   5.118  -3.111  0.00  0.00    -0.078 A 
ATOM      4  C2  OXE d   1       3.702   5.653  -3.711  0.00  0.00    -0.078 A 
ATOM      5  C3  OXE d   1       3.744   5.999  -5.059  0.00  0.00     0.003 A 
ATOM      6  C4  OXE d   1       4.857   5.667  -5.841  0.00  0.00    -0.002 A 
ATOM      7  C5  OXE d   1       5.987   5.086  -5.258  0.00  0.00    -0.002 A 
ATOM      8  C6  OXE d   1       6.000   4.844  -3.889  0.00  0.00     0.003 A 
ENDROOT
TORSDOF 0
ENDMDL
