MODEL 1
REMARK minimizedAffinity -1.09800828
REMARK minimizedRMSD -1
REMARK  0 active torsions:
REMARK  status: ('A' for Active; 'I' for Inactive)
ROOT
ATOM      1  C2' OXE d   1       3.145   5.988  -1.559  0.00  0.00     0.078 C 
ATOM      2  C1' OXE d   1       5.952   5.997  -1.523  0.00  0.00     0.078 C 
ATOM      3  C1  OXE d   1       5.266   5.982  -2.866  0.00  0.00    -0.078 A 
ATOM      4  C2  OXE d   1       3.893   5.931  -2.874  0.00  0.00    -0.078 A 
ATOM      5  C3  OXE d   1       3.208   5.971  -4.086  0.00  0.00     0.003 A 
ATOM      6  C4  OXE d   1       3.907   5.909  -5.297  0.00  0.00    -0.002 A 
ATOM      7  C5  OXE d   1       5.306   5.920  -5.311  0.00  0.00    -0.002 A 
ATOM      8  C6  OXE d   1       5.999   6.000  -4.108  0.00  0.00     0.003 A 
ENDROOT
TORSDOF 0
ENDMDL
