MODEL 1
REMARK minimizedAffinity 9.3955574
REMARK minimizedRMSD -1
REMARK  0 active torsions:
REMARK  status: ('A' for Active; 'I' for Inactive)
ROOT
ATOM      1  C2' OXE d   1       2.705   5.964  -3.781  0.00  0.00     0.078 C 
ATOM      2  C1' OXE d   1       4.775   5.894  -1.886  0.00  0.00     0.078 C 
ATOM      3  C1  OXE d   1       4.876   4.969  -3.073  0.00  0.00    -0.078 A 
ATOM      4  C2  OXE d   1       3.836   4.976  -3.971  0.00  0.00    -0.078 A 
ATOM      5  C3  OXE d   1       3.904   4.182  -5.112  0.00  0.00     0.003 A 
ATOM      6  C4  OXE d   1       4.949   3.264  -5.274  0.00  0.00    -0.002 A 
ATOM      7  C5  OXE d   1       5.998   3.211  -4.351  0.00  0.00    -0.002 A 
ATOM      8  C6  OXE d   1       5.999   4.085  -3.269  0.00  0.00     0.003 A 
ENDROOT
TORSDOF 0
ENDMDL
