MODEL 1
REMARK minimizedAffinity -3.80800128
REMARK minimizedRMSD -1
REMARK  0 active torsions:
REMARK  status: ('A' for Active; 'I' for Inactive)
ROOT
ATOM      1  C2' OXE d   1       4.806   5.646  -1.729  0.00  0.00     0.078 C 
ATOM      2  C1' OXE d   1       2.362   5.096  -2.996  0.00  0.00     0.078 C 
ATOM      3  C1  OXE d   1       3.619   4.550  -3.626  0.00  0.00    -0.078 A 
ATOM      4  C2  OXE d   1       4.814   4.863  -3.025  0.00  0.00    -0.078 A 
ATOM      5  C3  OXE d   1       6.000   4.340  -3.533  0.00  0.00     0.003 A 
ATOM      6  C4  OXE d   1       6.000   3.626  -4.737  0.00  0.00    -0.002 A 
ATOM      7  C5  OXE d   1       4.797   3.329  -5.387  0.00  0.00    -0.002 A 
ATOM      8  C6  OXE d   1       3.597   3.747  -4.823  0.00  0.00     0.003 A 
ENDROOT
TORSDOF 0
ENDMDL
