MODEL 1
REMARK minimizedAffinity -0.792603254
REMARK minimizedRMSD -1
REMARK  0 active torsions:
REMARK  status: ('A' for Active; 'I' for Inactive)
ROOT
ATOM      1  C2' OXE d   1       3.032   5.641  -2.297  0.00  0.00     0.078 C 
ATOM      2  C1' OXE d   1       5.822   5.907  -2.130  0.00  0.00     0.078 C 
ATOM      3  C1  OXE d   1       5.206   5.796  -3.502  0.00  0.00    -0.078 A 
ATOM      4  C2  OXE d   1       3.845   5.619  -3.573  0.00  0.00    -0.078 A 
ATOM      5  C3  OXE d   1       3.221   5.566  -4.815  0.00  0.00     0.003 A 
ATOM      6  C4  OXE d   1       3.981   5.536  -5.991  0.00  0.00    -0.002 A 
ATOM      7  C5  OXE d   1       5.372   5.676  -5.940  0.00  0.00    -0.002 A 
ATOM      8  C6  OXE d   1       5.995   5.849  -4.709  0.00  0.00     0.003 A 
ENDROOT
TORSDOF 0
ENDMDL
