MODEL 1
REMARK minimizedAffinity -2.3430109
REMARK minimizedRMSD -1
REMARK  0 active torsions:
REMARK  status: ('A' for Active; 'I' for Inactive)
ROOT
ATOM      1  C2' OXE d   1       2.980   5.990  -4.141  0.00  0.00     0.078 C 
ATOM      2  C1' OXE d   1       4.933   5.355  -2.227  0.00  0.00     0.078 C 
ATOM      3  C1  OXE d   1       4.980   4.628  -3.548  0.00  0.00    -0.078 A 
ATOM      4  C2  OXE d   1       3.992   4.911  -4.461  0.00  0.00    -0.078 A 
ATOM      5  C3  OXE d   1       4.020   4.309  -5.715  0.00  0.00     0.003 A 
ATOM      6  C4  OXE d   1       4.954   3.305  -5.999  0.00  0.00    -0.002 A 
ATOM      7  C5  OXE d   1       5.944   2.973  -5.069  0.00  0.00    -0.002 A 
ATOM      8  C6  OXE d   1       5.997   3.654  -3.858  0.00  0.00     0.003 A 
ENDROOT
TORSDOF 0
ENDMDL
