MODEL 1
REMARK minimizedAffinity 4.60789776
REMARK minimizedRMSD -1
REMARK  0 active torsions:
REMARK  status: ('A' for Active; 'I' for Inactive)
ROOT
ATOM      1  C2' OXE d   1       3.380   5.704  -5.396  0.00  0.00     0.078 C 
ATOM      2  C1' OXE d   1       2.267   3.797  -3.661  0.00  0.00     0.078 C 
ATOM      3  C1  OXE d   1       3.571   4.439  -3.258  0.00  0.00    -0.078 A 
ATOM      4  C2  OXE d   1       4.132   5.337  -4.134  0.00  0.00    -0.078 A 
ATOM      5  C3  OXE d   1       5.306   5.999  -3.786  0.00  0.00     0.003 A 
ATOM      6  C4  OXE d   1       6.000   5.646  -2.622  0.00  0.00    -0.002 A 
ATOM      7  C5  OXE d   1       5.466   4.706  -1.735  0.00  0.00    -0.002 A 
ATOM      8  C6  OXE d   1       4.234   4.125  -2.016  0.00  0.00     0.003 A 
ENDROOT
TORSDOF 0
ENDMDL
