MODEL 1
REMARK minimizedAffinity -0.96528405
REMARK minimizedRMSD -1
REMARK  0 active torsions:
REMARK  status: ('A' for Active; 'I' for Inactive)
ROOT
ATOM      1  C2' OXE d   1       5.988   6.000  -1.882  0.00  0.00     0.078 C 
ATOM      2  C1' OXE d   1       5.998   5.441  -4.633  0.00  0.00     0.078 C 
ATOM      3  C1  OXE d   1       4.793   5.015  -3.833  0.00  0.00    -0.078 A 
ATOM      4  C2  OXE d   1       4.817   5.250  -2.479  0.00  0.00    -0.078 A 
ATOM      5  C3  OXE d   1       3.708   4.926  -1.703  0.00  0.00     0.003 A 
ATOM      6  C4  OXE d   1       2.633   4.224  -2.261  0.00  0.00    -0.002 A 
ATOM      7  C5  OXE d   1       2.606   3.939  -3.630  0.00  0.00    -0.002 A 
ATOM      8  C6  OXE d   1       3.656   4.364  -4.436  0.00  0.00     0.003 A 
ENDROOT
TORSDOF 0
ENDMDL
