MODEL 1
REMARK minimizedAffinity 4.63067865
REMARK minimizedRMSD -1
REMARK  0 active torsions:
REMARK  status: ('A' for Active; 'I' for Inactive)
ROOT
ATOM      1  C2' OXE d   1       3.199   5.820  -4.895  0.00  0.00     0.078 C 
ATOM      2  C1' OXE d   1       6.000   5.987  -4.820  0.00  0.00     0.078 C 
ATOM      3  C1  OXE d   1       5.290   5.504  -3.580  0.00  0.00    -0.078 A 
ATOM      4  C2  OXE d   1       3.917   5.470  -3.610  0.00  0.00    -0.078 A 
ATOM      5  C3  OXE d   1       3.215   4.981  -2.512  0.00  0.00     0.003 A 
ATOM      6  C4  OXE d   1       3.886   4.668  -1.324  0.00  0.00    -0.002 A 
ATOM      7  C5  OXE d   1       5.282   4.734  -1.258  0.00  0.00    -0.002 A 
ATOM      8  C6  OXE d   1       6.000   5.108  -2.388  0.00  0.00     0.003 A 
ENDROOT
TORSDOF 0
ENDMDL
