MODEL 1
REMARK minimizedAffinity -3.89524126
REMARK minimizedRMSD -1
REMARK  0 active torsions:
REMARK  status: ('A' for Active; 'I' for Inactive)
ROOT
ATOM      1  C2' OXE d   1       2.825   5.950  -3.756  0.00  0.00     0.078 C 
ATOM      2  C1' OXE d   1       4.832   5.168  -1.956  0.00  0.00     0.078 C 
ATOM      3  C1  OXE d   1       4.919   4.657  -3.373  0.00  0.00    -0.078 A 
ATOM      4  C2  OXE d   1       3.908   5.007  -4.234  0.00  0.00    -0.078 A 
ATOM      5  C3  OXE d   1       3.968   4.609  -5.567  0.00  0.00     0.003 A 
ATOM      6  C4  OXE d   1       4.968   3.729  -5.999  0.00  0.00    -0.002 A 
ATOM      7  C5  OXE d   1       5.986   3.328  -5.127  0.00  0.00    -0.002 A 
ATOM      8  C6  OXE d   1       6.000   3.816  -3.825  0.00  0.00     0.003 A 
ENDROOT
TORSDOF 0
ENDMDL
