MODEL 1
REMARK minimizedAffinity 0.0197164863
REMARK minimizedRMSD -1
REMARK  0 active torsions:
REMARK  status: ('A' for Active; 'I' for Inactive)
ROOT
ATOM      1  C2' OXE d   1       5.313   3.078  -5.978  0.00  0.00     0.078 C 
ATOM      2  C1' OXE d   1       4.553   5.780  -5.999  0.00  0.00     0.078 C 
ATOM      3  C1  OXE d   1       5.073   5.205  -4.705  0.00  0.00    -0.078 A 
ATOM      4  C2  OXE d   1       5.398   3.870  -4.692  0.00  0.00    -0.078 A 
ATOM      5  C3  OXE d   1       5.934   3.302  -3.539  0.00  0.00     0.003 A 
ATOM      6  C4  OXE d   1       6.000   4.040  -2.351  0.00  0.00    -0.002 A 
ATOM      7  C5  OXE d   1       5.636   5.390  -2.332  0.00  0.00    -0.002 A 
ATOM      8  C6  OXE d   1       5.212   5.998  -3.508  0.00  0.00     0.003 A 
ENDROOT
TORSDOF 0
ENDMDL
