MODEL 1
REMARK minimizedAffinity 0.206681132
REMARK minimizedRMSD -1
REMARK  0 active torsions:
REMARK  status: ('A' for Active; 'I' for Inactive)
ROOT
ATOM      1  C2' OXE d   1       2.924   5.900  -5.254  0.00  0.00     0.078 C 
ATOM      2  C1' OXE d   1       5.100   4.285  -5.987  0.00  0.00     0.078 C 
ATOM      3  C1  OXE d   1       5.020   4.751  -4.555  0.00  0.00    -0.078 A 
ATOM      4  C2  OXE d   1       3.977   5.579  -4.216  0.00  0.00    -0.078 A 
ATOM      5  C3  OXE d   1       3.827   5.993  -2.896  0.00  0.00     0.003 A 
ATOM      6  C4  OXE d   1       4.811   5.700  -1.945  0.00  0.00    -0.002 A 
ATOM      7  C5  OXE d   1       5.903   4.892  -2.278  0.00  0.00    -0.002 A 
ATOM      8  C6  OXE d   1       5.999   4.375  -3.565  0.00  0.00     0.003 A 
ENDROOT
TORSDOF 0
ENDMDL
