MODEL 1
REMARK minimizedAffinity 8.15496349
REMARK minimizedRMSD -1
REMARK  0 active torsions:
REMARK  status: ('A' for Active; 'I' for Inactive)
ROOT
ATOM      1  C2' OXE d   1       5.784   1.774  -5.364  0.00  0.00     0.078 C 
ATOM      2  C1' OXE d   1       4.561   2.535  -2.954  0.00  0.00     0.078 C 
ATOM      3  C1  OXE d   1       4.991   3.628  -3.900  0.00  0.00    -0.078 A 
ATOM      4  C2  OXE d   1       5.631   3.248  -5.056  0.00  0.00    -0.078 A 
ATOM      5  C3  OXE d   1       5.999   4.213  -5.989  0.00  0.00     0.003 A 
ATOM      6  C4  OXE d   1       5.863   5.574  -5.692  0.00  0.00    -0.002 A 
ATOM      7  C5  OXE d   1       5.250   5.984  -4.503  0.00  0.00    -0.002 A 
ATOM      8  C6  OXE d   1       4.771   5.024  -3.618  0.00  0.00     0.003 A 
ENDROOT
TORSDOF 0
ENDMDL
