MODEL 1
REMARK minimizedAffinity -1.35512459
REMARK minimizedRMSD -1
REMARK  0 active torsions:
REMARK  status: ('A' for Active; 'I' for Inactive)
ROOT
ATOM      1  C2' OXE d   1       2.983   4.573  -2.484  0.00  0.00     0.078 C 
ATOM      2  C1' OXE d   1       5.381   5.999  -2.174  0.00  0.00     0.078 C 
ATOM      3  C1  OXE d   1       5.100   5.380  -3.521  0.00  0.00    -0.078 A 
ATOM      4  C2  OXE d   1       3.946   4.645  -3.650  0.00  0.00    -0.078 A 
ATOM      5  C3  OXE d   1       3.612   4.098  -4.885  0.00  0.00     0.003 A 
ATOM      6  C4  OXE d   1       4.513   4.160  -5.955  0.00  0.00    -0.002 A 
ATOM      7  C5  OXE d   1       5.712   4.871  -5.833  0.00  0.00    -0.002 A 
ATOM      8  C6  OXE d   1       6.000   5.521  -4.638  0.00  0.00     0.003 A 
ENDROOT
TORSDOF 0
ENDMDL
