MODEL 1
REMARK minimizedAffinity -2.48158574
REMARK minimizedRMSD -1
REMARK  0 active torsions:
REMARK  status: ('A' for Active; 'I' for Inactive)
ROOT
ATOM      1  C2' OXE d   1       4.180   5.782  -5.980  0.00  0.00     0.078 C 
ATOM      2  C1' OXE d   1       5.713   3.430  -5.972  0.00  0.00     0.078 C 
ATOM      3  C1  OXE d   1       5.483   4.124  -4.653  0.00  0.00    -0.078 A 
ATOM      4  C2  OXE d   1       4.772   5.299  -4.673  0.00  0.00    -0.078 A 
ATOM      5  C3  OXE d   1       4.485   5.951  -3.477  0.00  0.00     0.003 A 
ATOM      6  C4  OXE d   1       5.044   5.504  -2.274  0.00  0.00    -0.002 A 
ATOM      7  C5  OXE d   1       5.805   4.331  -2.237  0.00  0.00    -0.002 A 
ATOM      8  C6  OXE d   1       5.998   3.607  -3.409  0.00  0.00     0.003 A 
ENDROOT
TORSDOF 0
ENDMDL
