MODEL 1
REMARK minimizedAffinity 2.58487868
REMARK minimizedRMSD -1
REMARK  0 active torsions:
REMARK  status: ('A' for Active; 'I' for Inactive)
ROOT
ATOM      1  C2' OXE d   1       5.999   2.366  -3.977  0.00  0.00     0.078 C 
ATOM      2  C1' OXE d   1       5.999   4.335  -1.976  0.00  0.00     0.078 C 
ATOM      3  C1  OXE d   1       5.185   4.595  -3.219  0.00  0.00    -0.078 A 
ATOM      4  C2  OXE d   1       5.228   3.647  -4.213  0.00  0.00    -0.078 A 
ATOM      5  C3  OXE d   1       4.452   3.812  -5.357  0.00  0.00     0.003 A 
ATOM      6  C4  OXE d   1       3.750   5.004  -5.572  0.00  0.00    -0.002 A 
ATOM      7  C5  OXE d   1       3.725   6.000  -4.589  0.00  0.00    -0.002 A 
ATOM      8  C6  OXE d   1       4.401   5.793  -3.392  0.00  0.00     0.003 A 
ENDROOT
TORSDOF 0
ENDMDL
