MODEL 1
REMARK minimizedAffinity 6.59320974
REMARK minimizedRMSD -1
REMARK  0 active torsions:
REMARK  status: ('A' for Active; 'I' for Inactive)
ROOT
ATOM      1  C   UNL d   1      -3.718   1.109   0.391  0.00  0.00    -0.002 A 
ATOM      2  C1  UNL d   1      -3.483  -0.048  -0.338  0.00  0.00     0.010 A 
ATOM      3  C2  UNL d   1      -2.578  -1.006   0.124  0.00  0.00     0.041 A 
ATOM      4  C3  UNL d   1      -1.908  -0.780   1.342  0.00  0.00    -0.075 A 
ATOM      5  S   UNL d   1      -0.757  -1.814   2.103  0.00  0.00     0.015 SA
ATOM      6  C4  UNL d   1      -0.551  -0.744   3.414  0.00  0.00     0.022 A 
ATOM      7  C5  UNL d   1      -1.333   0.380   3.290  0.00  0.00     0.026 A 
ATOM      8  C6  UNL d   1      -2.128   0.378   2.094  0.00  0.00    -0.082 A 
ATOM      9  C7  UNL d   1      -3.051   1.330   1.599  0.00  0.00     0.045 A 
ENDROOT
TORSDOF 0
ENDMDL
