MODEL 1
REMARK minimizedAffinity 2.64992619
REMARK minimizedRMSD -1
REMARK  0 active torsions:
REMARK  status: ('A' for Active; 'I' for Inactive)
ROOT
ATOM      1  C   UNL d   1      -2.979  -1.282   2.272  0.00  0.00    -0.002 A 
ATOM      2  C1  UNL d   1      -2.662  -0.325   1.318  0.00  0.00     0.010 A 
ATOM      3  C2  UNL d   1      -1.348   0.122   1.170  0.00  0.00     0.041 A 
ATOM      4  C3  UNL d   1      -0.347  -0.415   2.003  0.00  0.00    -0.075 A 
ATOM      5  S   UNL d   1       1.331  -0.019   2.001  0.00  0.00     0.015 SA
ATOM      6  C4  UNL d   1       1.667  -1.111   3.265  0.00  0.00     0.022 A 
ATOM      7  C5  UNL d   1       0.538  -1.771   3.691  0.00  0.00     0.026 A 
ATOM      8  C6  UNL d   1      -0.641  -1.381   2.970  0.00  0.00    -0.082 A 
ATOM      9  C7  UNL d   1      -1.983  -1.813   3.097  0.00  0.00     0.045 A 
ENDROOT
TORSDOF 0
ENDMDL
