MODEL 1
REMARK minimizedAffinity 2.81077814
REMARK minimizedRMSD -1
REMARK  0 active torsions:
REMARK  status: ('A' for Active; 'I' for Inactive)
ROOT
ATOM      1  C   UNL d   1      -0.756  -1.767  -1.027  0.00  0.00    -0.002 A 
ATOM      2  C1  UNL d   1      -2.133  -1.779  -1.202  0.00  0.00     0.010 A 
ATOM      3  C2  UNL d   1      -2.975  -1.204  -0.248  0.00  0.00     0.041 A 
ATOM      4  C3  UNL d   1      -2.404  -0.609   0.895  0.00  0.00    -0.075 A 
ATOM      5  S   UNL d   1      -3.239   0.157   2.194  0.00  0.00     0.015 SA
ATOM      6  C4  UNL d   1      -1.788   0.519   3.011  0.00  0.00     0.022 A 
ATOM      7  C5  UNL d   1      -0.684   0.074   2.324  0.00  0.00     0.026 A 
ATOM      8  C6  UNL d   1      -1.021  -0.584   1.092  0.00  0.00    -0.082 A 
ATOM      9  C7  UNL d   1      -0.194  -1.176   0.108  0.00  0.00     0.045 A 
ENDROOT
TORSDOF 0
ENDMDL
