MODEL 1
REMARK minimizedAffinity 1.73246324
REMARK minimizedRMSD -1
REMARK  0 active torsions:
REMARK  status: ('A' for Active; 'I' for Inactive)
ROOT
ATOM      1  C   UNL d   1      -0.531  -0.653   2.302  0.00  0.00    -0.002 A 
ATOM      2  C1  UNL d   1      -1.132   0.390   2.993  0.00  0.00     0.010 A 
ATOM      3  C2  UNL d   1      -2.357   0.909   2.571  0.00  0.00     0.041 A 
ATOM      4  C3  UNL d   1      -2.976   0.355   1.433  0.00  0.00    -0.075 A 
ATOM      5  S   UNL d   1      -4.479   0.829   0.733  0.00  0.00     0.015 SA
ATOM      6  C4  UNL d   1      -4.359  -0.342  -0.500  0.00  0.00     0.022 A 
ATOM      7  C5  UNL d   1      -3.207  -1.085  -0.395  0.00  0.00     0.026 A 
ATOM      8  C6  UNL d   1      -2.392  -0.696   0.721  0.00  0.00    -0.082 A 
ATOM      9  C7  UNL d   1      -1.148  -1.200   1.174  0.00  0.00     0.045 A 
ENDROOT
TORSDOF 0
ENDMDL
