MODEL 1
REMARK minimizedAffinity -4.31131697
REMARK minimizedRMSD -1
REMARK  0 active torsions:
REMARK  status: ('A' for Active; 'I' for Inactive)
ROOT
ATOM      1  C4' PXY d   1       0.774  -0.138   3.574  0.00  0.00     0.077 C 
ATOM      2  C1' PXY d   1      -1.086   1.680  -1.588  0.00  0.00     0.077 C 
ATOM      3  C1  PXY d   1      -0.601   1.216  -0.229  0.00  0.00    -0.082 A 
ATOM      4  C2  PXY d   1       0.248   0.204  -0.149  0.00  0.00     0.003 A 
ATOM      5  C3  PXY d   1       0.673  -0.250   1.073  0.00  0.00     0.003 A 
ATOM      6  C4  PXY d   1       0.265   0.372   2.223  0.00  0.00    -0.082 A 
ATOM      7  C5  PXY d   1      -0.593   1.411   2.149  0.00  0.00     0.003 A 
ATOM      8  C6  PXY d   1      -1.044   1.831   0.901  0.00  0.00     0.003 A 
ENDROOT
TORSDOF 0
ENDMDL
