MODEL 1
REMARK minimizedAffinity -0.272691399
REMARK minimizedRMSD -1
REMARK  0 active torsions:
REMARK  status: ('A' for Active; 'I' for Inactive)
ROOT
ATOM      1  C4' PXY d   1       0.442   0.970  -1.867  0.00  0.00     0.077 C 
ATOM      2  C1' PXY d   1      -1.367  -4.410  -0.773  0.00  0.00     0.077 C 
ATOM      3  C1  PXY d   1      -0.899  -2.995  -1.050  0.00  0.00    -0.082 A 
ATOM      4  C2  PXY d   1      -0.549  -2.650  -2.278  0.00  0.00     0.003 A 
ATOM      5  C3  PXY d   1      -0.094  -1.383  -2.540  0.00  0.00     0.003 A 
ATOM      6  C4  PXY d   1      -0.046  -0.445  -1.544  0.00  0.00    -0.082 A 
ATOM      7  C5  PXY d   1      -0.411  -0.786  -0.290  0.00  0.00     0.003 A 
ATOM      8  C6  PXY d   1      -0.832  -2.088  -0.037  0.00  0.00     0.003 A 
ENDROOT
TORSDOF 0
ENDMDL
