MODEL 1
REMARK minimizedAffinity -4.34552574
REMARK minimizedRMSD -1
REMARK  0 active torsions:
REMARK  status: ('A' for Active; 'I' for Inactive)
ROOT
ATOM      1  C4' PXY d   1      -0.646   3.565   1.529  0.00  0.00     0.077 C 
ATOM      2  C1' PXY d   1       0.645  -1.642  -0.624  0.00  0.00     0.077 C 
ATOM      3  C1  PXY d   1       0.303  -0.282  -0.048  0.00  0.00    -0.082 A 
ATOM      4  C2  PXY d   1      -0.062   0.699  -0.857  0.00  0.00     0.003 A 
ATOM      5  C3  PXY d   1      -0.343   1.944  -0.357  0.00  0.00     0.003 A 
ATOM      6  C4  PXY d   1      -0.301   2.173   0.993  0.00  0.00    -0.082 A 
ATOM      7  C5  PXY d   1       0.060   1.175   1.826  0.00  0.00     0.003 A 
ATOM      8  C6  PXY d   1       0.382  -0.070   1.294  0.00  0.00     0.003 A 
ENDROOT
TORSDOF 0
ENDMDL
