MODEL 1
REMARK minimizedAffinity -2.31749558
REMARK minimizedRMSD -1
REMARK  0 active torsions:
REMARK  status: ('A' for Active; 'I' for Inactive)
ROOT
ATOM      1  C4' PXY d   1       0.645   1.817   2.544  0.00  0.00     0.077 C 
ATOM      2  C1' PXY d   1       0.175   1.292  -3.193  0.00  0.00     0.077 C 
ATOM      3  C1  PXY d   1       0.295   1.417  -1.687  0.00  0.00    -0.082 A 
ATOM      4  C2  PXY d   1       0.180   2.606  -1.119  0.00  0.00     0.003 A 
ATOM      5  C3  PXY d   1       0.318   2.742   0.239  0.00  0.00     0.003 A 
ATOM      6  C4  PXY d   1       0.521   1.642   1.028  0.00  0.00    -0.082 A 
ATOM      7  C5  PXY d   1       0.628   0.424   0.456  0.00  0.00     0.003 A 
ATOM      8  C6  PXY d   1       0.527   0.313  -0.927  0.00  0.00     0.003 A 
ENDROOT
TORSDOF 0
ENDMDL
