MODEL 1
REMARK minimizedAffinity -4.86053896
REMARK minimizedRMSD -1
REMARK  0 active torsions:
REMARK  status: ('A' for Active; 'I' for Inactive)
ROOT
ATOM      1  C4' PXY d   1       0.400   2.214   2.267  0.00  0.00     0.077 C 
ATOM      2  C1' PXY d   1      -0.566  -2.390  -1.093  0.00  0.00     0.077 C 
ATOM      3  C1  PXY d   1      -0.321  -1.176  -0.219  0.00  0.00    -0.082 A 
ATOM      4  C2  PXY d   1       0.840  -1.038   0.399  0.00  0.00     0.003 A 
ATOM      5  C3  PXY d   1       1.066   0.038   1.219  0.00  0.00     0.003 A 
ATOM      6  C4  PXY d   1       0.113   1.009   1.366  0.00  0.00    -0.082 A 
ATOM      7  C5  PXY d   1      -1.071   0.881   0.731  0.00  0.00     0.003 A 
ATOM      8  C6  PXY d   1      -1.296  -0.239  -0.064  0.00  0.00     0.003 A 
ENDROOT
TORSDOF 0
ENDMDL
