MODEL 1
REMARK minimizedAffinity -3.46688342
REMARK minimizedRMSD -1
REMARK  0 active torsions:
REMARK  status: ('A' for Active; 'I' for Inactive)
ROOT
ATOM      1  C4' PXY d   1      -0.945   3.879   0.668  0.00  0.00     0.077 C 
ATOM      2  C1' PXY d   1       0.501  -1.458  -1.015  0.00  0.00     0.077 C 
ATOM      3  C1  PXY d   1       0.126  -0.054  -0.585  0.00  0.00    -0.082 A 
ATOM      4  C2  PXY d   1       0.054   0.239   0.704  0.00  0.00     0.003 A 
ATOM      5  C3  PXY d   1      -0.315   1.495   1.110  0.00  0.00     0.003 A 
ATOM      6  C4  PXY d   1      -0.561   2.477   0.188  0.00  0.00    -0.082 A 
ATOM      7  C5  PXY d   1      -0.479   2.190  -1.128  0.00  0.00     0.003 A 
ATOM      8  C6  PXY d   1      -0.143   0.897  -1.520  0.00  0.00     0.003 A 
ENDROOT
TORSDOF 0
ENDMDL
