MODEL 1
REMARK minimizedAffinity 3.76979518
REMARK minimizedRMSD -1
REMARK  0 active torsions:
REMARK  status: ('A' for Active; 'I' for Inactive)
ROOT
ATOM      1  C4' PXY d   1       1.164  -0.915   5.713  0.00  0.00     0.077 C 
ATOM      2  C1' PXY d   1       1.130   0.141   0.030  0.00  0.00     0.077 C 
ATOM      3  C1  PXY d   1       1.135  -0.123   1.523  0.00  0.00    -0.082 A 
ATOM      4  C2  PXY d   1       1.875  -1.106   2.010  0.00  0.00     0.003 A 
ATOM      5  C3  PXY d   1       1.866  -1.380   3.354  0.00  0.00     0.003 A 
ATOM      6  C4  PXY d   1       1.135  -0.605   4.214  0.00  0.00    -0.082 A 
ATOM      7  C5  PXY d   1       0.386   0.406   3.726  0.00  0.00     0.003 A 
ATOM      8  C6  PXY d   1       0.376   0.641   2.354  0.00  0.00     0.003 A 
ENDROOT
TORSDOF 0
ENDMDL
