MODEL 1
REMARK minimizedAffinity -2.78563857
REMARK minimizedRMSD -1
REMARK  0 active torsions:
REMARK  status: ('A' for Active; 'I' for Inactive)
ROOT
ATOM      1  C4' PXY d   1      -2.661   1.182  -1.178  0.00  0.00     0.077 C 
ATOM      2  C1' PXY d   1       1.855  -0.473   2.030  0.00  0.00     0.077 C 
ATOM      3  C1  PXY d   1       0.679  -0.038   1.178  0.00  0.00    -0.082 A 
ATOM      4  C2  PXY d   1      -0.386   0.496   1.756  0.00  0.00     0.003 A 
ATOM      5  C3  PXY d   1      -1.471   0.865   1.004  0.00  0.00     0.003 A 
ATOM      6  C4  PXY d   1      -1.446   0.737  -0.359  0.00  0.00    -0.082 A 
ATOM      7  C5  PXY d   1      -0.360   0.204  -0.957  0.00  0.00     0.003 A 
ATOM      8  C6  PXY d   1       0.715  -0.203  -0.172  0.00  0.00     0.003 A 
ENDROOT
TORSDOF 0
ENDMDL
