MODEL 1
REMARK minimizedAffinity -3.9274528
REMARK minimizedRMSD -1
REMARK  0 active torsions:
REMARK  status: ('A' for Active; 'I' for Inactive)
ROOT
ATOM      1  C4' PXY d   1      -0.198   1.877  -0.910  0.00  0.00     0.077 C 
ATOM      2  C1' PXY d   1       1.927  -0.725   3.794  0.00  0.00     0.077 C 
ATOM      3  C1  PXY d   1       1.361  -0.037   2.568  0.00  0.00    -0.082 A 
ATOM      4  C2  PXY d   1       1.529  -0.584   1.375  0.00  0.00     0.003 A 
ATOM      5  C3  PXY d   1       1.051   0.041   0.252  0.00  0.00     0.003 A 
ATOM      6  C4  PXY d   1       0.348   1.212   0.356  0.00  0.00    -0.082 A 
ATOM      7  C5  PXY d   1       0.164   1.771   1.571  0.00  0.00     0.003 A 
ATOM      8  C6  PXY d   1       0.693   1.141   2.694  0.00  0.00     0.003 A 
ENDROOT
TORSDOF 0
ENDMDL
