MODEL 1
REMARK minimizedAffinity -4.79904509
REMARK minimizedRMSD -1
REMARK  0 active torsions:
REMARK  status: ('A' for Active; 'I' for Inactive)
ROOT
ATOM      1  C4' PXY d   1      -1.130   2.483  -1.670  0.00  0.00     0.077 C 
ATOM      2  C1' PXY d   1       0.835  -0.263   3.023  0.00  0.00     0.077 C 
ATOM      3  C1  PXY d   1       0.310   0.462   1.799  0.00  0.00    -0.082 A 
ATOM      4  C2  PXY d   1       0.609   0.010   0.592  0.00  0.00     0.003 A 
ATOM      5  C3  PXY d   1       0.169   0.671  -0.525  0.00  0.00     0.003 A 
ATOM      6  C4  PXY d   1      -0.629   1.777  -0.406  0.00  0.00    -0.082 A 
ATOM      7  C5  PXY d   1      -0.947   2.239   0.822  0.00  0.00     0.003 A 
ATOM      8  C6  PXY d   1      -0.457   1.577   1.943  0.00  0.00     0.003 A 
ENDROOT
TORSDOF 0
ENDMDL
