MODEL 1
REMARK minimizedAffinity -5.34831285
REMARK minimizedRMSD -1
REMARK  0 active torsions:
REMARK  status: ('A' for Active; 'I' for Inactive)
ROOT
ATOM      1  C1  DEN d   1       0.302  -0.460  -0.943  0.00  0.00     0.130 A 
ATOM      2  C2  DEN d   1       0.889  -1.298   0.099  0.00  0.00    -0.031 A 
ATOM      3  C3  DEN d   1       0.726  -0.601   1.391  0.00  0.00     0.027 A 
ATOM      4  C4  DEN d   1      -0.376   1.680   1.876  0.00  0.00     0.027 A 
ATOM      5  C5  DEN d   1      -1.005   2.766   1.308  0.00  0.00    -0.003 A 
ATOM      6  C6  DEN d   1      -1.211   2.867  -0.042  0.00  0.00     0.001 A 
ATOM      7  C7  DEN d   1      -0.823   1.844  -0.866  0.00  0.00     0.017 A 
ATOM      8  C8  DEN d   1      -0.181   0.749  -0.303  0.00  0.00    -0.094 A 
ATOM      9  C9  DEN d   1       0.006   0.660   1.066  0.00  0.00    -0.072 A 
ENDROOT
TORSDOF 0
ENDMDL
