MODEL 1
REMARK minimizedAffinity 7.38559008
REMARK minimizedRMSD -1
REMARK  0 active torsions:
REMARK  status: ('A' for Active; 'I' for Inactive)
ROOT
ATOM      1  C1  DEN d   1      -0.804  -1.495   2.960  0.00  0.00     0.130 A 
ATOM      2  C2  DEN d   1      -2.015  -1.205   2.198  0.00  0.00    -0.031 A 
ATOM      3  C3  DEN d   1      -1.642  -0.341   1.060  0.00  0.00     0.027 A 
ATOM      4  C4  DEN d   1       0.682   0.566   0.404  0.00  0.00     0.027 A 
ATOM      5  C5  DEN d   1       2.013   0.599   0.753  0.00  0.00    -0.003 A 
ATOM      6  C6  DEN d   1       2.490  -0.031   1.873  0.00  0.00     0.001 A 
ATOM      7  C7  DEN d   1       1.636  -0.758   2.658  0.00  0.00     0.017 A 
ATOM      8  C8  DEN d   1       0.290  -0.790   2.316  0.00  0.00    -0.094 A 
ATOM      9  C9  DEN d   1      -0.170  -0.157   1.174  0.00  0.00    -0.072 A 
ENDROOT
TORSDOF 0
ENDMDL
