MODEL 1
REMARK minimizedAffinity 7.26222849
REMARK minimizedRMSD -1
REMARK  0 active torsions:
REMARK  status: ('A' for Active; 'I' for Inactive)
ROOT
ATOM      1  C1  DEN d   1       0.098  -2.681  -1.178  0.00  0.00     0.130 A 
ATOM      2  C2  DEN d   1      -1.268  -3.193  -1.248  0.00  0.00    -0.031 A 
ATOM      3  C3  DEN d   1      -1.257  -4.589  -0.767  0.00  0.00     0.027 A 
ATOM      4  C4  DEN d   1       0.730  -5.999   0.079  0.00  0.00     0.027 A 
ATOM      5  C5  DEN d   1       2.088  -6.000   0.311  0.00  0.00    -0.003 A 
ATOM      6  C6  DEN d   1       2.876  -4.915   0.033  0.00  0.00     0.001 A 
ATOM      7  C7  DEN d   1       2.306  -3.767  -0.451  0.00  0.00     0.017 A 
ATOM      8  C8  DEN d   1       0.939  -3.761  -0.694  0.00  0.00    -0.094 A 
ATOM      9  C9  DEN d   1       0.157  -4.864  -0.396  0.00  0.00    -0.072 A 
ENDROOT
TORSDOF 0
ENDMDL
