MODEL 1
REMARK minimizedAffinity -1.43798709
REMARK minimizedRMSD -1
REMARK  0 active torsions:
REMARK  status: ('A' for Active; 'I' for Inactive)
ROOT
ATOM      1  C1  DEN d   1       0.232   0.321  -1.672  0.00  0.00     0.130 A 
ATOM      2  C2  DEN d   1       0.634  -1.016  -1.245  0.00  0.00    -0.031 A 
ATOM      3  C3  DEN d   1       0.576  -1.062   0.230  0.00  0.00     0.027 A 
ATOM      4  C4  DEN d   1      -0.101   0.797   1.885  0.00  0.00     0.027 A 
ATOM      5  C5  DEN d   1      -0.510   2.107   1.995  0.00  0.00    -0.003 A 
ATOM      6  C6  DEN d   1      -0.667   2.918   0.903  0.00  0.00     0.001 A 
ATOM      7  C7  DEN d   1      -0.456   2.412  -0.353  0.00  0.00     0.017 A 
ATOM      8  C8  DEN d   1      -0.036   1.094  -0.472  0.00  0.00    -0.094 A 
ATOM      9  C9  DEN d   1       0.105   0.287   0.644  0.00  0.00    -0.072 A 
ENDROOT
TORSDOF 0
ENDMDL
