MODEL 1
REMARK minimizedAffinity -6.99342918
REMARK minimizedRMSD -1
REMARK  0 active torsions:
REMARK  status: ('A' for Active; 'I' for Inactive)
ROOT
ATOM      1  C1  DEN d   1      -0.660   2.404  -1.507  0.00  0.00     0.130 A 
ATOM      2  C2  DEN d   1      -0.975   3.734  -0.991  0.00  0.00    -0.031 A 
ATOM      3  C3  DEN d   1      -0.767   3.717   0.471  0.00  0.00     0.027 A 
ATOM      4  C4  DEN d   1       0.012   1.774   1.977  0.00  0.00     0.027 A 
ATOM      5  C5  DEN d   1       0.388   0.449   1.995  0.00  0.00    -0.003 A 
ATOM      6  C6  DEN d   1       0.408  -0.320   0.862  0.00  0.00     0.001 A 
ATOM      7  C7  DEN d   1       0.089   0.242  -0.346  0.00  0.00     0.017 A 
ATOM      8  C8  DEN d   1      -0.298   1.576  -0.371  0.00  0.00    -0.094 A 
ATOM      9  C9  DEN d   1      -0.301   2.339   0.784  0.00  0.00    -0.072 A 
ENDROOT
TORSDOF 0
ENDMDL
