MODEL 1
REMARK minimizedAffinity -6.30248594
REMARK minimizedRMSD -1
REMARK  0 active torsions:
REMARK  status: ('A' for Active; 'I' for Inactive)
ROOT
ATOM      1  C1  DEN d   1       0.870  -0.090   1.262  0.00  0.00     0.130 A 
ATOM      2  C2  DEN d   1       1.279  -0.651  -0.022  0.00  0.00    -0.031 A 
ATOM      3  C3  DEN d   1       0.672   0.166  -1.092  0.00  0.00     0.027 A 
ATOM      4  C4  DEN d   1      -0.850   2.238  -0.885  0.00  0.00     0.027 A 
ATOM      5  C5  DEN d   1      -1.482   3.082   0.001  0.00  0.00    -0.003 A 
ATOM      6  C6  DEN d   1      -1.404   2.909   1.357  0.00  0.00     0.001 A 
ATOM      7  C7  DEN d   1      -0.639   1.895   1.869  0.00  0.00     0.017 A 
ATOM      8  C8  DEN d   1      -0.004   1.035   0.982  0.00  0.00    -0.094 A 
ATOM      9  C9  DEN d   1      -0.086   1.234  -0.386  0.00  0.00    -0.072 A 
ENDROOT
TORSDOF 0
ENDMDL
