MODEL 1
REMARK minimizedAffinity -3.73398447
REMARK minimizedRMSD -1
REMARK  0 active torsions:
REMARK  status: ('A' for Active; 'I' for Inactive)
ROOT
ATOM      1  C1  DEN d   1      -0.819   3.337   0.343  0.00  0.00     0.130 A 
ATOM      2  C2  DEN d   1      -0.883   3.314   1.802  0.00  0.00    -0.031 A 
ATOM      3  C3  DEN d   1      -0.540   1.950   2.252  0.00  0.00     0.027 A 
ATOM      4  C4  DEN d   1       0.087  -0.115   0.840  0.00  0.00     0.027 A 
ATOM      5  C5  DEN d   1       0.264  -0.587  -0.442  0.00  0.00    -0.003 A 
ATOM      6  C6  DEN d   1       0.061   0.201  -1.544  0.00  0.00     0.001 A 
ATOM      7  C7  DEN d   1      -0.287   1.516  -1.384  0.00  0.00     0.017 A 
ATOM      8  C8  DEN d   1      -0.475   1.996  -0.095  0.00  0.00    -0.094 A 
ATOM      9  C9  DEN d   1      -0.253   1.188   1.007  0.00  0.00    -0.072 A 
ENDROOT
TORSDOF 0
ENDMDL
