MODEL 1
REMARK minimizedAffinity 15.5659027
REMARK minimizedRMSD -1
REMARK  3 active torsions:
REMARK  status: ('A' for Active; 'I' for Inactive)
REMARK    1  A    between atoms: C3'_2  and  C2'_3 
REMARK    2  A    between atoms: C2'_3  and  C1'_4 
REMARK    3  A    between atoms: C1'_4  and  C1_5 
ROOT
ATOM      1  C1  N4B d   1       2.051   0.321   0.205  0.00  0.00    -0.075 A 
ATOM      2  C2  N4B d   1       1.142   0.729  -0.796  0.00  0.00     0.002 A 
ATOM      3  C3  N4B d   1      -0.028   1.358  -0.446  0.00  0.00     0.002 A 
ATOM      4  C4  N4B d   1      -0.317   1.572   0.894  0.00  0.00    -0.004 A 
ATOM      5  C5  N4B d   1       0.579   1.198   1.853  0.00  0.00     0.002 A 
ATOM      6  C6  N4B d   1       1.760   0.569   1.515  0.00  0.00     0.002 A 
ENDROOT
BRANCH   1   7
ATOM      7  C1' N4B d   1       3.303  -0.446  -0.124  0.00  0.00     0.057 C 
BRANCH   7   8
ATOM      8  C2' N4B d   1       3.702  -0.158  -1.568  0.00  0.00     0.009 C 
BRANCH   8   9
ATOM      9  C3' N4B d   1       4.559   1.091  -1.683  0.00  0.00     0.004 C 
ATOM     10  C4' N4B d   1       5.668   0.944  -2.681  0.00  0.00     0.003 C 
ENDBRANCH   8   9
ENDBRANCH   7   8
ENDBRANCH   1   7
TORSDOF 3
ENDMDL
