MODEL 1
REMARK minimizedAffinity 14.1641684
REMARK minimizedRMSD -1
REMARK  3 active torsions:
REMARK  status: ('A' for Active; 'I' for Inactive)
REMARK    1  A    between atoms: C3'_2  and  C2'_3 
REMARK    2  A    between atoms: C2'_3  and  C1'_4 
REMARK    3  A    between atoms: C1'_4  and  C1_5 
ROOT
ATOM      1  C1  N4B d   1       4.703   0.938  -0.742  0.00  0.00    -0.075 A 
ATOM      2  C2  N4B d   1       3.810   0.069  -0.078  0.00  0.00     0.002 A 
ATOM      3  C3  N4B d   1       3.264  -0.998  -0.749  0.00  0.00     0.002 A 
ATOM      4  C4  N4B d   1       3.581  -1.203  -2.084  0.00  0.00    -0.004 A 
ATOM      5  C5  N4B d   1       4.464  -0.374  -2.710  0.00  0.00     0.002 A 
ATOM      6  C6  N4B d   1       5.023   0.700  -2.047  0.00  0.00     0.002 A 
ENDROOT
BRANCH   1   7
ATOM      7  C1' N4B d   1       5.258   2.167  -0.075  0.00  0.00     0.057 C 
BRANCH   7   8
ATOM      8  C2' N4B d   1       5.332   3.300  -1.094  0.00  0.00     0.009 C 
BRANCH   8   9
ATOM      9  C3' N4B d   1       5.969   4.549  -0.510  0.00  0.00     0.004 C 
ATOM     10  C4' N4B d   1       5.991   5.696  -1.476  0.00  0.00     0.003 C 
ENDBRANCH   8   9
ENDBRANCH   7   8
ENDBRANCH   1   7
TORSDOF 3
ENDMDL
