MODEL 1
REMARK minimizedAffinity 6.71752739
REMARK minimizedRMSD -1
REMARK  3 active torsions:
REMARK  status: ('A' for Active; 'I' for Inactive)
REMARK    1  A    between atoms: C3'_2  and  C2'_3 
REMARK    2  A    between atoms: C2'_3  and  C1'_4 
REMARK    3  A    between atoms: C1'_4  and  C1_5 
ROOT
ATOM      1  C1  N4B d   1      -2.336   0.197  -3.413  0.00  0.00    -0.075 A 
ATOM      2  C2  N4B d   1      -3.704  -0.142  -3.318  0.00  0.00     0.002 A 
ATOM      3  C3  N4B d   1      -4.586   0.288  -4.280  0.00  0.00     0.002 A 
ATOM      4  C4  N4B d   1      -4.128   1.070  -5.330  0.00  0.00    -0.004 A 
ATOM      5  C5  N4B d   1      -2.801   1.372  -5.427  0.00  0.00     0.002 A 
ATOM      6  C6  N4B d   1      -1.903   0.943  -4.470  0.00  0.00     0.002 A 
ENDROOT
BRANCH   1   7
ATOM      7  C1' N4B d   1      -1.350  -0.178  -2.341  0.00  0.00     0.057 C 
BRANCH   7   8
ATOM      8  C2' N4B d   1      -0.794   1.094  -1.705  0.00  0.00     0.009 C 
BRANCH   8   9
ATOM      9  C3' N4B d   1      -0.255   0.841  -0.308  0.00  0.00     0.004 C 
ATOM     10  C4' N4B d   1      -0.727   1.858   0.689  0.00  0.00     0.003 C 
ENDBRANCH   8   9
ENDBRANCH   7   8
ENDBRANCH   1   7
TORSDOF 3
ENDMDL
