MODEL 1
REMARK minimizedAffinity 11.6779547
REMARK minimizedRMSD -1
REMARK  3 active torsions:
REMARK  status: ('A' for Active; 'I' for Inactive)
REMARK    1  A    between atoms: C3'_2  and  C2'_3 
REMARK    2  A    between atoms: C2'_3  and  C1'_4 
REMARK    3  A    between atoms: C1'_4  and  C1_5 
ROOT
ATOM      1  C1  N4B d   1       3.633   0.360  -0.513  0.00  0.00    -0.075 A 
ATOM      2  C2  N4B d   1       3.899   1.485   0.298  0.00  0.00     0.002 A 
ATOM      3  C3  N4B d   1       5.072   2.181   0.143  0.00  0.00     0.002 A 
ATOM      4  C4  N4B d   1       6.000   1.761  -0.798  0.00  0.00    -0.004 A 
ATOM      5  C5  N4B d   1       5.725   0.688  -1.594  0.00  0.00     0.002 A 
ATOM      6  C6  N4B d   1       4.548  -0.018  -1.453  0.00  0.00     0.002 A 
ENDROOT
BRANCH   1   7
ATOM      7  C1' N4B d   1       2.403  -0.484  -0.322  0.00  0.00     0.057 C 
BRANCH   7   8
ATOM      8  C2' N4B d   1       2.650  -1.870  -0.910  0.00  0.00     0.009 C 
BRANCH   8   9
ATOM      9  C3' N4B d   1       1.915  -2.954  -0.139  0.00  0.00     0.004 C 
ATOM     10  C4' N4B d   1       0.884  -3.659  -0.970  0.00  0.00     0.003 C 
ENDBRANCH   8   9
ENDBRANCH   7   8
ENDBRANCH   1   7
TORSDOF 3
ENDMDL
