MODEL 1
REMARK minimizedAffinity 1.43484151
REMARK minimizedRMSD -1
REMARK  1 active torsions:
REMARK  status: ('A' for Active; 'I' for Inactive)
REMARK    1  A    between atoms: C1_2  and  C2_3 
ROOT
ATOM      1  C2  UNL d   1       4.429   3.329   5.322  0.00  0.00    -0.077 A 
ATOM      2  C3  UNL d   1       5.729   3.726   5.669  0.00  0.00     0.002 A 
ATOM      3  C4  UNL d   1       5.996   5.056   6.000  0.00  0.00     0.002 A 
ATOM      4  C5  UNL d   1       4.969   5.998   5.992  0.00  0.00    -0.004 A 
ATOM      5  C6  UNL d   1       3.674   5.613   5.647  0.00  0.00     0.002 A 
ATOM      6  C7  UNL d   1       3.405   4.284   5.314  0.00  0.00     0.002 A 
ENDROOT
BRANCH   1   7
ATOM      7  C1  UNL d   1       4.129   1.886   5.013  0.00  0.00     0.055 C 
ATOM      8  C   UNL d   1       3.050   1.335   5.934  0.00  0.00     0.019 C 
ENDBRANCH   1   7
TORSDOF 1
ENDMDL
