MODEL 1
REMARK minimizedAffinity -5.29722452
REMARK minimizedRMSD -1
REMARK  1 active torsions:
REMARK  status: ('A' for Active; 'I' for Inactive)
REMARK    1  A    between atoms: C1_2  and  C2_3 
ROOT
ATOM      1  C2  UNL d   1       4.052   3.375   5.064  0.00  0.00    -0.077 A 
ATOM      2  C3  UNL d   1       3.009   3.372   4.127  0.00  0.00     0.002 A 
ATOM      3  C4  UNL d   1       2.062   2.346   4.127  0.00  0.00     0.002 A 
ATOM      4  C5  UNL d   1       2.146   1.319   5.064  0.00  0.00    -0.004 A 
ATOM      5  C6  UNL d   1       3.180   1.312   5.999  0.00  0.00     0.002 A 
ATOM      6  C7  UNL d   1       4.128   2.335   6.000  0.00  0.00     0.002 A 
ENDROOT
BRANCH   1   7
ATOM      7  C1  UNL d   1       5.046   4.506   5.097  0.00  0.00     0.055 C 
ATOM      8  C   UNL d   1       4.356   5.854   4.938  0.00  0.00     0.019 C 
ENDBRANCH   1   7
TORSDOF 1
ENDMDL
