MODEL 1
REMARK minimizedAffinity -2.32651448
REMARK minimizedRMSD -1
REMARK  1 active torsions:
REMARK  status: ('A' for Active; 'I' for Inactive)
REMARK    1  A    between atoms: C1_2  and  C2_3 
ROOT
ATOM      1  C2  UNL d   1       3.323  -0.107  -0.169  0.00  0.00    -0.077 A 
ATOM      2  C3  UNL d   1       2.391  -0.526  -1.129  0.00  0.00     0.002 A 
ATOM      3  C4  UNL d   1       1.745  -1.756  -0.996  0.00  0.00     0.002 A 
ATOM      4  C5  UNL d   1       2.020  -2.575   0.097  0.00  0.00    -0.004 A 
ATOM      5  C6  UNL d   1       2.947  -2.169   1.056  0.00  0.00     0.002 A 
ATOM      6  C7  UNL d   1       3.595  -0.940   0.924  0.00  0.00     0.002 A 
ENDROOT
BRANCH   1   7
ATOM      7  C1  UNL d   1       3.985   1.241  -0.284  0.00  0.00     0.055 C 
ATOM      8  C   UNL d   1       4.686   1.401  -1.625  0.00  0.00     0.019 C 
ENDBRANCH   1   7
TORSDOF 1
ENDMDL
