MODEL 1
REMARK minimizedAffinity -2.95016432
REMARK minimizedRMSD -1
REMARK  1 active torsions:
REMARK  status: ('A' for Active; 'I' for Inactive)
REMARK    1  A    between atoms: C1_2  and  C2_3 
ROOT
ATOM      1  C2  UNL d   1       3.511   3.153   5.481  0.00  0.00    -0.077 A 
ATOM      2  C3  UNL d   1       3.004   4.409   5.845  0.00  0.00     0.002 A 
ATOM      3  C4  UNL d   1       3.863   5.499   5.999  0.00  0.00     0.002 A 
ATOM      4  C5  UNL d   1       5.231   5.346   5.787  0.00  0.00    -0.004 A 
ATOM      5  C6  UNL d   1       5.745   4.101   5.427  0.00  0.00     0.002 A 
ATOM      6  C7  UNL d   1       4.889   3.009   5.274  0.00  0.00     0.002 A 
ENDROOT
BRANCH   1   7
ATOM      7  C1  UNL d   1       2.581   1.988   5.267  0.00  0.00     0.055 C 
ATOM      8  C   UNL d   1       3.070   0.747   6.000  0.00  0.00     0.019 C 
ENDBRANCH   1   7
TORSDOF 1
ENDMDL
