MODEL 1
REMARK minimizedAffinity -3.66558075
REMARK minimizedRMSD -1
REMARK  1 active torsions:
REMARK  status: ('A' for Active; 'I' for Inactive)
REMARK    1  A    between atoms: C1_2  and  C2_3 
ROOT
ATOM      1  C2  UNL d   1       3.998   3.621   4.825  0.00  0.00    -0.077 A 
ATOM      2  C3  UNL d   1       3.447   4.910   4.823  0.00  0.00     0.002 A 
ATOM      3  C4  UNL d   1       4.139   5.974   5.406  0.00  0.00     0.002 A 
ATOM      4  C5  UNL d   1       5.385   5.761   5.990  0.00  0.00    -0.004 A 
ATOM      5  C6  UNL d   1       5.940   4.481   5.999  0.00  0.00     0.002 A 
ATOM      6  C7  UNL d   1       5.250   3.417   5.419  0.00  0.00     0.002 A 
ENDROOT
BRANCH   1   7
ATOM      7  C1  UNL d   1       3.276   2.482   4.154  0.00  0.00     0.055 C 
ATOM      8  C   UNL d   1       2.647   1.546   5.176  0.00  0.00     0.019 C 
ENDBRANCH   1   7
TORSDOF 1
ENDMDL
