MODEL 1
REMARK minimizedAffinity -5.24343252
REMARK minimizedRMSD -1
REMARK  1 active torsions:
REMARK  status: ('A' for Active; 'I' for Inactive)
REMARK    1  A    between atoms: C1_2  and  C2_3 
ROOT
ATOM      1  C2  UNL d   1       1.837   4.352   4.329  0.00  0.00    -0.077 A 
ATOM      2  C3  UNL d   1       2.977   4.134   3.543  0.00  0.00     0.002 A 
ATOM      3  C4  UNL d   1       3.985   3.274   3.984  0.00  0.00     0.002 A 
ATOM      4  C5  UNL d   1       3.861   2.623   5.210  0.00  0.00    -0.004 A 
ATOM      5  C6  UNL d   1       2.732   2.835   6.000  0.00  0.00     0.002 A 
ATOM      6  C7  UNL d   1       1.724   3.695   5.561  0.00  0.00     0.002 A 
ENDROOT
BRANCH   1   7
ATOM      7  C1  UNL d   1       0.727   5.241   3.833  0.00  0.00     0.055 C 
ATOM      8  C   UNL d   1       0.608   5.185   2.317  0.00  0.00     0.019 C 
ENDBRANCH   1   7
TORSDOF 1
ENDMDL
