MODEL 1
REMARK minimizedAffinity -3.47469902
REMARK minimizedRMSD -1
REMARK  1 active torsions:
REMARK  status: ('A' for Active; 'I' for Inactive)
REMARK    1  A    between atoms: C1_2  and  C2_3 
ROOT
ATOM      1  C2  UNL d   1       2.224   4.915   5.753  0.00  0.00    -0.077 A 
ATOM      2  C3  UNL d   1       3.112   6.000   5.732  0.00  0.00     0.002 A 
ATOM      3  C4  UNL d   1       4.467   5.798   5.461  0.00  0.00     0.002 A 
ATOM      4  C5  UNL d   1       4.944   4.515   5.205  0.00  0.00    -0.004 A 
ATOM      5  C6  UNL d   1       4.069   3.429   5.226  0.00  0.00     0.002 A 
ATOM      6  C7  UNL d   1       2.715   3.629   5.498  0.00  0.00     0.002 A 
ENDROOT
BRANCH   1   7
ATOM      7  C1  UNL d   1       0.754   5.137   5.997  0.00  0.00     0.055 C 
ATOM      8  C   UNL d   1       0.096   5.835   4.816  0.00  0.00     0.019 C 
ENDBRANCH   1   7
TORSDOF 1
ENDMDL
