MODEL 1
REMARK minimizedAffinity 0.691220105
REMARK minimizedRMSD -1
REMARK  1 active torsions:
REMARK  status: ('A' for Active; 'I' for Inactive)
REMARK    1  A    between atoms: C1_2  and  C2_3 
ROOT
ATOM      1  C2  UNL d   1       2.622   4.389   5.447  0.00  0.00    -0.077 A 
ATOM      2  C3  UNL d   1       3.738   5.237   5.486  0.00  0.00     0.002 A 
ATOM      3  C4  UNL d   1       4.972   4.804   4.997  0.00  0.00     0.002 A 
ATOM      4  C5  UNL d   1       5.101   3.524   4.462  0.00  0.00    -0.004 A 
ATOM      5  C6  UNL d   1       3.998   2.672   4.421  0.00  0.00     0.002 A 
ATOM      6  C7  UNL d   1       2.764   3.103   4.910  0.00  0.00     0.002 A 
ENDROOT
BRANCH   1   7
ATOM      7  C1  UNL d   1       1.279   4.872   5.928  0.00  0.00     0.055 C 
ATOM      8  C   UNL d   1       0.593   5.735   4.879  0.00  0.00     0.019 C 
ENDBRANCH   1   7
TORSDOF 1
ENDMDL
