MODEL 1
REMARK minimizedAffinity -3.67537165
REMARK minimizedRMSD -1
REMARK  0 active torsions:
REMARK  status: ('A' for Active; 'I' for Inactive)
ROOT
ATOM      1  C   UNL d   1       0.760   2.919  -0.211  0.00  0.00     0.077 C 
ATOM      2  C1  UNL d   1       0.496   1.462   0.026  0.00  0.00    -0.074 A 
ATOM      3  C2  UNL d   1      -0.758   0.905  -0.246  0.00  0.00    -0.005 A 
ATOM      4  C3  UNL d   1      -0.985  -0.454  -0.030  0.00  0.00     0.006 A 
ATOM      5  C4  UNL d   1       0.036  -1.268   0.459  0.00  0.00    -0.005 A 
ATOM      6  C5  UNL d   1       1.297  -0.729   0.736  0.00  0.00    -0.074 A 
ATOM      7  C6  UNL d   1       2.409  -1.593   1.253  0.00  0.00     0.077 C 
ATOM      8  C7  UNL d   1       1.520   0.636   0.510  0.00  0.00    -0.001 A 
ENDROOT
TORSDOF 0
ENDMDL
