MODEL 1
REMARK minimizedAffinity 2.20715737
REMARK minimizedRMSD -1
REMARK  0 active torsions:
REMARK  status: ('A' for Active; 'I' for Inactive)
ROOT
ATOM      1  C   UNL d   1       3.040  -0.786   0.792  0.00  0.00     0.077 C 
ATOM      2  C1  UNL d   1       1.932   0.173   0.472  0.00  0.00    -0.074 A 
ATOM      3  C2  UNL d   1       2.147   1.555   0.500  0.00  0.00    -0.005 A 
ATOM      4  C3  UNL d   1       1.110   2.434   0.191  0.00  0.00     0.006 A 
ATOM      5  C4  UNL d   1      -0.151   1.942  -0.149  0.00  0.00    -0.005 A 
ATOM      6  C5  UNL d   1      -0.384   0.564  -0.184  0.00  0.00    -0.074 A 
ATOM      7  C6  UNL d   1      -1.731   0.018  -0.557  0.00  0.00     0.077 C 
ATOM      8  C7  UNL d   1       0.665  -0.314   0.122  0.00  0.00    -0.001 A 
ENDROOT
TORSDOF 0
ENDMDL
