MODEL 1
REMARK minimizedAffinity -3.27929044
REMARK minimizedRMSD -1
REMARK  0 active torsions:
REMARK  status: ('A' for Active; 'I' for Inactive)
ROOT
ATOM      1  C   UNL d   1      -3.086   2.126   1.846  0.00  0.00     0.077 C 
ATOM      2  C1  UNL d   1      -2.194   1.265   1.002  0.00  0.00    -0.074 A 
ATOM      3  C2  UNL d   1      -2.731   0.326   0.115  0.00  0.00    -0.005 A 
ATOM      4  C3  UNL d   1      -1.889  -0.461  -0.671  0.00  0.00     0.006 A 
ATOM      5  C4  UNL d   1      -0.504  -0.317  -0.578  0.00  0.00    -0.005 A 
ATOM      6  C5  UNL d   1       0.051   0.618   0.302  0.00  0.00    -0.074 A 
ATOM      7  C6  UNL d   1       1.537   0.792   0.407  0.00  0.00     0.077 C 
ATOM      8  C7  UNL d   1      -0.802   1.409   1.084  0.00  0.00    -0.001 A 
ENDROOT
TORSDOF 0
ENDMDL
