MODEL 1
REMARK minimizedAffinity -4.36192274
REMARK minimizedRMSD -1
REMARK  0 active torsions:
REMARK  status: ('A' for Active; 'I' for Inactive)
ROOT
ATOM      1  C   UNL d   1       2.619  -1.392   0.998  0.00  0.00     0.077 C 
ATOM      2  C1  UNL d   1       1.326  -0.749   0.593  0.00  0.00    -0.074 A 
ATOM      3  C2  UNL d   1       0.101  -1.372   0.852  0.00  0.00    -0.005 A 
ATOM      4  C3  UNL d   1      -1.094  -0.757   0.478  0.00  0.00     0.006 A 
ATOM      5  C4  UNL d   1      -1.076   0.485  -0.157  0.00  0.00    -0.005 A 
ATOM      6  C5  UNL d   1       0.139   1.124  -0.423  0.00  0.00    -0.074 A 
ATOM      7  C6  UNL d   1       0.176   2.464  -1.096  0.00  0.00     0.077 C 
ATOM      8  C7  UNL d   1       1.335   0.503  -0.038  0.00  0.00    -0.001 A 
ENDROOT
TORSDOF 0
ENDMDL
