MODEL 1
REMARK minimizedAffinity -4.22691202
REMARK minimizedRMSD -1
REMARK  0 active torsions:
REMARK  status: ('A' for Active; 'I' for Inactive)
ROOT
ATOM      1  C   UNL d   1       2.689  -1.092   1.159  0.00  0.00     0.077 C 
ATOM      2  C1  UNL d   1       1.717  -0.066   0.658  0.00  0.00    -0.074 A 
ATOM      3  C2  UNL d   1       2.129   1.242   0.382  0.00  0.00    -0.005 A 
ATOM      4  C3  UNL d   1       1.216   2.182  -0.093  0.00  0.00     0.006 A 
ATOM      5  C4  UNL d   1      -0.118   1.826  -0.297  0.00  0.00    -0.005 A 
ATOM      6  C5  UNL d   1      -0.549   0.523  -0.028  0.00  0.00    -0.074 A 
ATOM      7  C6  UNL d   1      -1.976   0.120  -0.251  0.00  0.00     0.077 C 
ATOM      8  C7  UNL d   1       0.377  -0.418   0.443  0.00  0.00    -0.001 A 
ENDROOT
TORSDOF 0
ENDMDL
