MODEL 1
REMARK minimizedAffinity -3.78981948
REMARK minimizedRMSD -1
REMARK  0 active torsions:
REMARK  status: ('A' for Active; 'I' for Inactive)
ROOT
ATOM      1  C   UNL d   1       2.669  -1.924  -1.884  0.00  0.00     0.077 C 
ATOM      2  C1  UNL d   1       1.988  -1.289  -0.708  0.00  0.00    -0.074 A 
ATOM      3  C2  UNL d   1       2.642  -1.169   0.522  0.00  0.00    -0.005 A 
ATOM      4  C3  UNL d   1       2.000  -0.567   1.604  0.00  0.00     0.006 A 
ATOM      5  C4  UNL d   1       0.699  -0.080   1.467  0.00  0.00    -0.005 A 
ATOM      6  C5  UNL d   1       0.029  -0.191   0.244  0.00  0.00    -0.074 A 
ATOM      7  C6  UNL d   1      -1.365   0.336   0.077  0.00  0.00     0.077 C 
ATOM      8  C7  UNL d   1       0.684  -0.791  -0.840  0.00  0.00    -0.001 A 
ENDROOT
TORSDOF 0
ENDMDL
