MODEL 1
REMARK minimizedAffinity -3.15079999
REMARK minimizedRMSD -1
REMARK  0 active torsions:
REMARK  status: ('A' for Active; 'I' for Inactive)
ROOT
ATOM      1  C   UNL d   1       3.583   1.498  -0.372  0.00  0.00     0.077 C 
ATOM      2  C1  UNL d   1       2.387   0.596  -0.432  0.00  0.00    -0.074 A 
ATOM      3  C2  UNL d   1       2.532  -0.778  -0.652  0.00  0.00    -0.005 A 
ATOM      4  C3  UNL d   1       1.411  -1.606  -0.696  0.00  0.00     0.006 A 
ATOM      5  C4  UNL d   1       0.134  -1.070  -0.521  0.00  0.00    -0.005 A 
ATOM      6  C5  UNL d   1      -0.031   0.301  -0.299  0.00  0.00    -0.074 A 
ATOM      7  C6  UNL d   1      -1.395   0.892  -0.100  0.00  0.00     0.077 C 
ATOM      8  C7  UNL d   1       1.101   1.126  -0.250  0.00  0.00    -0.001 A 
ENDROOT
TORSDOF 0
ENDMDL
