MODEL 1
REMARK minimizedAffinity -4.0463171
REMARK minimizedRMSD -1
REMARK  0 active torsions:
REMARK  status: ('A' for Active; 'I' for Inactive)
ROOT
ATOM      1  C   UNL d   1      -1.412   0.255  -0.004  0.00  0.00     0.077 C 
ATOM      2  C1  UNL d   1       0.033  -0.132  -0.105  0.00  0.00    -0.074 A 
ATOM      3  C2  UNL d   1       0.409  -1.468  -0.281  0.00  0.00    -0.005 A 
ATOM      4  C3  UNL d   1       1.756  -1.813  -0.383  0.00  0.00     0.006 A 
ATOM      5  C4  UNL d   1       2.741  -0.826  -0.310  0.00  0.00    -0.005 A 
ATOM      6  C5  UNL d   1       2.385   0.515  -0.136  0.00  0.00    -0.074 A 
ATOM      7  C6  UNL d   1       3.430   1.588  -0.067  0.00  0.00     0.077 C 
ATOM      8  C7  UNL d   1       1.028   0.854  -0.042  0.00  0.00    -0.001 A 
ENDROOT
TORSDOF 0
ENDMDL
