MODEL 1
REMARK minimizedAffinity -6.36675024
REMARK minimizedRMSD -1
REMARK  0 active torsions:
REMARK  status: ('A' for Active; 'I' for Inactive)
ROOT
ATOM      1  C   UNL d   1       2.710   2.339   0.294  0.00  0.00     0.077 C 
ATOM      2  C1  UNL d   1       2.453   0.863   0.364  0.00  0.00    -0.074 A 
ATOM      3  C2  UNL d   1       3.370   0.002   0.975  0.00  0.00    -0.005 A 
ATOM      4  C3  UNL d   1       3.113  -1.367   1.041  0.00  0.00     0.006 A 
ATOM      5  C4  UNL d   1       1.938  -1.889   0.497  0.00  0.00    -0.005 A 
ATOM      6  C5  UNL d   1       1.009  -1.043  -0.117  0.00  0.00    -0.074 A 
ATOM      7  C6  UNL d   1      -0.263  -1.585  -0.697  0.00  0.00     0.077 C 
ATOM      8  C7  UNL d   1       1.272   0.333  -0.173  0.00  0.00    -0.001 A 
ENDROOT
TORSDOF 0
ENDMDL
