MODEL 1
REMARK minimizedAffinity 23.1579609
REMARK minimizedRMSD -1
REMARK  0 active torsions:
REMARK  status: ('A' for Active; 'I' for Inactive)
ROOT
ATOM      1  C2' OXE d   1      -0.791  -1.366  -0.552  0.00  0.00     0.078 C 
ATOM      2  C1' OXE d   1      -0.354  -1.708  -3.303  0.00  0.00     0.078 C 
ATOM      3  C1  OXE d   1       0.722  -1.020  -2.501  0.00  0.00    -0.078 A 
ATOM      4  C2  OXE d   1       0.479  -0.815  -1.164  0.00  0.00    -0.078 A 
ATOM      5  C3  OXE d   1       1.461  -0.234  -0.366  0.00  0.00     0.003 A 
ATOM      6  C4  OXE d   1       2.628   0.282  -0.942  0.00  0.00    -0.002 A 
ATOM      7  C5  OXE d   1       2.878   0.119  -2.309  0.00  0.00    -0.002 A 
ATOM      8  C6  OXE d   1       1.956  -0.566  -3.093  0.00  0.00     0.003 A 
ENDROOT
TORSDOF 0
ENDMDL
