MODEL 1
REMARK minimizedAffinity 1.17269707
REMARK minimizedRMSD -1
REMARK  0 active torsions:
REMARK  status: ('A' for Active; 'I' for Inactive)
ROOT
ATOM      1  C2' OXE d   1      -0.503  -5.496   2.106  0.00  0.00     0.078 C 
ATOM      2  C1' OXE d   1      -1.786  -3.284   3.266  0.00  0.00     0.078 C 
ATOM      3  C1  OXE d   1      -1.416  -3.198   1.806  0.00  0.00    -0.078 A 
ATOM      4  C2  OXE d   1      -0.747  -4.266   1.259  0.00  0.00    -0.078 A 
ATOM      5  C3  OXE d   1      -0.432  -4.260  -0.097  0.00  0.00     0.003 A 
ATOM      6  C4  OXE d   1      -0.652  -3.115  -0.871  0.00  0.00    -0.002 A 
ATOM      7  C5  OXE d   1      -1.296  -2.001  -0.323  0.00  0.00    -0.002 A 
ATOM      8  C6  OXE d   1      -1.722  -2.042   1.000  0.00  0.00     0.003 A 
ENDROOT
TORSDOF 0
ENDMDL
