MODEL 1
REMARK minimizedAffinity 7.48947334
REMARK minimizedRMSD -1
REMARK  0 active torsions:
REMARK  status: ('A' for Active; 'I' for Inactive)
ROOT
ATOM      1  C2' OXE d   1       3.725   2.043   2.142  0.00  0.00     0.078 C 
ATOM      2  C1' OXE d   1       4.619   3.758   0.107  0.00  0.00     0.078 C 
ATOM      3  C1  OXE d   1       3.643   2.671  -0.268  0.00  0.00    -0.078 A 
ATOM      4  C2  OXE d   1       3.247   1.807   0.725  0.00  0.00    -0.078 A 
ATOM      5  C3  OXE d   1       2.306   0.820   0.446  0.00  0.00     0.003 A 
ATOM      6  C4  OXE d   1       1.876   0.602  -0.869  0.00  0.00    -0.002 A 
ATOM      7  C5  OXE d   1       2.298   1.446  -1.902  0.00  0.00    -0.002 A 
ATOM      8  C6  OXE d   1       3.146   2.508  -1.612  0.00  0.00     0.003 A 
ENDROOT
TORSDOF 0
ENDMDL
