MODEL 1
REMARK minimizedAffinity 8.96750355
REMARK minimizedRMSD -1
REMARK  0 active torsions:
REMARK  status: ('A' for Active; 'I' for Inactive)
ROOT
ATOM      1  C2' OXE d   1      -1.987  -1.346   0.496  0.00  0.00     0.078 C 
ATOM      2  C1' OXE d   1      -2.221  -1.874   3.243  0.00  0.00     0.078 C 
ATOM      3  C1  OXE d   1      -1.608  -2.942   2.371  0.00  0.00    -0.078 A 
ATOM      4  C2  OXE d   1      -1.541  -2.693   1.022  0.00  0.00    -0.078 A 
ATOM      5  C3  OXE d   1      -0.935  -3.622   0.179  0.00  0.00     0.003 A 
ATOM      6  C4  OXE d   1      -0.534  -4.870   0.671  0.00  0.00    -0.002 A 
ATOM      7  C5  OXE d   1      -0.630  -5.159   2.037  0.00  0.00    -0.002 A 
ATOM      8  C6  OXE d   1      -1.125  -4.191   2.905  0.00  0.00     0.003 A 
ENDROOT
TORSDOF 0
ENDMDL
