MODEL 1
REMARK minimizedAffinity 14.1944923
REMARK minimizedRMSD -1
REMARK  0 active torsions:
REMARK  status: ('A' for Active; 'I' for Inactive)
ROOT
ATOM      1  C2' OXE d   1       5.245   0.920   2.618  0.00  0.00     0.078 C 
ATOM      2  C1' OXE d   1       3.298   2.937   2.771  0.00  0.00     0.078 C 
ATOM      3  C1  OXE d   1       4.197   2.917   1.560  0.00  0.00    -0.078 A 
ATOM      4  C2  OXE d   1       5.177   1.955   1.516  0.00  0.00    -0.078 A 
ATOM      5  C3  OXE d   1       5.998   1.858   0.396  0.00  0.00     0.003 A 
ATOM      6  C4  OXE d   1       5.936   2.826  -0.614  0.00  0.00    -0.002 A 
ATOM      7  C5  OXE d   1       4.971   3.838  -0.570  0.00  0.00    -0.002 A 
ATOM      8  C6  OXE d   1       4.068   3.872   0.487  0.00  0.00     0.003 A 
ENDROOT
TORSDOF 0
ENDMDL
