MODEL 1
REMARK minimizedAffinity 11.8516655
REMARK minimizedRMSD -1
REMARK  0 active torsions:
REMARK  status: ('A' for Active; 'I' for Inactive)
ROOT
ATOM      1  C2' OXE d   1      -0.388  -4.972   1.658  0.00  0.00     0.078 C 
ATOM      2  C1' OXE d   1      -2.277  -3.487   3.109  0.00  0.00     0.078 C 
ATOM      3  C1  OXE d   1      -1.971  -3.049   1.698  0.00  0.00    -0.078 A 
ATOM      4  C2  OXE d   1      -1.011  -3.753   1.012  0.00  0.00    -0.078 A 
ATOM      5  C3  OXE d   1      -0.730  -3.425  -0.311  0.00  0.00     0.003 A 
ATOM      6  C4  OXE d   1      -1.303  -2.291  -0.898  0.00  0.00    -0.002 A 
ATOM      7  C5  OXE d   1      -2.253  -1.536  -0.202  0.00  0.00    -0.002 A 
ATOM      8  C6  OXE d   1      -2.629  -1.925   1.078  0.00  0.00     0.003 A 
ENDROOT
TORSDOF 0
ENDMDL
