MODEL 1
REMARK minimizedAffinity 6.60347843
REMARK minimizedRMSD -1
REMARK  0 active torsions:
REMARK  status: ('A' for Active; 'I' for Inactive)
ROOT
ATOM      1  C2' OXE d   1      -2.699   2.359  -4.125  0.00  0.00     0.078 C 
ATOM      2  C1' OXE d   1      -4.785   2.257  -6.000  0.00  0.00     0.078 C 
ATOM      3  C1  OXE d   1      -4.470   3.591  -5.371  0.00  0.00    -0.078 A 
ATOM      4  C2  OXE d   1      -3.478   3.623  -4.420  0.00  0.00    -0.078 A 
ATOM      5  C3  OXE d   1      -3.110   4.837  -3.848  0.00  0.00     0.003 A 
ATOM      6  C4  OXE d   1      -3.842   5.999  -4.119  0.00  0.00    -0.002 A 
ATOM      7  C5  OXE d   1      -4.882   5.981  -5.055  0.00  0.00    -0.002 A 
ATOM      8  C6  OXE d   1      -5.180   4.797  -5.720  0.00  0.00     0.003 A 
ENDROOT
TORSDOF 0
ENDMDL
