MODEL 1
REMARK minimizedAffinity 7.80222178
REMARK minimizedRMSD -1
REMARK  0 active torsions:
REMARK  status: ('A' for Active; 'I' for Inactive)
ROOT
ATOM      1  C2' OXE d   1      -4.776  -2.008   5.783  0.00  0.00     0.078 C 
ATOM      2  C1' OXE d   1      -2.337  -0.622   5.700  0.00  0.00     0.078 C 
ATOM      3  C1  OXE d   1      -3.603   0.189   5.820  0.00  0.00    -0.078 A 
ATOM      4  C2  OXE d   1      -4.795  -0.495   5.813  0.00  0.00    -0.078 A 
ATOM      5  C3  OXE d   1      -5.990   0.200   5.976  0.00  0.00     0.003 A 
ATOM      6  C4  OXE d   1      -5.999   1.600   5.992  0.00  0.00    -0.002 A 
ATOM      7  C5  OXE d   1      -4.798   2.318   5.961  0.00  0.00    -0.002 A 
ATOM      8  C6  OXE d   1      -3.592   1.628   5.918  0.00  0.00     0.003 A 
ENDROOT
TORSDOF 0
ENDMDL
