MODEL 1
REMARK minimizedAffinity 11.080163
REMARK minimizedRMSD -1
REMARK  0 active torsions:
REMARK  status: ('A' for Active; 'I' for Inactive)
ROOT
ATOM      1  C2' OXE d   1      -0.469  -5.843  -1.443  0.00  0.00     0.078 C 
ATOM      2  C1' OXE d   1      -0.210  -4.368   0.931  0.00  0.00     0.078 C 
ATOM      3  C1  OXE d   1      -0.418  -3.604  -0.353  0.00  0.00    -0.078 A 
ATOM      4  C2  OXE d   1      -0.497  -4.332  -1.516  0.00  0.00    -0.078 A 
ATOM      5  C3  OXE d   1      -0.743  -3.681  -2.721  0.00  0.00     0.003 A 
ATOM      6  C4  OXE d   1      -0.757  -2.282  -2.781  0.00  0.00    -0.002 A 
ATOM      7  C5  OXE d   1      -0.639  -1.520  -1.614  0.00  0.00    -0.002 A 
ATOM      8  C6  OXE d   1      -0.512  -2.165  -0.389  0.00  0.00     0.003 A 
ENDROOT
TORSDOF 0
ENDMDL
