MODEL 1
REMARK minimizedAffinity 12.8419104
REMARK minimizedRMSD -1
REMARK  0 active torsions:
REMARK  status: ('A' for Active; 'I' for Inactive)
ROOT
ATOM      1  C2' OXE d   1       4.584   3.952  -0.609  0.00  0.00     0.078 C 
ATOM      2  C1' OXE d   1       2.995   2.597   1.267  0.00  0.00     0.078 C 
ATOM      3  C1  OXE d   1       3.060   2.039  -0.133  0.00  0.00    -0.078 A 
ATOM      4  C2  OXE d   1       3.803   2.735  -1.056  0.00  0.00    -0.078 A 
ATOM      5  C3  OXE d   1       3.942   2.234  -2.348  0.00  0.00     0.003 A 
ATOM      6  C4  OXE d   1       3.208   1.114  -2.756  0.00  0.00    -0.002 A 
ATOM      7  C5  OXE d   1       2.414   0.413  -1.842  0.00  0.00    -0.002 A 
ATOM      8  C6  OXE d   1       2.363   0.837  -0.518  0.00  0.00     0.003 A 
ENDROOT
TORSDOF 0
ENDMDL
