MODEL 1
REMARK minimizedAffinity -0.847934484
REMARK minimizedRMSD -1
REMARK  0 active torsions:
REMARK  status: ('A' for Active; 'I' for Inactive)
ROOT
ATOM      1  C2' OXE d   1      -5.688   1.489   5.998  0.00  0.00     0.078 C 
ATOM      2  C1' OXE d   1      -3.054   2.459   5.992  0.00  0.00     0.078 C 
ATOM      3  C1  OXE d   1      -3.256   0.972   5.841  0.00  0.00    -0.078 A 
ATOM      4  C2  OXE d   1      -4.546   0.502   5.892  0.00  0.00    -0.078 A 
ATOM      5  C3  OXE d   1      -4.793  -0.855   5.704  0.00  0.00     0.003 A 
ATOM      6  C4  OXE d   1      -3.731  -1.763   5.617  0.00  0.00    -0.002 A 
ATOM      7  C5  OXE d   1      -2.408  -1.309   5.603  0.00  0.00    -0.002 A 
ATOM      8  C6  OXE d   1      -2.155   0.056   5.671  0.00  0.00     0.003 A 
ENDROOT
TORSDOF 0
ENDMDL
