MODEL 1
REMARK minimizedAffinity 10.1904764
REMARK minimizedRMSD -1
REMARK  0 active torsions:
REMARK  status: ('A' for Active; 'I' for Inactive)
ROOT
ATOM      1  C2' OXE d   1      -2.624   3.141  -3.992  0.00  0.00     0.078 C 
ATOM      2  C1' OXE d   1      -4.282   2.090  -5.999  0.00  0.00     0.078 C 
ATOM      3  C1  OXE d   1      -4.593   3.472  -5.481  0.00  0.00    -0.078 A 
ATOM      4  C2  OXE d   1      -3.805   3.960  -4.467  0.00  0.00    -0.078 A 
ATOM      5  C3  OXE d   1      -4.015   5.250  -3.990  0.00  0.00     0.003 A 
ATOM      6  C4  OXE d   1      -5.116   5.997  -4.427  0.00  0.00    -0.002 A 
ATOM      7  C5  OXE d   1      -5.955   5.503  -5.432  0.00  0.00    -0.002 A 
ATOM      8  C6  OXE d   1      -5.683   4.263  -5.998  0.00  0.00     0.003 A 
ENDROOT
TORSDOF 0
ENDMDL
