MODEL 1
REMARK minimizedAffinity 10.8866291
REMARK minimizedRMSD -1
REMARK  0 active torsions:
REMARK  status: ('A' for Active; 'I' for Inactive)
ROOT
ATOM      1  C2' OXE d   1      -3.085   1.396  -3.379  0.00  0.00     0.078 C 
ATOM      2  C1' OXE d   1      -3.766   3.004  -5.577  0.00  0.00     0.078 C 
ATOM      3  C1  OXE d   1      -2.304   2.868  -5.230  0.00  0.00    -0.078 A 
ATOM      4  C2  OXE d   1      -1.983   2.117  -4.125  0.00  0.00    -0.078 A 
ATOM      5  C3  OXE d   1      -0.647   1.914  -3.794  0.00  0.00     0.003 A 
ATOM      6  C4  OXE d   1       0.365   2.593  -4.483  0.00  0.00    -0.002 A 
ATOM      7  C5  OXE d   1       0.058   3.395  -5.587  0.00  0.00    -0.002 A 
ATOM      8  C6  OXE d   1      -1.265   3.509  -5.999  0.00  0.00     0.003 A 
ENDROOT
TORSDOF 0
ENDMDL
