MODEL 1
REMARK minimizedAffinity 14.7609797
REMARK minimizedRMSD -1
REMARK  0 active torsions:
REMARK  status: ('A' for Active; 'I' for Inactive)
ROOT
ATOM      1  C2' OXE d   1       2.701   2.506  -1.416  0.00  0.00     0.078 C 
ATOM      2  C1' OXE d   1       4.901   3.775  -0.219  0.00  0.00     0.078 C 
ATOM      3  C1  OXE d   1       4.090   2.824   0.627  0.00  0.00    -0.078 A 
ATOM      4  C2  OXE d   1       2.988   2.244   0.047  0.00  0.00    -0.078 A 
ATOM      5  C3  OXE d   1       2.238   1.318   0.765  0.00  0.00     0.003 A 
ATOM      6  C4  OXE d   1       2.504   1.089   2.121  0.00  0.00    -0.002 A 
ATOM      7  C5  OXE d   1       3.598   1.700   2.743  0.00  0.00    -0.002 A 
ATOM      8  C6  OXE d   1       4.425   2.536   2.000  0.00  0.00     0.003 A 
ENDROOT
TORSDOF 0
ENDMDL
