MODEL 1
REMARK minimizedAffinity 11.194602
REMARK minimizedRMSD -1
REMARK  0 active torsions:
REMARK  status: ('A' for Active; 'I' for Inactive)
ROOT
ATOM      1  C2' OXE d   1      -3.613   5.149  -0.840  0.00  0.00     0.078 C 
ATOM      2  C1' OXE d   1      -2.754   3.331   1.119  0.00  0.00     0.078 C 
ATOM      3  C1  OXE d   1      -3.908   4.240   1.461  0.00  0.00    -0.078 A 
ATOM      4  C2  OXE d   1      -4.291   5.159   0.513  0.00  0.00    -0.078 A 
ATOM      5  C3  OXE d   1      -5.384   5.985   0.756  0.00  0.00     0.003 A 
ATOM      6  C4  OXE d   1      -5.999   5.995   2.014  0.00  0.00    -0.002 A 
ATOM      7  C5  OXE d   1      -5.599   5.095   3.007  0.00  0.00    -0.002 A 
ATOM      8  C6  OXE d   1      -4.585   4.184   2.733  0.00  0.00     0.003 A 
ENDROOT
TORSDOF 0
ENDMDL
