MODEL 1
REMARK minimizedAffinity 6.48766041
REMARK minimizedRMSD -1
REMARK  0 active torsions:
REMARK  status: ('A' for Active; 'I' for Inactive)
ROOT
ATOM      1  C2' OXE d   1       6.000   0.972  -3.014  0.00  0.00     0.078 C 
ATOM      2  C1' OXE d   1       3.341   0.472  -2.265  0.00  0.00     0.078 C 
ATOM      3  C1  OXE d   1       4.024   1.679  -1.672  0.00  0.00    -0.078 A 
ATOM      4  C2  OXE d   1       5.339   1.890  -2.008  0.00  0.00    -0.078 A 
ATOM      5  C3  OXE d   1       6.000   3.019  -1.532  0.00  0.00     0.003 A 
ATOM      6  C4  OXE d   1       5.385   3.857  -0.594  0.00  0.00    -0.002 A 
ATOM      7  C5  OXE d   1       4.058   3.638  -0.208  0.00  0.00    -0.002 A 
ATOM      8  C6  OXE d   1       3.351   2.580  -0.769  0.00  0.00     0.003 A 
ENDROOT
TORSDOF 0
ENDMDL
