MODEL 1
REMARK minimizedAffinity 5.2151947
REMARK minimizedRMSD -1
REMARK  0 active torsions:
REMARK  status: ('A' for Active; 'I' for Inactive)
ROOT
ATOM      1  C2' OXE d   1      -4.128  -0.431   0.401  0.00  0.00     0.078 C 
ATOM      2  C1' OXE d   1      -2.295  -1.341  -1.521  0.00  0.00     0.078 C 
ATOM      3  C1  OXE d   1      -2.142  -1.847  -0.109  0.00  0.00    -0.078 A 
ATOM      4  C2  OXE d   1      -3.014  -1.360   0.835  0.00  0.00    -0.078 A 
ATOM      5  C3  OXE d   1      -2.952  -1.836   2.142  0.00  0.00     0.003 A 
ATOM      6  C4  OXE d   1      -1.913  -2.687   2.537  0.00  0.00    -0.002 A 
ATOM      7  C5  OXE d   1      -0.990  -3.164   1.600  0.00  0.00    -0.002 A 
ATOM      8  C6  OXE d   1      -1.116  -2.787   0.268  0.00  0.00     0.003 A 
ENDROOT
TORSDOF 0
ENDMDL
