MODEL 1
REMARK minimizedAffinity -1.71830273
REMARK minimizedRMSD -1
REMARK  0 active torsions:
REMARK  status: ('A' for Active; 'I' for Inactive)
ROOT
ATOM      1  C   UNL d   1       2.647  -0.351  -0.337  0.00  0.00     0.020 A 
ATOM      2  C1  UNL d   1       2.669  -1.116   0.828  0.00  0.00     0.020 A 
ATOM      3  C2  UNL d   1       1.515  -1.238   1.605  0.00  0.00     0.034 A 
ATOM      4  C3  UNL d   1       0.334  -0.594   1.218  0.00  0.00     0.017 A 
ATOM      5  C4  UNL d   1       0.313   0.174   0.048  0.00  0.00     0.017 A 
ATOM      6  C5  UNL d   1       1.472   0.293  -0.726  0.00  0.00     0.034 A 
ATOM      7 Cl   UNL d   1      -1.106   0.998  -0.494  0.00  0.00    -0.070 Cl
ATOM      8 Cl1  UNL d   1      -1.055  -0.789   2.226  0.00  0.00    -0.070 Cl
ENDROOT
TORSDOF 0
ENDMDL
