MODEL 1
REMARK minimizedAffinity -2.47143006
REMARK minimizedRMSD -1
REMARK  0 active torsions:
REMARK  status: ('A' for Active; 'I' for Inactive)
ROOT
ATOM      1  C   UNL d   1       0.384  -1.733   2.596  0.00  0.00     0.020 A 
ATOM      2  C1  UNL d   1      -0.849  -1.085   2.633  0.00  0.00     0.020 A 
ATOM      3  C2  UNL d   1      -1.217  -0.224   1.596  0.00  0.00     0.034 A 
ATOM      4  C3  UNL d   1      -0.349  -0.008   0.519  0.00  0.00     0.017 A 
ATOM      5  C4  UNL d   1       0.889  -0.660   0.483  0.00  0.00     0.017 A 
ATOM      6  C5  UNL d   1       1.252  -1.521   1.523  0.00  0.00     0.034 A 
ATOM      7 Cl   UNL d   1       2.012  -0.445  -0.813  0.00  0.00    -0.070 Cl
ATOM      8 Cl1  UNL d   1      -0.868   1.069  -0.728  0.00  0.00    -0.070 Cl
ENDROOT
TORSDOF 0
ENDMDL
