MODEL 1
REMARK minimizedAffinity -4.0322423
REMARK minimizedRMSD -1
REMARK  0 active torsions:
REMARK  status: ('A' for Active; 'I' for Inactive)
ROOT
ATOM      1  C   UNL d   1       3.194  -1.379  -0.450  0.00  0.00     0.020 A 
ATOM      2  C1  UNL d   1       3.082  -0.222  -1.221  0.00  0.00     0.020 A 
ATOM      3  C2  UNL d   1       1.954   0.592  -1.097  0.00  0.00     0.034 A 
ATOM      4  C3  UNL d   1       0.934   0.251  -0.201  0.00  0.00     0.017 A 
ATOM      5  C4  UNL d   1       1.048  -0.910   0.572  0.00  0.00     0.017 A 
ATOM      6  C5  UNL d   1       2.180  -1.721   0.445  0.00  0.00     0.034 A 
ATOM      7 Cl   UNL d   1      -0.169  -1.396   1.699  0.00  0.00    -0.070 Cl
ATOM      8 Cl1  UNL d   1      -0.432   1.304  -0.100  0.00  0.00    -0.070 Cl
ENDROOT
TORSDOF 0
ENDMDL
