MODEL 1
REMARK minimizedAffinity -3.43784523
REMARK minimizedRMSD -1
REMARK  0 active torsions:
REMARK  status: ('A' for Active; 'I' for Inactive)
ROOT
ATOM      1  C   UNL d   1       2.538  -0.883  -0.299  0.00  0.00     0.020 A 
ATOM      2  C1  UNL d   1       2.401  -1.694   0.828  0.00  0.00     0.020 A 
ATOM      3  C2  UNL d   1       1.237  -1.629   1.597  0.00  0.00     0.034 A 
ATOM      4  C3  UNL d   1       0.206  -0.753   1.241  0.00  0.00     0.017 A 
ATOM      5  C4  UNL d   1       0.344   0.060   0.110  0.00  0.00     0.017 A 
ATOM      6  C5  UNL d   1       1.511  -0.008  -0.657  0.00  0.00     0.034 A 
ATOM      7 Cl   UNL d   1      -0.885   1.166  -0.393  0.00  0.00    -0.070 Cl
ATOM      8 Cl1  UNL d   1      -1.206  -0.726   2.237  0.00  0.00    -0.070 Cl
ENDROOT
TORSDOF 0
ENDMDL
