MODEL 1
REMARK minimizedAffinity -1.38362575
REMARK minimizedRMSD -1
REMARK  0 active torsions:
REMARK  status: ('A' for Active; 'I' for Inactive)
ROOT
ATOM      1  C   UNL d   1       2.982  -0.806  -0.867  0.00  0.00     0.020 A 
ATOM      2  C1  UNL d   1       3.058  -1.662   0.230  0.00  0.00     0.020 A 
ATOM      3  C2  UNL d   1       2.057  -1.639   1.204  0.00  0.00     0.034 A 
ATOM      4  C3  UNL d   1       0.976  -0.758   1.082  0.00  0.00     0.017 A 
ATOM      5  C4  UNL d   1       0.902   0.101  -0.020  0.00  0.00     0.017 A 
ATOM      6  C5  UNL d   1       1.907   0.074  -0.992  0.00  0.00     0.034 A 
ATOM      7 Cl   UNL d   1      -0.401   1.216  -0.240  0.00  0.00    -0.070 Cl
ATOM      8 Cl1  UNL d   1      -0.226  -0.784   2.323  0.00  0.00    -0.070 Cl
ENDROOT
TORSDOF 0
ENDMDL
