MODEL 1
REMARK minimizedAffinity -1.54050708
REMARK minimizedRMSD -1
REMARK  0 active torsions:
REMARK  status: ('A' for Active; 'I' for Inactive)
ROOT
ATOM      1  C   UNL d   1      -0.820  -0.405   0.142  0.00  0.00     0.020 A 
ATOM      2  C1  UNL d   1      -0.648   0.481  -0.921  0.00  0.00     0.020 A 
ATOM      3  C2  UNL d   1       0.638   0.867  -1.307  0.00  0.00     0.034 A 
ATOM      4  C3  UNL d   1       1.756   0.367  -0.629  0.00  0.00     0.017 A 
ATOM      5  C4  UNL d   1       1.582  -0.522   0.437  0.00  0.00     0.017 A 
ATOM      6  C5  UNL d   1       0.292  -0.906   0.819  0.00  0.00     0.034 A 
ATOM      7 Cl   UNL d   1       2.913  -1.181   1.321  0.00  0.00    -0.070 Cl
ATOM      8 Cl1  UNL d   1       3.316   0.887  -1.160  0.00  0.00    -0.070 Cl
ENDROOT
TORSDOF 0
ENDMDL
