MODEL 1
REMARK minimizedAffinity -4.9281764
REMARK minimizedRMSD -1
REMARK  0 active torsions:
REMARK  status: ('A' for Active; 'I' for Inactive)
ROOT
ATOM      1  C   UNL d   1      -0.465   0.618   0.054  0.00  0.00     0.020 A 
ATOM      2  C1  UNL d   1      -0.674  -0.364   1.022  0.00  0.00     0.020 A 
ATOM      3  C2  UNL d   1       0.409  -1.079   1.537  0.00  0.00     0.034 A 
ATOM      4  C3  UNL d   1       1.706  -0.814   1.085  0.00  0.00     0.017 A 
ATOM      5  C4  UNL d   1       1.916   0.172   0.113  0.00  0.00     0.017 A 
ATOM      6  C5  UNL d   1       0.828   0.885  -0.399  0.00  0.00     0.034 A 
ATOM      7 Cl   UNL d   1       3.488   0.555  -0.494  0.00  0.00    -0.070 Cl
ATOM      8 Cl1  UNL d   1       2.999  -1.736   1.766  0.00  0.00    -0.070 Cl
ENDROOT
TORSDOF 0
ENDMDL
