MODEL 1
REMARK minimizedAffinity -3.96536756
REMARK minimizedRMSD -1
REMARK  0 active torsions:
REMARK  status: ('A' for Active; 'I' for Inactive)
ROOT
ATOM      1  C   UNL d   1       2.511  -1.724   0.809  0.00  0.00     0.020 A 
ATOM      2  C1  UNL d   1       2.824  -0.642  -0.013  0.00  0.00     0.020 A 
ATOM      3  C2  UNL d   1       1.852   0.317  -0.304  0.00  0.00     0.034 A 
ATOM      4  C3  UNL d   1       0.563   0.197   0.228  0.00  0.00     0.017 A 
ATOM      5  C4  UNL d   1       0.250  -0.889   1.054  0.00  0.00     0.017 A 
ATOM      6  C5  UNL d   1       1.227  -1.847   1.341  0.00  0.00     0.034 A 
ATOM      7 Cl   UNL d   1      -1.318  -1.105   1.747  0.00  0.00    -0.070 Cl
ATOM      8 Cl1  UNL d   1      -0.589   1.421  -0.173  0.00  0.00    -0.070 Cl
ENDROOT
TORSDOF 0
ENDMDL
