MODEL 1
REMARK minimizedAffinity -4.43716764
REMARK minimizedRMSD -1
REMARK  0 active torsions:
REMARK  status: ('A' for Active; 'I' for Inactive)
ROOT
ATOM      1  C   UNL d   1       0.014   1.232  -0.002  0.00  0.00     0.020 A 
ATOM      2  C1  UNL d   1      -0.512   0.162   0.721  0.00  0.00     0.020 A 
ATOM      3  C2  UNL d   1       0.281  -0.957   0.988  0.00  0.00     0.034 A 
ATOM      4  C3  UNL d   1       1.603  -1.008   0.532  0.00  0.00     0.017 A 
ATOM      5  C4  UNL d   1       2.130   0.067  -0.193  0.00  0.00     0.017 A 
ATOM      6  C5  UNL d   1       1.332   1.184  -0.458  0.00  0.00     0.034 A 
ATOM      7 Cl   UNL d   1       3.753   0.076  -0.789  0.00  0.00    -0.070 Cl
ATOM      8 Cl1  UNL d   1       2.525  -2.422   0.899  0.00  0.00    -0.070 Cl
ENDROOT
TORSDOF 0
ENDMDL
