MODEL 1
REMARK minimizedAffinity -4.62403727
REMARK minimizedRMSD -1
REMARK  0 active torsions:
REMARK  status: ('A' for Active; 'I' for Inactive)
ROOT
ATOM      1  C   UNL d   1      -1.878  -0.521   1.212  0.00  0.00     0.020 A 
ATOM      2  C1  UNL d   1      -1.761  -1.693   1.957  0.00  0.00     0.020 A 
ATOM      3  C2  UNL d   1      -0.553  -2.395   1.971  0.00  0.00     0.034 A 
ATOM      4  C3  UNL d   1       0.542  -1.924   1.237  0.00  0.00     0.017 A 
ATOM      5  C4  UNL d   1       0.424  -0.747   0.489  0.00  0.00     0.017 A 
ATOM      6  C5  UNL d   1      -0.788  -0.049   0.479  0.00  0.00     0.034 A 
ATOM      7 Cl   UNL d   1       1.731  -0.105  -0.441  0.00  0.00    -0.070 Cl
ATOM      8 Cl1  UNL d   1       2.005  -2.842   1.300  0.00  0.00    -0.070 Cl
ENDROOT
TORSDOF 0
ENDMDL
