MODEL 1
REMARK minimizedAffinity -3.26214933
REMARK minimizedRMSD -1
REMARK  0 active torsions:
REMARK  status: ('A' for Active; 'I' for Inactive)
ROOT
ATOM      1  C   UNL d   1       0.125  -2.469   1.205  0.00  0.00     0.020 A 
ATOM      2  C1  UNL d   1       1.502  -2.477   0.986  0.00  0.00     0.020 A 
ATOM      3  C2  UNL d   1       2.124  -1.367   0.412  0.00  0.00     0.034 A 
ATOM      4  C3  UNL d   1       1.369  -0.244   0.053  0.00  0.00     0.017 A 
ATOM      5  C4  UNL d   1      -0.013  -0.237   0.272  0.00  0.00     0.017 A 
ATOM      6  C5  UNL d   1      -0.631  -1.351   0.849  0.00  0.00     0.034 A 
ATOM      7 Cl   UNL d   1      -1.010   1.112  -0.144  0.00  0.00    -0.070 Cl
ATOM      8 Cl1  UNL d   1       2.205   1.093  -0.653  0.00  0.00    -0.070 Cl
ENDROOT
TORSDOF 0
ENDMDL
