MODEL 1
REMARK minimizedAffinity -4.82264662
REMARK minimizedRMSD -1
REMARK  0 active torsions:
REMARK  status: ('A' for Active; 'I' for Inactive)
ROOT
ATOM      1  C   UNL d   1       2.136  -1.669   0.274  0.00  0.00     0.020 A 
ATOM      2  C1  UNL d   1       2.370  -0.390  -0.231  0.00  0.00     0.020 A 
ATOM      3  C2  UNL d   1       1.348   0.561  -0.224  0.00  0.00     0.034 A 
ATOM      4  C3  UNL d   1       0.087   0.235   0.289  0.00  0.00     0.017 A 
ATOM      5  C4  UNL d   1      -0.147  -1.049   0.796  0.00  0.00     0.017 A 
ATOM      6  C5  UNL d   1       0.881  -1.997   0.786  0.00  0.00     0.034 A 
ATOM      7 Cl   UNL d   1      -1.676  -1.525   1.445  0.00  0.00    -0.070 Cl
ATOM      8 Cl1  UNL d   1      -1.131   1.461   0.267  0.00  0.00    -0.070 Cl
ENDROOT
TORSDOF 0
ENDMDL
