MODEL 1
REMARK minimizedAffinity -4.26393652
REMARK minimizedRMSD -1
REMARK  0 active torsions:
REMARK  status: ('A' for Active; 'I' for Inactive)
ROOT
ATOM      1  C   UNL d   1      -0.944   2.694  -2.651  0.00  0.00     0.020 A 
ATOM      2  C1  UNL d   1      -1.732   2.051  -3.605  0.00  0.00     0.020 A 
ATOM      3  C2  UNL d   1      -2.162   0.741  -3.386  0.00  0.00     0.034 A 
ATOM      4  C3  UNL d   1      -1.806   0.069  -2.211  0.00  0.00     0.017 A 
ATOM      5  C4  UNL d   1      -1.015   0.716  -1.254  0.00  0.00     0.017 A 
ATOM      6  C5  UNL d   1      -0.587   2.028  -1.478  0.00  0.00     0.034 A 
ATOM      7 Cl   UNL d   1      -0.535  -0.048   0.220  0.00  0.00    -0.070 Cl
ATOM      8 Cl1  UNL d   1      -2.374  -1.550  -2.007  0.00  0.00    -0.070 Cl
ENDROOT
TORSDOF 0
ENDMDL
