MODEL 1
REMARK minimizedAffinity -0.322584659
REMARK minimizedRMSD -1
REMARK  0 active torsions:
REMARK  status: ('A' for Active; 'I' for Inactive)
ROOT
ATOM      1  C   UNL d   1       0.378  -2.149   0.795  0.00  0.00     0.020 A 
ATOM      2  C1  UNL d   1       1.075  -2.987   1.663  0.00  0.00     0.020 A 
ATOM      3  C2  UNL d   1       2.405  -2.711   1.983  0.00  0.00     0.034 A 
ATOM      4  C3  UNL d   1       3.044  -1.593   1.434  0.00  0.00     0.017 A 
ATOM      5  C4  UNL d   1       2.343  -0.752   0.562  0.00  0.00     0.017 A 
ATOM      6  C5  UNL d   1       1.011  -1.033   0.245  0.00  0.00     0.034 A 
ATOM      7 Cl   UNL d   1       3.063   0.646  -0.155  0.00  0.00    -0.070 Cl
ATOM      8 Cl1  UNL d   1       4.691  -1.311   1.873  0.00  0.00    -0.070 Cl
ENDROOT
TORSDOF 0
ENDMDL
