MODEL 1
REMARK minimizedAffinity -3.63104892
REMARK minimizedRMSD -1
REMARK  0 active torsions:
REMARK  status: ('A' for Active; 'I' for Inactive)
ROOT
ATOM      1  C   UNL d   1       0.894  -2.774   1.399  0.00  0.00     0.020 A 
ATOM      2  C1  UNL d   1      -0.458  -2.569   1.128  0.00  0.00     0.020 A 
ATOM      3  C2  UNL d   1      -0.875  -1.392   0.504  0.00  0.00     0.034 A 
ATOM      4  C3  UNL d   1       0.061  -0.414   0.149  0.00  0.00     0.017 A 
ATOM      5  C4  UNL d   1       1.418  -0.620   0.421  0.00  0.00     0.017 A 
ATOM      6  C5  UNL d   1       1.830  -1.801   1.047  0.00  0.00     0.034 A 
ATOM      7 Cl   UNL d   1       2.632   0.541   0.013  0.00  0.00    -0.070 Cl
ATOM      8 Cl1  UNL d   1      -0.525   1.018  -0.620  0.00  0.00    -0.070 Cl
ENDROOT
TORSDOF 0
ENDMDL
