MODEL 1
REMARK minimizedAffinity -3.39476776
REMARK minimizedRMSD -1
REMARK  0 active torsions:
REMARK  status: ('A' for Active; 'I' for Inactive)
ROOT
ATOM      1  C   UNL d   1       2.314  -1.531   0.831  0.00  0.00     0.020 A 
ATOM      2  C1  UNL d   1       2.555  -0.402   0.047  0.00  0.00     0.020 A 
ATOM      3  C2  UNL d   1       1.558   0.562  -0.114  0.00  0.00     0.034 A 
ATOM      4  C3  UNL d   1       0.315   0.399   0.509  0.00  0.00     0.017 A 
ATOM      5  C4  UNL d   1       0.074  -0.733   1.295  0.00  0.00     0.017 A 
ATOM      6  C5  UNL d   1       1.076  -1.696   1.453  0.00  0.00     0.034 A 
ATOM      7 Cl   UNL d   1      -1.434  -1.003   2.095  0.00  0.00    -0.070 Cl
ATOM      8 Cl1  UNL d   1      -0.872   1.631   0.267  0.00  0.00    -0.070 Cl
ENDROOT
TORSDOF 0
ENDMDL
