MODEL 1
REMARK minimizedAffinity -3.82563186
REMARK minimizedRMSD -1
REMARK  0 active torsions:
REMARK  status: ('A' for Active; 'I' for Inactive)
ROOT
ATOM      1  C   UNL d   1       1.309  -1.968   1.580  0.00  0.00     0.020 A 
ATOM      2  C1  UNL d   1      -0.072  -1.777   1.624  0.00  0.00     0.020 A 
ATOM      3  C2  UNL d   1      -0.658  -0.747   0.886  0.00  0.00     0.034 A 
ATOM      4  C3  UNL d   1       0.135   0.097   0.101  0.00  0.00     0.017 A 
ATOM      5  C4  UNL d   1       1.521  -0.094   0.058  0.00  0.00     0.017 A 
ATOM      6  C5  UNL d   1       2.103  -1.128   0.798  0.00  0.00     0.034 A 
ATOM      7 Cl   UNL d   1       2.566   0.906  -0.888  0.00  0.00    -0.070 Cl
ATOM      8 Cl1  UNL d   1      -0.657   1.351  -0.785  0.00  0.00    -0.070 Cl
ENDROOT
TORSDOF 0
ENDMDL
