MODEL 1
REMARK minimizedAffinity -1.07242894
REMARK minimizedRMSD -1
REMARK  0 active torsions:
REMARK  status: ('A' for Active; 'I' for Inactive)
ROOT
ATOM      1  C   UNL d   1       0.692   1.271  -0.597  0.00  0.00     0.020 A 
ATOM      2  C1  UNL d   1      -0.452   1.828  -0.028  0.00  0.00     0.020 A 
ATOM      3  C2  UNL d   1      -1.235   1.074   0.848  0.00  0.00     0.034 A 
ATOM      4  C3  UNL d   1      -0.874  -0.243   1.158  0.00  0.00     0.017 A 
ATOM      5  C4  UNL d   1       0.275  -0.801   0.587  0.00  0.00     0.017 A 
ATOM      6  C5  UNL d   1       1.055  -0.041  -0.290  0.00  0.00     0.034 A 
ATOM      7 Cl   UNL d   1       0.784  -2.418   0.922  0.00  0.00    -0.070 Cl
ATOM      8 Cl1  UNL d   1      -1.888  -1.118   2.250  0.00  0.00    -0.070 Cl
ENDROOT
TORSDOF 0
ENDMDL
