MODEL 1
REMARK minimizedAffinity -2.3425777
REMARK minimizedRMSD -1
REMARK  0 active torsions:
REMARK  status: ('A' for Active; 'I' for Inactive)
ROOT
ATOM      1  C   UNL d   1      -0.402  -1.863   1.345  0.00  0.00     0.020 A 
ATOM      2  C1  UNL d   1       0.938  -2.081   1.025  0.00  0.00     0.020 A 
ATOM      3  C2  UNL d   1       1.652  -1.114   0.314  0.00  0.00     0.034 A 
ATOM      4  C3  UNL d   1       1.027   0.074  -0.081  0.00  0.00     0.017 A 
ATOM      5  C4  UNL d   1      -0.318   0.292   0.241  0.00  0.00     0.017 A 
ATOM      6  C5  UNL d   1      -1.028  -0.679   0.953  0.00  0.00     0.034 A 
ATOM      7 Cl   UNL d   1      -1.157   1.734  -0.211  0.00  0.00    -0.070 Cl
ATOM      8 Cl1  UNL d   1       1.970   1.226  -0.958  0.00  0.00    -0.070 Cl
ENDROOT
TORSDOF 0
ENDMDL
