MODEL 1
REMARK minimizedAffinity -1.20388818
REMARK minimizedRMSD -1
REMARK  0 active torsions:
REMARK  status: ('A' for Active; 'I' for Inactive)
ROOT
ATOM      1  N1  IND d   1      -1.146  -5.961  -5.924  0.00  0.00    -0.196 N 
ATOM      2  C2  IND d   1       0.221  -5.928  -5.895  0.00  0.00     0.054 A 
ATOM      3  C3  IND d   1       0.663  -5.897  -4.618  0.00  0.00    -0.031 A 
ATOM      4  C4  IND d   1      -0.675  -5.996  -2.421  0.00  0.00     0.051 A 
ATOM      5  C5  IND d   1      -1.954  -5.997  -1.937  0.00  0.00    -0.031 A 
ATOM      6  C6  IND d   1      -3.050  -5.989  -2.775  0.00  0.00     0.015 A 
ATOM      7  C7  IND d   1      -2.908  -5.991  -4.134  0.00  0.00    -0.016 A 
ATOM      8  C8  IND d   1      -1.612  -5.983  -4.628  0.00  0.00    -0.047 A 
ATOM      9  C9  IND d   1      -0.495  -5.948  -3.783  0.00  0.00    -0.096 A 
ATOM     10  HN1 IND d   1      -1.632  -5.968  -6.633  0.00  0.00     0.298 HD
ENDROOT
TORSDOF 0
ENDMDL
