MODEL 1
REMARK minimizedAffinity 3.70755863
REMARK minimizedRMSD -1
REMARK  0 active torsions:
REMARK  status: ('A' for Active; 'I' for Inactive)
ROOT
ATOM      1  N1  IND d   1       0.619   1.505  -0.076  0.00  0.00    -0.196 N 
ATOM      2  C2  IND d   1       1.889   1.320  -0.548  0.00  0.00     0.054 A 
ATOM      3  C3  IND d   1       2.232   0.014  -0.476  0.00  0.00    -0.031 A 
ATOM      4  C4  IND d   1       0.830  -2.006   0.286  0.00  0.00     0.051 A 
ATOM      5  C5  IND d   1      -0.376  -2.333   0.838  0.00  0.00    -0.031 A 
ATOM      6  C6  IND d   1      -1.333  -1.378   1.117  0.00  0.00     0.015 A 
ATOM      7  C7  IND d   1      -1.123  -0.057   0.842  0.00  0.00    -0.016 A 
ATOM      8  C8  IND d   1       0.104   0.280   0.288  0.00  0.00    -0.047 A 
ATOM      9  C9  IND d   1       1.096  -0.679   0.042  0.00  0.00    -0.096 A 
ATOM     10  HN1 IND d   1       0.211   2.259  -0.017  0.00  0.00     0.298 HD
ENDROOT
TORSDOF 0
ENDMDL
