MODEL 1
REMARK minimizedAffinity 1.88163626
REMARK minimizedRMSD -1
REMARK  0 active torsions:
REMARK  status: ('A' for Active; 'I' for Inactive)
ROOT
ATOM      1  N1  IND d   1      -1.971  -5.882  -3.682  0.00  0.00    -0.196 N 
ATOM      2  C2  IND d   1      -2.695  -5.768  -4.836  0.00  0.00     0.054 A 
ATOM      3  C3  IND d   1      -1.870  -5.693  -5.904  0.00  0.00    -0.031 A 
ATOM      4  C4  IND d   1       0.698  -5.843  -6.000  0.00  0.00     0.051 A 
ATOM      5  C5  IND d   1       1.804  -5.913  -5.199  0.00  0.00    -0.031 A 
ATOM      6  C6  IND d   1       1.705  -5.981  -3.824  0.00  0.00     0.015 A 
ATOM      7  C7  IND d   1       0.492  -5.992  -3.197  0.00  0.00    -0.016 A 
ATOM      8  C8  IND d   1      -0.633  -5.914  -4.006  0.00  0.00    -0.047 A 
ATOM      9  C9  IND d   1      -0.538  -5.802  -5.399  0.00  0.00    -0.096 A 
ATOM     10  HN1 IND d   1      -2.297  -5.927  -2.888  0.00  0.00     0.298 HD
ENDROOT
TORSDOF 0
ENDMDL
