MODEL 1
REMARK minimizedAffinity 9.05324554
REMARK minimizedRMSD -1
REMARK  0 active torsions:
REMARK  status: ('A' for Active; 'I' for Inactive)
ROOT
ATOM      1  N1  IND d   1       0.078  -5.947  -1.935  0.00  0.00    -0.196 N 
ATOM      2  C2  IND d   1      -1.278  -5.970  -1.762  0.00  0.00     0.054 A 
ATOM      3  C3  IND d   1      -1.905  -5.957  -2.960  0.00  0.00    -0.031 A 
ATOM      4  C4  IND d   1      -0.903  -6.000  -5.331  0.00  0.00     0.051 A 
ATOM      5  C5  IND d   1       0.289  -5.947  -5.998  0.00  0.00    -0.031 A 
ATOM      6  C6  IND d   1       1.496  -5.894  -5.331  0.00  0.00     0.015 A 
ATOM      7  C7  IND d   1       1.556  -5.902  -3.966  0.00  0.00    -0.016 A 
ATOM      8  C8  IND d   1       0.348  -5.948  -3.286  0.00  0.00    -0.047 A 
ATOM      9  C9  IND d   1      -0.882  -5.960  -3.957  0.00  0.00    -0.096 A 
ATOM     10  HN1 IND d   1       0.663  -5.933  -1.305  0.00  0.00     0.298 HD
ENDROOT
TORSDOF 0
ENDMDL
