MODEL 1
REMARK minimizedAffinity 2.24596739
REMARK minimizedRMSD -1
REMARK  0 active torsions:
REMARK  status: ('A' for Active; 'I' for Inactive)
ROOT
ATOM      1  N1  IND d   1      -1.450  -5.990  -5.700  0.00  0.00    -0.196 N 
ATOM      2  C2  IND d   1      -0.116  -5.964  -5.999  0.00  0.00     0.054 A 
ATOM      3  C3  IND d   1       0.619  -5.925  -4.865  0.00  0.00    -0.031 A 
ATOM      4  C4  IND d   1      -0.154  -5.999  -2.411  0.00  0.00     0.051 A 
ATOM      5  C5  IND d   1      -1.279  -5.988  -1.635  0.00  0.00    -0.031 A 
ATOM      6  C6  IND d   1      -2.544  -5.980  -2.185  0.00  0.00     0.015 A 
ATOM      7  C7  IND d   1      -2.732  -5.994  -3.539  0.00  0.00    -0.016 A 
ATOM      8  C8  IND d   1      -1.592  -5.998  -4.329  0.00  0.00    -0.047 A 
ATOM      9  C9  IND d   1      -0.305  -5.963  -3.777  0.00  0.00    -0.096 A 
ATOM     10  HN1 IND d   1      -2.092  -5.999  -6.271  0.00  0.00     0.298 HD
ENDROOT
TORSDOF 0
ENDMDL
