MODEL 1
REMARK minimizedAffinity 4.81657839
REMARK minimizedRMSD -1
REMARK  0 active torsions:
REMARK  status: ('A' for Active; 'I' for Inactive)
ROOT
ATOM      1  N1  IND d   1       2.516  -1.779   1.149  0.00  0.00    -0.196 N 
ATOM      2  C2  IND d   1       1.304  -2.224   1.598  0.00  0.00     0.054 A 
ATOM      3  C3  IND d   1       0.339  -1.318   1.320  0.00  0.00    -0.031 A 
ATOM      4  C4  IND d   1       0.507   0.913   0.048  0.00  0.00     0.051 A 
ATOM      5  C5  IND d   1       1.413   1.762  -0.523  0.00  0.00    -0.031 A 
ATOM      6  C6  IND d   1       2.761   1.466  -0.570  0.00  0.00     0.015 A 
ATOM      7  C7  IND d   1       3.252   0.300  -0.054  0.00  0.00    -0.016 A 
ATOM      8  C8  IND d   1       2.336  -0.560   0.533  0.00  0.00    -0.047 A 
ATOM      9  C9  IND d   1       0.973  -0.246   0.620  0.00  0.00    -0.096 A 
ATOM     10  HN1 IND d   1       3.265  -2.192   1.236  0.00  0.00     0.298 HD
ENDROOT
TORSDOF 0
ENDMDL
