MODEL 1
REMARK minimizedAffinity 1.73451126
REMARK minimizedRMSD -1
REMARK  0 active torsions:
REMARK  status: ('A' for Active; 'I' for Inactive)
ROOT
ATOM      1  N1  IND d   1      -5.949  -5.951  -0.644  0.00  0.00    -0.196 N 
ATOM      2  C2  IND d   1      -5.423  -5.960   0.618  0.00  0.00     0.054 A 
ATOM      3  C3  IND d   1      -4.073  -6.000   0.564  0.00  0.00    -0.031 A 
ATOM      4  C4  IND d   1      -2.516  -5.953  -1.485  0.00  0.00     0.051 A 
ATOM      5  C5  IND d   1      -2.532  -5.982  -2.852  0.00  0.00    -0.031 A 
ATOM      6  C6  IND d   1      -3.712  -6.000  -3.566  0.00  0.00     0.015 A 
ATOM      7  C7  IND d   1      -4.926  -5.977  -2.939  0.00  0.00    -0.016 A 
ATOM      8  C8  IND d   1      -4.913  -5.955  -1.551  0.00  0.00    -0.047 A 
ATOM      9  C9  IND d   1      -3.718  -5.980  -0.820  0.00  0.00    -0.096 A 
ATOM     10  HN1 IND d   1      -6.787  -5.944  -0.838  0.00  0.00     0.298 HD
ENDROOT
TORSDOF 0
ENDMDL
