MODEL 1
REMARK minimizedAffinity 5.48292542
REMARK minimizedRMSD -1
REMARK  0 active torsions:
REMARK  status: ('A' for Active; 'I' for Inactive)
ROOT
ATOM      1  N1  IND d   1      -1.548  -5.979  -5.989  0.00  0.00    -0.196 N 
ATOM      2  C2  IND d   1      -2.505  -5.963  -5.013  0.00  0.00     0.054 A 
ATOM      3  C3  IND d   1      -1.929  -5.960  -3.789  0.00  0.00    -0.031 A 
ATOM      4  C4  IND d   1       0.564  -5.876  -3.156  0.00  0.00     0.051 A 
ATOM      5  C5  IND d   1       1.817  -5.913  -3.703  0.00  0.00    -0.031 A 
ATOM      6  C6  IND d   1       2.015  -5.973  -5.067  0.00  0.00     0.015 A 
ATOM      7  C7  IND d   1       0.964  -5.986  -5.940  0.00  0.00    -0.016 A 
ATOM      8  C8  IND d   1      -0.309  -5.955  -5.388  0.00  0.00    -0.047 A 
ATOM      9  C9  IND d   1      -0.517  -5.938  -4.003  0.00  0.00    -0.096 A 
ATOM     10  HN1 IND d   1      -1.696  -6.000  -6.836  0.00  0.00     0.298 HD
ENDROOT
TORSDOF 0
ENDMDL
