MODEL 1
REMARK minimizedAffinity 5.68465328
REMARK minimizedRMSD -1
REMARK  0 active torsions:
REMARK  status: ('A' for Active; 'I' for Inactive)
ROOT
ATOM      1  N1  IND d   1      -0.612  -1.210   0.290  0.00  0.00    -0.196 N 
ATOM      2  C2  IND d   1      -0.544  -2.314   1.093  0.00  0.00     0.054 A 
ATOM      3  C3  IND d   1       0.742  -2.586   1.411  0.00  0.00    -0.031 A 
ATOM      4  C4  IND d   1       2.884  -1.293   0.808  0.00  0.00     0.051 A 
ATOM      5  C5  IND d   1       3.332  -0.238   0.062  0.00  0.00    -0.031 A 
ATOM      6  C6  IND d   1       2.471   0.564  -0.658  0.00  0.00     0.015 A 
ATOM      7  C7  IND d   1       1.122   0.347  -0.650  0.00  0.00    -0.016 A 
ATOM      8  C8  IND d   1       0.664  -0.727   0.100  0.00  0.00    -0.047 A 
ATOM      9  C9  IND d   1       1.538  -1.570   0.799  0.00  0.00    -0.096 A 
ATOM     10  HN1 IND d   1      -1.331  -0.874  -0.041  0.00  0.00     0.298 HD
ENDROOT
TORSDOF 0
ENDMDL
