MODEL 1
REMARK minimizedAffinity 1.70588815
REMARK minimizedRMSD -1
REMARK  0 active torsions:
REMARK  status: ('A' for Active; 'I' for Inactive)
ROOT
ATOM      1  N1  IND d   1       1.525  -5.956  -3.919  0.00  0.00    -0.196 N 
ATOM      2  C2  IND d   1       1.841  -5.956  -5.249  0.00  0.00     0.054 A 
ATOM      3  C3  IND d   1       0.716  -5.985  -6.000  0.00  0.00    -0.031 A 
ATOM      4  C4  IND d   1      -1.748  -5.935  -5.256  0.00  0.00     0.051 A 
ATOM      5  C5  IND d   1      -2.538  -5.970  -4.141  0.00  0.00    -0.031 A 
ATOM      6  C6  IND d   1      -2.003  -6.000  -2.870  0.00  0.00     0.015 A 
ATOM      7  C7  IND d   1      -0.652  -5.985  -2.665  0.00  0.00    -0.016 A 
ATOM      8  C8  IND d   1       0.153  -5.956  -3.794  0.00  0.00    -0.047 A 
ATOM      9  C9  IND d   1      -0.384  -5.969  -5.088  0.00  0.00    -0.096 A 
ATOM     10  HN1 IND d   1       2.088  -5.957  -3.270  0.00  0.00     0.298 HD
ENDROOT
TORSDOF 0
ENDMDL
