MODEL 1
REMARK minimizedAffinity -0.360130161
REMARK minimizedRMSD -1
REMARK  0 active torsions:
REMARK  status: ('A' for Active; 'I' for Inactive)
ROOT
ATOM      1  N1  IND d   1       1.920  -3.020   1.451  0.00  0.00    -0.196 N 
ATOM      2  C2  IND d   1       0.634  -3.482   1.404  0.00  0.00     0.054 A 
ATOM      3  C3  IND d   1      -0.201  -2.506   0.983  0.00  0.00    -0.031 A 
ATOM      4  C4  IND d   1       0.339  -0.107   0.222  0.00  0.00     0.051 A 
ATOM      5  C5  IND d   1       1.369   0.786   0.124  0.00  0.00    -0.031 A 
ATOM      6  C6  IND d   1       2.662   0.448   0.468  0.00  0.00     0.015 A 
ATOM      7  C7  IND d   1       2.977  -0.805   0.913  0.00  0.00    -0.016 A 
ATOM      8  C8  IND d   1       1.932  -1.712   1.021  0.00  0.00    -0.047 A 
ATOM      9  C9  IND d   1       0.611  -1.361   0.714  0.00  0.00    -0.096 A 
ATOM     10  HN1 IND d   1       2.606  -3.471   1.707  0.00  0.00     0.298 HD
ENDROOT
TORSDOF 0
ENDMDL
