MODEL 1
REMARK minimizedAffinity 1.98858285
REMARK minimizedRMSD -1
REMARK  0 active torsions:
REMARK  status: ('A' for Active; 'I' for Inactive)
ROOT
ATOM      1  N1  IND d   1       1.480   0.014   0.718  0.00  0.00    -0.196 N 
ATOM      2  C2  IND d   1       0.838   0.715  -0.264  0.00  0.00     0.054 A 
ATOM      3  C3  IND d   1      -0.142  -0.036  -0.814  0.00  0.00    -0.031 A 
ATOM      4  C4  IND d   1      -0.934  -2.404  -0.188  0.00  0.00     0.051 A 
ATOM      5  C5  IND d   1      -0.631  -3.462   0.622  0.00  0.00    -0.031 A 
ATOM      6  C6  IND d   1       0.411  -3.414   1.525  0.00  0.00     0.015 A 
ATOM      7  C7  IND d   1       1.184  -2.296   1.661  0.00  0.00    -0.016 A 
ATOM      8  C8  IND d   1       0.884  -1.222   0.835  0.00  0.00    -0.047 A 
ATOM      9  C9  IND d   1      -0.145  -1.281  -0.114  0.00  0.00    -0.096 A 
ATOM     10  HN1 IND d   1       2.145   0.298   1.184  0.00  0.00     0.298 HD
ENDROOT
TORSDOF 0
ENDMDL
