MODEL 1
REMARK minimizedAffinity 2.69176412
REMARK minimizedRMSD -1
REMARK  0 active torsions:
REMARK  status: ('A' for Active; 'I' for Inactive)
ROOT
ATOM      1  N1  IND d   1       1.487  -5.492  -4.055  0.00  0.00    -0.196 N 
ATOM      2  C2  IND d   1       1.642  -5.604  -5.409  0.00  0.00     0.054 A 
ATOM      3  C3  IND d   1       0.451  -5.847  -6.000  0.00  0.00    -0.031 A 
ATOM      4  C4  IND d   1      -1.895  -6.000  -4.950  0.00  0.00     0.051 A 
ATOM      5  C5  IND d   1      -2.537  -6.000  -3.744  0.00  0.00    -0.031 A 
ATOM      6  C6  IND d   1      -1.858  -5.824  -2.556  0.00  0.00     0.015 A 
ATOM      7  C7  IND d   1      -0.506  -5.630  -2.531  0.00  0.00    -0.016 A 
ATOM      8  C8  IND d   1       0.151  -5.636  -3.753  0.00  0.00    -0.047 A 
ATOM      9  C9  IND d   1      -0.527  -5.856  -4.959  0.00  0.00    -0.096 A 
ATOM     10  HN1 IND d   1       2.119  -5.354  -3.488  0.00  0.00     0.298 HD
ENDROOT
TORSDOF 0
ENDMDL
