MODEL 1
REMARK minimizedAffinity 0.27646637
REMARK minimizedRMSD -1
REMARK  0 active torsions:
REMARK  status: ('A' for Active; 'I' for Inactive)
ROOT
ATOM      1  N1  IND d   1      -0.066  -5.823  -1.962  0.00  0.00    -0.196 N 
ATOM      2  C2  IND d   1       1.291  -5.676  -1.890  0.00  0.00     0.054 A 
ATOM      3  C3  IND d   1       1.825  -5.630  -3.131  0.00  0.00    -0.031 A 
ATOM      4  C4  IND d   1       0.650  -5.675  -5.421  0.00  0.00     0.051 A 
ATOM      5  C5  IND d   1      -0.579  -5.834  -5.998  0.00  0.00    -0.031 A 
ATOM      6  C6  IND d   1      -1.723  -5.999  -5.244  0.00  0.00     0.015 A 
ATOM      7  C7  IND d   1      -1.682  -5.999  -3.878  0.00  0.00    -0.016 A 
ATOM      8  C8  IND d   1      -0.435  -5.844  -3.289  0.00  0.00    -0.047 A 
ATOM      9  C9  IND d   1       0.734  -5.719  -4.049  0.00  0.00    -0.096 A 
ATOM     10  HN1 IND d   1      -0.600  -5.891  -1.291  0.00  0.00     0.298 HD
ENDROOT
TORSDOF 0
ENDMDL
