MODEL 1
REMARK minimizedAffinity 2.29334116
REMARK minimizedRMSD -1
REMARK  0 active torsions:
REMARK  status: ('A' for Active; 'I' for Inactive)
ROOT
ATOM      1  N1  IND d   1      -1.089  -5.858  -4.648  0.00  0.00    -0.196 N 
ATOM      2  C2  IND d   1      -0.665  -5.998  -5.940  0.00  0.00     0.054 A 
ATOM      3  C3  IND d   1       0.686  -5.999  -5.994  0.00  0.00    -0.031 A 
ATOM      4  C4  IND d   1       2.400  -5.885  -4.076  0.00  0.00     0.051 A 
ATOM      5  C5  IND d   1       2.493  -5.714  -2.724  0.00  0.00    -0.031 A 
ATOM      6  C6  IND d   1       1.374  -5.582  -1.927  0.00  0.00     0.015 A 
ATOM      7  C7  IND d   1       0.115  -5.628  -2.454  0.00  0.00    -0.016 A 
ATOM      8  C8  IND d   1       0.017  -5.794  -3.828  0.00  0.00    -0.047 A 
ATOM      9  C9  IND d   1       1.149  -5.886  -4.647  0.00  0.00    -0.096 A 
ATOM     10  HN1 IND d   1      -1.908  -5.816  -4.390  0.00  0.00     0.298 HD
ENDROOT
TORSDOF 0
ENDMDL
