MODEL 1
REMARK minimizedAffinity 6.52860641
REMARK minimizedRMSD -1
REMARK  0 active torsions:
REMARK  status: ('A' for Active; 'I' for Inactive)
ROOT
ATOM      1  N1  IND d   1      -0.045  -5.990  -1.984  0.00  0.00    -0.196 N 
ATOM      2  C2  IND d   1      -1.411  -5.961  -1.965  0.00  0.00     0.054 A 
ATOM      3  C3  IND d   1      -1.899  -5.921  -3.225  0.00  0.00    -0.031 A 
ATOM      4  C4  IND d   1      -0.639  -5.999  -5.469  0.00  0.00     0.051 A 
ATOM      5  C5  IND d   1       0.621  -5.992  -5.998  0.00  0.00    -0.031 A 
ATOM      6  C6  IND d   1       1.746  -5.987  -5.200  0.00  0.00     0.015 A 
ATOM      7  C7  IND d   1       1.653  -6.000  -3.837  0.00  0.00    -0.016 A 
ATOM      8  C8  IND d   1       0.375  -6.000  -3.296  0.00  0.00    -0.047 A 
ATOM      9  C9  IND d   1      -0.771  -5.962  -4.101  0.00  0.00    -0.096 A 
ATOM     10  HN1 IND d   1       0.467  -6.001  -1.293  0.00  0.00     0.298 HD
ENDROOT
TORSDOF 0
ENDMDL
