MODEL 1
REMARK minimizedAffinity -0.891991556
REMARK minimizedRMSD -1
REMARK  0 active torsions:
REMARK  status: ('A' for Active; 'I' for Inactive)
ROOT
ATOM      1  N1  IND d   1      -1.001   1.488   0.140  0.00  0.00    -0.196 N 
ATOM      2  C2  IND d   1      -0.440   0.348  -0.364  0.00  0.00     0.054 A 
ATOM      3  C3  IND d   1       0.905   0.473  -0.424  0.00  0.00    -0.031 A 
ATOM      4  C4  IND d   1       2.403   2.420   0.348  0.00  0.00     0.051 A 
ATOM      5  C5  IND d   1       2.345   3.693   0.841  0.00  0.00    -0.031 A 
ATOM      6  C6  IND d   1       1.145   4.308   1.134  0.00  0.00     0.015 A 
ATOM      7  C7  IND d   1      -0.047   3.665   0.955  0.00  0.00    -0.016 A 
ATOM      8  C8  IND d   1       0.007   2.374   0.447  0.00  0.00    -0.047 A 
ATOM      9  C9  IND d   1       1.220   1.761   0.108  0.00  0.00    -0.096 A 
ATOM     10  HN1 IND d   1      -1.843   1.627   0.247  0.00  0.00     0.298 HD
ENDROOT
TORSDOF 0
ENDMDL
