MODEL 1
REMARK minimizedAffinity 0.967824936
REMARK minimizedRMSD -1
REMARK  0 active torsions:
REMARK  status: ('A' for Active; 'I' for Inactive)
ROOT
ATOM      1  N1  IND d   1      -2.395   2.386   0.023  0.00  0.00    -0.196 N 
ATOM      2  C2  IND d   1      -3.479   2.281   0.850  0.00  0.00     0.054 A 
ATOM      3  C3  IND d   1      -3.353   1.204   1.657  0.00  0.00    -0.031 A 
ATOM      4  C4  IND d   1      -1.404  -0.466   1.863  0.00  0.00     0.051 A 
ATOM      5  C5  IND d   1      -0.208  -0.801   1.293  0.00  0.00    -0.031 A 
ATOM      6  C6  IND d   1       0.332  -0.076   0.251  0.00  0.00     0.015 A 
ATOM      7  C7  IND d   1      -0.301   1.025  -0.254  0.00  0.00    -0.016 A 
ATOM      8  C8  IND d   1      -1.519   1.364   0.318  0.00  0.00    -0.047 A 
ATOM      9  C9  IND d   1      -2.093   0.607   1.347  0.00  0.00    -0.096 A 
ATOM     10  HN1 IND d   1      -2.280   2.988  -0.579  0.00  0.00     0.298 HD
ENDROOT
TORSDOF 0
ENDMDL
