MODEL 1
REMARK minimizedAffinity -4.36045599
REMARK minimizedRMSD -1
REMARK  0 active torsions:
REMARK  status: ('A' for Active; 'I' for Inactive)
ROOT
ATOM      1  N1  IND d   1      -1.694  -0.248   0.916  0.00  0.00    -0.196 N 
ATOM      2  C2  IND d   1      -1.204   0.870   0.299  0.00  0.00     0.054 A 
ATOM      3  C3  IND d   1      -0.072   0.574  -0.379  0.00  0.00    -0.031 A 
ATOM      4  C4  IND d   1       1.098  -1.696  -0.698  0.00  0.00     0.051 A 
ATOM      5  C5  IND d   1       1.044  -3.002  -0.297  0.00  0.00    -0.031 A 
ATOM      6  C6  IND d   1       0.053  -3.466   0.543  0.00  0.00     0.015 A 
ATOM      7  C7  IND d   1      -0.932  -2.641   1.007  0.00  0.00    -0.016 A 
ATOM      8  C8  IND d   1      -0.876  -1.313   0.608  0.00  0.00    -0.047 A 
ATOM      9  C9  IND d   1       0.151  -0.827  -0.211  0.00  0.00    -0.096 A 
ATOM     10  HN1 IND d   1      -2.395  -0.280   1.412  0.00  0.00     0.298 HD
ENDROOT
TORSDOF 0
ENDMDL
