MODEL 1
REMARK minimizedAffinity -3.88914299
REMARK minimizedRMSD -1
REMARK  0 active torsions:
REMARK  status: ('A' for Active; 'I' for Inactive)
ROOT
ATOM      1  N1  IND d   1      -0.805   0.397   0.825  0.00  0.00    -0.196 N 
ATOM      2  C2  IND d   1      -0.124   1.223  -0.025  0.00  0.00     0.054 A 
ATOM      3  C3  IND d   1       0.697   0.503  -0.823  0.00  0.00    -0.031 A 
ATOM      4  C4  IND d   1       1.007  -2.048  -0.973  0.00  0.00     0.051 A 
ATOM      5  C5  IND d   1       0.628  -3.217  -0.373  0.00  0.00    -0.031 A 
ATOM      6  C6  IND d   1      -0.268  -3.241   0.676  0.00  0.00     0.015 A 
ATOM      7  C7  IND d   1      -0.829  -2.093   1.160  0.00  0.00    -0.016 A 
ATOM      8  C8  IND d   1      -0.442  -0.904   0.558  0.00  0.00    -0.047 A 
ATOM      9  C9  IND d   1       0.499  -0.870  -0.480  0.00  0.00    -0.096 A 
ATOM     10  HN1 IND d   1      -1.366   0.649   1.427  0.00  0.00     0.298 HD
ENDROOT
TORSDOF 0
ENDMDL
