MODEL 1
REMARK minimizedAffinity -1.67542315
REMARK minimizedRMSD -1
REMARK  0 active torsions:
REMARK  status: ('A' for Active; 'I' for Inactive)
ROOT
ATOM      1  N1  IND d   1       0.054  -1.219  -2.444  0.00  0.00    -0.196 N 
ATOM      2  C2  IND d   1       0.290   0.127  -2.418  0.00  0.00     0.054 A 
ATOM      3  C3  IND d   1       0.068   0.620  -1.179  0.00  0.00    -0.031 A 
ATOM      4  C4  IND d   1      -0.591  -0.619   0.980  0.00  0.00     0.051 A 
ATOM      5  C5  IND d   1      -0.954  -1.851   1.446  0.00  0.00    -0.031 A 
ATOM      6  C6  IND d   1      -0.998  -2.959   0.624  0.00  0.00     0.015 A 
ATOM      7  C7  IND d   1      -0.668  -2.877  -0.699  0.00  0.00    -0.016 A 
ATOM      8  C8  IND d   1      -0.306  -1.626  -1.178  0.00  0.00    -0.047 A 
ATOM      9  C9  IND d   1      -0.301  -0.490  -0.358  0.00  0.00    -0.096 A 
ATOM     10  HN1 IND d   1       0.118  -1.726  -3.135  0.00  0.00     0.298 HD
ENDROOT
TORSDOF 0
ENDMDL
