MODEL 1
REMARK minimizedAffinity -3.08209634
REMARK minimizedRMSD -1
REMARK  0 active torsions:
REMARK  status: ('A' for Active; 'I' for Inactive)
ROOT
ATOM      1  N1  IND d   1      -3.768   1.225   1.327  0.00  0.00    -0.196 N 
ATOM      2  C2  IND d   1      -3.876   2.494   0.829  0.00  0.00     0.054 A 
ATOM      3  C3  IND d   1      -2.754   2.831   0.153  0.00  0.00    -0.031 A 
ATOM      4  C4  IND d   1      -0.660   1.420  -0.347  0.00  0.00     0.051 A 
ATOM      5  C5  IND d   1      -0.083   0.212  -0.070  0.00  0.00    -0.031 A 
ATOM      6  C6  IND d   1      -0.720  -0.740   0.700  0.00  0.00     0.015 A 
ATOM      7  C7  IND d   1      -1.967  -0.523   1.214  0.00  0.00    -0.016 A 
ATOM      8  C8  IND d   1      -2.552   0.705   0.941  0.00  0.00    -0.047 A 
ATOM      9  C9  IND d   1      -1.893   1.692   0.196  0.00  0.00    -0.096 A 
ATOM     10  HN1 IND d   1      -4.360   0.821   1.801  0.00  0.00     0.298 HD
ENDROOT
TORSDOF 0
ENDMDL
