MODEL 1
REMARK minimizedAffinity -2.71608615
REMARK minimizedRMSD -1
REMARK  0 active torsions:
REMARK  status: ('A' for Active; 'I' for Inactive)
ROOT
ATOM      1  N1  IND d   1      -0.252   0.403  -1.373  0.00  0.00    -0.196 N 
ATOM      2  C2  IND d   1       0.356  -0.073  -2.501  0.00  0.00     0.054 A 
ATOM      3  C3  IND d   1       0.729  -1.361  -2.327  0.00  0.00    -0.031 A 
ATOM      4  C4  IND d   1       0.350  -2.915  -0.310  0.00  0.00     0.051 A 
ATOM      5  C5  IND d   1      -0.129  -2.920   0.971  0.00  0.00    -0.031 A 
ATOM      6  C6  IND d   1      -0.687  -1.797   1.546  0.00  0.00     0.015 A 
ATOM      7  C7  IND d   1      -0.798  -0.624   0.855  0.00  0.00    -0.016 A 
ATOM      8  C8  IND d   1      -0.306  -0.612  -0.443  0.00  0.00    -0.047 A 
ATOM      9  C9  IND d   1       0.300  -1.737  -1.017  0.00  0.00    -0.096 A 
ATOM     10  HN1 IND d   1      -0.551   1.201  -1.263  0.00  0.00     0.298 HD
ENDROOT
TORSDOF 0
ENDMDL
