MODEL 1
REMARK minimizedAffinity -0.762351513
REMARK minimizedRMSD -1
REMARK  0 active torsions:
REMARK  status: ('A' for Active; 'I' for Inactive)
ROOT
ATOM      1  N1  IND d   1      -0.422   0.545  -1.119  0.00  0.00    -0.196 N 
ATOM      2  C2  IND d   1       0.235  -0.265  -2.003  0.00  0.00     0.054 A 
ATOM      3  C3  IND d   1       0.383  -1.505  -1.484  0.00  0.00    -0.031 A 
ATOM      4  C4  IND d   1      -0.465  -2.452   0.755  0.00  0.00     0.051 A 
ATOM      5  C5  IND d   1      -1.086  -2.083   1.915  0.00  0.00    -0.031 A 
ATOM      6  C6  IND d   1      -1.529  -0.793   2.126  0.00  0.00     0.015 A 
ATOM      7  C7  IND d   1      -1.377   0.177   1.176  0.00  0.00    -0.016 A 
ATOM      8  C8  IND d   1      -0.740  -0.193  -0.001  0.00  0.00    -0.047 A 
ATOM      9  C9  IND d   1      -0.250  -1.490  -0.203  0.00  0.00    -0.096 A 
ATOM     10  HN1 IND d   1      -0.606   1.376  -1.242  0.00  0.00     0.298 HD
ENDROOT
TORSDOF 0
ENDMDL
