MODEL 1
REMARK minimizedAffinity 6.20921373
REMARK minimizedRMSD -1
REMARK  0 active torsions:
REMARK  status: ('A' for Active; 'I' for Inactive)
ROOT
ATOM      1  N1  IND d   1      -0.420  -4.371  -2.413  0.00  0.00    -0.196 N 
ATOM      2  C2  IND d   1      -1.492  -4.689  -1.627  0.00  0.00     0.054 A 
ATOM      3  C3  IND d   1      -2.444  -5.309  -2.359  0.00  0.00    -0.031 A 
ATOM      4  C4  IND d   1      -2.412  -5.994  -4.841  0.00  0.00     0.051 A 
ATOM      5  C5  IND d   1      -1.663  -5.885  -5.979  0.00  0.00    -0.031 A 
ATOM      6  C6  IND d   1      -0.435  -5.255  -5.986  0.00  0.00     0.015 A 
ATOM      7  C7  IND d   1       0.097  -4.719  -4.847  0.00  0.00    -0.016 A 
ATOM      8  C8  IND d   1      -0.664  -4.822  -3.691  0.00  0.00    -0.047 A 
ATOM      9  C9  IND d   1      -1.930  -5.422  -3.687  0.00  0.00    -0.096 A 
ATOM     10  HN1 IND d   1       0.288  -3.958  -2.152  0.00  0.00     0.298 HD
ENDROOT
TORSDOF 0
ENDMDL
