MODEL 1
REMARK minimizedAffinity -5.12397861
REMARK minimizedRMSD -1
REMARK  0 active torsions:
REMARK  status: ('A' for Active; 'I' for Inactive)
ROOT
ATOM      1  N1  IND d   1      -1.924  -2.140  -1.829  0.00  0.00    -0.196 N 
ATOM      2  C2  IND d   1      -2.108  -3.442  -2.201  0.00  0.00     0.054 A 
ATOM      3  C3  IND d   1      -0.915  -4.061  -2.354  0.00  0.00    -0.031 A 
ATOM      4  C4  IND d   1       1.460  -3.155  -1.949  0.00  0.00     0.051 A 
ATOM      5  C5  IND d   1       2.138  -2.010  -1.637  0.00  0.00    -0.031 A 
ATOM      6  C6  IND d   1       1.483  -0.827  -1.364  0.00  0.00     0.015 A 
ATOM      7  C7  IND d   1       0.119  -0.747  -1.383  0.00  0.00    -0.016 A 
ATOM      8  C8  IND d   1      -0.572  -1.906  -1.707  0.00  0.00    -0.047 A 
ATOM      9  C9  IND d   1       0.089  -3.099  -2.026  0.00  0.00    -0.096 A 
ATOM     10  HN1 IND d   1      -2.548  -1.564  -1.695  0.00  0.00     0.298 HD
ENDROOT
TORSDOF 0
ENDMDL
