MODEL 1
REMARK minimizedAffinity 7.86593914
REMARK minimizedRMSD -1
REMARK  0 active torsions:
REMARK  status: ('A' for Active; 'I' for Inactive)
ROOT
ATOM      1  N1  IND d   1      -3.557  -2.498  -0.546  0.00  0.00    -0.196 N 
ATOM      2  C2  IND d   1      -4.597  -3.384  -0.571  0.00  0.00     0.054 A 
ATOM      3  C3  IND d   1      -4.279  -4.463  -1.320  0.00  0.00    -0.031 A 
ATOM      4  C4  IND d   1      -2.070  -5.032  -2.514  0.00  0.00     0.051 A 
ATOM      5  C5  IND d   1      -0.840  -4.513  -2.808  0.00  0.00    -0.031 A 
ATOM      6  C6  IND d   1      -0.444  -3.272  -2.352  0.00  0.00     0.015 A 
ATOM      7  C7  IND d   1      -1.262  -2.506  -1.572  0.00  0.00    -0.016 A 
ATOM      8  C8  IND d   1      -2.515  -3.026  -1.277  0.00  0.00    -0.047 A 
ATOM      9  C9  IND d   1      -2.938  -4.266  -1.772  0.00  0.00    -0.096 A 
ATOM     10  HN1 IND d   1      -3.553  -1.739  -0.143  0.00  0.00     0.298 HD
ENDROOT
TORSDOF 0
ENDMDL
