MODEL 1
REMARK minimizedAffinity 9.96331406
REMARK minimizedRMSD -1
REMARK  0 active torsions:
REMARK  status: ('A' for Active; 'I' for Inactive)
ROOT
ATOM      1  N1  IND d   1      -1.624  -2.404  -1.653  0.00  0.00    -0.196 N 
ATOM      2  C2  IND d   1      -0.339  -2.608  -2.071  0.00  0.00     0.054 A 
ATOM      3  C3  IND d   1      -0.257  -3.739  -2.807  0.00  0.00    -0.031 A 
ATOM      4  C4  IND d   1      -2.126  -5.353  -3.536  0.00  0.00     0.051 A 
ATOM      5  C5  IND d   1      -3.459  -5.604  -3.370  0.00  0.00    -0.031 A 
ATOM      6  C6  IND d   1      -4.265  -4.782  -2.609  0.00  0.00     0.015 A 
ATOM      7  C7  IND d   1      -3.769  -3.668  -1.993  0.00  0.00    -0.016 A 
ATOM      8  C8  IND d   1      -2.414  -3.415  -2.155  0.00  0.00    -0.047 A 
ATOM      9  C9  IND d   1      -1.582  -4.268  -2.890  0.00  0.00    -0.096 A 
ATOM     10  HN1 IND d   1      -1.894  -1.753  -1.160  0.00  0.00     0.298 HD
ENDROOT
TORSDOF 0
ENDMDL
