MODEL 1
REMARK minimizedAffinity 4.00555801
REMARK minimizedRMSD -1
REMARK  0 active torsions:
REMARK  status: ('A' for Active; 'I' for Inactive)
ROOT
ATOM      1  N1  IND d   1       0.843   3.263   2.990  0.00  0.00    -0.196 N 
ATOM      2  C2  IND d   1       0.204   4.370   3.475  0.00  0.00     0.054 A 
ATOM      3  C3  IND d   1      -1.040   4.461   2.952  0.00  0.00    -0.031 A 
ATOM      4  C4  IND d   1      -2.267   2.851   1.362  0.00  0.00     0.051 A 
ATOM      5  C5  IND d   1      -2.079   1.720   0.617  0.00  0.00    -0.031 A 
ATOM      6  C6  IND d   1      -0.884   1.031   0.628  0.00  0.00     0.015 A 
ATOM      7  C7  IND d   1       0.168   1.442   1.396  0.00  0.00    -0.016 A 
ATOM      8  C8  IND d   1      -0.017   2.593   2.148  0.00  0.00    -0.047 A 
ATOM      9  C9  IND d   1      -1.213   3.321   2.108  0.00  0.00    -0.096 A 
ATOM     10  HN1 IND d   1       1.648   3.025   3.179  0.00  0.00     0.298 HD
ENDROOT
TORSDOF 0
ENDMDL
