MODEL 1
REMARK minimizedAffinity 6.7697053
REMARK minimizedRMSD -1
REMARK  0 active torsions:
REMARK  status: ('A' for Active; 'I' for Inactive)
ROOT
ATOM      1  N1  IND d   1       1.702   3.401   2.391  0.00  0.00    -0.196 N 
ATOM      2  C2  IND d   1       1.032   4.071   3.377  0.00  0.00     0.054 A 
ATOM      3  C3  IND d   1      -0.293   4.094   3.113  0.00  0.00    -0.031 A 
ATOM      4  C4  IND d   1      -1.595   3.008   1.176  0.00  0.00     0.051 A 
ATOM      5  C5  IND d   1      -1.414   2.322   0.008  0.00  0.00    -0.031 A 
ATOM      6  C6  IND d   1      -0.160   1.951  -0.433  0.00  0.00     0.015 A 
ATOM      7  C7  IND d   1       0.964   2.243   0.287  0.00  0.00    -0.016 A 
ATOM      8  C8  IND d   1       0.784   2.946   1.470  0.00  0.00    -0.047 A 
ATOM      9  C9  IND d   1      -0.482   3.363   1.901  0.00  0.00    -0.096 A 
ATOM     10  HN1 IND d   1       2.553   3.284   2.353  0.00  0.00     0.298 HD
ENDROOT
TORSDOF 0
ENDMDL
