MODEL 1
REMARK minimizedAffinity -4.13664818
REMARK minimizedRMSD -1
REMARK  1 active torsions:
REMARK  status: ('A' for Active; 'I' for Inactive)
REMARK    1  A    between atoms: C1_2  and  C2_3 
ROOT
ATOM      1  C2  UNL d   1       0.826  -0.241   0.811  0.00  0.00    -0.077 A 
ATOM      2  C3  UNL d   1       0.389  -1.392   1.482  0.00  0.00     0.002 A 
ATOM      3  C4  UNL d   1       1.164  -1.954   2.498  0.00  0.00     0.002 A 
ATOM      4  C5  UNL d   1       2.378  -1.371   2.854  0.00  0.00    -0.004 A 
ATOM      5  C6  UNL d   1       2.823  -0.228   2.191  0.00  0.00     0.002 A 
ATOM      6  C7  UNL d   1       2.050   0.335   1.174  0.00  0.00     0.002 A 
ENDROOT
BRANCH   1   7
ATOM      7  C1  UNL d   1      -0.032   0.395  -0.252  0.00  0.00     0.055 C 
ATOM      8  C   UNL d   1      -1.493   0.444   0.172  0.00  0.00     0.019 C 
ENDBRANCH   1   7
TORSDOF 1
ENDMDL
