MODEL 1
REMARK minimizedAffinity -6.26158428
REMARK minimizedRMSD -1
REMARK  1 active torsions:
REMARK  status: ('A' for Active; 'I' for Inactive)
REMARK    1  A    between atoms: C1_2  and  C2_3 
ROOT
ATOM      1  C2  UNL d   1       0.597  -1.022   0.865  0.00  0.00    -0.077 A 
ATOM      2  C3  UNL d   1       1.248  -2.086   1.505  0.00  0.00     0.002 A 
ATOM      3  C4  UNL d   1       2.624  -2.038   1.732  0.00  0.00     0.002 A 
ATOM      4  C5  UNL d   1       3.361  -0.927   1.327  0.00  0.00    -0.004 A 
ATOM      5  C6  UNL d   1       2.723   0.136   0.688  0.00  0.00     0.002 A 
ATOM      6  C7  UNL d   1       1.348   0.089   0.459  0.00  0.00     0.002 A 
ENDROOT
BRANCH   1   7
ATOM      7  C1  UNL d   1      -0.896  -1.050   0.663  0.00  0.00     0.055 C 
ATOM      8  C   UNL d   1      -1.343   0.030  -0.311  0.00  0.00     0.019 C 
ENDBRANCH   1   7
TORSDOF 1
ENDMDL
