MODEL 1
REMARK minimizedAffinity -4.02066278
REMARK minimizedRMSD -1
REMARK  1 active torsions:
REMARK  status: ('A' for Active; 'I' for Inactive)
REMARK    1  A    between atoms: C1_2  and  C2_3 
ROOT
ATOM      1  C2  UNL d   1      -1.709  -0.100  -1.412  0.00  0.00    -0.077 A 
ATOM      2  C3  UNL d   1      -2.231  -1.271  -1.979  0.00  0.00     0.002 A 
ATOM      3  C4  UNL d   1      -2.877  -1.230  -3.216  0.00  0.00     0.002 A 
ATOM      4  C5  UNL d   1      -3.003  -0.021  -3.898  0.00  0.00    -0.004 A 
ATOM      5  C6  UNL d   1      -2.490   1.149  -3.341  0.00  0.00     0.002 A 
ATOM      6  C7  UNL d   1      -1.845   1.110  -2.104  0.00  0.00     0.002 A 
ENDROOT
BRANCH   1   7
ATOM      7  C1  UNL d   1      -0.969  -0.151  -0.101  0.00  0.00     0.055 C 
ATOM      8  C   UNL d   1       0.158   0.871  -0.061  0.00  0.00     0.019 C 
ENDBRANCH   1   7
TORSDOF 1
ENDMDL
