MODEL 1
REMARK minimizedAffinity -5.2283659
REMARK minimizedRMSD -1
REMARK  1 active torsions:
REMARK  status: ('A' for Active; 'I' for Inactive)
REMARK    1  A    between atoms: C1_2  and  C2_3 
ROOT
ATOM      1  C2  UNL d   1       0.584  -0.939   0.338  0.00  0.00    -0.077 A 
ATOM      2  C3  UNL d   1       0.863  -1.967   1.250  0.00  0.00     0.002 A 
ATOM      3  C4  UNL d   1       2.092  -2.011   1.912  0.00  0.00     0.002 A 
ATOM      4  C5  UNL d   1       3.049  -1.028   1.671  0.00  0.00    -0.004 A 
ATOM      5  C6  UNL d   1       2.783  -0.003   0.764  0.00  0.00     0.002 A 
ATOM      6  C7  UNL d   1       1.556   0.042   0.102  0.00  0.00     0.002 A 
ENDROOT
BRANCH   1   7
ATOM      7  C1  UNL d   1      -0.759  -0.863  -0.339  0.00  0.00     0.055 C 
ATOM      8  C   UNL d   1      -1.188   0.581  -0.556  0.00  0.00     0.019 C 
ENDBRANCH   1   7
TORSDOF 1
ENDMDL
