MODEL 1
REMARK minimizedAffinity 8.46353436
REMARK minimizedRMSD -1
REMARK  3 active torsions:
REMARK  status: ('A' for Active; 'I' for Inactive)
REMARK    1  A    between atoms: C3'_2  and  C2'_3 
REMARK    2  A    between atoms: C2'_3  and  C1'_4 
REMARK    3  A    between atoms: C1'_4  and  C1_5 
ROOT
ATOM      1  C1  N4B d   1       3.494   0.396   0.282  0.00  0.00    -0.075 A 
ATOM      2  C2  N4B d   1       3.137  -0.829  -0.323  0.00  0.00     0.002 A 
ATOM      3  C3  N4B d   1       3.610  -1.141  -1.574  0.00  0.00     0.002 A 
ATOM      4  C4  N4B d   1       4.424  -0.240  -2.244  0.00  0.00    -0.004 A 
ATOM      5  C5  N4B d   1       4.785   0.930  -1.642  0.00  0.00     0.002 A 
ATOM      6  C6  N4B d   1       4.320   1.255  -0.384  0.00  0.00     0.002 A 
ENDROOT
BRANCH   1   7
ATOM      7  C1' N4B d   1       2.932   0.819   1.612  0.00  0.00     0.057 C 
BRANCH   7   8
ATOM      8  C2' N4B d   1       1.489   0.337   1.721  0.00  0.00     0.009 C 
BRANCH   8   9
ATOM      9  C3' N4B d   1       1.266  -0.514   2.960  0.00  0.00     0.004 C 
ATOM     10  C4' N4B d   1       0.948  -1.942   2.634  0.00  0.00     0.003 C 
ENDBRANCH   8   9
ENDBRANCH   7   8
ENDBRANCH   1   7
TORSDOF 3
ENDMDL
