MODEL 1
REMARK minimizedAffinity 6.87066031
REMARK minimizedRMSD -1
REMARK  3 active torsions:
REMARK  status: ('A' for Active; 'I' for Inactive)
REMARK    1  A    between atoms: C3'_2  and  C2'_3 
REMARK    2  A    between atoms: C2'_3  and  C1'_4 
REMARK    3  A    between atoms: C1'_4  and  C1_5 
ROOT
ATOM      1  C1  N4B d   1       3.254   0.038  -0.165  0.00  0.00    -0.075 A 
ATOM      2  C2  N4B d   1       3.850   1.101  -0.877  0.00  0.00     0.002 A 
ATOM      3  C3  N4B d   1       5.214   1.144  -1.031  0.00  0.00     0.002 A 
ATOM      4  C4  N4B d   1       6.000   0.149  -0.469  0.00  0.00    -0.004 A 
ATOM      5  C5  N4B d   1       5.414  -0.888   0.196  0.00  0.00     0.002 A 
ATOM      6  C6  N4B d   1       4.044  -0.946   0.355  0.00  0.00     0.002 A 
ENDROOT
BRANCH   1   7
ATOM      7  C1' N4B d   1       1.774  -0.007   0.103  0.00  0.00     0.057 C 
BRANCH   7   8
ATOM      8  C2' N4B d   1       1.506   0.502   1.517  0.00  0.00     0.009 C 
BRANCH   8   9
ATOM      9  C3' N4B d   1       0.048   0.340   1.912  0.00  0.00     0.004 C 
ATOM     10  C4' N4B d   1      -0.811   1.476   1.441  0.00  0.00     0.003 C 
ENDBRANCH   8   9
ENDBRANCH   7   8
ENDBRANCH   1   7
TORSDOF 3
ENDMDL
