MODEL 1
REMARK minimizedAffinity -4.78746986
REMARK minimizedRMSD -1
REMARK  3 active torsions:
REMARK  status: ('A' for Active; 'I' for Inactive)
REMARK    1  A    between atoms: C3'_2  and  C2'_3 
REMARK    2  A    between atoms: C2'_3  and  C1'_4 
REMARK    3  A    between atoms: C1'_4  and  C1_5 
ROOT
ATOM      1  C1  N4B d   1       0.679  -1.512  -1.250  0.00  0.00    -0.075 A 
ATOM      2  C2  N4B d   1       1.049  -2.756  -0.694  0.00  0.00     0.002 A 
ATOM      3  C3  N4B d   1       0.547  -3.920  -1.221  0.00  0.00     0.002 A 
ATOM      4  C4  N4B d   1      -0.338  -3.864  -2.288  0.00  0.00    -0.004 A 
ATOM      5  C5  N4B d   1      -0.670  -2.660  -2.836  0.00  0.00     0.002 A 
ATOM      6  C6  N4B d   1      -0.169  -1.482  -2.318  0.00  0.00     0.002 A 
ENDROOT
BRANCH   1   7
ATOM      7  C1' N4B d   1       1.135  -0.208  -0.653  0.00  0.00     0.057 C 
BRANCH   7   8
ATOM      8  C2' N4B d   1      -0.070   0.526  -0.073  0.00  0.00     0.009 C 
BRANCH   8   9
ATOM      9  C3' N4B d   1      -0.523  -0.078   1.245  0.00  0.00     0.004 C 
ATOM     10  C4' N4B d   1      -1.406   0.844   2.033  0.00  0.00     0.003 C 
ENDBRANCH   8   9
ENDBRANCH   7   8
ENDBRANCH   1   7
TORSDOF 3
ENDMDL
