MODEL 1
REMARK minimizedAffinity -5.94859457
REMARK minimizedRMSD -1
REMARK  3 active torsions:
REMARK  status: ('A' for Active; 'I' for Inactive)
REMARK    1  A    between atoms: C3'_2  and  C2'_3 
REMARK    2  A    between atoms: C2'_3  and  C1'_4 
REMARK    3  A    between atoms: C1'_4  and  C1_5 
ROOT
ATOM      1  C1  N4B d   1       0.104   0.076   0.276  0.00  0.00    -0.075 A 
ATOM      2  C2  N4B d   1      -0.510   1.106  -0.469  0.00  0.00     0.002 A 
ATOM      3  C3  N4B d   1      -1.463   1.903   0.118  0.00  0.00     0.002 A 
ATOM      4  C4  N4B d   1      -1.829   1.676   1.436  0.00  0.00    -0.004 A 
ATOM      5  C5  N4B d   1      -1.212   0.695   2.156  0.00  0.00     0.002 A 
ATOM      6  C6  N4B d   1      -0.250  -0.110   1.581  0.00  0.00     0.002 A 
ENDROOT
BRANCH   1   7
ATOM      7  C1' N4B d   1       1.089  -0.876  -0.347  0.00  0.00     0.057 C 
BRANCH   7   8
ATOM      8  C2' N4B d   1       0.473  -1.481  -1.605  0.00  0.00     0.009 C 
BRANCH   8   9
ATOM      9  C3' N4B d   1       0.879  -2.932  -1.796  0.00  0.00     0.004 C 
ATOM     10  C4' N4B d   1      -0.293  -3.868  -1.788  0.00  0.00     0.003 C 
ENDBRANCH   8   9
ENDBRANCH   7   8
ENDBRANCH   1   7
TORSDOF 3
ENDMDL
