MODEL 1
REMARK minimizedAffinity -6.45495653
REMARK minimizedRMSD -1
REMARK  3 active torsions:
REMARK  status: ('A' for Active; 'I' for Inactive)
REMARK    1  A    between atoms: C3'_2  and  C2'_3 
REMARK    2  A    between atoms: C2'_3  and  C1'_4 
REMARK    3  A    between atoms: C1'_4  and  C1_5 
ROOT
ATOM      1  C1  N4B d   1      -0.148   0.462  -0.079  0.00  0.00    -0.075 A 
ATOM      2  C2  N4B d   1      -0.729   1.740  -0.235  0.00  0.00     0.002 A 
ATOM      3  C3  N4B d   1      -1.677   2.177   0.657  0.00  0.00     0.002 A 
ATOM      4  C4  N4B d   1      -2.072   1.350   1.698  0.00  0.00    -0.004 A 
ATOM      5  C5  N4B d   1      -1.487   0.127   1.857  0.00  0.00     0.002 A 
ATOM      6  C6  N4B d   1      -0.530  -0.323   0.970  0.00  0.00     0.002 A 
ENDROOT
BRANCH   1   7
ATOM      7  C1' N4B d   1       0.830  -0.093  -1.078  0.00  0.00     0.057 C 
BRANCH   7   8
ATOM      8  C2' N4B d   1       0.841  -1.616  -0.974  0.00  0.00     0.009 C 
BRANCH   8   9
ATOM      9  C3' N4B d   1       0.470  -2.278  -2.290  0.00  0.00     0.004 C 
ATOM     10  C4' N4B d   1      -0.223  -3.595  -2.103  0.00  0.00     0.003 C 
ENDBRANCH   8   9
ENDBRANCH   7   8
ENDBRANCH   1   7
TORSDOF 3
ENDMDL
