MODEL 1
REMARK minimizedAffinity -2.66454029
REMARK minimizedRMSD -1
REMARK  3 active torsions:
REMARK  status: ('A' for Active; 'I' for Inactive)
REMARK    1  A    between atoms: C3'_2  and  C2'_3 
REMARK    2  A    between atoms: C2'_3  and  C1'_4 
REMARK    3  A    between atoms: C1'_4  and  C1_5 
ROOT
ATOM      1  C1  N4B d   1       0.567  -1.707  -0.733  0.00  0.00    -0.075 A 
ATOM      2  C2  N4B d   1       1.287  -2.898  -0.490  0.00  0.00     0.002 A 
ATOM      3  C3  N4B d   1       1.015  -4.027  -1.223  0.00  0.00     0.002 A 
ATOM      4  C4  N4B d   1       0.019  -3.995  -2.187  0.00  0.00    -0.004 A 
ATOM      5  C5  N4B d   1      -0.654  -2.834  -2.434  0.00  0.00     0.002 A 
ATOM      6  C6  N4B d   1      -0.389  -1.691  -1.708  0.00  0.00     0.002 A 
ENDROOT
BRANCH   1   7
ATOM      7  C1' N4B d   1       0.769  -0.472   0.101  0.00  0.00     0.057 C 
BRANCH   7   8
ATOM      8  C2' N4B d   1      -0.440   0.444  -0.059  0.00  0.00     0.009 C 
BRANCH   8   9
ATOM      9  C3' N4B d   1      -1.024   0.855   1.282  0.00  0.00     0.004 C 
ATOM     10  C4' N4B d   1      -1.494  -0.316   2.093  0.00  0.00     0.003 C 
ENDBRANCH   8   9
ENDBRANCH   7   8
ENDBRANCH   1   7
TORSDOF 3
ENDMDL
