MODEL 1
REMARK minimizedAffinity -0.532568157
REMARK minimizedRMSD -1
REMARK  3 active torsions:
REMARK  status: ('A' for Active; 'I' for Inactive)
REMARK    1  A    between atoms: C3'_2  and  C2'_3 
REMARK    2  A    between atoms: C2'_3  and  C1'_4 
REMARK    3  A    between atoms: C1'_4  and  C1_5 
ROOT
ATOM      1  C1  N4B d   1       0.524  -0.757  -0.789  0.00  0.00    -0.075 A 
ATOM      2  C2  N4B d   1       0.846   0.410  -1.516  0.00  0.00     0.002 A 
ATOM      3  C3  N4B d   1       0.141   1.569  -1.301  0.00  0.00     0.002 A 
ATOM      4  C4  N4B d   1      -0.896   1.581  -0.381  0.00  0.00    -0.004 A 
ATOM      5  C5  N4B d   1      -1.184   0.456   0.335  0.00  0.00     0.002 A 
ATOM      6  C6  N4B d   1      -0.482  -0.715   0.132  0.00  0.00     0.002 A 
ENDROOT
BRANCH   1   7
ATOM      7  C1' N4B d   1       1.209  -2.070  -1.051  0.00  0.00     0.057 C 
BRANCH   7   8
ATOM      8  C2' N4B d   1       1.182  -2.359  -2.549  0.00  0.00     0.009 C 
BRANCH   8   9
ATOM      9  C3' N4B d   1      -0.213  -2.714  -3.034  0.00  0.00     0.004 C 
ATOM     10  C4' N4B d   1      -0.660  -4.070  -2.575  0.00  0.00     0.003 C 
ENDBRANCH   8   9
ENDBRANCH   7   8
ENDBRANCH   1   7
TORSDOF 3
ENDMDL
