MODEL 1
REMARK minimizedAffinity -3.7799511
REMARK minimizedRMSD -1
REMARK  3 active torsions:
REMARK  status: ('A' for Active; 'I' for Inactive)
REMARK    1  A    between atoms: C3'_2  and  C2'_3 
REMARK    2  A    between atoms: C2'_3  and  C1'_4 
REMARK    3  A    between atoms: C1'_4  and  C1_5 
ROOT
ATOM      1  C1  N4B d   1      -0.148   0.136   0.189  0.00  0.00    -0.075 A 
ATOM      2  C2  N4B d   1      -1.078   1.097  -0.264  0.00  0.00     0.002 A 
ATOM      3  C3  N4B d   1      -1.906   1.727   0.632  0.00  0.00     0.002 A 
ATOM      4  C4  N4B d   1      -1.835   1.401   1.978  0.00  0.00    -0.004 A 
ATOM      5  C5  N4B d   1      -0.916   0.490   2.411  0.00  0.00     0.002 A 
ATOM      6  C6  N4B d   1      -0.075  -0.148   1.522  0.00  0.00     0.002 A 
ENDROOT
BRANCH   1   7
ATOM      7  C1' N4B d   1       0.719  -0.642  -0.763  0.00  0.00     0.057 C 
BRANCH   7   8
ATOM      8  C2' N4B d   1       0.779  -2.098  -0.311  0.00  0.00     0.009 C 
BRANCH   8   9
ATOM      9  C3' N4B d   1       1.376  -3.000  -1.377  0.00  0.00     0.004 C 
ATOM     10  C4' N4B d   1       0.340  -3.581  -2.293  0.00  0.00     0.003 C 
ENDBRANCH   8   9
ENDBRANCH   7   8
ENDBRANCH   1   7
TORSDOF 3
ENDMDL
