MODEL 1
REMARK minimizedAffinity -5.57648325
REMARK minimizedRMSD -1
REMARK  3 active torsions:
REMARK  status: ('A' for Active; 'I' for Inactive)
REMARK    1  A    between atoms: C3'_2  and  C2'_3 
REMARK    2  A    between atoms: C2'_3  and  C1'_4 
REMARK    3  A    between atoms: C1'_4  and  C1_5 
ROOT
ATOM      1  C1  N4B d   1      -0.215   0.576  -0.172  0.00  0.00    -0.075 A 
ATOM      2  C2  N4B d   1      -0.637  -0.005   1.044  0.00  0.00     0.002 A 
ATOM      3  C3  N4B d   1      -1.403   0.722   1.922  0.00  0.00     0.002 A 
ATOM      4  C4  N4B d   1      -1.742   2.031   1.615  0.00  0.00    -0.004 A 
ATOM      5  C5  N4B d   1      -1.352   2.576   0.427  0.00  0.00     0.002 A 
ATOM      6  C6  N4B d   1      -0.585   1.856  -0.467  0.00  0.00     0.002 A 
ENDROOT
BRANCH   1   7
ATOM      7  C1' N4B d   1       0.696  -0.150  -1.125  0.00  0.00     0.057 C 
BRANCH   7   8
ATOM      8  C2' N4B d   1       0.491  -1.653  -0.967  0.00  0.00     0.009 C 
BRANCH   8   9
ATOM      9  C3' N4B d   1       0.285  -2.343  -2.305  0.00  0.00     0.004 C 
ATOM     10  C4' N4B d   1      -0.074  -3.792  -2.162  0.00  0.00     0.003 C 
ENDBRANCH   8   9
ENDBRANCH   7   8
ENDBRANCH   1   7
TORSDOF 3
ENDMDL
