MODEL 1
REMARK minimizedAffinity -5.93936634
REMARK minimizedRMSD -1
REMARK  3 active torsions:
REMARK  status: ('A' for Active; 'I' for Inactive)
REMARK    1  A    between atoms: C3'_2  and  C2'_3 
REMARK    2  A    between atoms: C2'_3  and  C1'_4 
REMARK    3  A    between atoms: C1'_4  and  C1_5 
ROOT
ATOM      1  C1  N4B d   1      -0.503   0.811   0.333  0.00  0.00    -0.075 A 
ATOM      2  C2  N4B d   1      -1.193   1.358   1.437  0.00  0.00     0.002 A 
ATOM      3  C3  N4B d   1      -1.733   2.618   1.353  0.00  0.00     0.002 A 
ATOM      4  C4  N4B d   1      -1.580   3.354   0.188  0.00  0.00    -0.004 A 
ATOM      5  C5  N4B d   1      -0.935   2.808  -0.883  0.00  0.00     0.002 A 
ATOM      6  C6  N4B d   1      -0.390   1.542  -0.815  0.00  0.00     0.002 A 
ENDROOT
BRANCH   1   7
ATOM      7  C1' N4B d   1       0.179  -0.528   0.407  0.00  0.00     0.057 C 
BRANCH   7   8
ATOM      8  C2' N4B d   1       0.930  -0.780  -0.897  0.00  0.00     0.009 C 
BRANCH   8   9
ATOM      9  C3' N4B d   1       1.555  -2.164  -0.935  0.00  0.00     0.004 C 
ATOM     10  C4' N4B d   1       0.916  -3.062  -1.951  0.00  0.00     0.003 C 
ENDBRANCH   8   9
ENDBRANCH   7   8
ENDBRANCH   1   7
TORSDOF 3
ENDMDL
