MODEL 1
REMARK minimizedAffinity 3.3037467
REMARK minimizedRMSD -1
REMARK  0 active torsions:
REMARK  status: ('A' for Active; 'I' for Inactive)
ROOT
ATOM      1  C4' PXY d   1      -3.967   0.765   2.175  0.00  0.00     0.077 C 
ATOM      2  C1' PXY d   1       1.475  -1.168   2.427  0.00  0.00     0.077 C 
ATOM      3  C1  PXY d   1       0.047  -0.660   2.374  0.00  0.00    -0.082 A 
ATOM      4  C2  PXY d   1      -0.712  -0.950   1.329  0.00  0.00     0.003 A 
ATOM      5  C3  PXY d   1      -1.994  -0.472   1.250  0.00  0.00     0.003 A 
ATOM      6  C4  PXY d   1      -2.523   0.266   2.275  0.00  0.00    -0.082 A 
ATOM      7  C5  PXY d   1      -1.759   0.557   3.349  0.00  0.00     0.003 A 
ATOM      8  C6  PXY d   1      -0.446   0.097   3.391  0.00  0.00     0.003 A 
ENDROOT
TORSDOF 0
ENDMDL
