MODEL 1
REMARK minimizedAffinity 3.79674506
REMARK minimizedRMSD -1
REMARK  0 active torsions:
REMARK  status: ('A' for Active; 'I' for Inactive)
ROOT
ATOM      1  C4' PXY d   1      -1.390   1.206  -6.000  0.00  0.00     0.077 C 
ATOM      2  C1' PXY d   1       0.991  -3.394  -3.433  0.00  0.00     0.077 C 
ATOM      3  C1  PXY d   1       0.377  -2.187  -4.114  0.00  0.00    -0.082 A 
ATOM      4  C2  PXY d   1      -0.535  -1.470  -3.477  0.00  0.00     0.003 A 
ATOM      5  C3  PXY d   1      -1.124  -0.394  -4.090  0.00  0.00     0.003 A 
ATOM      6  C4  PXY d   1      -0.737  -0.016  -5.348  0.00  0.00    -0.082 A 
ATOM      7  C5  PXY d   1       0.201  -0.735  -6.000  0.00  0.00     0.003 A 
ATOM      8  C6  PXY d   1       0.756  -1.849  -5.376  0.00  0.00     0.003 A 
ENDROOT
TORSDOF 0
ENDMDL
