MODEL 1
REMARK minimizedAffinity 1.80205774
REMARK minimizedRMSD -1
REMARK  0 active torsions:
REMARK  status: ('A' for Active; 'I' for Inactive)
ROOT
ATOM      1  C4' PXY d   1      -5.511   0.908  -0.193  0.00  0.00     0.077 C 
ATOM      2  C1' PXY d   1      -0.682  -0.253   2.764  0.00  0.00     0.077 C 
ATOM      3  C1  PXY d   1      -1.942   0.047   1.978  0.00  0.00    -0.082 A 
ATOM      4  C2  PXY d   1      -2.790   0.960   2.424  0.00  0.00     0.003 A 
ATOM      5  C3  PXY d   1      -3.951   1.221   1.742  0.00  0.00     0.003 A 
ATOM      6  C4  PXY d   1      -4.221   0.579   0.563  0.00  0.00    -0.082 A 
ATOM      7  C5  PXY d   1      -3.356  -0.346   0.096  0.00  0.00     0.003 A 
ATOM      8  C6  PXY d   1      -2.203  -0.626   0.824  0.00  0.00     0.003 A 
ENDROOT
TORSDOF 0
ENDMDL
