MODEL 1
REMARK minimizedAffinity 0.69889766
REMARK minimizedRMSD -1
REMARK  0 active torsions:
REMARK  status: ('A' for Active; 'I' for Inactive)
ROOT
ATOM      1  C4' PXY d   1      -0.100  -0.940   2.696  0.00  0.00     0.077 C 
ATOM      2  C1' PXY d   1      -5.073   1.388   0.890  0.00  0.00     0.077 C 
ATOM      3  C1  PXY d   1      -3.771   0.767   1.356  0.00  0.00    -0.082 A 
ATOM      4  C2  PXY d   1      -3.276   1.096   2.538  0.00  0.00     0.003 A 
ATOM      5  C3  PXY d   1      -2.083   0.568   2.961  0.00  0.00     0.003 A 
ATOM      6  C4  PXY d   1      -1.416  -0.345   2.189  0.00  0.00    -0.082 A 
ATOM      7  C5  PXY d   1      -1.921  -0.694   0.986  0.00  0.00     0.003 A 
ATOM      8  C6  PXY d   1      -3.112  -0.116   0.557  0.00  0.00     0.003 A 
ENDROOT
TORSDOF 0
ENDMDL
