MODEL 1
REMARK minimizedAffinity -1.11440957
REMARK minimizedRMSD -1
REMARK  0 active torsions:
REMARK  status: ('A' for Active; 'I' for Inactive)
ROOT
ATOM      1  C4' PXY d   1      -0.754   0.527  -5.998  0.00  0.00     0.077 C 
ATOM      2  C1' PXY d   1       0.681  -3.141  -1.767  0.00  0.00     0.077 C 
ATOM      3  C1  PXY d   1       0.299  -2.172  -2.868  0.00  0.00    -0.082 A 
ATOM      4  C2  PXY d   1       0.221  -2.599  -4.118  0.00  0.00     0.003 A 
ATOM      5  C3  PXY d   1      -0.092  -1.728  -5.130  0.00  0.00     0.003 A 
ATOM      6  C4  PXY d   1      -0.380  -0.419  -4.853  0.00  0.00    -0.082 A 
ATOM      7  C5  PXY d   1      -0.314   0.022  -3.579  0.00  0.00     0.003 A 
ATOM      8  C6  PXY d   1       0.046  -0.868  -2.572  0.00  0.00     0.003 A 
ENDROOT
TORSDOF 0
ENDMDL
