MODEL 1
REMARK minimizedAffinity -2.2721715
REMARK minimizedRMSD -1
REMARK  0 active torsions:
REMARK  status: ('A' for Active; 'I' for Inactive)
ROOT
ATOM      1  C4' PXY d   1      -2.398  -0.197  -4.274  0.00  0.00     0.077 C 
ATOM      2  C1' PXY d   1       3.089   0.386  -5.997  0.00  0.00     0.077 C 
ATOM      3  C1  PXY d   1       1.653   0.239  -5.534  0.00  0.00    -0.082 A 
ATOM      4  C2  PXY d   1       0.913  -0.754  -6.000  0.00  0.00     0.003 A 
ATOM      5  C3  PXY d   1      -0.397  -0.883  -5.617  0.00  0.00     0.003 A 
ATOM      6  C4  PXY d   1      -0.940  -0.016  -4.707  0.00  0.00    -0.082 A 
ATOM      7  C5  PXY d   1      -0.189   0.994  -4.219  0.00  0.00     0.003 A 
ATOM      8  C6  PXY d   1       1.126   1.131  -4.652  0.00  0.00     0.003 A 
ENDROOT
TORSDOF 0
ENDMDL
