MODEL 1
REMARK minimizedAffinity 1.09667635
REMARK minimizedRMSD -1
REMARK  0 active torsions:
REMARK  status: ('A' for Active; 'I' for Inactive)
ROOT
ATOM      1  C4' PXY d   1      -1.055   0.688  -5.998  0.00  0.00     0.077 C 
ATOM      2  C1' PXY d   1      -0.057  -2.820  -1.513  0.00  0.00     0.077 C 
ATOM      3  C1  PXY d   1      -0.311  -1.907  -2.697  0.00  0.00    -0.082 A 
ATOM      4  C2  PXY d   1      -0.670  -0.651  -2.489  0.00  0.00     0.003 A 
ATOM      5  C3  PXY d   1      -0.935   0.179  -3.548  0.00  0.00     0.003 A 
ATOM      6  C4  PXY d   1      -0.779  -0.266  -4.833  0.00  0.00    -0.082 A 
ATOM      7  C5  PXY d   1      -0.402  -1.544  -5.053  0.00  0.00     0.003 A 
ATOM      8  C6  PXY d   1      -0.178  -2.382  -3.965  0.00  0.00     0.003 A 
ENDROOT
TORSDOF 0
ENDMDL
