MODEL 1
REMARK minimizedAffinity -1.89476693
REMARK minimizedRMSD -1
REMARK  0 active torsions:
REMARK  status: ('A' for Active; 'I' for Inactive)
ROOT
ATOM      1  C4' PXY d   1      -2.504   0.376  -4.861  0.00  0.00     0.077 C 
ATOM      2  C1' PXY d   1       3.264   0.471  -5.236  0.00  0.00     0.077 C 
ATOM      3  C1  PXY d   1       1.752   0.449  -5.125  0.00  0.00    -0.082 A 
ATOM      4  C2  PXY d   1       1.042  -0.244  -6.000  0.00  0.00     0.003 A 
ATOM      5  C3  PXY d   1      -0.327  -0.249  -5.933  0.00  0.00     0.003 A 
ATOM      6  C4  PXY d   1      -0.975   0.420  -4.929  0.00  0.00    -0.082 A 
ATOM      7  C5  PXY d   1      -0.257   1.121  -4.026  0.00  0.00     0.003 A 
ATOM      8  C6  PXY d   1       1.131   1.147  -4.136  0.00  0.00     0.003 A 
ENDROOT
TORSDOF 0
ENDMDL
