MODEL 1
REMARK minimizedAffinity -0.669031262
REMARK minimizedRMSD -1
REMARK  2 active torsions:
REMARK  status: ('A' for Active; 'I' for Inactive)
REMARK    1  A    between atoms: C1_2  and  C2_3 
REMARK    2  A    between atoms: C2_3  and  C3_4 
ROOT
ATOM      1  C3  UNL d   1       1.592  -1.672  -0.556  0.00  0.00    -0.075 A 
ATOM      2  C4  UNL d   1       0.697  -0.600  -0.689  0.00  0.00     0.002 A 
ATOM      3  C5  UNL d   1       0.852   0.552   0.082  0.00  0.00     0.002 A 
ATOM      4  C6  UNL d   1       1.894   0.643   1.002  0.00  0.00    -0.004 A 
ATOM      5  C7  UNL d   1       2.779  -0.422   1.154  0.00  0.00     0.002 A 
ATOM      6  C8  UNL d   1       2.630  -1.574   0.380  0.00  0.00     0.002 A 
ENDROOT
BRANCH   1   7
ATOM      7  C2  UNL d   1       1.448  -2.909  -1.410  0.00  0.00     0.056 C 
BRANCH   7   8
ATOM      8  C1  UNL d   1       1.955  -2.739  -2.846  0.00  0.00     0.007 C 
ATOM      9  C   UNL d   1       3.457  -2.949  -2.981  0.00  0.00     0.009 C 
ENDBRANCH   7   8
ENDBRANCH   1   7
TORSDOF 2
ENDMDL
