MODEL 1
REMARK minimizedAffinity 7.40227318
REMARK minimizedRMSD -1
REMARK  2 active torsions:
REMARK  status: ('A' for Active; 'I' for Inactive)
REMARK    1  A    between atoms: C1_2  and  C2_3 
REMARK    2  A    between atoms: C2_3  and  C3_4 
ROOT
ATOM      1  C3  UNL d   1       1.932  -0.900  -0.268  0.00  0.00    -0.075 A 
ATOM      2  C4  UNL d   1       2.615  -0.833   0.955  0.00  0.00     0.002 A 
ATOM      3  C5  UNL d   1       2.615   0.344   1.704  0.00  0.00     0.002 A 
ATOM      4  C6  UNL d   1       1.941   1.470   1.235  0.00  0.00    -0.004 A 
ATOM      5  C7  UNL d   1       1.273   1.420   0.014  0.00  0.00     0.002 A 
ATOM      6  C8  UNL d   1       1.268   0.242  -0.735  0.00  0.00     0.002 A 
ENDROOT
BRANCH   1   7
ATOM      7  C2  UNL d   1       1.904  -2.180  -1.068  0.00  0.00     0.056 C 
BRANCH   7   8
ATOM      8  C1  UNL d   1       1.317  -3.376  -0.312  0.00  0.00     0.007 C 
ATOM      9  C   UNL d   1      -0.076  -3.765  -0.791  0.00  0.00     0.009 C 
ENDBRANCH   7   8
ENDBRANCH   1   7
TORSDOF 2
ENDMDL
