MODEL 1
REMARK minimizedAffinity 0.145264313
REMARK minimizedRMSD -1
REMARK  2 active torsions:
REMARK  status: ('A' for Active; 'I' for Inactive)
REMARK    1  A    between atoms: C1_2  and  C2_3 
REMARK    2  A    between atoms: C2_3  and  C3_4 
ROOT
ATOM      1  C3  UNL d   1       3.743   3.389   3.854  0.00  0.00    -0.075 A 
ATOM      2  C4  UNL d   1       3.370   2.604   2.753  0.00  0.00     0.002 A 
ATOM      3  C5  UNL d   1       2.117   1.993   2.710  0.00  0.00     0.002 A 
ATOM      4  C6  UNL d   1       1.226   2.149   3.770  0.00  0.00    -0.004 A 
ATOM      5  C7  UNL d   1       1.592   2.913   4.876  0.00  0.00     0.002 A 
ATOM      6  C8  UNL d   1       2.844   3.529   4.919  0.00  0.00     0.002 A 
ENDROOT
BRANCH   1   7
ATOM      7  C2  UNL d   1       5.087   4.077   3.893  0.00  0.00     0.056 C 
BRANCH   7   8
ATOM      8  C1  UNL d   1       5.117   5.336   4.764  0.00  0.00     0.007 C 
ATOM      9  C   UNL d   1       6.000   5.192   5.997  0.00  0.00     0.009 C 
ENDBRANCH   7   8
ENDBRANCH   1   7
TORSDOF 2
ENDMDL
