MODEL 1
REMARK minimizedAffinity 1.9401747
REMARK minimizedRMSD -1
REMARK  2 active torsions:
REMARK  status: ('A' for Active; 'I' for Inactive)
REMARK    1  A    between atoms: C1_2  and  C2_3 
REMARK    2  A    between atoms: C2_3  and  C3_4 
ROOT
ATOM      1  C3  UNL d   1       1.580  -2.147  -0.315  0.00  0.00    -0.075 A 
ATOM      2  C4  UNL d   1       2.857  -2.388   0.213  0.00  0.00     0.002 A 
ATOM      3  C5  UNL d   1       3.676  -1.327   0.599  0.00  0.00     0.002 A 
ATOM      4  C6  UNL d   1       3.234  -0.014   0.454  0.00  0.00    -0.004 A 
ATOM      5  C7  UNL d   1       1.974   0.238  -0.084  0.00  0.00     0.002 A 
ATOM      6  C8  UNL d   1       1.151  -0.821  -0.467  0.00  0.00     0.002 A 
ENDROOT
BRANCH   1   7
ATOM      7  C2  UNL d   1       0.677  -3.291  -0.707  0.00  0.00     0.056 C 
BRANCH   7   8
ATOM      8  C1  UNL d   1      -0.728  -2.858  -1.139  0.00  0.00     0.007 C 
ATOM      9  C   UNL d   1      -1.497  -3.953  -1.866  0.00  0.00     0.009 C 
ENDBRANCH   7   8
ENDBRANCH   1   7
TORSDOF 2
ENDMDL
