MODEL 1
REMARK minimizedAffinity 2.3423357
REMARK minimizedRMSD -1
REMARK  2 active torsions:
REMARK  status: ('A' for Active; 'I' for Inactive)
REMARK    1  A    between atoms: C1_2  and  C2_3 
REMARK    2  A    between atoms: C2_3  and  C3_4 
ROOT
ATOM      1  C3  UNL d   1       2.641  -1.212  -1.072  0.00  0.00    -0.075 A 
ATOM      2  C4  UNL d   1       2.503  -2.421  -1.769  0.00  0.00     0.002 A 
ATOM      3  C5  UNL d   1       1.244  -2.995  -1.949  0.00  0.00     0.002 A 
ATOM      4  C6  UNL d   1       0.111  -2.376  -1.426  0.00  0.00    -0.004 A 
ATOM      5  C7  UNL d   1       0.238  -1.183  -0.717  0.00  0.00     0.002 A 
ATOM      6  C8  UNL d   1       1.496  -0.603  -0.540  0.00  0.00     0.002 A 
ENDROOT
BRANCH   1   7
ATOM      7  C2  UNL d   1       3.996  -0.570  -0.900  0.00  0.00     0.056 C 
BRANCH   7   8
ATOM      8  C1  UNL d   1       4.341   0.460  -1.981  0.00  0.00     0.007 C 
ATOM      9  C   UNL d   1       4.580   1.857  -1.425  0.00  0.00     0.009 C 
ENDBRANCH   7   8
ENDBRANCH   1   7
TORSDOF 2
ENDMDL
