MODEL 1
REMARK minimizedAffinity -3.28880072
REMARK minimizedRMSD -1
REMARK  2 active torsions:
REMARK  status: ('A' for Active; 'I' for Inactive)
REMARK    1  A    between atoms: C1_2  and  C2_3 
REMARK    2  A    between atoms: C2_3  and  C3_4 
ROOT
ATOM      1  C3  UNL d   1       3.473  -0.645  -1.512  0.00  0.00    -0.075 A 
ATOM      2  C4  UNL d   1       2.624  -1.071  -0.481  0.00  0.00     0.002 A 
ATOM      3  C5  UNL d   1       1.801  -2.184  -0.655  0.00  0.00     0.002 A 
ATOM      4  C6  UNL d   1       1.809  -2.878  -1.863  0.00  0.00    -0.004 A 
ATOM      5  C7  UNL d   1       2.637  -2.454  -2.900  0.00  0.00     0.002 A 
ATOM      6  C8  UNL d   1       3.464  -1.343  -2.727  0.00  0.00     0.002 A 
ENDROOT
BRANCH   1   7
ATOM      7  C2  UNL d   1       4.388   0.541  -1.319  0.00  0.00     0.056 C 
BRANCH   7   8
ATOM      8  C1  UNL d   1       3.866   1.574  -0.316  0.00  0.00     0.007 C 
ATOM      9  C   UNL d   1       4.974   2.246   0.485  0.00  0.00     0.009 C 
ENDBRANCH   7   8
ENDBRANCH   1   7
TORSDOF 2
ENDMDL
