MODEL 1
REMARK minimizedAffinity -2.05182838
REMARK minimizedRMSD -1
REMARK  2 active torsions:
REMARK  status: ('A' for Active; 'I' for Inactive)
REMARK    1  A    between atoms: C1_2  and  C2_3 
REMARK    2  A    between atoms: C2_3  and  C3_4 
ROOT
ATOM      1  C3  UNL d   1       1.891  -1.099  -0.560  0.00  0.00    -0.075 A 
ATOM      2  C4  UNL d   1       1.297  -2.265  -1.064  0.00  0.00     0.002 A 
ATOM      3  C5  UNL d   1      -0.034  -2.257  -1.485  0.00  0.00     0.002 A 
ATOM      4  C6  UNL d   1      -0.788  -1.089  -1.396  0.00  0.00    -0.004 A 
ATOM      5  C7  UNL d   1      -0.212   0.071  -0.881  0.00  0.00     0.002 A 
ATOM      6  C8  UNL d   1       1.120   0.067  -0.464  0.00  0.00     0.002 A 
ENDROOT
BRANCH   1   7
ATOM      7  C2  UNL d   1       3.339  -1.094  -0.131  0.00  0.00     0.056 C 
BRANCH   7   8
ATOM      8  C1  UNL d   1       4.161   0.056  -0.723  0.00  0.00     0.007 C 
ATOM      9  C   UNL d   1       5.458   0.318   0.031  0.00  0.00     0.009 C 
ENDBRANCH   7   8
ENDBRANCH   1   7
TORSDOF 2
ENDMDL
