MODEL 1
REMARK minimizedAffinity -1.12505555
REMARK minimizedRMSD -1
REMARK  0 active torsions:
REMARK  status: ('A' for Active; 'I' for Inactive)
ROOT
ATOM      1  C   UNL d   1       1.877   1.379   1.252  0.00  0.00     0.078 C 
ATOM      2  C1  UNL d   1       1.656   0.153   2.087  0.00  0.00    -0.077 A 
ATOM      3  C2  UNL d   1       0.770  -0.850   1.676  0.00  0.00    -0.001 A 
ATOM      4  C3  UNL d   1       0.567  -1.980   2.468  0.00  0.00     0.003 A 
ATOM      5  C4  UNL d   1       1.246  -2.119   3.678  0.00  0.00    -0.005 A 
ATOM      6  C5  UNL d   1       2.128  -1.125   4.096  0.00  0.00     0.003 A 
ATOM      7  C6  UNL d   1       2.332   0.007   3.305  0.00  0.00    -0.001 A 
ENDROOT
TORSDOF 0
ENDMDL
