MODEL 1
REMARK minimizedAffinity 0.483598679
REMARK minimizedRMSD -1
REMARK  0 active torsions:
REMARK  status: ('A' for Active; 'I' for Inactive)
ROOT
ATOM      1  C   UNL d   1       1.583  -1.724   3.540  0.00  0.00     0.078 C 
ATOM      2  C1  UNL d   1       1.667  -0.816   2.349  0.00  0.00    -0.077 A 
ATOM      3  C2  UNL d   1       2.522   0.292   2.347  0.00  0.00    -0.001 A 
ATOM      4  C3  UNL d   1       2.583   1.134   1.235  0.00  0.00     0.003 A 
ATOM      5  C4  UNL d   1       1.789   0.877   0.119  0.00  0.00    -0.005 A 
ATOM      6  C5  UNL d   1       0.934  -0.222   0.113  0.00  0.00     0.003 A 
ATOM      7  C6  UNL d   1       0.872  -1.065   1.224  0.00  0.00    -0.001 A 
ENDROOT
TORSDOF 0
ENDMDL
