MODEL 1
REMARK minimizedAffinity -1.7505976
REMARK minimizedRMSD -1
REMARK  0 active torsions:
REMARK  status: ('A' for Active; 'I' for Inactive)
ROOT
ATOM      1  C   UNL d   1       2.314   1.010   1.497  0.00  0.00     0.078 C 
ATOM      2  C1  UNL d   1       1.789  -0.300   2.004  0.00  0.00    -0.077 A 
ATOM      3  C2  UNL d   1       0.761  -0.973   1.333  0.00  0.00    -0.001 A 
ATOM      4  C3  UNL d   1       0.275  -2.187   1.821  0.00  0.00     0.003 A 
ATOM      5  C4  UNL d   1       0.811  -2.738   2.984  0.00  0.00    -0.005 A 
ATOM      6  C5  UNL d   1       1.832  -2.074   3.660  0.00  0.00     0.003 A 
ATOM      7  C6  UNL d   1       2.319  -0.860   3.173  0.00  0.00    -0.001 A 
ENDROOT
TORSDOF 0
ENDMDL
