MODEL 1
REMARK minimizedAffinity 3.18498206
REMARK minimizedRMSD -1
REMARK  0 active torsions:
REMARK  status: ('A' for Active; 'I' for Inactive)
ROOT
ATOM      1  C   UNL d   1      -0.831   0.151   0.269  0.00  0.00     0.078 C 
ATOM      2  C1  UNL d   1      -0.468  -1.256  -0.099  0.00  0.00    -0.077 A 
ATOM      3  C2  UNL d   1       0.401  -2.010   0.700  0.00  0.00    -0.001 A 
ATOM      4  C3  UNL d   1       0.738  -3.315   0.339  0.00  0.00     0.003 A 
ATOM      5  C4  UNL d   1       0.212  -3.878  -0.822  0.00  0.00    -0.005 A 
ATOM      6  C5  UNL d   1      -0.651  -3.135  -1.624  0.00  0.00     0.003 A 
ATOM      7  C6  UNL d   1      -0.989  -1.830  -1.265  0.00  0.00    -0.001 A 
ENDROOT
TORSDOF 0
ENDMDL
