MODEL 1
REMARK minimizedAffinity 1.20193768
REMARK minimizedRMSD -1
REMARK  0 active torsions:
REMARK  status: ('A' for Active; 'I' for Inactive)
ROOT
ATOM      1  C   UNL d   1       0.021  -1.309   1.267  0.00  0.00     0.078 C 
ATOM      2  C1  UNL d   1       0.452   0.061   0.835  0.00  0.00    -0.077 A 
ATOM      3  C2  UNL d   1      -0.472   0.980   0.324  0.00  0.00    -0.001 A 
ATOM      4  C3  UNL d   1      -0.054   2.248  -0.083  0.00  0.00     0.003 A 
ATOM      5  C4  UNL d   1       1.288   2.608   0.016  0.00  0.00    -0.005 A 
ATOM      6  C5  UNL d   1       2.215   1.699   0.522  0.00  0.00     0.003 A 
ATOM      7  C6  UNL d   1       1.800   0.431   0.930  0.00  0.00    -0.001 A 
ENDROOT
TORSDOF 0
ENDMDL
