MODEL 1
REMARK minimizedAffinity -0.561856806
REMARK minimizedRMSD -1
REMARK  0 active torsions:
REMARK  status: ('A' for Active; 'I' for Inactive)
ROOT
ATOM      1  C   UNL d   1      -0.700  -0.581   0.809  0.00  0.00     0.078 C 
ATOM      2  C1  UNL d   1      -0.378  -1.862   0.098  0.00  0.00    -0.077 A 
ATOM      3  C2  UNL d   1      -1.356  -2.544  -0.638  0.00  0.00    -0.001 A 
ATOM      4  C3  UNL d   1      -1.045  -3.740  -1.286  0.00  0.00     0.003 A 
ATOM      5  C4  UNL d   1       0.243  -4.265  -1.205  0.00  0.00    -0.005 A 
ATOM      6  C5  UNL d   1       1.222  -3.595  -0.474  0.00  0.00     0.003 A 
ATOM      7  C6  UNL d   1       0.913  -2.399   0.175  0.00  0.00    -0.001 A 
ENDROOT
TORSDOF 0
ENDMDL
