MODEL 1
REMARK minimizedAffinity 10.232605
REMARK minimizedRMSD -1
REMARK  0 active torsions:
REMARK  status: ('A' for Active; 'I' for Inactive)
ROOT
ATOM      1  C1  DEN d   1       1.632  -3.193  -2.771  0.00  0.00     0.130 A 
ATOM      2  C2  DEN d   1       2.614  -2.347  -2.098  0.00  0.00    -0.031 A 
ATOM      3  C3  DEN d   1       2.324  -2.374  -0.650  0.00  0.00     0.027 A 
ATOM      4  C4  DEN d   1       0.462  -3.641   0.608  0.00  0.00     0.027 A 
ATOM      5  C5  DEN d   1      -0.621  -4.479   0.463  0.00  0.00    -0.003 A 
ATOM      6  C6  DEN d   1      -1.046  -4.917  -0.764  0.00  0.00     0.001 A 
ATOM      7  C7  DEN d   1      -0.357  -4.553  -1.890  0.00  0.00     0.017 A 
ATOM      8  C8  DEN d   1       0.732  -3.702  -1.753  0.00  0.00    -0.094 A 
ATOM      9  C9  DEN d   1       1.154  -3.281  -0.503  0.00  0.00    -0.072 A 
ENDROOT
TORSDOF 0
ENDMDL
