MODEL 1
REMARK minimizedAffinity 7.64093018
REMARK minimizedRMSD -1
REMARK  0 active torsions:
REMARK  status: ('A' for Active; 'I' for Inactive)
ROOT
ATOM      1  C1  DEN d   1       3.627   2.012  -4.498  0.00  0.00     0.130 A 
ATOM      2  C2  DEN d   1       3.036   1.253  -3.399  0.00  0.00    -0.031 A 
ATOM      3  C3  DEN d   1       1.813   1.957  -2.964  0.00  0.00     0.027 A 
ATOM      4  C4  DEN d   1       0.780   4.135  -3.884  0.00  0.00     0.027 A 
ATOM      5  C5  DEN d   1       0.930   5.145  -4.808  0.00  0.00    -0.003 A 
ATOM      6  C6  DEN d   1       1.999   5.200  -5.663  0.00  0.00     0.001 A 
ATOM      7  C7  DEN d   1       2.936   4.201  -5.643  0.00  0.00     0.017 A 
ATOM      8  C8  DEN d   1       2.796   3.183  -4.710  0.00  0.00    -0.094 A 
ATOM      9  C9  DEN d   1       1.702   3.139  -3.862  0.00  0.00    -0.072 A 
ENDROOT
TORSDOF 0
ENDMDL
