MODEL 1
REMARK minimizedAffinity -0.758089423
REMARK minimizedRMSD -1
REMARK  0 active torsions:
REMARK  status: ('A' for Active; 'I' for Inactive)
ROOT
ATOM      1  C1  DEN d   1       2.379   1.161  -1.151  0.00  0.00     0.130 A 
ATOM      2  C2  DEN d   1       3.362   0.082  -1.100  0.00  0.00    -0.031 A 
ATOM      3  C3  DEN d   1       3.015  -0.799   0.033  0.00  0.00     0.027 A 
ATOM      4  C4  DEN d   1       1.057  -0.602   1.701  0.00  0.00     0.027 A 
ATOM      5  C5  DEN d   1      -0.035   0.154   2.065  0.00  0.00    -0.003 A 
ATOM      6  C6  DEN d   1      -0.377   1.307   1.410  0.00  0.00     0.001 A 
ATOM      7  C7  DEN d   1       0.355   1.714   0.326  0.00  0.00     0.017 A 
ATOM      8  C8  DEN d   1       1.462   0.961  -0.043  0.00  0.00    -0.094 A 
ATOM      9  C9  DEN d   1       1.784  -0.208   0.625  0.00  0.00    -0.072 A 
ENDROOT
TORSDOF 0
ENDMDL
