MODEL 1
REMARK minimizedAffinity -2.37134647
REMARK minimizedRMSD -1
REMARK  0 active torsions:
REMARK  status: ('A' for Active; 'I' for Inactive)
ROOT
ATOM      1  C1  DEN d   1      -2.716   1.183   2.572  0.00  0.00     0.130 A 
ATOM      2  C2  DEN d   1      -2.797   2.624   2.347  0.00  0.00    -0.031 A 
ATOM      3  C3  DEN d   1      -1.623   3.027   1.546  0.00  0.00     0.027 A 
ATOM      4  C4  DEN d   1       0.298   1.567   0.634  0.00  0.00     0.027 A 
ATOM      5  C5  DEN d   1       0.806   0.288   0.577  0.00  0.00    -0.003 A 
ATOM      6  C6  DEN d   1       0.199  -0.767   1.205  0.00  0.00     0.001 A 
ATOM      7  C7  DEN d   1      -0.977  -0.571   1.879  0.00  0.00     0.017 A 
ATOM      8  C8  DEN d   1      -1.492   0.717   1.947  0.00  0.00    -0.094 A 
ATOM      9  C9  DEN d   1      -0.870   1.769   1.296  0.00  0.00    -0.072 A 
ENDROOT
TORSDOF 0
ENDMDL
