MODEL 1
REMARK minimizedAffinity 11.80091
REMARK minimizedRMSD -1
REMARK  0 active torsions:
REMARK  status: ('A' for Active; 'I' for Inactive)
ROOT
ATOM      1  C1  DEN d   1       1.549   1.684   0.234  0.00  0.00     0.130 A 
ATOM      2  C2  DEN d   1       1.379   0.740   1.335  0.00  0.00    -0.031 A 
ATOM      3  C3  DEN d   1       1.930  -0.562   0.910  0.00  0.00     0.027 A 
ATOM      4  C4  DEN d   1       3.029  -1.205  -1.332  0.00  0.00     0.027 A 
ATOM      5  C5  DEN d   1       3.387  -0.744  -2.580  0.00  0.00    -0.003 A 
ATOM      6  C6  DEN d   1       3.129   0.539  -2.986  0.00  0.00     0.001 A 
ATOM      7  C7  DEN d   1       2.536   1.418  -2.120  0.00  0.00     0.017 A 
ATOM      8  C8  DEN d   1       2.165   0.959  -0.863  0.00  0.00    -0.094 A 
ATOM      9  C9  DEN d   1       2.446  -0.338  -0.467  0.00  0.00    -0.072 A 
ENDROOT
TORSDOF 0
ENDMDL
