MODEL 1
REMARK minimizedAffinity 3.10712743
REMARK minimizedRMSD -1
REMARK  0 active torsions:
REMARK  status: ('A' for Active; 'I' for Inactive)
ROOT
ATOM      1  C1  DEN d   1       0.909  -1.633   2.461  0.00  0.00     0.130 A 
ATOM      2  C2  DEN d   1      -0.437  -1.442   2.995  0.00  0.00    -0.031 A 
ATOM      3  C3  DEN d   1      -0.994  -0.210   2.400  0.00  0.00     0.027 A 
ATOM      4  C4  DEN d   1       0.090   1.408   0.709  0.00  0.00     0.027 A 
ATOM      5  C5  DEN d   1       1.225   1.669  -0.026  0.00  0.00    -0.003 A 
ATOM      6  C6  DEN d   1       2.338   0.873   0.042  0.00  0.00     0.001 A 
ATOM      7  C7  DEN d   1       2.323  -0.249   0.828  0.00  0.00     0.017 A 
ATOM      8  C8  DEN d   1       1.185  -0.514   1.578  0.00  0.00    -0.094 A 
ATOM      9  C9  DEN d   1       0.066   0.296   1.486  0.00  0.00    -0.072 A 
ENDROOT
TORSDOF 0
ENDMDL
