MODEL 1
REMARK minimizedAffinity 0.139576614
REMARK minimizedRMSD -1
REMARK  0 active torsions:
REMARK  status: ('A' for Active; 'I' for Inactive)
ROOT
ATOM      1  C1  DEN d   1      -1.044   0.663   1.980  0.00  0.00     0.130 A 
ATOM      2  C2  DEN d   1      -1.510   2.037   1.817  0.00  0.00    -0.031 A 
ATOM      3  C3  DEN d   1      -0.422   2.816   1.192  0.00  0.00     0.027 A 
ATOM      4  C4  DEN d   1       1.923   2.031   0.459  0.00  0.00     0.027 A 
ATOM      5  C5  DEN d   1       2.779   0.953   0.404  0.00  0.00    -0.003 A 
ATOM      6  C6  DEN d   1       2.437  -0.278   0.898  0.00  0.00     0.001 A 
ATOM      7  C7  DEN d   1       1.189  -0.473   1.427  0.00  0.00     0.017 A 
ATOM      8  C8  DEN d   1       0.322   0.610   1.493  0.00  0.00    -0.094 A 
ATOM      9  C9  DEN d   1       0.682   1.843   0.977  0.00  0.00    -0.072 A 
ENDROOT
TORSDOF 0
ENDMDL
