MODEL 1
REMARK minimizedAffinity 5.61713028
REMARK minimizedRMSD -1
REMARK  0 active torsions:
REMARK  status: ('A' for Active; 'I' for Inactive)
ROOT
ATOM      1  C1  DEN d   1      -0.503  -0.771   1.495  0.00  0.00     0.130 A 
ATOM      2  C2  DEN d   1       0.721  -0.196   0.945  0.00  0.00    -0.031 A 
ATOM      3  C3  DEN d   1       0.646   1.271   1.100  0.00  0.00     0.027 A 
ATOM      4  C4  DEN d   1      -1.235   2.699   2.138  0.00  0.00     0.027 A 
ATOM      5  C5  DEN d   1      -2.478   2.659   2.729  0.00  0.00    -0.003 A 
ATOM      6  C6  DEN d   1      -3.160   1.486   2.917  0.00  0.00     0.001 A 
ATOM      7  C7  DEN d   1      -2.582   0.299   2.552  0.00  0.00     0.017 A 
ATOM      8  C8  DEN d   1      -1.331   0.331   1.949  0.00  0.00    -0.094 A 
ATOM      9  C9  DEN d   1      -0.653   1.526   1.778  0.00  0.00    -0.072 A 
ENDROOT
TORSDOF 0
ENDMDL
