MODEL 1
REMARK minimizedAffinity 0.0222131796
REMARK minimizedRMSD -1
REMARK  0 active torsions:
REMARK  status: ('A' for Active; 'I' for Inactive)
ROOT
ATOM      1  C1  DEN d   1      -0.415  -0.728   1.375  0.00  0.00     0.130 A 
ATOM      2  C2  DEN d   1       0.668   0.031   0.754  0.00  0.00    -0.031 A 
ATOM      3  C3  DEN d   1       0.352   1.467   0.883  0.00  0.00     0.027 A 
ATOM      4  C4  DEN d   1      -1.696   2.586   1.983  0.00  0.00     0.027 A 
ATOM      5  C5  DEN d   1      -2.886   2.353   2.635  0.00  0.00    -0.003 A 
ATOM      6  C6  DEN d   1      -3.349   1.088   2.881  0.00  0.00     0.001 A 
ATOM      7  C7  DEN d   1      -2.595   0.005   2.512  0.00  0.00     0.017 A 
ATOM      8  C8  DEN d   1      -1.397   0.232   1.847  0.00  0.00    -0.094 A 
ATOM      9  C9  DEN d   1      -0.940   1.519   1.619  0.00  0.00    -0.072 A 
ENDROOT
TORSDOF 0
ENDMDL
