MODEL 1
REMARK minimizedAffinity 1.21291757
REMARK minimizedRMSD -1
REMARK  0 active torsions:
REMARK  status: ('A' for Active; 'I' for Inactive)
ROOT
ATOM      1  C1  DEN d   1      -1.755   1.890   1.567  0.00  0.00     0.130 A 
ATOM      2  C2  DEN d   1      -0.882   3.004   1.203  0.00  0.00    -0.031 A 
ATOM      3  C3  DEN d   1       0.445   2.452   0.863  0.00  0.00     0.027 A 
ATOM      4  C4  DEN d   1       1.227  -0.006   0.860  0.00  0.00     0.027 A 
ATOM      5  C5  DEN d   1       0.846  -1.306   1.108  0.00  0.00    -0.003 A 
ATOM      6  C6  DEN d   1      -0.409  -1.626   1.555  0.00  0.00     0.001 A 
ATOM      7  C7  DEN d   1      -1.342  -0.637   1.725  0.00  0.00     0.017 A 
ATOM      8  C8  DEN d   1      -0.962   0.677   1.484  0.00  0.00    -0.094 A 
ATOM      9  C9  DEN d   1       0.307   0.979   1.021  0.00  0.00    -0.072 A 
ENDROOT
TORSDOF 0
ENDMDL
