MODEL 1
REMARK minimizedAffinity 8.96805382
REMARK minimizedRMSD -1
REMARK  0 active torsions:
REMARK  status: ('A' for Active; 'I' for Inactive)
ROOT
ATOM      1  C1  DEN d   1      -0.197   0.751   2.211  0.00  0.00     0.130 A 
ATOM      2  C2  DEN d   1      -1.080   1.876   1.916  0.00  0.00    -0.031 A 
ATOM      3  C3  DEN d   1      -0.498   2.629   0.786  0.00  0.00     0.027 A 
ATOM      4  C4  DEN d   1       1.670   2.161  -0.530  0.00  0.00     0.027 A 
ATOM      5  C5  DEN d   1       2.759   1.325  -0.639  0.00  0.00    -0.003 A 
ATOM      6  C6  DEN d   1       2.956   0.268   0.210  0.00  0.00     0.001 A 
ATOM      7  C7  DEN d   1       2.025  -0.008   1.176  0.00  0.00     0.017 A 
ATOM      8  C8  DEN d   1       0.928   0.834   1.297  0.00  0.00    -0.094 A 
ATOM      9  C9  DEN d   1       0.741   1.891   0.422  0.00  0.00    -0.072 A 
ENDROOT
TORSDOF 0
ENDMDL
