MODEL 1
REMARK minimizedAffinity 1.44737554
REMARK minimizedRMSD -1
REMARK  0 active torsions:
REMARK  status: ('A' for Active; 'I' for Inactive)
ROOT
ATOM      1  C1  DEN d   1       1.368  -0.905   0.868  0.00  0.00     0.130 A 
ATOM      2  C2  DEN d   1       2.200   0.173   0.340  0.00  0.00    -0.031 A 
ATOM      3  C3  DEN d   1       1.417   1.424   0.400  0.00  0.00     0.027 A 
ATOM      4  C4  DEN d   1      -0.987   1.795   1.257  0.00  0.00     0.027 A 
ATOM      5  C5  DEN d   1      -2.096   1.178   1.791  0.00  0.00    -0.003 A 
ATOM      6  C6  DEN d   1      -2.141  -0.172   2.020  0.00  0.00     0.001 A 
ATOM      7  C7  DEN d   1      -1.038  -0.942   1.757  0.00  0.00     0.017 A 
ATOM      8  C8  DEN d   1       0.081  -0.327   1.212  0.00  0.00    -0.094 A 
ATOM      9  C9  DEN d   1       0.111   1.040   0.999  0.00  0.00    -0.072 A 
ENDROOT
TORSDOF 0
ENDMDL
