MODEL 1
REMARK minimizedAffinity 0.667177796
REMARK minimizedRMSD -1
REMARK  0 active torsions:
REMARK  status: ('A' for Active; 'I' for Inactive)
ROOT
ATOM      1  C1  DEN d   1      -2.817   2.166   3.417  0.00  0.00     0.130 A 
ATOM      2  C2  DEN d   1      -3.696   1.013   3.589  0.00  0.00    -0.031 A 
ATOM      3  C3  DEN d   1      -3.013  -0.170   3.028  0.00  0.00     0.027 A 
ATOM      4  C4  DEN d   1      -0.689  -0.328   1.921  0.00  0.00     0.027 A 
ATOM      5  C5  DEN d   1       0.424   0.389   1.539  0.00  0.00    -0.003 A 
ATOM      6  C6  DEN d   1       0.519   1.743   1.724  0.00  0.00     0.001 A 
ATOM      7  C7  DEN d   1      -0.498   2.416   2.348  0.00  0.00     0.017 A 
ATOM      8  C8  DEN d   1      -1.626   1.702   2.729  0.00  0.00    -0.094 A 
ATOM      9  C9  DEN d   1      -1.698   0.331   2.544  0.00  0.00    -0.072 A 
ENDROOT
TORSDOF 0
ENDMDL
