MODEL 1
REMARK minimizedAffinity 11.0869894
REMARK minimizedRMSD -1
REMARK  0 active torsions:
REMARK  status: ('A' for Active; 'I' for Inactive)
ROOT
ATOM      1  C1  DEN d   1       1.235   0.234   3.776  0.00  0.00     0.130 A 
ATOM      2  C2  DEN d   1       2.481  -0.452   3.445  0.00  0.00    -0.031 A 
ATOM      3  C3  DEN d   1       2.709  -0.308   1.993  0.00  0.00     0.027 A 
ATOM      4  C4  DEN d   1       1.265   0.908   0.236  0.00  0.00     0.027 A 
ATOM      5  C5  DEN d   1       0.109   1.629   0.038  0.00  0.00    -0.003 A 
ATOM      6  C6  DEN d   1      -0.764   1.905   1.057  0.00  0.00     0.001 A 
ATOM      7  C7  DEN d   1      -0.470   1.495   2.331  0.00  0.00     0.017 A 
ATOM      8  C8  DEN d   1       0.690   0.761   2.537  0.00  0.00    -0.094 A 
ATOM      9  C9  DEN d   1       1.565   0.503   1.496  0.00  0.00    -0.072 A 
ENDROOT
TORSDOF 0
ENDMDL
