MODEL 1
REMARK minimizedAffinity 0.423005104
REMARK minimizedRMSD -1
REMARK  0 active torsions:
REMARK  status: ('A' for Active; 'I' for Inactive)
ROOT
ATOM      1  C2' OXE d   1       2.482  -5.986  -5.897  0.00  0.00     0.078 C 
ATOM      2  C1' OXE d   1       1.907  -5.625  -3.174  0.00  0.00     0.078 C 
ATOM      3  C1  OXE d   1       3.356  -5.728  -3.579  0.00  0.00    -0.078 A 
ATOM      4  C2  OXE d   1       3.627  -5.952  -4.907  0.00  0.00    -0.078 A 
ATOM      5  C3  OXE d   1       4.948  -6.000  -5.343  0.00  0.00     0.003 A 
ATOM      6  C4  OXE d   1       6.000  -5.977  -4.419  0.00  0.00    -0.002 A 
ATOM      7  C5  OXE d   1       5.745  -5.790  -3.057  0.00  0.00    -0.002 A 
ATOM      8  C6  OXE d   1       4.433  -5.622  -2.626  0.00  0.00     0.003 A 
ENDROOT
TORSDOF 0
ENDMDL
