MODEL 1
REMARK minimizedAffinity 13.8104696
REMARK minimizedRMSD -1
REMARK  0 active torsions:
REMARK  status: ('A' for Active; 'I' for Inactive)
ROOT
ATOM      1  C2' OXE d   1      -1.834   3.388   5.051  0.00  0.00     0.078 C 
ATOM      2  C1' OXE d   1       0.702   3.855   3.942  0.00  0.00     0.078 C 
ATOM      3  C1  OXE d   1      -0.194   2.858   3.252  0.00  0.00    -0.078 A 
ATOM      4  C2  OXE d   1      -1.415   2.601   3.828  0.00  0.00    -0.078 A 
ATOM      5  C3  OXE d   1      -2.303   1.730   3.203  0.00  0.00     0.003 A 
ATOM      6  C4  OXE d   1      -1.905   0.999   2.078  0.00  0.00    -0.002 A 
ATOM      7  C5  OXE d   1      -0.650   1.215   1.498  0.00  0.00    -0.002 A 
ATOM      8  C6  OXE d   1       0.198   2.170   2.047  0.00  0.00     0.003 A 
ENDROOT
TORSDOF 0
ENDMDL
