MODEL 1
REMARK minimizedAffinity 3.4231503
REMARK minimizedRMSD -1
REMARK  0 active torsions:
REMARK  status: ('A' for Active; 'I' for Inactive)
ROOT
ATOM      1  C2' OXE d   1       0.782   3.491   3.402  0.00  0.00     0.078 C 
ATOM      2  C1' OXE d   1      -1.707   3.311   4.688  0.00  0.00     0.078 C 
ATOM      3  C1  OXE d   1      -1.528   2.559   3.392  0.00  0.00    -0.078 A 
ATOM      4  C2  OXE d   1      -0.323   2.691   2.746  0.00  0.00    -0.078 A 
ATOM      5  C3  OXE d   1      -0.086   1.975   1.576  0.00  0.00     0.003 A 
ATOM      6  C4  OXE d   1      -1.117   1.245   0.971  0.00  0.00    -0.002 A 
ATOM      7  C5  OXE d   1      -2.365   1.131   1.592  0.00  0.00    -0.002 A 
ATOM      8  C6  OXE d   1      -2.573   1.745   2.822  0.00  0.00     0.003 A 
ENDROOT
TORSDOF 0
ENDMDL
