MODEL 1
REMARK minimizedAffinity 20.5854492
REMARK minimizedRMSD -1
REMARK  0 active torsions:
REMARK  status: ('A' for Active; 'I' for Inactive)
ROOT
ATOM      1  C2' OXE d   1       3.519  -5.951  -5.426  0.00  0.00     0.078 C 
ATOM      2  C1' OXE d   1       0.772  -6.000  -6.000  0.00  0.00     0.078 C 
ATOM      3  C1  OXE d   1       1.246  -5.073  -4.909  0.00  0.00    -0.078 A 
ATOM      4  C2  OXE d   1       2.586  -5.090  -4.603  0.00  0.00    -0.078 A 
ATOM      5  C3  OXE d   1       3.084  -4.215  -3.642  0.00  0.00     0.003 A 
ATOM      6  C4  OXE d   1       2.212  -3.429  -2.878  0.00  0.00    -0.002 A 
ATOM      7  C5  OXE d   1       0.840  -3.426  -3.147  0.00  0.00    -0.002 A 
ATOM      8  C6  OXE d   1       0.347  -4.209  -4.185  0.00  0.00     0.003 A 
ENDROOT
TORSDOF 0
ENDMDL
