MODEL 1
REMARK minimizedAffinity 3.85529923
REMARK minimizedRMSD -1
REMARK  0 active torsions:
REMARK  status: ('A' for Active; 'I' for Inactive)
ROOT
ATOM      1  C2' OXE d   1       0.890   2.691  -0.193  0.00  0.00     0.078 C 
ATOM      2  C1' OXE d   1      -0.909   0.921   1.038  0.00  0.00     0.078 C 
ATOM      3  C1  OXE d   1      -0.338   2.038   1.874  0.00  0.00    -0.078 A 
ATOM      4  C2  OXE d   1       0.577   2.871   1.277  0.00  0.00    -0.078 A 
ATOM      5  C3  OXE d   1       1.093   3.951   1.988  0.00  0.00     0.003 A 
ATOM      6  C4  OXE d   1       0.807   4.105   3.350  0.00  0.00    -0.002 A 
ATOM      7  C5  OXE d   1      -0.092   3.244   3.988  0.00  0.00    -0.002 A 
ATOM      8  C6  OXE d   1      -0.704   2.233   3.255  0.00  0.00     0.003 A 
ENDROOT
TORSDOF 0
ENDMDL
