MODEL 1
REMARK minimizedAffinity 6.02674723
REMARK minimizedRMSD -1
REMARK  0 active torsions:
REMARK  status: ('A' for Active; 'I' for Inactive)
ROOT
ATOM      1  C2' OXE d   1       2.333  -5.239  -3.714  0.00  0.00     0.078 C 
ATOM      2  C1' OXE d   1       3.590  -2.736  -3.530  0.00  0.00     0.078 C 
ATOM      3  C1  OXE d   1       4.224  -3.777  -4.419  0.00  0.00    -0.078 A 
ATOM      4  C2  OXE d   1       3.627  -5.014  -4.466  0.00  0.00    -0.078 A 
ATOM      5  C3  OXE d   1       4.139  -5.994  -5.312  0.00  0.00     0.003 A 
ATOM      6  C4  OXE d   1       5.342  -5.782  -5.996  0.00  0.00    -0.002 A 
ATOM      7  C5  OXE d   1       5.987  -4.542  -5.930  0.00  0.00    -0.002 A 
ATOM      8  C6  OXE d   1       5.419  -3.518  -5.181  0.00  0.00     0.003 A 
ENDROOT
TORSDOF 0
ENDMDL
