MODEL 1
REMARK minimizedAffinity -2.6454339
REMARK minimizedRMSD -1
REMARK  0 active torsions:
REMARK  status: ('A' for Active; 'I' for Inactive)
ROOT
ATOM      1  C2' OXE d   1       2.602   2.656   1.128  0.00  0.00     0.078 C 
ATOM      2  C1' OXE d   1       0.166   1.652   0.161  0.00  0.00     0.078 C 
ATOM      3  C1  OXE d   1       0.129   2.522   1.392  0.00  0.00    -0.078 A 
ATOM      4  C2  OXE d   1       1.331   2.971   1.885  0.00  0.00    -0.078 A 
ATOM      5  C3  OXE d   1       1.349   3.822   2.987  0.00  0.00     0.003 A 
ATOM      6  C4  OXE d   1       0.170   4.100   3.688  0.00  0.00    -0.002 A 
ATOM      7  C5  OXE d   1      -1.060   3.621   3.225  0.00  0.00    -0.002 A 
ATOM      8  C6  OXE d   1      -1.103   2.867   2.058  0.00  0.00     0.003 A 
ENDROOT
TORSDOF 0
ENDMDL
