MODEL 1
REMARK minimizedAffinity 6.93886375
REMARK minimizedRMSD -1
REMARK  0 active torsions:
REMARK  status: ('A' for Active; 'I' for Inactive)
ROOT
ATOM      1  C2' OXE d   1       0.929   2.079   1.002  0.00  0.00     0.078 C 
ATOM      2  C1' OXE d   1       0.961   4.851   1.445  0.00  0.00     0.078 C 
ATOM      3  C1  OXE d   1       0.043   4.013   2.299  0.00  0.00    -0.078 A 
ATOM      4  C2  OXE d   1      -0.001   2.663   2.044  0.00  0.00    -0.078 A 
ATOM      5  C3  OXE d   1      -0.789   1.837   2.839  0.00  0.00     0.003 A 
ATOM      6  C4  OXE d   1      -1.654   2.386   3.794  0.00  0.00    -0.002 A 
ATOM      7  C5  OXE d   1      -1.654   3.762   4.042  0.00  0.00    -0.002 A 
ATOM      8  C6  OXE d   1      -0.783   4.583   3.335  0.00  0.00     0.003 A 
ENDROOT
TORSDOF 0
ENDMDL
