MODEL 1
REMARK minimizedAffinity 8.04227448
REMARK minimizedRMSD -1
REMARK  0 active torsions:
REMARK  status: ('A' for Active; 'I' for Inactive)
ROOT
ATOM      1  C2' OXE d   1      -0.234  -0.535   0.386  0.00  0.00     0.078 C 
ATOM      2  C1' OXE d   1      -0.931  -2.279   2.473  0.00  0.00     0.078 C 
ATOM      3  C1  OXE d   1      -1.468  -2.580   1.095  0.00  0.00    -0.078 A 
ATOM      4  C2  OXE d   1      -1.160  -1.695   0.090  0.00  0.00    -0.078 A 
ATOM      5  C3  OXE d   1      -1.584  -1.954  -1.210  0.00  0.00     0.003 A 
ATOM      6  C4  OXE d   1      -2.448  -3.023  -1.474  0.00  0.00    -0.002 A 
ATOM      7  C5  OXE d   1      -2.807  -3.914  -0.456  0.00  0.00    -0.002 A 
ATOM      8  C6  OXE d   1      -2.291  -3.731   0.822  0.00  0.00     0.003 A 
ENDROOT
TORSDOF 0
ENDMDL
