MODEL 1
REMARK minimizedAffinity -3.62851501
REMARK minimizedRMSD -1
REMARK  0 active torsions:
REMARK  status: ('A' for Active; 'I' for Inactive)
ROOT
ATOM      1  C2' OXE d   1      -2.146  -1.820   2.898  0.00  0.00     0.078 C 
ATOM      2  C1' OXE d   1      -2.435   0.343   1.132  0.00  0.00     0.078 C 
ATOM      3  C1  OXE d   1      -3.577   0.044   2.071  0.00  0.00    -0.078 A 
ATOM      4  C2  OXE d   1      -3.446  -1.045   2.900  0.00  0.00    -0.078 A 
ATOM      5  C3  OXE d   1      -4.446  -1.332   3.824  0.00  0.00     0.003 A 
ATOM      6  C4  OXE d   1      -5.649  -0.616   3.811  0.00  0.00    -0.002 A 
ATOM      7  C5  OXE d   1      -5.819   0.472   2.949  0.00  0.00    -0.002 A 
ATOM      8  C6  OXE d   1      -4.779   0.840   2.104  0.00  0.00     0.003 A 
ENDROOT
TORSDOF 0
ENDMDL
