MODEL 1
REMARK minimizedAffinity 4.65392876
REMARK minimizedRMSD -1
REMARK  0 active torsions:
REMARK  status: ('A' for Active; 'I' for Inactive)
ROOT
ATOM      1  C2' OXE d   1      -1.884   4.142   4.116  0.00  0.00     0.078 C 
ATOM      2  C1' OXE d   1      -1.398   3.248   1.499  0.00  0.00     0.078 C 
ATOM      3  C1  OXE d   1      -0.206   3.519   2.383  0.00  0.00    -0.078 A 
ATOM      4  C2  OXE d   1      -0.452   4.001   3.646  0.00  0.00    -0.078 A 
ATOM      5  C3  OXE d   1       0.609   4.215   4.521  0.00  0.00     0.003 A 
ATOM      6  C4  OXE d   1       1.931   4.092   4.075  0.00  0.00    -0.002 A 
ATOM      7  C5  OXE d   1       2.204   3.641   2.780  0.00  0.00    -0.002 A 
ATOM      8  C6  OXE d   1       1.149   3.310   1.937  0.00  0.00     0.003 A 
ENDROOT
TORSDOF 0
ENDMDL
