MODEL 1
REMARK minimizedAffinity 7.15504503
REMARK minimizedRMSD -1
REMARK  0 active torsions:
REMARK  status: ('A' for Active; 'I' for Inactive)
ROOT
ATOM      1  C2' OXE d   1       2.321   2.197  -3.001  0.00  0.00     0.078 C 
ATOM      2  C1' OXE d   1       2.125   2.252  -5.801  0.00  0.00     0.078 C 
ATOM      3  C1  OXE d   1       3.500   2.125  -5.195  0.00  0.00    -0.078 A 
ATOM      4  C2  OXE d   1       3.591   2.146  -3.824  0.00  0.00    -0.078 A 
ATOM      5  C3  OXE d   1       4.830   1.977  -3.212  0.00  0.00     0.003 A 
ATOM      6  C4  OXE d   1       6.000   1.941  -3.980  0.00  0.00    -0.002 A 
ATOM      7  C5  OXE d   1       5.933   1.958  -5.378  0.00  0.00    -0.002 A 
ATOM      8  C6  OXE d   1       4.690   2.007  -6.000  0.00  0.00     0.003 A 
ENDROOT
TORSDOF 0
ENDMDL
