MODEL 1
REMARK minimizedAffinity -2.14016104
REMARK minimizedRMSD -1
REMARK  0 active torsions:
REMARK  status: ('A' for Active; 'I' for Inactive)
ROOT
ATOM      1  C2' OXE d   1       3.050   2.965  -5.999  0.00  0.00     0.078 C 
ATOM      2  C1' OXE d   1       5.857   3.007  -5.999  0.00  0.00     0.078 C 
ATOM      3  C1  OXE d   1       5.152   3.050  -4.666  0.00  0.00    -0.078 A 
ATOM      4  C2  OXE d   1       3.779   3.076  -4.677  0.00  0.00    -0.078 A 
ATOM      5  C3  OXE d   1       3.079   3.060  -3.474  0.00  0.00     0.003 A 
ATOM      6  C4  OXE d   1       3.761   3.172  -2.256  0.00  0.00    -0.002 A 
ATOM      7  C5  OXE d   1       5.159   3.187  -2.224  0.00  0.00    -0.002 A 
ATOM      8  C6  OXE d   1       5.869   3.084  -3.415  0.00  0.00     0.003 A 
ENDROOT
TORSDOF 0
ENDMDL
