MODEL 1
REMARK minimizedAffinity 2.02728915
REMARK minimizedRMSD -1
REMARK  0 active torsions:
REMARK  status: ('A' for Active; 'I' for Inactive)
ROOT
ATOM      1  C2' OXE d   1       0.288   3.559   3.146  0.00  0.00     0.078 C 
ATOM      2  C1' OXE d   1       2.425   2.306   1.825  0.00  0.00     0.078 C 
ATOM      3  C1  OXE d   1       1.025   1.978   1.368  0.00  0.00    -0.078 A 
ATOM      4  C2  OXE d   1      -0.016   2.559   2.051  0.00  0.00    -0.078 A 
ATOM      5  C3  OXE d   1      -1.325   2.333   1.635  0.00  0.00     0.003 A 
ATOM      6  C4  OXE d   1      -1.597   1.400   0.628  0.00  0.00    -0.002 A 
ATOM      7  C5  OXE d   1      -0.553   0.766  -0.054  0.00  0.00    -0.002 A 
ATOM      8  C6  OXE d   1       0.762   1.075   0.274  0.00  0.00     0.003 A 
ENDROOT
TORSDOF 0
ENDMDL
