MODEL 1
REMARK minimizedAffinity 1.08345819
REMARK minimizedRMSD -1
REMARK  0 active torsions:
REMARK  status: ('A' for Active; 'I' for Inactive)
ROOT
ATOM      1  C2' OXE d   1      -2.125   1.718   0.685  0.00  0.00     0.078 C 
ATOM      2  C1' OXE d   1       0.197   0.145   0.575  0.00  0.00     0.078 C 
ATOM      3  C1  OXE d   1      -0.933  -0.330   1.453  0.00  0.00    -0.078 A 
ATOM      4  C2  OXE d   1      -2.047   0.470   1.537  0.00  0.00    -0.078 A 
ATOM      5  C3  OXE d   1      -3.141   0.052   2.290  0.00  0.00     0.003 A 
ATOM      6  C4  OXE d   1      -3.057  -1.098   3.084  0.00  0.00    -0.002 A 
ATOM      7  C5  OXE d   1      -1.916  -1.907   3.044  0.00  0.00    -0.002 A 
ATOM      8  C6  OXE d   1      -0.864  -1.560   2.203  0.00  0.00     0.003 A 
ENDROOT
TORSDOF 0
ENDMDL
