MODEL 1
REMARK minimizedAffinity -0.360817194
REMARK minimizedRMSD -1
REMARK  0 active torsions:
REMARK  status: ('A' for Active; 'I' for Inactive)
ROOT
ATOM      1  C2' OXE d   1       5.899   2.341  -3.264  0.00  0.00     0.078 C 
ATOM      2  C1' OXE d   1       5.977   2.967  -6.000  0.00  0.00     0.078 C 
ATOM      3  C1  OXE d   1       4.636   2.993  -5.310  0.00  0.00    -0.078 A 
ATOM      4  C2  OXE d   1       4.601   2.640  -3.983  0.00  0.00    -0.078 A 
ATOM      5  C3  OXE d   1       3.398   2.700  -3.285  0.00  0.00     0.003 A 
ATOM      6  C4  OXE d   1       2.200   2.968  -3.959  0.00  0.00    -0.002 A 
ATOM      7  C5  OXE d   1       2.208   3.291  -5.320  0.00  0.00    -0.002 A 
ATOM      8  C6  OXE d   1       3.420   3.350  -5.999  0.00  0.00     0.003 A 
ENDROOT
TORSDOF 0
ENDMDL
