MODEL 1
REMARK minimizedAffinity 2.19853902
REMARK minimizedRMSD -1
REMARK  0 active torsions:
REMARK  status: ('A' for Active; 'I' for Inactive)
ROOT
ATOM      1  C2' OXE d   1      -0.683  -2.433   3.027  0.00  0.00     0.078 C 
ATOM      2  C1' OXE d   1      -1.490  -0.218   1.504  0.00  0.00     0.078 C 
ATOM      3  C1  OXE d   1      -2.283  -0.544   2.745  0.00  0.00    -0.078 A 
ATOM      4  C2  OXE d   1      -1.909  -1.657   3.459  0.00  0.00    -0.078 A 
ATOM      5  C3  OXE d   1      -2.572  -1.972   4.641  0.00  0.00     0.003 A 
ATOM      6  C4  OXE d   1      -3.711  -1.256   5.028  0.00  0.00    -0.002 A 
ATOM      7  C5  OXE d   1      -4.132  -0.142   4.294  0.00  0.00    -0.002 A 
ATOM      8  C6  OXE d   1      -3.405   0.252   3.176  0.00  0.00     0.003 A 
ENDROOT
TORSDOF 0
ENDMDL
