MODEL 1
REMARK minimizedAffinity 2.4451642
REMARK minimizedRMSD -1
REMARK  0 active torsions:
REMARK  status: ('A' for Active; 'I' for Inactive)
ROOT
ATOM      1  C2' OXE d   1       1.465  -0.041   0.840  0.00  0.00     0.078 C 
ATOM      2  C1' OXE d   1       1.887   2.441   2.082  0.00  0.00     0.078 C 
ATOM      3  C1  OXE d   1       0.547   2.198   1.433  0.00  0.00    -0.078 A 
ATOM      4  C2  OXE d   1       0.366   0.999   0.788  0.00  0.00    -0.078 A 
ATOM      5  C3  OXE d   1      -0.869   0.701   0.220  0.00  0.00     0.003 A 
ATOM      6  C4  OXE d   1      -1.877   1.672   0.167  0.00  0.00    -0.002 A 
ATOM      7  C5  OXE d   1      -1.699   2.914   0.784  0.00  0.00    -0.002 A 
ATOM      8  C6  OXE d   1      -0.511   3.177   1.457  0.00  0.00     0.003 A 
ENDROOT
TORSDOF 0
ENDMDL
