MODEL 1
REMARK minimizedAffinity -3.70300579
REMARK minimizedRMSD -1
REMARK  0 active torsions:
REMARK  status: ('A' for Active; 'I' for Inactive)
ROOT
ATOM      1  C2' OXE d   1       2.926   2.264  -3.281  0.00  0.00     0.078 C 
ATOM      2  C1' OXE d   1       2.868   2.961  -6.000  0.00  0.00     0.078 C 
ATOM      3  C1  OXE d   1       3.991   3.511  -5.157  0.00  0.00    -0.078 A 
ATOM      4  C2  OXE d   1       3.985   3.203  -3.817  0.00  0.00    -0.078 A 
ATOM      5  C3  OXE d   1       5.028   3.640  -3.005  0.00  0.00     0.003 A 
ATOM      6  C4  OXE d   1       5.998   4.516  -3.507  0.00  0.00    -0.002 A 
ATOM      7  C5  OXE d   1       6.000   4.874  -4.859  0.00  0.00    -0.002 A 
ATOM      8  C6  OXE d   1       5.030   4.348  -5.705  0.00  0.00     0.003 A 
ENDROOT
TORSDOF 0
ENDMDL
