MODEL 1
REMARK minimizedAffinity 7.16889763
REMARK minimizedRMSD -1
REMARK  0 active torsions:
REMARK  status: ('A' for Active; 'I' for Inactive)
ROOT
ATOM      1  C2' OXE d   1      -0.229  -1.744   0.396  0.00  0.00     0.078 C 
ATOM      2  C1' OXE d   1       2.033  -2.512  -1.079  0.00  0.00     0.078 C 
ATOM      3  C1  OXE d   1       0.692  -3.044  -1.519  0.00  0.00    -0.078 A 
ATOM      4  C2  OXE d   1      -0.403  -2.701  -0.763  0.00  0.00    -0.078 A 
ATOM      5  C3  OXE d   1      -1.671  -3.121  -1.156  0.00  0.00     0.003 A 
ATOM      6  C4  OXE d   1      -1.822  -4.014  -2.223  0.00  0.00    -0.002 A 
ATOM      7  C5  OXE d   1      -0.715  -4.408  -2.982  0.00  0.00    -0.002 A 
ATOM      8  C6  OXE d   1       0.541  -3.900  -2.670  0.00  0.00     0.003 A 
ENDROOT
TORSDOF 0
ENDMDL
