MODEL 1
REMARK minimizedAffinity -4.73357344
REMARK minimizedRMSD -1
REMARK  0 active torsions:
REMARK  status: ('A' for Active; 'I' for Inactive)
ROOT
ATOM      1  C   UNL d   1      -0.060  -0.725   0.099  0.00  0.00     0.077 C 
ATOM      2  C1  UNL d   1      -0.641  -1.247   1.380  0.00  0.00    -0.074 A 
ATOM      3  C2  UNL d   1      -1.722  -0.606   1.993  0.00  0.00    -0.005 A 
ATOM      4  C3  UNL d   1      -2.257  -1.109   3.179  0.00  0.00     0.006 A 
ATOM      5  C4  UNL d   1      -1.717  -2.256   3.763  0.00  0.00    -0.005 A 
ATOM      6  C5  UNL d   1      -0.637  -2.911   3.163  0.00  0.00    -0.074 A 
ATOM      7  C6  UNL d   1      -0.052  -4.151   3.772  0.00  0.00     0.077 C 
ATOM      8  C7  UNL d   1      -0.109  -2.404   1.968  0.00  0.00    -0.001 A 
ENDROOT
TORSDOF 0
ENDMDL
