MODEL 1
REMARK minimizedAffinity -3.50579691
REMARK minimizedRMSD -1
REMARK  0 active torsions:
REMARK  status: ('A' for Active; 'I' for Inactive)
ROOT
ATOM      1  C   UNL d   1      -2.405   0.119   1.506  0.00  0.00     0.077 C 
ATOM      2  C1  UNL d   1      -1.278   0.886   0.880  0.00  0.00    -0.074 A 
ATOM      3  C2  UNL d   1      -1.462   2.200   0.438  0.00  0.00    -0.005 A 
ATOM      4  C3  UNL d   1      -0.402   2.904  -0.134  0.00  0.00     0.006 A 
ATOM      5  C4  UNL d   1       0.850   2.302  -0.269  0.00  0.00    -0.005 A 
ATOM      6  C5  UNL d   1       1.052   0.989   0.168  0.00  0.00    -0.074 A 
ATOM      7  C6  UNL d   1       2.393   0.331   0.039  0.00  0.00     0.077 C 
ATOM      8  C7  UNL d   1      -0.016   0.291   0.748  0.00  0.00    -0.001 A 
ENDROOT
TORSDOF 0
ENDMDL
