MODEL 1
REMARK minimizedAffinity -3.58500171
REMARK minimizedRMSD -1
REMARK  0 active torsions:
REMARK  status: ('A' for Active; 'I' for Inactive)
ROOT
ATOM      1  C   UNL d   1      -0.971   3.212   1.516  0.00  0.00     0.077 C 
ATOM      2  C1  UNL d   1       0.153   2.257   1.245  0.00  0.00    -0.074 A 
ATOM      3  C2  UNL d   1       1.476   2.601   1.540  0.00  0.00    -0.005 A 
ATOM      4  C3  UNL d   1       2.510   1.699   1.291  0.00  0.00     0.006 A 
ATOM      5  C4  UNL d   1       2.232   0.446   0.745  0.00  0.00    -0.005 A 
ATOM      6  C5  UNL d   1       0.916   0.083   0.443  0.00  0.00    -0.074 A 
ATOM      7  C6  UNL d   1       0.599  -1.264  -0.135  0.00  0.00     0.077 C 
ATOM      8  C7  UNL d   1      -0.119   0.992   0.703  0.00  0.00    -0.001 A 
ENDROOT
TORSDOF 0
ENDMDL
