MODEL 1
REMARK minimizedAffinity -5.38645554
REMARK minimizedRMSD -1
REMARK  0 active torsions:
REMARK  status: ('A' for Active; 'I' for Inactive)
ROOT
ATOM      1  C   UNL d   1      -1.619   2.387   0.473  0.00  0.00     0.077 C 
ATOM      2  C1  UNL d   1      -0.127   2.234   0.457  0.00  0.00    -0.074 A 
ATOM      3  C2  UNL d   1       0.711   3.354   0.464  0.00  0.00    -0.005 A 
ATOM      4  C3  UNL d   1       2.096   3.195   0.459  0.00  0.00     0.006 A 
ATOM      5  C4  UNL d   1       2.658   1.918   0.446  0.00  0.00    -0.005 A 
ATOM      6  C5  UNL d   1       1.836   0.786   0.440  0.00  0.00    -0.074 A 
ATOM      7  C6  UNL d   1       2.423  -0.594   0.437  0.00  0.00     0.077 C 
ATOM      8  C7  UNL d   1       0.444   0.953   0.453  0.00  0.00    -0.001 A 
ENDROOT
TORSDOF 0
ENDMDL
