MODEL 1
REMARK minimizedAffinity -5.36172581
REMARK minimizedRMSD -1
REMARK  0 active torsions:
REMARK  status: ('A' for Active; 'I' for Inactive)
ROOT
ATOM      1  C   UNL d   1      -0.622   3.001  -0.395  0.00  0.00     0.077 C 
ATOM      2  C1  UNL d   1      -0.455   1.599   0.110  0.00  0.00    -0.074 A 
ATOM      3  C2  UNL d   1       0.612   0.803  -0.317  0.00  0.00    -0.005 A 
ATOM      4  C3  UNL d   1       0.760  -0.496   0.169  0.00  0.00     0.006 A 
ATOM      5  C4  UNL d   1      -0.157  -1.011   1.086  0.00  0.00    -0.005 A 
ATOM      6  C5  UNL d   1      -1.231  -0.230   1.525  0.00  0.00    -0.074 A 
ATOM      7  C6  UNL d   1      -2.219  -0.765   2.518  0.00  0.00     0.077 C 
ATOM      8  C7  UNL d   1      -1.368   1.077   1.038  0.00  0.00    -0.001 A 
ENDROOT
TORSDOF 0
ENDMDL
