MODEL 1
REMARK minimizedAffinity -4.3681345
REMARK minimizedRMSD -1
REMARK  0 active torsions:
REMARK  status: ('A' for Active; 'I' for Inactive)
ROOT
ATOM      1  C   UNL d   1      -3.060   1.140   1.457  0.00  0.00     0.077 C 
ATOM      2  C1  UNL d   1      -1.717   1.194   0.791  0.00  0.00    -0.074 A 
ATOM      3  C2  UNL d   1      -1.068   0.023   0.386  0.00  0.00    -0.005 A 
ATOM      4  C3  UNL d   1       0.176   0.090  -0.240  0.00  0.00     0.006 A 
ATOM      5  C4  UNL d   1       0.783   1.326  -0.468  0.00  0.00    -0.005 A 
ATOM      6  C5  UNL d   1       0.149   2.507  -0.071  0.00  0.00    -0.074 A 
ATOM      7  C6  UNL d   1       0.783   3.844  -0.316  0.00  0.00     0.077 C 
ATOM      8  C7  UNL d   1      -1.104   2.432   0.552  0.00  0.00    -0.001 A 
ENDROOT
TORSDOF 0
ENDMDL
