MODEL 1
REMARK minimizedAffinity -1.90949821
REMARK minimizedRMSD -1
REMARK  0 active torsions:
REMARK  status: ('A' for Active; 'I' for Inactive)
ROOT
ATOM      1  C   UNL d   1       1.330  -5.107  -2.036  0.00  0.00     0.077 C 
ATOM      2  C1  UNL d   1       0.478  -3.872  -2.060  0.00  0.00    -0.074 A 
ATOM      3  C2  UNL d   1      -0.434  -3.648  -3.096  0.00  0.00    -0.005 A 
ATOM      4  C3  UNL d   1      -1.227  -2.500  -3.100  0.00  0.00     0.006 A 
ATOM      5  C4  UNL d   1      -1.116  -1.567  -2.069  0.00  0.00    -0.005 A 
ATOM      6  C5  UNL d   1      -0.210  -1.774  -1.024  0.00  0.00    -0.074 A 
ATOM      7  C6  UNL d   1      -0.085  -0.786   0.097  0.00  0.00     0.077 C 
ATOM      8  C7  UNL d   1       0.578  -2.933  -1.024  0.00  0.00    -0.001 A 
ENDROOT
TORSDOF 0
ENDMDL
