MODEL 1
REMARK minimizedAffinity -5.02327061
REMARK minimizedRMSD -1
REMARK  0 active torsions:
REMARK  status: ('A' for Active; 'I' for Inactive)
ROOT
ATOM      1  C   UNL d   1      -4.301  -1.064   3.684  0.00  0.00     0.077 C 
ATOM      2  C1  UNL d   1      -3.049  -1.056   2.858  0.00  0.00    -0.074 A 
ATOM      3  C2  UNL d   1      -2.127  -2.104   2.940  0.00  0.00    -0.005 A 
ATOM      4  C3  UNL d   1      -0.972  -2.088   2.159  0.00  0.00     0.006 A 
ATOM      5  C4  UNL d   1      -0.728  -1.025   1.287  0.00  0.00    -0.005 A 
ATOM      6  C5  UNL d   1      -1.640   0.031   1.190  0.00  0.00    -0.074 A 
ATOM      7  C6  UNL d   1      -1.398   1.176   0.252  0.00  0.00     0.077 C 
ATOM      8  C7  UNL d   1      -2.801   0.004   1.974  0.00  0.00    -0.001 A 
ENDROOT
TORSDOF 0
ENDMDL
