MODEL 1
REMARK minimizedAffinity -4.60174131
REMARK minimizedRMSD -1
REMARK  0 active torsions:
REMARK  status: ('A' for Active; 'I' for Inactive)
ROOT
ATOM      1  C   UNL d   1       1.635   4.155   0.445  0.00  0.00     0.077 C 
ATOM      2  C1  UNL d   1       0.821   2.897   0.365  0.00  0.00    -0.074 A 
ATOM      3  C2  UNL d   1       1.422   1.670   0.065  0.00  0.00    -0.005 A 
ATOM      4  C3  UNL d   1       0.654   0.508   0.004  0.00  0.00     0.006 A 
ATOM      5  C4  UNL d   1      -0.720   0.560   0.241  0.00  0.00    -0.005 A 
ATOM      6  C5  UNL d   1      -1.338   1.778   0.543  0.00  0.00    -0.074 A 
ATOM      7  C6  UNL d   1      -2.812   1.850   0.810  0.00  0.00     0.077 C 
ATOM      8  C7  UNL d   1      -0.558   2.940   0.610  0.00  0.00    -0.001 A 
ENDROOT
TORSDOF 0
ENDMDL
