MODEL 1
REMARK minimizedAffinity -4.57036018
REMARK minimizedRMSD -1
REMARK  0 active torsions:
REMARK  status: ('A' for Active; 'I' for Inactive)
ROOT
ATOM      1  C   UNL d   1      -1.003   0.197   0.040  0.00  0.00     0.077 C 
ATOM      2  C1  UNL d   1      -0.250   1.494   0.040  0.00  0.00    -0.074 A 
ATOM      3  C2  UNL d   1       0.048   2.152  -1.158  0.00  0.00    -0.005 A 
ATOM      4  C3  UNL d   1       0.741   3.362  -1.142  0.00  0.00     0.006 A 
ATOM      5  C4  UNL d   1       1.143   3.926   0.070  0.00  0.00    -0.005 A 
ATOM      6  C5  UNL d   1       0.854   3.282   1.278  0.00  0.00    -0.074 A 
ATOM      7  C6  UNL d   1       1.270   3.879   2.589  0.00  0.00     0.077 C 
ATOM      8  C7  UNL d   1       0.151   2.070   1.253  0.00  0.00    -0.001 A 
ENDROOT
TORSDOF 0
ENDMDL
