MODEL 1
REMARK minimizedAffinity 8.2026968
REMARK minimizedRMSD -1
REMARK  0 active torsions:
REMARK  status: ('A' for Active; 'I' for Inactive)
ROOT
ATOM      1  C   UNL d   1       2.135   1.687  -2.286  0.00  0.00     0.077 C 
ATOM      2  C1  UNL d   1       3.376   2.133  -3.001  0.00  0.00    -0.074 A 
ATOM      3  C2  UNL d   1       3.827   1.464  -4.144  0.00  0.00    -0.005 A 
ATOM      4  C3  UNL d   1       4.977   1.896  -4.803  0.00  0.00     0.006 A 
ATOM      5  C4  UNL d   1       5.688   2.999  -4.328  0.00  0.00    -0.005 A 
ATOM      6  C5  UNL d   1       5.252   3.680  -3.187  0.00  0.00    -0.074 A 
ATOM      7  C6  UNL d   1       5.998   4.873  -2.668  0.00  0.00     0.077 C 
ATOM      8  C7  UNL d   1       4.091   3.245  -2.534  0.00  0.00    -0.001 A 
ENDROOT
TORSDOF 0
ENDMDL
