MODEL 1
REMARK minimizedAffinity 0.171088845
REMARK minimizedRMSD -1
REMARK  0 active torsions:
REMARK  status: ('A' for Active; 'I' for Inactive)
ROOT
ATOM      1  C   UNL d   1       2.893   2.675   1.339  0.00  0.00     0.077 C 
ATOM      2  C1  UNL d   1       2.132   3.459   2.367  0.00  0.00    -0.074 A 
ATOM      3  C2  UNL d   1       2.510   4.763   2.701  0.00  0.00    -0.005 A 
ATOM      4  C3  UNL d   1       1.787   5.483   3.652  0.00  0.00     0.006 A 
ATOM      5  C4  UNL d   1       0.681   4.907   4.278  0.00  0.00    -0.005 A 
ATOM      6  C5  UNL d   1       0.288   3.604   3.957  0.00  0.00    -0.074 A 
ATOM      7  C6  UNL d   1      -0.904   2.973   4.613  0.00  0.00     0.077 C 
ATOM      8  C7  UNL d   1       1.015   2.889   2.995  0.00  0.00    -0.001 A 
ENDROOT
TORSDOF 0
ENDMDL
