MODEL 1
REMARK minimizedAffinity 8.44184399
REMARK minimizedRMSD -1
REMARK  0 active torsions:
REMARK  status: ('A' for Active; 'I' for Inactive)
ROOT
ATOM      1  C   UNL d   1       0.835   3.180  -5.711  0.00  0.00     0.077 C 
ATOM      2  C1  UNL d   1      -0.659   3.258  -5.814  0.00  0.00    -0.074 A 
ATOM      3  C2  UNL d   1      -1.436   2.098  -5.884  0.00  0.00    -0.005 A 
ATOM      4  C3  UNL d   1      -2.825   2.186  -5.970  0.00  0.00     0.006 A 
ATOM      5  C4  UNL d   1      -3.451   3.433  -5.986  0.00  0.00    -0.005 A 
ATOM      6  C5  UNL d   1      -2.690   4.605  -5.916  0.00  0.00    -0.074 A 
ATOM      7  C6  UNL d   1      -3.347   5.953  -5.923  0.00  0.00     0.077 C 
ATOM      8  C7  UNL d   1      -1.295   4.508  -5.823  0.00  0.00    -0.001 A 
ENDROOT
TORSDOF 0
ENDMDL
