MODEL 1
REMARK minimizedAffinity -0.623027027
REMARK minimizedRMSD -1
REMARK  0 active torsions:
REMARK  status: ('A' for Active; 'I' for Inactive)
ROOT
ATOM      1  C   UNL d   1      -0.102   3.090  -5.999  0.00  0.00     0.077 C 
ATOM      2  C1  UNL d   1      -1.307   3.650  -5.302  0.00  0.00    -0.074 A 
ATOM      3  C2  UNL d   1      -1.199   4.225  -4.032  0.00  0.00    -0.005 A 
ATOM      4  C3  UNL d   1      -2.327   4.750  -3.400  0.00  0.00     0.006 A 
ATOM      5  C4  UNL d   1      -3.570   4.707  -4.032  0.00  0.00    -0.005 A 
ATOM      6  C5  UNL d   1      -3.696   4.137  -5.303  0.00  0.00    -0.074 A 
ATOM      7  C6  UNL d   1      -5.024   4.092  -6.000  0.00  0.00     0.077 C 
ATOM      8  C7  UNL d   1      -2.558   3.618  -5.934  0.00  0.00    -0.001 A 
ENDROOT
TORSDOF 0
ENDMDL
