MODEL 1
REMARK minimizedAffinity 1.38775682
REMARK minimizedRMSD -1
REMARK  0 active torsions:
REMARK  status: ('A' for Active; 'I' for Inactive)
ROOT
ATOM      1  C   UNL d   1      -0.081   3.382  -5.999  0.00  0.00     0.077 C 
ATOM      2  C1  UNL d   1       1.136   2.514  -5.888  0.00  0.00    -0.074 A 
ATOM      3  C2  UNL d   1       1.039   1.123  -6.000  0.00  0.00    -0.005 A 
ATOM      4  C3  UNL d   1       2.182   0.328  -5.904  0.00  0.00     0.006 A 
ATOM      5  C4  UNL d   1       3.430   0.916  -5.696  0.00  0.00    -0.005 A 
ATOM      6  C5  UNL d   1       3.547   2.305  -5.583  0.00  0.00    -0.074 A 
ATOM      7  C6  UNL d   1       4.883   2.952  -5.369  0.00  0.00     0.077 C 
ATOM      8  C7  UNL d   1       2.395   3.097  -5.687  0.00  0.00    -0.001 A 
ENDROOT
TORSDOF 0
ENDMDL
