MODEL 1
REMARK minimizedAffinity -3.16978288
REMARK minimizedRMSD -1
REMARK  0 active torsions:
REMARK  status: ('A' for Active; 'I' for Inactive)
ROOT
ATOM      1  C   UNL d   1       0.835   4.037   0.292  0.00  0.00     0.077 C 
ATOM      2  C1  UNL d   1      -0.069   2.841   0.270  0.00  0.00    -0.074 A 
ATOM      3  C2  UNL d   1      -1.383   2.923   0.742  0.00  0.00    -0.005 A 
ATOM      4  C3  UNL d   1      -2.215   1.804   0.707  0.00  0.00     0.006 A 
ATOM      5  C4  UNL d   1      -1.742   0.593   0.199  0.00  0.00    -0.005 A 
ATOM      6  C5  UNL d   1      -0.432   0.492  -0.278  0.00  0.00    -0.074 A 
ATOM      7  C6  UNL d   1       0.088  -0.800  -0.836  0.00  0.00     0.077 C 
ATOM      8  C7  UNL d   1       0.396   1.622  -0.246  0.00  0.00    -0.001 A 
ENDROOT
TORSDOF 0
ENDMDL
