MODEL 1
REMARK minimizedAffinity -2.33788562
REMARK minimizedRMSD -1
REMARK  0 active torsions:
REMARK  status: ('A' for Active; 'I' for Inactive)
ROOT
ATOM      1  C2' OXE d   1      -0.467   0.218  -1.395  0.00  0.00     0.078 C 
ATOM      2  C1' OXE d   1       1.833  -1.122  -0.503  0.00  0.00     0.078 C 
ATOM      3  C1  OXE d   1       0.730  -0.875   0.496  0.00  0.00    -0.078 A 
ATOM      4  C2  OXE d   1      -0.372  -0.178   0.062  0.00  0.00    -0.078 A 
ATOM      5  C3  OXE d   1      -1.442   0.028   0.928  0.00  0.00     0.003 A 
ATOM      6  C4  OXE d   1      -1.342  -0.332   2.277  0.00  0.00    -0.002 A 
ATOM      7  C5  OXE d   1      -0.212  -1.008   2.749  0.00  0.00    -0.002 A 
ATOM      8  C6  OXE d   1       0.812  -1.325   1.864  0.00  0.00     0.003 A 
ENDROOT
TORSDOF 0
ENDMDL
