MODEL 1
REMARK minimizedAffinity -0.245002091
REMARK minimizedRMSD -1
REMARK  0 active torsions:
REMARK  status: ('A' for Active; 'I' for Inactive)
ROOT
ATOM      1  C2' OXE d   1       1.730  -1.638   0.049  0.00  0.00     0.078 C 
ATOM      2  C1' OXE d   1       0.192  -1.179   2.353  0.00  0.00     0.078 C 
ATOM      3  C1  OXE d   1      -0.201  -0.457   1.088  0.00  0.00    -0.078 A 
ATOM      4  C2  OXE d   1       0.584  -0.652  -0.022  0.00  0.00    -0.078 A 
ATOM      5  C3  OXE d   1       0.234  -0.053  -1.229  0.00  0.00     0.003 A 
ATOM      6  C4  OXE d   1      -0.821   0.866  -1.283  0.00  0.00    -0.002 A 
ATOM      7  C5  OXE d   1      -1.610   1.110  -0.154  0.00  0.00    -0.002 A 
ATOM      8  C6  OXE d   1      -1.340   0.425   1.026  0.00  0.00     0.003 A 
ENDROOT
TORSDOF 0
ENDMDL
