MODEL 1
REMARK minimizedAffinity -4.24551296
REMARK minimizedRMSD -1
REMARK  0 active torsions:
REMARK  status: ('A' for Active; 'I' for Inactive)
ROOT
ATOM      1  C2' OXE d   1       1.595  -1.088  -1.608  0.00  0.00     0.078 C 
ATOM      2  C1' OXE d   1      -0.277   1.000  -1.471  0.00  0.00     0.078 C 
ATOM      3  C1  OXE d   1      -0.011   0.210  -0.214  0.00  0.00    -0.078 A 
ATOM      4  C2  OXE d   1       0.872  -0.840  -0.302  0.00  0.00    -0.078 A 
ATOM      5  C3  OXE d   1       1.194  -1.566   0.841  0.00  0.00     0.003 A 
ATOM      6  C4  OXE d   1       0.514  -1.336   2.043  0.00  0.00    -0.002 A 
ATOM      7  C5  OXE d   1      -0.418  -0.298   2.143  0.00  0.00    -0.002 A 
ATOM      8  C6  OXE d   1      -0.660   0.510   1.038  0.00  0.00     0.003 A 
ENDROOT
TORSDOF 0
ENDMDL
