MODEL 1
REMARK minimizedAffinity -4.08002949
REMARK minimizedRMSD -1
REMARK  0 active torsions:
REMARK  status: ('A' for Active; 'I' for Inactive)
ROOT
ATOM      1  C2' OXE d   1       0.638  -0.775  -1.668  0.00  0.00     0.078 C 
ATOM      2  C1' OXE d   1       2.551  -1.954   0.015  0.00  0.00     0.078 C 
ATOM      3  C1  OXE d   1       1.313  -1.376   0.653  0.00  0.00    -0.078 A 
ATOM      4  C2  OXE d   1       0.404  -0.760  -0.173  0.00  0.00    -0.078 A 
ATOM      5  C3  OXE d   1      -0.781  -0.258   0.358  0.00  0.00     0.003 A 
ATOM      6  C4  OXE d   1      -0.985  -0.240   1.743  0.00  0.00    -0.002 A 
ATOM      7  C5  OXE d   1      -0.054  -0.827   2.606  0.00  0.00    -0.002 A 
ATOM      8  C6  OXE d   1       1.078  -1.436   2.075  0.00  0.00     0.003 A 
ENDROOT
TORSDOF 0
ENDMDL
