MODEL 1
REMARK minimizedAffinity -0.253866494
REMARK minimizedRMSD -1
REMARK  0 active torsions:
REMARK  status: ('A' for Active; 'I' for Inactive)
ROOT
ATOM      1  C2' OXE d   1      -0.224   2.962  -2.275  0.00  0.00     0.078 C 
ATOM      2  C1' OXE d   1      -2.285   1.087  -2.624  0.00  0.00     0.078 C 
ATOM      3  C1  OXE d   1      -1.389   0.931  -1.421  0.00  0.00    -0.078 A 
ATOM      4  C2  OXE d   1      -0.354   1.825  -1.284  0.00  0.00    -0.078 A 
ATOM      5  C3  OXE d   1       0.469   1.759  -0.163  0.00  0.00     0.003 A 
ATOM      6  C4  OXE d   1       0.349   0.699   0.744  0.00  0.00    -0.002 A 
ATOM      7  C5  OXE d   1      -0.673  -0.245   0.600  0.00  0.00    -0.002 A 
ATOM      8  C6  OXE d   1      -1.575  -0.119  -0.451  0.00  0.00     0.003 A 
ENDROOT
TORSDOF 0
ENDMDL
