MODEL 1
REMARK minimizedAffinity -3.9187336
REMARK minimizedRMSD -1
REMARK  0 active torsions:
REMARK  status: ('A' for Active; 'I' for Inactive)
ROOT
ATOM      1  C2' OXE d   1      -0.982  -0.359  -0.106  0.00  0.00     0.078 C 
ATOM      2  C1' OXE d   1       1.130  -1.414  -1.624  0.00  0.00     0.078 C 
ATOM      3  C1  OXE d   1       1.109  -1.712  -0.146  0.00  0.00    -0.078 A 
ATOM      4  C2  OXE d   1       0.097  -1.153   0.597  0.00  0.00    -0.078 A 
ATOM      5  C3  OXE d   1      -0.000  -1.441   1.956  0.00  0.00     0.003 A 
ATOM      6  C4  OXE d   1       1.008  -2.169   2.600  0.00  0.00    -0.002 A 
ATOM      7  C5  OXE d   1       2.068  -2.714   1.868  0.00  0.00    -0.002 A 
ATOM      8  C6  OXE d   1       2.110  -2.531   0.491  0.00  0.00     0.003 A 
ENDROOT
TORSDOF 0
ENDMDL
