MODEL 1
REMARK minimizedAffinity -4.09489059
REMARK minimizedRMSD -1
REMARK  0 active torsions:
REMARK  status: ('A' for Active; 'I' for Inactive)
ROOT
ATOM      1  C2' OXE d   1       0.265  -0.618  -2.579  0.00  0.00     0.078 C 
ATOM      2  C1' OXE d   1      -1.170   0.057  -0.262  0.00  0.00     0.078 C 
ATOM      3  C1  OXE d   1      -0.849   1.162  -1.237  0.00  0.00    -0.078 A 
ATOM      4  C2  OXE d   1      -0.106   0.831  -2.345  0.00  0.00    -0.078 A 
ATOM      5  C3  OXE d   1       0.172   1.801  -3.304  0.00  0.00     0.003 A 
ATOM      6  C4  OXE d   1      -0.166   3.141  -3.075  0.00  0.00    -0.002 A 
ATOM      7  C5  OXE d   1      -0.888   3.506  -1.934  0.00  0.00    -0.002 A 
ATOM      8  C6  OXE d   1      -1.273   2.524  -1.028  0.00  0.00     0.003 A 
ENDROOT
TORSDOF 0
ENDMDL
