MODEL 1
REMARK minimizedAffinity -3.55975389
REMARK minimizedRMSD -1
REMARK  0 active torsions:
REMARK  status: ('A' for Active; 'I' for Inactive)
ROOT
ATOM      1  C2' OXE d   1       0.322  -0.977  -2.160  0.00  0.00     0.078 C 
ATOM      2  C1' OXE d   1      -0.862   0.077   0.156  0.00  0.00     0.078 C 
ATOM      3  C1  OXE d   1      -0.546   1.031  -0.969  0.00  0.00    -0.078 A 
ATOM      4  C2  OXE d   1       0.076   0.514  -2.080  0.00  0.00    -0.078 A 
ATOM      5  C3  OXE d   1       0.341   1.340  -3.168  0.00  0.00     0.003 A 
ATOM      6  C4  OXE d   1       0.119   2.720  -3.082  0.00  0.00    -0.002 A 
ATOM      7  C5  OXE d   1      -0.477   3.273  -1.943  0.00  0.00    -0.002 A 
ATOM      8  C6  OXE d   1      -0.854   2.438  -0.897  0.00  0.00     0.003 A 
ENDROOT
TORSDOF 0
ENDMDL
