MODEL 1
REMARK minimizedAffinity -2.41938186
REMARK minimizedRMSD -1
REMARK  0 active torsions:
REMARK  status: ('A' for Active; 'I' for Inactive)
ROOT
ATOM      1  C2' OXE d   1      -2.046   0.515   1.480  0.00  0.00     0.078 C 
ATOM      2  C1' OXE d   1      -0.624   0.742  -0.929  0.00  0.00     0.078 C 
ATOM      3  C1  OXE d   1      -0.111  -0.233   0.101  0.00  0.00    -0.078 A 
ATOM      4  C2  OXE d   1      -0.786  -0.304   1.296  0.00  0.00    -0.078 A 
ATOM      5  C3  OXE d   1      -0.388  -1.226   2.259  0.00  0.00     0.003 A 
ATOM      6  C4  OXE d   1       0.784  -1.971   2.085  0.00  0.00    -0.002 A 
ATOM      7  C5  OXE d   1       1.509  -1.886   0.892  0.00  0.00    -0.002 A 
ATOM      8  C6  OXE d   1       1.052  -1.055  -0.125  0.00  0.00     0.003 A 
ENDROOT
TORSDOF 0
ENDMDL
