MODEL 1
REMARK minimizedAffinity -1.60345876
REMARK minimizedRMSD -1
REMARK  0 active torsions:
REMARK  status: ('A' for Active; 'I' for Inactive)
ROOT
ATOM      1  C2' OXE d   1      -0.293   0.637  -1.438  0.00  0.00     0.078 C 
ATOM      2  C1' OXE d   1       1.709  -1.330  -1.385  0.00  0.00     0.078 C 
ATOM      3  C1  OXE d   1       0.910  -1.106  -0.126  0.00  0.00    -0.078 A 
ATOM      4  C2  OXE d   1      -0.036  -0.110  -0.146  0.00  0.00    -0.078 A 
ATOM      5  C3  OXE d   1      -0.839   0.101   0.971  0.00  0.00     0.003 A 
ATOM      6  C4  OXE d   1      -0.588  -0.586   2.164  0.00  0.00    -0.002 A 
ATOM      7  C5  OXE d   1       0.398  -1.578   2.219  0.00  0.00    -0.002 A 
ATOM      8  C6  OXE d   1       1.125  -1.879   1.072  0.00  0.00     0.003 A 
ENDROOT
TORSDOF 0
ENDMDL
