MODEL 1
REMARK minimizedAffinity -3.39871168
REMARK minimizedRMSD -1
REMARK  0 active torsions:
REMARK  status: ('A' for Active; 'I' for Inactive)
ROOT
ATOM      1  C2' OXE d   1       0.260  -1.408  -1.877  0.00  0.00     0.078 C 
ATOM      2  C1' OXE d   1       2.176  -2.295  -0.028  0.00  0.00     0.078 C 
ATOM      3  C1  OXE d   1       1.014  -1.488   0.495  0.00  0.00    -0.078 A 
ATOM      4  C2  OXE d   1       0.106  -1.018  -0.423  0.00  0.00    -0.078 A 
ATOM      5  C3  OXE d   1      -1.013  -0.315   0.012  0.00  0.00     0.003 A 
ATOM      6  C4  OXE d   1      -1.142   0.050   1.358  0.00  0.00    -0.002 A 
ATOM      7  C5  OXE d   1      -0.208  -0.384   2.304  0.00  0.00    -0.002 A 
ATOM      8  C6  OXE d   1       0.851  -1.188   1.896  0.00  0.00     0.003 A 
ENDROOT
TORSDOF 0
ENDMDL
