MODEL 1
REMARK minimizedAffinity -3.65808249
REMARK minimizedRMSD -1
REMARK  0 active torsions:
REMARK  status: ('A' for Active; 'I' for Inactive)
ROOT
ATOM      1  C4' PXY d   1       1.750  -1.509  -0.495  0.00  0.00     0.077 C 
ATOM      2  C1' PXY d   1      -3.365   0.321   1.480  0.00  0.00     0.077 C 
ATOM      3  C1  PXY d   1      -2.030  -0.167   0.955  0.00  0.00    -0.082 A 
ATOM      4  C2  PXY d   1      -0.945  -0.033   1.700  0.00  0.00     0.003 A 
ATOM      5  C3  PXY d   1       0.276  -0.440   1.226  0.00  0.00     0.003 A 
ATOM      6  C4  PXY d   1       0.379  -1.039  -0.000  0.00  0.00    -0.082 A 
ATOM      7  C5  PXY d   1      -0.725  -1.189  -0.762  0.00  0.00     0.003 A 
ATOM      8  C6  PXY d   1      -1.948  -0.732  -0.281  0.00  0.00     0.003 A 
ENDROOT
TORSDOF 0
ENDMDL
