MODEL 1
REMARK minimizedAffinity 1.56270874
REMARK minimizedRMSD -1
REMARK  0 active torsions:
REMARK  status: ('A' for Active; 'I' for Inactive)
ROOT
ATOM      1  C4' PXY d   1      -0.207  -1.274   3.091  0.00  0.00     0.077 C 
ATOM      2  C1' PXY d   1      -4.444   1.147  -0.007  0.00  0.00     0.077 C 
ATOM      3  C1  PXY d   1      -3.335   0.501   0.799  0.00  0.00    -0.082 A 
ATOM      4  C2  PXY d   1      -3.024   0.986   1.990  0.00  0.00     0.003 A 
ATOM      5  C3  PXY d   1      -2.002   0.434   2.718  0.00  0.00     0.003 A 
ATOM      6  C4  PXY d   1      -1.326  -0.659   2.246  0.00  0.00    -0.082 A 
ATOM      7  C5  PXY d   1      -1.645  -1.167   1.036  0.00  0.00     0.003 A 
ATOM      8  C6  PXY d   1      -2.658  -0.566   0.294  0.00  0.00     0.003 A 
ENDROOT
TORSDOF 0
ENDMDL
