MODEL 1
REMARK minimizedAffinity 7.8938632
REMARK minimizedRMSD -1
REMARK  0 active torsions:
REMARK  status: ('A' for Active; 'I' for Inactive)
ROOT
ATOM      1  C4' PXY d   1       3.513  -1.264  -4.262  0.00  0.00     0.077 C 
ATOM      2  C1' PXY d   1      -2.107  -0.866  -5.555  0.00  0.00     0.077 C 
ATOM      3  C1  PXY d   1      -0.630  -0.966  -5.228  0.00  0.00    -0.082 A 
ATOM      4  C2  PXY d   1      -0.224  -1.797  -4.281  0.00  0.00     0.003 A 
ATOM      5  C3  PXY d   1       1.104  -1.877  -3.950  0.00  0.00     0.003 A 
ATOM      6  C4  PXY d   1       2.033  -1.137  -4.632  0.00  0.00    -0.082 A 
ATOM      7  C5  PXY d   1       1.628  -0.295  -5.606  0.00  0.00     0.003 A 
ATOM      8  C6  PXY d   1       0.271  -0.198  -5.898  0.00  0.00     0.003 A 
ENDROOT
TORSDOF 0
ENDMDL
