MODEL 1
REMARK minimizedAffinity 3.15438581
REMARK minimizedRMSD -1
REMARK  0 active torsions:
REMARK  status: ('A' for Active; 'I' for Inactive)
ROOT
ATOM      1  C4' PXY d   1       5.926  -0.117  -4.858  0.00  0.00     0.077 C 
ATOM      2  C1' PXY d   1       0.204  -0.936  -4.936  0.00  0.00     0.077 C 
ATOM      3  C1  PXY d   1       1.704  -0.719  -4.903  0.00  0.00    -0.082 A 
ATOM      4  C2  PXY d   1       2.333  -0.327  -5.999  0.00  0.00     0.003 A 
ATOM      5  C3  PXY d   1       3.694  -0.157  -5.995  0.00  0.00     0.003 A 
ATOM      6  C4  PXY d   1       4.411  -0.339  -4.843  0.00  0.00    -0.082 A 
ATOM      7  C5  PXY d   1       3.775  -0.729  -3.718  0.00  0.00     0.003 A 
ATOM      8  C6  PXY d   1       2.399  -0.936  -3.753  0.00  0.00     0.003 A 
ENDROOT
TORSDOF 0
ENDMDL
