MODEL 1
REMARK minimizedAffinity 6.32284117
REMARK minimizedRMSD -1
REMARK  0 active torsions:
REMARK  status: ('A' for Active; 'I' for Inactive)
ROOT
ATOM      1  C4' PXY d   1      -2.007   0.212   1.093  0.00  0.00     0.077 C 
ATOM      2  C1' PXY d   1       2.670  -2.075   3.606  0.00  0.00     0.077 C 
ATOM      3  C1  PXY d   1       1.440  -1.487   2.942  0.00  0.00    -0.082 A 
ATOM      4  C2  PXY d   1       1.401  -0.194   2.665  0.00  0.00     0.003 A 
ATOM      5  C3  PXY d   1       0.285   0.360   2.094  0.00  0.00     0.003 A 
ATOM      6  C4  PXY d   1      -0.783  -0.427   1.755  0.00  0.00    -0.082 A 
ATOM      7  C5  PXY d   1      -0.747  -1.749   2.024  0.00  0.00     0.003 A 
ATOM      8  C6  PXY d   1       0.380  -2.285   2.642  0.00  0.00     0.003 A 
ENDROOT
TORSDOF 0
ENDMDL
