MODEL 1
REMARK minimizedAffinity 4.15715408
REMARK minimizedRMSD -1
REMARK  0 active torsions:
REMARK  status: ('A' for Active; 'I' for Inactive)
ROOT
ATOM      1  C4' PXY d   1       2.389  -1.840   3.727  0.00  0.00     0.077 C 
ATOM      2  C1' PXY d   1      -2.565  -0.509   1.062  0.00  0.00     0.077 C 
ATOM      3  C1  PXY d   1      -1.260  -0.848   1.754  0.00  0.00    -0.082 A 
ATOM      4  C2  PXY d   1      -1.082  -2.060   2.256  0.00  0.00     0.003 A 
ATOM      5  C3  PXY d   1       0.080  -2.374   2.913  0.00  0.00     0.003 A 
ATOM      6  C4  PXY d   1       1.091  -1.456   3.011  0.00  0.00    -0.082 A 
ATOM      7  C5  PXY d   1       0.921  -0.221   2.492  0.00  0.00     0.003 A 
ATOM      8  C6  PXY d   1      -0.282   0.091   1.865  0.00  0.00     0.003 A 
ENDROOT
TORSDOF 0
ENDMDL
