MODEL 1
REMARK minimizedAffinity 0.41578564
REMARK minimizedRMSD -1
REMARK  0 active torsions:
REMARK  status: ('A' for Active; 'I' for Inactive)
ROOT
ATOM      1  C4' PXY d   1       2.341  -1.814   3.554  0.00  0.00     0.077 C 
ATOM      2  C1' PXY d   1      -3.126  -0.992   1.863  0.00  0.00     0.077 C 
ATOM      3  C1  PXY d   1      -1.688  -1.199   2.297  0.00  0.00    -0.082 A 
ATOM      4  C2  PXY d   1      -1.336  -2.336   2.875  0.00  0.00     0.003 A 
ATOM      5  C3  PXY d   1      -0.048  -2.527   3.303  0.00  0.00     0.003 A 
ATOM      6  C4  PXY d   1       0.903  -1.565   3.090  0.00  0.00    -0.082 A 
ATOM      7  C5  PXY d   1       0.554  -0.406   2.492  0.00  0.00     0.003 A 
ATOM      8  C6  PXY d   1      -0.768  -0.215   2.102  0.00  0.00     0.003 A 
ENDROOT
TORSDOF 0
ENDMDL
