MODEL 1
REMARK minimizedAffinity 1.164042
REMARK minimizedRMSD -1
REMARK  0 active torsions:
REMARK  status: ('A' for Active; 'I' for Inactive)
ROOT
ATOM      1  C4' PXY d   1       4.111  -1.048  -5.556  0.00  0.00     0.077 C 
ATOM      2  C1' PXY d   1      -1.551  -0.626  -4.474  0.00  0.00     0.077 C 
ATOM      3  C1  PXY d   1      -0.065  -0.742  -4.746  0.00  0.00    -0.082 A 
ATOM      4  C2  PXY d   1       0.509   0.081  -5.609  0.00  0.00     0.003 A 
ATOM      5  C3  PXY d   1       1.846  -0.031  -5.891  0.00  0.00     0.003 A 
ATOM      6  C4  PXY d   1       2.615  -0.961  -5.243  0.00  0.00    -0.082 A 
ATOM      7  C5  PXY d   1       2.040  -1.797  -4.353  0.00  0.00     0.003 A 
ATOM      8  C6  PXY d   1       0.673  -1.694  -4.112  0.00  0.00     0.003 A 
ENDROOT
TORSDOF 0
ENDMDL
