MODEL 1
REMARK minimizedAffinity 0.737779677
REMARK minimizedRMSD -1
REMARK  0 active torsions:
REMARK  status: ('A' for Active; 'I' for Inactive)
ROOT
ATOM      1  C4' PXY d   1      -3.030   0.307   1.013  0.00  0.00     0.077 C 
ATOM      2  C1' PXY d   1       1.750  -1.767   3.516  0.00  0.00     0.077 C 
ATOM      3  C1  PXY d   1       0.493  -1.236   2.857  0.00  0.00    -0.082 A 
ATOM      4  C2  PXY d   1       0.471   0.004   2.394  0.00  0.00     0.003 A 
ATOM      5  C3  PXY d   1      -0.668   0.511   1.824  0.00  0.00     0.003 A 
ATOM      6  C4  PXY d   1      -1.779  -0.275   1.678  0.00  0.00    -0.082 A 
ATOM      7  C5  PXY d   1      -1.761  -1.544   2.137  0.00  0.00     0.003 A 
ATOM      8  C6  PXY d   1      -0.608  -2.027   2.750  0.00  0.00     0.003 A 
ENDROOT
TORSDOF 0
ENDMDL
