MODEL 1
REMARK minimizedAffinity 4.670753
REMARK minimizedRMSD -1
REMARK  0 active torsions:
REMARK  status: ('A' for Active; 'I' for Inactive)
ROOT
ATOM      1  C4' PXY d   1       3.901  -0.377  -4.953  0.00  0.00     0.077 C 
ATOM      2  C1' PXY d   1      -1.870  -0.699  -5.027  0.00  0.00     0.077 C 
ATOM      3  C1  PXY d   1      -0.356  -0.615  -4.994  0.00  0.00    -0.082 A 
ATOM      4  C2  PXY d   1       0.288  -0.042  -5.998  0.00  0.00     0.003 A 
ATOM      5  C3  PXY d   1       1.658   0.013  -6.000  0.00  0.00     0.003 A 
ATOM      6  C4  PXY d   1       2.373  -0.475  -4.939  0.00  0.00    -0.082 A 
ATOM      7  C5  PXY d   1       1.722  -1.052  -3.907  0.00  0.00     0.003 A 
ATOM      8  C6  PXY d   1       0.333  -1.135  -3.943  0.00  0.00     0.003 A 
ENDROOT
TORSDOF 0
ENDMDL
