MODEL 1
REMARK minimizedAffinity -4.0171423
REMARK minimizedRMSD -1
REMARK  0 active torsions:
REMARK  status: ('A' for Active; 'I' for Inactive)
ROOT
ATOM      1  C4' PXY d   1       0.099  -1.018   1.185  0.00  0.00     0.077 C 
ATOM      2  C1' PXY d   1      -5.540   0.078   0.540  0.00  0.00     0.077 C 
ATOM      3  C1  PXY d   1      -4.062  -0.204   0.721  0.00  0.00    -0.082 A 
ATOM      4  C2  PXY d   1      -3.284  -0.324  -0.342  0.00  0.00     0.003 A 
ATOM      5  C3  PXY d   1      -1.951  -0.611  -0.198  0.00  0.00     0.003 A 
ATOM      6  C4  PXY d   1      -1.398  -0.724   1.050  0.00  0.00    -0.082 A 
ATOM      7  C5  PXY d   1      -2.183  -0.592   2.140  0.00  0.00     0.003 A 
ATOM      8  C6  PXY d   1      -3.541  -0.341   1.971  0.00  0.00     0.003 A 
ENDROOT
TORSDOF 0
ENDMDL
