MODEL 1
REMARK minimizedAffinity 1.43787324
REMARK minimizedRMSD -1
REMARK  0 active torsions:
REMARK  status: ('A' for Active; 'I' for Inactive)
ROOT
ATOM      1  C   UNL d   1       3.358   0.391   6.000  0.00  0.00     0.077 C 
ATOM      2  C1  UNL d   1       3.329   1.759   5.387  0.00  0.00    -0.074 A 
ATOM      3  C2  UNL d   1       4.089   2.054   4.250  0.00  0.00    -0.005 A 
ATOM      4  C3  UNL d   1       4.044   3.329   3.686  0.00  0.00     0.006 A 
ATOM      5  C4  UNL d   1       3.240   4.320   4.251  0.00  0.00    -0.005 A 
ATOM      6  C5  UNL d   1       2.473   4.043   5.386  0.00  0.00    -0.074 A 
ATOM      7  C6  UNL d   1       1.596   5.094   6.000  0.00  0.00     0.077 C 
ATOM      8  C7  UNL d   1       2.517   2.758   5.944  0.00  0.00    -0.001 A 
ENDROOT
TORSDOF 0
ENDMDL
