MODEL 1
REMARK minimizedAffinity -1.60451245
REMARK minimizedRMSD -1
REMARK  0 active torsions:
REMARK  status: ('A' for Active; 'I' for Inactive)
ROOT
ATOM      1  C   UNL d   1       2.411   5.271   5.996  0.00  0.00     0.077 C 
ATOM      2  C1  UNL d   1       3.479   4.218   5.990  0.00  0.00    -0.074 A 
ATOM      3  C2  UNL d   1       4.833   4.569   5.996  0.00  0.00    -0.005 A 
ATOM      4  C3  UNL d   1       5.816   3.580   6.000  0.00  0.00     0.006 A 
ATOM      5  C4  UNL d   1       5.456   2.231   5.997  0.00  0.00    -0.005 A 
ATOM      6  C5  UNL d   1       4.107   1.862   5.992  0.00  0.00    -0.074 A 
ATOM      7  C6  UNL d   1       3.703   0.417   6.000  0.00  0.00     0.077 C 
ATOM      8  C7  UNL d   1       3.125   2.862   5.995  0.00  0.00    -0.001 A 
ENDROOT
TORSDOF 0
ENDMDL
