MODEL 1
REMARK minimizedAffinity 0.710019767
REMARK minimizedRMSD -1
REMARK  0 active torsions:
REMARK  status: ('A' for Active; 'I' for Inactive)
ROOT
ATOM      1  C   UNL d   1       4.140   2.971   1.944  0.00  0.00     0.077 C 
ATOM      2  C1  UNL d   1       3.679   2.761   3.356  0.00  0.00    -0.074 A 
ATOM      3  C2  UNL d   1       3.994   1.586   4.047  0.00  0.00    -0.005 A 
ATOM      4  C3  UNL d   1       3.567   1.409   5.363  0.00  0.00     0.006 A 
ATOM      5  C4  UNL d   1       2.822   2.402   6.000  0.00  0.00    -0.005 A 
ATOM      6  C5  UNL d   1       2.498   3.583   5.325  0.00  0.00    -0.074 A 
ATOM      7  C6  UNL d   1       1.706   4.664   5.998  0.00  0.00     0.077 C 
ATOM      8  C7  UNL d   1       2.937   3.757   4.005  0.00  0.00    -0.001 A 
ENDROOT
TORSDOF 0
ENDMDL
