MODEL 1
REMARK minimizedAffinity 2.20818257
REMARK minimizedRMSD -1
REMARK  0 active torsions:
REMARK  status: ('A' for Active; 'I' for Inactive)
ROOT
ATOM      1  C   UNL d   1       2.250   1.036   6.000  0.00  0.00     0.077 C 
ATOM      2  C1  UNL d   1       2.560   2.503   5.992  0.00  0.00    -0.074 A 
ATOM      3  C2  UNL d   1       3.882   2.959   6.000  0.00  0.00    -0.005 A 
ATOM      4  C3  UNL d   1       4.155   4.327   5.982  0.00  0.00     0.006 A 
ATOM      5  C4  UNL d   1       3.110   5.251   5.956  0.00  0.00    -0.005 A 
ATOM      6  C5  UNL d   1       1.781   4.814   5.947  0.00  0.00    -0.074 A 
ATOM      7  C6  UNL d   1       0.647   5.794   5.909  0.00  0.00     0.077 C 
ATOM      8  C7  UNL d   1       1.516   3.438   5.958  0.00  0.00    -0.001 A 
ENDROOT
TORSDOF 0
ENDMDL
