MODEL 1
REMARK minimizedAffinity -3.43347716
REMARK minimizedRMSD -1
REMARK  0 active torsions:
REMARK  status: ('A' for Active; 'I' for Inactive)
ROOT
ATOM      1  C   UNL d   1       1.510   5.302   6.000  0.00  0.00     0.077 C 
ATOM      2  C1  UNL d   1       2.673   4.355   5.980  0.00  0.00    -0.074 A 
ATOM      3  C2  UNL d   1       3.988   4.831   5.969  0.00  0.00    -0.005 A 
ATOM      4  C3  UNL d   1       5.059   3.937   5.960  0.00  0.00     0.006 A 
ATOM      5  C4  UNL d   1       4.827   2.562   5.961  0.00  0.00    -0.005 A 
ATOM      6  C5  UNL d   1       3.519   2.067   5.972  0.00  0.00    -0.074 A 
ATOM      7  C6  UNL d   1       3.251   0.591   5.983  0.00  0.00     0.077 C 
ATOM      8  C7  UNL d   1       2.447   2.971   5.988  0.00  0.00    -0.001 A 
ENDROOT
TORSDOF 0
ENDMDL
