MODEL 1
REMARK minimizedAffinity 13.3897581
REMARK minimizedRMSD -1
REMARK  0 active torsions:
REMARK  status: ('A' for Active; 'I' for Inactive)
ROOT
ATOM      1  C   UNL d   1      -5.997  -1.286  -4.612  0.00  0.00     0.077 C 
ATOM      2  C1  UNL d   1      -4.791  -0.397  -4.539  0.00  0.00    -0.074 A 
ATOM      3  C2  UNL d   1      -4.621   0.658  -5.441  0.00  0.00    -0.005 A 
ATOM      4  C3  UNL d   1      -3.499   1.482  -5.356  0.00  0.00     0.006 A 
ATOM      5  C4  UNL d   1      -2.538   1.260  -4.369  0.00  0.00    -0.005 A 
ATOM      6  C5  UNL d   1      -2.691   0.210  -3.458  0.00  0.00    -0.074 A 
ATOM      7  C6  UNL d   1      -1.672  -0.036  -2.385  0.00  0.00     0.077 C 
ATOM      8  C7  UNL d   1      -3.825  -0.609  -3.546  0.00  0.00    -0.001 A 
ENDROOT
TORSDOF 0
ENDMDL
