MODEL 1
REMARK minimizedAffinity 8.76585007
REMARK minimizedRMSD -1
REMARK  0 active torsions:
REMARK  status: ('A' for Active; 'I' for Inactive)
ROOT
ATOM      1  C   UNL d   1       4.772   4.711  -0.006  0.00  0.00     0.077 C 
ATOM      2  C1  UNL d   1       4.790   3.213  -0.071  0.00  0.00    -0.074 A 
ATOM      3  C2  UNL d   1       5.998   2.508  -0.087  0.00  0.00    -0.005 A 
ATOM      4  C3  UNL d   1       5.999   1.115  -0.139  0.00  0.00     0.006 A 
ATOM      5  C4  UNL d   1       4.794   0.412  -0.175  0.00  0.00    -0.005 A 
ATOM      6  C5  UNL d   1       3.576   1.099  -0.159  0.00  0.00    -0.074 A 
ATOM      7  C6  UNL d   1       2.272   0.360  -0.188  0.00  0.00     0.077 C 
ATOM      8  C7  UNL d   1       3.583   2.500  -0.100  0.00  0.00    -0.001 A 
ENDROOT
TORSDOF 0
ENDMDL
