MODEL 1
REMARK minimizedAffinity 2.17294407
REMARK minimizedRMSD -1
REMARK  0 active torsions:
REMARK  status: ('A' for Active; 'I' for Inactive)
ROOT
ATOM      1  C   UNL d   1       4.976   2.957   1.658  0.00  0.00     0.077 C 
ATOM      2  C1  UNL d   1       4.864   3.023   3.152  0.00  0.00    -0.074 A 
ATOM      3  C2  UNL d   1       5.243   4.174   3.851  0.00  0.00    -0.005 A 
ATOM      4  C3  UNL d   1       5.124   4.223   5.240  0.00  0.00     0.006 A 
ATOM      5  C4  UNL d   1       4.627   3.125   5.943  0.00  0.00    -0.005 A 
ATOM      6  C5  UNL d   1       4.243   1.966   5.261  0.00  0.00    -0.074 A 
ATOM      7  C6  UNL d   1       3.698   0.780   6.000  0.00  0.00     0.077 C 
ATOM      8  C7  UNL d   1       4.358   1.926   3.864  0.00  0.00    -0.001 A 
ENDROOT
TORSDOF 0
ENDMDL
