MODEL 1
REMARK minimizedAffinity 2.54534626
REMARK minimizedRMSD -1
REMARK  0 active torsions:
REMARK  status: ('A' for Active; 'I' for Inactive)
ROOT
ATOM      1  C   UNL d   1       0.368  -4.869   1.225  0.00  0.00     0.077 C 
ATOM      2  C1  UNL d   1       0.644  -4.689   2.688  0.00  0.00    -0.074 A 
ATOM      3  C2  UNL d   1       1.641  -3.813   3.128  0.00  0.00    -0.005 A 
ATOM      4  C3  UNL d   1       1.880  -3.648   4.493  0.00  0.00     0.006 A 
ATOM      5  C4  UNL d   1       1.126  -4.357   5.429  0.00  0.00    -0.005 A 
ATOM      6  C5  UNL d   1       0.125  -5.237   5.007  0.00  0.00    -0.074 A 
ATOM      7  C6  UNL d   1      -0.702  -6.000   6.000  0.00  0.00     0.077 C 
ATOM      8  C7  UNL d   1      -0.114  -5.392   3.634  0.00  0.00    -0.001 A 
ENDROOT
TORSDOF 0
ENDMDL
