MODEL 1
REMARK minimizedAffinity 16.6960068
REMARK minimizedRMSD -1
REMARK  3 active torsions:
REMARK  status: ('A' for Active; 'I' for Inactive)
REMARK    1  A    between atoms: C3'_2  and  C2'_3 
REMARK    2  A    between atoms: C2'_3  and  C1'_4 
REMARK    3  A    between atoms: C1'_4  and  C1_5 
ROOT
ATOM      1  C1  N4B d   1      -3.244  -3.218  -1.778  0.00  0.00    -0.075 A 
ATOM      2  C2  N4B d   1      -2.995  -2.660  -3.051  0.00  0.00     0.002 A 
ATOM      3  C3  N4B d   1      -2.602  -3.468  -4.090  0.00  0.00     0.002 A 
ATOM      4  C4  N4B d   1      -2.434  -4.828  -3.876  0.00  0.00    -0.004 A 
ATOM      5  C5  N4B d   1      -2.701  -5.363  -2.649  0.00  0.00     0.002 A 
ATOM      6  C6  N4B d   1      -3.101  -4.563  -1.597  0.00  0.00     0.002 A 
ENDROOT
BRANCH   1   7
ATOM      7  C1' N4B d   1      -3.592  -2.363  -0.591  0.00  0.00     0.057 C 
BRANCH   7   8
ATOM      8  C2' N4B d   1      -3.036  -3.011   0.674  0.00  0.00     0.009 C 
BRANCH   8   9
ATOM      9  C3' N4B d   1      -1.585  -2.633   0.915  0.00  0.00     0.004 C 
ATOM     10  C4' N4B d   1      -0.855  -3.638   1.756  0.00  0.00     0.003 C 
ENDBRANCH   8   9
ENDBRANCH   7   8
ENDBRANCH   1   7
TORSDOF 3
ENDMDL
