MODEL 1
REMARK minimizedAffinity 16.4316444
REMARK minimizedRMSD -1
REMARK  3 active torsions:
REMARK  status: ('A' for Active; 'I' for Inactive)
REMARK    1  A    between atoms: C3'_2  and  C2'_3 
REMARK    2  A    between atoms: C2'_3  and  C1'_4 
REMARK    3  A    between atoms: C1'_4  and  C1_5 
ROOT
ATOM      1  C1  N4B d   1      -3.041  -4.637  -0.512  0.00  0.00    -0.075 A 
ATOM      2  C2  N4B d   1      -3.399  -4.215  -1.811  0.00  0.00     0.002 A 
ATOM      3  C3  N4B d   1      -3.043  -2.963  -2.249  0.00  0.00     0.002 A 
ATOM      4  C4  N4B d   1      -2.347  -2.113  -1.402  0.00  0.00    -0.004 A 
ATOM      5  C5  N4B d   1      -1.982  -2.537  -0.158  0.00  0.00     0.002 A 
ATOM      6  C6  N4B d   1      -2.330  -3.794   0.293  0.00  0.00     0.002 A 
ENDROOT
BRANCH   1   7
ATOM      7  C1' N4B d   1      -3.482  -5.964   0.042  0.00  0.00     0.057 C 
BRANCH   7   8
ATOM      8  C2' N4B d   1      -3.200  -6.000   1.541  0.00  0.00     0.009 C 
BRANCH   8   9
ATOM      9  C3' N4B d   1      -1.711  -5.974   1.840  0.00  0.00     0.004 C 
ATOM     10  C4' N4B d   1      -1.412  -6.000   3.309  0.00  0.00     0.003 C 
ENDBRANCH   8   9
ENDBRANCH   7   8
ENDBRANCH   1   7
TORSDOF 3
ENDMDL
