MODEL 1
REMARK minimizedAffinity 11.4061604
REMARK minimizedRMSD -1
REMARK  3 active torsions:
REMARK  status: ('A' for Active; 'I' for Inactive)
REMARK    1  A    between atoms: C3'_2  and  C2'_3 
REMARK    2  A    between atoms: C2'_3  and  C1'_4 
REMARK    3  A    between atoms: C1'_4  and  C1_5 
ROOT
ATOM      1  C1  N4B d   1      -2.283  -3.559   1.747  0.00  0.00    -0.075 A 
ATOM      2  C2  N4B d   1      -3.229  -4.604   1.661  0.00  0.00     0.002 A 
ATOM      3  C3  N4B d   1      -2.978  -5.810   2.268  0.00  0.00     0.002 A 
ATOM      4  C4  N4B d   1      -1.784  -6.000   2.947  0.00  0.00    -0.004 A 
ATOM      5  C5  N4B d   1      -0.887  -4.978   3.048  0.00  0.00     0.002 A 
ATOM      6  C6  N4B d   1      -1.128  -3.759   2.446  0.00  0.00     0.002 A 
ENDROOT
BRANCH   1   7
ATOM      7  C1' N4B d   1      -2.475  -2.252   1.028  0.00  0.00     0.057 C 
BRANCH   7   8
ATOM      8  C2' N4B d   1      -1.892  -2.364  -0.378  0.00  0.00     0.009 C 
BRANCH   8   9
ATOM      9  C3' N4B d   1      -2.950  -2.732  -1.404  0.00  0.00     0.004 C 
ATOM     10  C4' N4B d   1      -2.877  -1.890  -2.642  0.00  0.00     0.003 C 
ENDBRANCH   8   9
ENDBRANCH   7   8
ENDBRANCH   1   7
TORSDOF 3
ENDMDL
