MODEL 1
REMARK minimizedAffinity 6.28629065
REMARK minimizedRMSD -1
REMARK  3 active torsions:
REMARK  status: ('A' for Active; 'I' for Inactive)
REMARK    1  A    between atoms: C3'_2  and  C2'_3 
REMARK    2  A    between atoms: C2'_3  and  C1'_4 
REMARK    3  A    between atoms: C1'_4  and  C1_5 
ROOT
ATOM      1  C1  N4B d   1       2.125   2.436   0.312  0.00  0.00    -0.075 A 
ATOM      2  C2  N4B d   1       3.027   1.955  -0.662  0.00  0.00     0.002 A 
ATOM      3  C3  N4B d   1       3.100   0.609  -0.925  0.00  0.00     0.002 A 
ATOM      4  C4  N4B d   1       2.299  -0.273  -0.215  0.00  0.00    -0.004 A 
ATOM      5  C5  N4B d   1       1.412   0.203   0.706  0.00  0.00     0.002 A 
ATOM      6  C6  N4B d   1       1.325   1.553   0.977  0.00  0.00     0.002 A 
ENDROOT
BRANCH   1   7
ATOM      7  C1' N4B d   1       2.071   3.890   0.694  0.00  0.00     0.057 C 
BRANCH   7   8
ATOM      8  C2' N4B d   1       3.484   4.464   0.684  0.00  0.00     0.009 C 
BRANCH   8   9
ATOM      9  C3' N4B d   1       3.533   5.864   1.271  0.00  0.00     0.004 C 
ATOM     10  C4' N4B d   1       4.547   5.999   2.368  0.00  0.00     0.003 C 
ENDBRANCH   8   9
ENDBRANCH   7   8
ENDBRANCH   1   7
TORSDOF 3
ENDMDL
