MODEL 1
REMARK minimizedAffinity 19.8371773
REMARK minimizedRMSD -1
REMARK  3 active torsions:
REMARK  status: ('A' for Active; 'I' for Inactive)
REMARK    1  A    between atoms: C3'_2  and  C2'_3 
REMARK    2  A    between atoms: C2'_3  and  C1'_4 
REMARK    3  A    between atoms: C1'_4  and  C1_5 
ROOT
ATOM      1  C1  N4B d   1      -2.716  -2.796  -1.039  0.00  0.00    -0.075 A 
ATOM      2  C2  N4B d   1      -2.891  -1.721  -0.139  0.00  0.00     0.002 A 
ATOM      3  C3  N4B d   1      -2.155  -1.668   1.019  0.00  0.00     0.002 A 
ATOM      4  C4  N4B d   1      -1.255  -2.683   1.307  0.00  0.00    -0.004 A 
ATOM      5  C5  N4B d   1      -1.073  -3.704   0.421  0.00  0.00     0.002 A 
ATOM      6  C6  N4B d   1      -1.803  -3.768  -0.749  0.00  0.00     0.002 A 
ENDROOT
BRANCH   1   7
ATOM      7  C1' N4B d   1      -3.559  -2.942  -2.276  0.00  0.00     0.057 C 
BRANCH   7   8
ATOM      8  C2' N4B d   1      -4.626  -4.005  -2.032  0.00  0.00     0.009 C 
BRANCH   8   9
ATOM      9  C3' N4B d   1      -5.986  -3.576  -2.556  0.00  0.00     0.004 C 
ATOM     10  C4' N4B d   1      -5.999  -3.377  -4.042  0.00  0.00     0.003 C 
ENDBRANCH   8   9
ENDBRANCH   7   8
ENDBRANCH   1   7
TORSDOF 3
ENDMDL
