MODEL 1
REMARK minimizedAffinity 13.7372437
REMARK minimizedRMSD -1
REMARK  3 active torsions:
REMARK  status: ('A' for Active; 'I' for Inactive)
REMARK    1  A    between atoms: C3'_2  and  C2'_3 
REMARK    2  A    between atoms: C2'_3  and  C1'_4 
REMARK    3  A    between atoms: C1'_4  and  C1_5 
ROOT
ATOM      1  C1  N4B d   1      -4.008   4.152   4.559  0.00  0.00    -0.075 A 
ATOM      2  C2  N4B d   1      -4.993   4.430   3.586  0.00  0.00     0.002 A 
ATOM      3  C3  N4B d   1      -5.973   5.356   3.847  0.00  0.00     0.002 A 
ATOM      4  C4  N4B d   1      -6.000   6.000   5.075  0.00  0.00    -0.004 A 
ATOM      5  C5  N4B d   1      -5.030   5.744   6.000  0.00  0.00     0.002 A 
ATOM      6  C6  N4B d   1      -4.036   4.819   5.750  0.00  0.00     0.002 A 
ENDROOT
BRANCH   1   7
ATOM      7  C1' N4B d   1      -2.967   3.086   4.353  0.00  0.00     0.057 C 
BRANCH   7   8
ATOM      8  C2' N4B d   1      -2.211   3.368   3.059  0.00  0.00     0.009 C 
BRANCH   8   9
ATOM      9  C3' N4B d   1      -0.734   3.035   3.180  0.00  0.00     0.004 C 
ATOM     10  C4' N4B d   1      -0.035   3.004   1.853  0.00  0.00     0.003 C 
ENDBRANCH   8   9
ENDBRANCH   7   8
ENDBRANCH   1   7
TORSDOF 3
ENDMDL
