MODEL 1
REMARK minimizedAffinity 8.86676979
REMARK minimizedRMSD -1
REMARK  3 active torsions:
REMARK  status: ('A' for Active; 'I' for Inactive)
REMARK    1  A    between atoms: C3'_2  and  C2'_3 
REMARK    2  A    between atoms: C2'_3  and  C1'_4 
REMARK    3  A    between atoms: C1'_4  and  C1_5 
ROOT
ATOM      1  C1  N4B d   1      -4.068   4.021   4.905  0.00  0.00    -0.075 A 
ATOM      2  C2  N4B d   1      -4.226   4.898   6.000  0.00  0.00     0.002 A 
ATOM      3  C3  N4B d   1      -5.194   5.872   5.966  0.00  0.00     0.002 A 
ATOM      4  C4  N4B d   1      -6.000   5.999   4.845  0.00  0.00    -0.004 A 
ATOM      5  C5  N4B d   1      -5.858   5.131   3.802  0.00  0.00     0.002 A 
ATOM      6  C6  N4B d   1      -4.892   4.146   3.824  0.00  0.00     0.002 A 
ENDROOT
BRANCH   1   7
ATOM      7  C1' N4B d   1      -2.967   2.997   4.860  0.00  0.00     0.057 C 
BRANCH   7   8
ATOM      8  C2' N4B d   1      -2.336   3.000   3.470  0.00  0.00     0.009 C 
BRANCH   8   9
ATOM      9  C3' N4B d   1      -0.821   2.916   3.534  0.00  0.00     0.004 C 
ATOM     10  C4' N4B d   1      -0.179   2.978   2.180  0.00  0.00     0.003 C 
ENDBRANCH   8   9
ENDBRANCH   7   8
ENDBRANCH   1   7
TORSDOF 3
ENDMDL
