MODEL 1
REMARK minimizedAffinity 14.5154095
REMARK minimizedRMSD -1
REMARK  3 active torsions:
REMARK  status: ('A' for Active; 'I' for Inactive)
REMARK    1  A    between atoms: C3'_2  and  C2'_3 
REMARK    2  A    between atoms: C2'_3  and  C1'_4 
REMARK    3  A    between atoms: C1'_4  and  C1_5 
ROOT
ATOM      1  C1  N4B d   1       3.663   2.332  -0.149  0.00  0.00    -0.075 A 
ATOM      2  C2  N4B d   1       4.120   2.381  -1.484  0.00  0.00     0.002 A 
ATOM      3  C3  N4B d   1       4.056   1.258  -2.273  0.00  0.00     0.002 A 
ATOM      4  C4  N4B d   1       3.558   0.076  -1.745  0.00  0.00    -0.004 A 
ATOM      5  C5  N4B d   1       3.095   0.045  -0.462  0.00  0.00     0.002 A 
ATOM      6  C6  N4B d   1       3.150   1.166   0.341  0.00  0.00     0.002 A 
ENDROOT
BRANCH   1   7
ATOM      7  C1' N4B d   1       3.793   3.510   0.778  0.00  0.00     0.057 C 
BRANCH   7   8
ATOM      8  C2' N4B d   1       4.301   4.714  -0.010  0.00  0.00     0.009 C 
BRANCH   8   9
ATOM      9  C3' N4B d   1       4.214   5.998   0.797  0.00  0.00     0.004 C 
ATOM     10  C4' N4B d   1       5.120   5.996   1.991  0.00  0.00     0.003 C 
ENDBRANCH   8   9
ENDBRANCH   7   8
ENDBRANCH   1   7
TORSDOF 3
ENDMDL
