MODEL 1
REMARK minimizedAffinity 13.7914181
REMARK minimizedRMSD -1
REMARK  0 active torsions:
REMARK  status: ('A' for Active; 'I' for Inactive)
ROOT
ATOM      1  C2' OXE d   1      -2.513   2.126  -3.427  0.00  0.00     0.078 C 
ATOM      2  C1' OXE d   1      -1.742   1.063  -0.946  0.00  0.00     0.078 C 
ATOM      3  C1  OXE d   1      -2.120   0.095  -2.039  0.00  0.00    -0.078 A 
ATOM      4  C2  OXE d   1      -2.541   0.625  -3.235  0.00  0.00    -0.078 A 
ATOM      5  C3  OXE d   1      -2.848  -0.224  -4.294  0.00  0.00     0.003 A 
ATOM      6  C4  OXE d   1      -2.881  -1.611  -4.105  0.00  0.00    -0.002 A 
ATOM      7  C5  OXE d   1      -2.494  -2.170  -2.883  0.00  0.00    -0.002 A 
ATOM      8  C6  OXE d   1      -2.070  -1.334  -1.855  0.00  0.00     0.003 A 
ENDROOT
TORSDOF 0
ENDMDL
