MODEL 1
REMARK minimizedAffinity 14.3934164
REMARK minimizedRMSD -1
REMARK  0 active torsions:
REMARK  status: ('A' for Active; 'I' for Inactive)
ROOT
ATOM      1  C2' OXE d   1      -4.075   4.485  -1.965  0.00  0.00     0.078 C 
ATOM      2  C1' OXE d   1      -3.503   3.667  -4.589  0.00  0.00     0.078 C 
ATOM      3  C1  OXE d   1      -3.051   2.775  -3.460  0.00  0.00    -0.078 A 
ATOM      4  C2  OXE d   1      -3.294   3.206  -2.178  0.00  0.00    -0.078 A 
ATOM      5  C3  OXE d   1      -2.947   2.395  -1.101  0.00  0.00     0.003 A 
ATOM      6  C4  OXE d   1      -2.217   1.218  -1.307  0.00  0.00    -0.002 A 
ATOM      7  C5  OXE d   1      -1.924   0.781  -2.603  0.00  0.00    -0.002 A 
ATOM      8  C6  OXE d   1      -2.371   1.525  -3.690  0.00  0.00     0.003 A 
ENDROOT
TORSDOF 0
ENDMDL
