MODEL 1
REMARK minimizedAffinity 9.17295933
REMARK minimizedRMSD -1
REMARK  0 active torsions:
REMARK  status: ('A' for Active; 'I' for Inactive)
ROOT
ATOM      1  C2' OXE d   1      -3.121   1.812  -3.495  0.00  0.00     0.078 C 
ATOM      2  C1' OXE d   1      -0.714   0.717  -2.553  0.00  0.00     0.078 C 
ATOM      3  C1  OXE d   1      -1.826  -0.236  -2.914  0.00  0.00    -0.078 A 
ATOM      4  C2  OXE d   1      -3.016   0.311  -3.330  0.00  0.00    -0.078 A 
ATOM      5  C3  OXE d   1      -4.056  -0.524  -3.727  0.00  0.00     0.003 A 
ATOM      6  C4  OXE d   1      -3.955  -1.911  -3.562  0.00  0.00    -0.002 A 
ATOM      7  C5  OXE d   1      -2.765  -2.486  -3.103  0.00  0.00    -0.002 A 
ATOM      8  C6  OXE d   1      -1.679  -1.667  -2.815  0.00  0.00     0.003 A 
ENDROOT
TORSDOF 0
ENDMDL
