MODEL 1
REMARK minimizedAffinity -2.16568923
REMARK minimizedRMSD -1
REMARK  0 active torsions:
REMARK  status: ('A' for Active; 'I' for Inactive)
ROOT
ATOM      1  C2' OXE d   1       0.172   0.022  -0.257  0.00  0.00     0.078 C 
ATOM      2  C1' OXE d   1       2.084   1.411   1.257  0.00  0.00     0.078 C 
ATOM      3  C1  OXE d   1       1.782  -0.015   1.643  0.00  0.00    -0.078 A 
ATOM      4  C2  OXE d   1       0.811  -0.672   0.926  0.00  0.00    -0.078 A 
ATOM      5  C3  OXE d   1       0.532  -2.007   1.205  0.00  0.00     0.003 A 
ATOM      6  C4  OXE d   1       1.120  -2.639   2.308  0.00  0.00    -0.002 A 
ATOM      7  C5  OXE d   1       2.082  -1.975   3.076  0.00  0.00    -0.002 A 
ATOM      8  C6  OXE d   1       2.455  -0.680   2.732  0.00  0.00     0.003 A 
ENDROOT
TORSDOF 0
ENDMDL
