MODEL 1
REMARK minimizedAffinity 12.6039505
REMARK minimizedRMSD -1
REMARK  0 active torsions:
REMARK  status: ('A' for Active; 'I' for Inactive)
ROOT
ATOM      1  C2' OXE d   1      -3.044  -2.753  -3.129  0.00  0.00     0.078 C 
ATOM      2  C1' OXE d   1      -1.127  -1.596  -1.435  0.00  0.00     0.078 C 
ATOM      3  C1  OXE d   1      -1.792  -0.707  -2.456  0.00  0.00    -0.078 A 
ATOM      4  C2  OXE d   1      -2.694  -1.292  -3.312  0.00  0.00    -0.078 A 
ATOM      5  C3  OXE d   1      -3.377  -0.506  -4.236  0.00  0.00     0.003 A 
ATOM      6  C4  OXE d   1      -3.040   0.843  -4.405  0.00  0.00    -0.002 A 
ATOM      7  C5  OXE d   1      -2.095   1.449  -3.571  0.00  0.00    -0.002 A 
ATOM      8  C6  OXE d   1      -1.494   0.700  -2.565  0.00  0.00     0.003 A 
ENDROOT
TORSDOF 0
ENDMDL
