MODEL 1
REMARK minimizedAffinity 2.84568763
REMARK minimizedRMSD -1
REMARK  0 active torsions:
REMARK  status: ('A' for Active; 'I' for Inactive)
ROOT
ATOM      1  C2' OXE d   1       2.427  -1.405   5.957  0.00  0.00     0.078 C 
ATOM      2  C1' OXE d   1       2.575   1.301   5.223  0.00  0.00     0.078 C 
ATOM      3  C1  OXE d   1       2.271   0.294   4.141  0.00  0.00    -0.078 A 
ATOM      4  C2  OXE d   1       2.246  -1.032   4.501  0.00  0.00    -0.078 A 
ATOM      5  C3  OXE d   1       1.917  -1.997   3.554  0.00  0.00     0.003 A 
ATOM      6  C4  OXE d   1       1.761  -1.645   2.207  0.00  0.00    -0.002 A 
ATOM      7  C5  OXE d   1       1.821  -0.304   1.813  0.00  0.00    -0.002 A 
ATOM      8  C6  OXE d   1       2.032   0.680   2.773  0.00  0.00     0.003 A 
ENDROOT
TORSDOF 0
ENDMDL
