MODEL 1
REMARK minimizedAffinity 0.323577255
REMARK minimizedRMSD -1
REMARK  1 active torsions:
REMARK  status: ('A' for Active; 'I' for Inactive)
REMARK    1  A    between atoms: C1_2  and  C2_3 
ROOT
ATOM      1  C2  UNL d   1       1.144  -1.750   0.705  0.00  0.00    -0.073 A 
ATOM      2  C3  UNL d   1       0.447  -1.580   1.907  0.00  0.00    -0.002 A 
ATOM      3  C4  UNL d   1      -0.525  -0.586   2.024  0.00  0.00     0.004 A 
ATOM      4  C5  UNL d   1      -0.815   0.244   0.941  0.00  0.00    -0.004 A 
ATOM      5  C6  UNL d   1      -0.138   0.082  -0.272  0.00  0.00    -0.075 A 
ATOM      6  C7  UNL d   1      -0.437   0.968  -1.446  0.00  0.00     0.076 C 
ATOM      7  C8  UNL d   1       0.838  -0.917  -0.382  0.00  0.00     0.001 A 
ENDROOT
BRANCH   1   8
ATOM      8  C1  UNL d   1       2.189  -2.827   0.571  0.00  0.00     0.053 C 
ATOM      9  C   UNL d   1       1.958  -3.970   1.547  0.00  0.00     0.018 C 
ENDBRANCH   1   8
TORSDOF 1
ENDMDL
