MODEL 1
REMARK minimizedAffinity -4.57038689
REMARK minimizedRMSD -1
REMARK  1 active torsions:
REMARK  status: ('A' for Active; 'I' for Inactive)
REMARK    1  A    between atoms: C1_2  and  C2_3 
ROOT
ATOM      1  C2  UNL d   1      -0.454   0.609  -0.436  0.00  0.00    -0.073 A 
ATOM      2  C3  UNL d   1      -1.521   1.105   0.321  0.00  0.00    -0.002 A 
ATOM      3  C4  UNL d   1      -1.668   0.737   1.659  0.00  0.00     0.004 A 
ATOM      4  C5  UNL d   1      -0.746  -0.125   2.254  0.00  0.00    -0.004 A 
ATOM      5  C6  UNL d   1       0.334  -0.621   1.518  0.00  0.00    -0.075 A 
ATOM      6  C7  UNL d   1       1.332  -1.550   2.143  0.00  0.00     0.076 C 
ATOM      7  C8  UNL d   1       0.473  -0.249   0.174  0.00  0.00     0.001 A 
ENDROOT
BRANCH   1   8
ATOM      8  C1  UNL d   1      -0.288   1.010  -1.880  0.00  0.00     0.053 C 
ATOM      9  C   UNL d   1      -0.904   2.369  -2.168  0.00  0.00     0.018 C 
ENDBRANCH   1   8
TORSDOF 1
ENDMDL
