MODEL 1
REMARK minimizedAffinity -2.3318212
REMARK minimizedRMSD -1
REMARK  1 active torsions:
REMARK  status: ('A' for Active; 'I' for Inactive)
REMARK    1  A    between atoms: C1_2  and  C2_3 
ROOT
ATOM      1  C2  UNL d   1      -0.591   0.567  -1.541  0.00  0.00    -0.073 A 
ATOM      2  C3  UNL d   1       0.381   0.920  -2.484  0.00  0.00    -0.002 A 
ATOM      3  C4  UNL d   1       0.195   2.034  -3.304  0.00  0.00     0.004 A 
ATOM      4  C5  UNL d   1      -0.959   2.808  -3.186  0.00  0.00    -0.004 A 
ATOM      5  C6  UNL d   1      -1.936   2.478  -2.242  0.00  0.00    -0.075 A 
ATOM      6  C7  UNL d   1      -3.184   3.300  -2.103  0.00  0.00     0.076 C 
ATOM      7  C8  UNL d   1      -1.744   1.357  -1.423  0.00  0.00     0.001 A 
ENDROOT
BRANCH   1   8
ATOM      8  C1  UNL d   1      -0.392  -0.631  -0.649  0.00  0.00     0.053 C 
ATOM      9  C   UNL d   1      -1.051  -0.447   0.709  0.00  0.00     0.018 C 
ENDBRANCH   1   8
TORSDOF 1
ENDMDL
