MODEL 1
REMARK minimizedAffinity -1.53503764
REMARK minimizedRMSD -1
REMARK  1 active torsions:
REMARK  status: ('A' for Active; 'I' for Inactive)
REMARK    1  A    between atoms: C1_2  and  C2_3 
ROOT
ATOM      1  C2  UNL d   1      -0.788   0.805  -0.320  0.00  0.00    -0.073 A 
ATOM      2  C3  UNL d   1      -1.718   1.524   0.439  0.00  0.00    -0.002 A 
ATOM      3  C4  UNL d   1      -1.886   1.246   1.796  0.00  0.00     0.004 A 
ATOM      4  C5  UNL d   1      -1.123   0.253   2.409  0.00  0.00    -0.004 A 
ATOM      5  C6  UNL d   1      -0.179  -0.469   1.670  0.00  0.00    -0.075 A 
ATOM      6  C7  UNL d   1       0.648  -1.542   2.314  0.00  0.00     0.076 C 
ATOM      7  C8  UNL d   1      -0.018  -0.186   0.307  0.00  0.00     0.001 A 
ENDROOT
BRANCH   1   8
ATOM      8  C1  UNL d   1      -0.599   1.106  -1.785  0.00  0.00     0.053 C 
ATOM      9  C   UNL d   1      -1.541   2.196  -2.269  0.00  0.00     0.018 C 
ENDBRANCH   1   8
TORSDOF 1
ENDMDL
