MODEL 1
REMARK minimizedAffinity -4.28842163
REMARK minimizedRMSD -1
REMARK  1 active torsions:
REMARK  status: ('A' for Active; 'I' for Inactive)
REMARK    1  A    between atoms: C1_2  and  C2_3 
ROOT
ATOM      1  C2  UNL d   1      -0.910   1.669  -1.319  0.00  0.00    -0.073 A 
ATOM      2  C3  UNL d   1      -0.447   0.591  -2.082  0.00  0.00    -0.002 A 
ATOM      3  C4  UNL d   1      -0.091  -0.609  -1.465  0.00  0.00     0.004 A 
ATOM      4  C5  UNL d   1      -0.199  -0.745  -0.081  0.00  0.00    -0.004 A 
ATOM      5  C6  UNL d   1      -0.671   0.316   0.698  0.00  0.00    -0.075 A 
ATOM      6  C7  UNL d   1      -0.792   0.186   2.188  0.00  0.00     0.076 C 
ATOM      7  C8  UNL d   1      -1.025   1.519   0.071  0.00  0.00     0.001 A 
ENDROOT
BRANCH   1   8
ATOM      8  C1  UNL d   1      -1.302   2.964  -1.982  0.00  0.00     0.053 C 
ATOM      9  C   UNL d   1      -0.428   3.275  -3.186  0.00  0.00     0.018 C 
ENDBRANCH   1   8
TORSDOF 1
ENDMDL
