MODEL 1
REMARK minimizedAffinity -3.91858602
REMARK minimizedRMSD -1
REMARK  1 active torsions:
REMARK  status: ('A' for Active; 'I' for Inactive)
REMARK    1  A    between atoms: C1_2  and  C2_3 
ROOT
ATOM      1  C2  UNL d   1      -0.109   1.397  -1.012  0.00  0.00    -0.073 A 
ATOM      2  C3  UNL d   1       0.089   0.386  -1.959  0.00  0.00    -0.002 A 
ATOM      3  C4  UNL d   1       0.462  -0.896  -1.555  0.00  0.00     0.004 A 
ATOM      4  C5  UNL d   1       0.634  -1.182  -0.200  0.00  0.00    -0.004 A 
ATOM      5  C6  UNL d   1       0.430  -0.188   0.762  0.00  0.00    -0.075 A 
ATOM      6  C7  UNL d   1       0.613  -0.480   2.223  0.00  0.00     0.076 C 
ATOM      7  C8  UNL d   1       0.058   1.097   0.348  0.00  0.00     0.001 A 
ENDROOT
BRANCH   1   8
ATOM      8  C1  UNL d   1      -0.518   2.782  -1.444  0.00  0.00     0.053 C 
ATOM      9  C   UNL d   1      -1.185   2.779  -2.810  0.00  0.00     0.018 C 
ENDBRANCH   1   8
TORSDOF 1
ENDMDL
