MODEL 1
REMARK minimizedAffinity -2.11736965
REMARK minimizedRMSD -1
REMARK  1 active torsions:
REMARK  status: ('A' for Active; 'I' for Inactive)
REMARK    1  A    between atoms: C1_2  and  C2_3 
ROOT
ATOM      1  C2  UNL d   1      -0.428   0.460  -1.374  0.00  0.00    -0.073 A 
ATOM      2  C3  UNL d   1      -1.125   0.626  -0.172  0.00  0.00    -0.002 A 
ATOM      3  C4  UNL d   1      -0.686  -0.009   0.991  0.00  0.00     0.004 A 
ATOM      4  C5  UNL d   1       0.455  -0.810   0.966  0.00  0.00    -0.004 A 
ATOM      5  C6  UNL d   1       1.172  -0.978  -0.223  0.00  0.00    -0.075 A 
ATOM      6  C7  UNL d   1       2.402  -1.838  -0.267  0.00  0.00     0.076 C 
ATOM      7  C8  UNL d   1       0.724  -0.340  -1.387  0.00  0.00     0.001 A 
ENDROOT
BRANCH   1   8
ATOM      8  C1  UNL d   1      -0.894   1.148  -2.631  0.00  0.00     0.053 C 
ATOM      9  C   UNL d   1      -0.146   2.449  -2.878  0.00  0.00     0.018 C 
ENDBRANCH   1   8
TORSDOF 1
ENDMDL
