MODEL 1
REMARK minimizedAffinity 0.12340495
REMARK minimizedRMSD -1
REMARK  0 active torsions:
REMARK  status: ('A' for Active; 'I' for Inactive)
ROOT
ATOM      1  C   UNL d   1      -1.235  -0.066   0.900  0.00  0.00     0.023 A 
ATOM      2  C1  UNL d   1      -1.640   0.084   2.227  0.00  0.00     0.003 A 
ATOM      3  C2  UNL d   1      -0.774  -0.262   3.266  0.00  0.00     0.048 A 
ATOM      4  C3  UNL d   1       0.496  -0.756   2.972  0.00  0.00     0.023 A 
ATOM      5  C4  UNL d   1       0.906  -0.906   1.646  0.00  0.00     0.048 A 
ATOM      6  C5  UNL d   1       0.036  -0.560   0.610  0.00  0.00     0.003 A 
ATOM      7  I   UNL d   1       1.788  -1.271   4.516  0.00  0.00    -0.146 I 
ENDROOT
TORSDOF 0
ENDMDL
