MODEL 1
REMARK minimizedAffinity -1.40394163
REMARK minimizedRMSD -1
REMARK  0 active torsions:
REMARK  status: ('A' for Active; 'I' for Inactive)
ROOT
ATOM      1  C   UNL d   1      -1.397   0.402   0.335  0.00  0.00     0.023 A 
ATOM      2  C1  UNL d   1      -1.926   0.505   1.622  0.00  0.00     0.003 A 
ATOM      3  C2  UNL d   1      -1.178   0.078   2.721  0.00  0.00     0.048 A 
ATOM      4  C3  UNL d   1       0.097  -0.451   2.526  0.00  0.00     0.023 A 
ATOM      5  C4  UNL d   1       0.631  -0.555   1.241  0.00  0.00     0.048 A 
ATOM      6  C5  UNL d   1      -0.121  -0.128   0.144  0.00  0.00     0.003 A 
ATOM      7  I   UNL d   1       1.212  -1.087   4.161  0.00  0.00    -0.146 I 
ENDROOT
TORSDOF 0
ENDMDL
