MODEL 1
REMARK minimizedAffinity 0.613018394
REMARK minimizedRMSD -1
REMARK  0 active torsions:
REMARK  status: ('A' for Active; 'I' for Inactive)
ROOT
ATOM      1  C   UNL d   1      -1.753  -0.108   0.004  0.00  0.00     0.023 A 
ATOM      2  C1  UNL d   1      -0.469  -0.583  -0.258  0.00  0.00     0.003 A 
ATOM      3  C2  UNL d   1       0.394  -0.886   0.797  0.00  0.00     0.048 A 
ATOM      4  C3  UNL d   1      -0.035  -0.712   2.112  0.00  0.00     0.023 A 
ATOM      5  C4  UNL d   1      -1.320  -0.237   2.380  0.00  0.00     0.048 A 
ATOM      6  C5  UNL d   1      -2.178   0.065   1.321  0.00  0.00     0.003 A 
ATOM      7  I   UNL d   1       1.248  -1.163   3.685  0.00  0.00    -0.146 I 
ENDROOT
TORSDOF 0
ENDMDL
