MODEL 1
REMARK minimizedAffinity 2.33282518
REMARK minimizedRMSD -1
REMARK  0 active torsions:
REMARK  status: ('A' for Active; 'I' for Inactive)
ROOT
ATOM      1  C   UNL d   1      -0.725  -2.273   5.019  0.00  0.00     0.023 A 
ATOM      2  C1  UNL d   1      -2.073  -2.325   4.664  0.00  0.00     0.003 A 
ATOM      3  C2  UNL d   1      -2.551  -1.541   3.612  0.00  0.00     0.048 A 
ATOM      4  C3  UNL d   1      -1.674  -0.708   2.917  0.00  0.00     0.023 A 
ATOM      5  C4  UNL d   1      -0.324  -0.654   3.268  0.00  0.00     0.048 A 
ATOM      6  C5  UNL d   1       0.148  -1.439   4.321  0.00  0.00     0.003 A 
ATOM      7  I   UNL d   1      -2.382   0.459   1.351  0.00  0.00    -0.146 I 
ENDROOT
TORSDOF 0
ENDMDL
