MODEL 1
REMARK minimizedAffinity 2.26071763
REMARK minimizedRMSD -1
REMARK  0 active torsions:
REMARK  status: ('A' for Active; 'I' for Inactive)
ROOT
ATOM      1  C   UNL d   1      -3.576   0.286  -0.143  0.00  0.00     0.023 A 
ATOM      2  C1  UNL d   1      -3.177   0.749   1.111  0.00  0.00     0.003 A 
ATOM      3  C2  UNL d   1      -1.850   0.604   1.521  0.00  0.00     0.048 A 
ATOM      4  C3  UNL d   1      -0.927  -0.005   0.672  0.00  0.00     0.023 A 
ATOM      5  C4  UNL d   1      -1.321  -0.469  -0.584  0.00  0.00     0.048 A 
ATOM      6  C5  UNL d   1      -2.649  -0.322  -0.989  0.00  0.00     0.003 A 
ATOM      7  I   UNL d   1       1.048  -0.223   1.280  0.00  0.00    -0.146 I 
ENDROOT
TORSDOF 0
ENDMDL
