MODEL 1
REMARK minimizedAffinity 6.95460796
REMARK minimizedRMSD -1
REMARK  0 active torsions:
REMARK  status: ('A' for Active; 'I' for Inactive)
ROOT
ATOM      1  C   UNL d   1      -3.294  -1.106   2.745  0.00  0.00     0.023 A 
ATOM      2  C1  UNL d   1      -2.468  -0.025   2.439  0.00  0.00     0.003 A 
ATOM      3  C2  UNL d   1      -1.963   0.126   1.146  0.00  0.00     0.048 A 
ATOM      4  C3  UNL d   1      -2.288  -0.808   0.164  0.00  0.00     0.023 A 
ATOM      5  C4  UNL d   1      -3.115  -1.892   0.465  0.00  0.00     0.048 A 
ATOM      6  C5  UNL d   1      -3.617  -2.039   1.759  0.00  0.00     0.003 A 
ATOM      7  I   UNL d   1      -1.538  -0.586  -1.762  0.00  0.00    -0.146 I 
ENDROOT
TORSDOF 0
ENDMDL
