MODEL 1
REMARK minimizedAffinity -0.233304664
REMARK minimizedRMSD -1
REMARK  0 active torsions:
REMARK  status: ('A' for Active; 'I' for Inactive)
ROOT
ATOM      1  C   UNL d   1       0.973  -1.436   3.904  0.00  0.00     0.023 A 
ATOM      2  C1  UNL d   1       1.469  -1.122   2.639  0.00  0.00     0.003 A 
ATOM      3  C2  UNL d   1       0.598  -0.714   1.627  0.00  0.00     0.048 A 
ATOM      4  C3  UNL d   1      -0.769  -0.622   1.887  0.00  0.00     0.023 A 
ATOM      5  C4  UNL d   1      -1.270  -0.934   3.152  0.00  0.00     0.048 A 
ATOM      6  C5  UNL d   1      -0.395  -1.343   4.160  0.00  0.00     0.003 A 
ATOM      7  I   UNL d   1      -2.068  -0.015   0.382  0.00  0.00    -0.146 I 
ENDROOT
TORSDOF 0
ENDMDL
