MODEL 1
REMARK minimizedAffinity 8.56578827
REMARK minimizedRMSD -1
REMARK  2 active torsions:
REMARK  status: ('A' for Active; 'I' for Inactive)
REMARK    1  A    between atoms: C1_2  and  C2_3 
REMARK    2  A    between atoms: C2_3  and  C3_4 
ROOT
ATOM      1  C3  UNL d   1      -3.559   4.733   3.512  0.00  0.00    -0.075 A 
ATOM      2  C4  UNL d   1      -2.289   4.886   4.088  0.00  0.00     0.002 A 
ATOM      3  C5  UNL d   1      -2.144   5.512   5.327  0.00  0.00     0.002 A 
ATOM      4  C6  UNL d   1      -3.262   5.999   5.999  0.00  0.00    -0.004 A 
ATOM      5  C7  UNL d   1      -4.527   5.867   5.429  0.00  0.00     0.002 A 
ATOM      6  C8  UNL d   1      -4.675   5.238   4.192  0.00  0.00     0.002 A 
ENDROOT
BRANCH   1   7
ATOM      7  C2  UNL d   1      -3.726   4.031   2.186  0.00  0.00     0.056 C 
BRANCH   7   8
ATOM      8  C1  UNL d   1      -5.105   4.225   1.546  0.00  0.00     0.007 C 
ATOM      9  C   UNL d   1      -5.356   5.655   1.084  0.00  0.00     0.009 C 
ENDBRANCH   7   8
ENDBRANCH   1   7
TORSDOF 2
ENDMDL
