MODEL 1
REMARK minimizedAffinity 11.9582491
REMARK minimizedRMSD -1
REMARK  2 active torsions:
REMARK  status: ('A' for Active; 'I' for Inactive)
REMARK    1  A    between atoms: C1_2  and  C2_3 
REMARK    2  A    between atoms: C2_3  and  C3_4 
ROOT
ATOM      1  C3  UNL d   1       3.027  -0.078  -2.259  0.00  0.00    -0.075 A 
ATOM      2  C4  UNL d   1       2.479   0.804  -3.202  0.00  0.00     0.002 A 
ATOM      3  C5  UNL d   1       1.113   1.083  -3.200  0.00  0.00     0.002 A 
ATOM      4  C6  UNL d   1       0.276   0.479  -2.264  0.00  0.00    -0.004 A 
ATOM      5  C7  UNL d   1       0.807  -0.412  -1.334  0.00  0.00     0.002 A 
ATOM      6  C8  UNL d   1       2.175  -0.690  -1.330  0.00  0.00     0.002 A 
ENDROOT
BRANCH   1   7
ATOM      7  C2  UNL d   1       4.510  -0.362  -2.237  0.00  0.00     0.056 C 
BRANCH   7   8
ATOM      8  C1  UNL d   1       5.324   0.497  -3.210  0.00  0.00     0.007 C 
ATOM      9  C   UNL d   1       6.000  -0.315  -4.307  0.00  0.00     0.009 C 
ENDBRANCH   7   8
ENDBRANCH   1   7
TORSDOF 2
ENDMDL
