MODEL 1
REMARK minimizedAffinity 3.37891579
REMARK minimizedRMSD -1
REMARK  2 active torsions:
REMARK  status: ('A' for Active; 'I' for Inactive)
REMARK    1  A    between atoms: C1_2  and  C2_3 
REMARK    2  A    between atoms: C2_3  and  C3_4 
ROOT
ATOM      1  C3  UNL d   1      -3.364   4.368   3.407  0.00  0.00    -0.075 A 
ATOM      2  C4  UNL d   1      -2.583   4.392   4.572  0.00  0.00     0.002 A 
ATOM      3  C5  UNL d   1      -2.948   5.195   5.653  0.00  0.00     0.002 A 
ATOM      4  C6  UNL d   1      -4.089   5.991   5.579  0.00  0.00    -0.004 A 
ATOM      5  C7  UNL d   1      -4.863   5.988   4.420  0.00  0.00     0.002 A 
ATOM      6  C8  UNL d   1      -4.503   5.182   3.339  0.00  0.00     0.002 A 
ENDROOT
BRANCH   1   7
ATOM      7  C2  UNL d   1      -2.991   3.478   2.245  0.00  0.00     0.056 C 
BRANCH   7   8
ATOM      8  C1  UNL d   1      -2.034   2.340   2.614  0.00  0.00     0.007 C 
ATOM      9  C   UNL d   1      -2.698   0.970   2.603  0.00  0.00     0.009 C 
ENDBRANCH   7   8
ENDBRANCH   1   7
TORSDOF 2
ENDMDL
