MODEL 1
REMARK minimizedAffinity 11.8804216
REMARK minimizedRMSD -1
REMARK  2 active torsions:
REMARK  status: ('A' for Active; 'I' for Inactive)
REMARK    1  A    between atoms: C1_2  and  C2_3 
REMARK    2  A    between atoms: C2_3  and  C3_4 
ROOT
ATOM      1  C3  UNL d   1      -3.986  -2.170   1.216  0.00  0.00    -0.075 A 
ATOM      2  C4  UNL d   1      -5.349  -2.494   1.258  0.00  0.00     0.002 A 
ATOM      3  C5  UNL d   1      -6.000  -2.969   0.118  0.00  0.00     0.002 A 
ATOM      4  C6  UNL d   1      -5.299  -3.116  -1.077  0.00  0.00    -0.004 A 
ATOM      5  C7  UNL d   1      -3.948  -2.781  -1.134  0.00  0.00     0.002 A 
ATOM      6  C8  UNL d   1      -3.294  -2.310   0.006  0.00  0.00     0.002 A 
ENDROOT
BRANCH   1   7
ATOM      7  C2  UNL d   1      -3.269  -1.683   2.453  0.00  0.00     0.056 C 
BRANCH   7   8
ATOM      8  C1  UNL d   1      -3.763  -0.327   2.967  0.00  0.00     0.007 C 
ATOM      9  C   UNL d   1      -2.888   0.838   2.524  0.00  0.00     0.009 C 
ENDBRANCH   7   8
ENDBRANCH   1   7
TORSDOF 2
ENDMDL
