MODEL 1
REMARK minimizedAffinity 8.56682873
REMARK minimizedRMSD -1
REMARK  2 active torsions:
REMARK  status: ('A' for Active; 'I' for Inactive)
REMARK    1  A    between atoms: C1_2  and  C2_3 
REMARK    2  A    between atoms: C2_3  and  C3_4 
ROOT
ATOM      1  C3  UNL d   1       5.270  -3.427   5.315  0.00  0.00    -0.075 A 
ATOM      2  C4  UNL d   1       3.959  -3.657   4.874  0.00  0.00     0.002 A 
ATOM      3  C5  UNL d   1       3.385  -4.924   4.988  0.00  0.00     0.002 A 
ATOM      4  C6  UNL d   1       4.116  -5.976   5.534  0.00  0.00    -0.004 A 
ATOM      5  C7  UNL d   1       5.425  -5.763   5.961  0.00  0.00     0.002 A 
ATOM      6  C8  UNL d   1       6.000  -4.495   5.852  0.00  0.00     0.002 A 
ENDROOT
BRANCH   1   7
ATOM      7  C2  UNL d   1       5.886  -2.051   5.222  0.00  0.00     0.056 C 
BRANCH   7   8
ATOM      8  C1  UNL d   1       5.107  -1.078   4.331  0.00  0.00     0.007 C 
ATOM      9  C   UNL d   1       5.915  -0.572   3.144  0.00  0.00     0.009 C 
ENDBRANCH   7   8
ENDBRANCH   1   7
TORSDOF 2
ENDMDL
