MODEL 1
REMARK minimizedAffinity -3.81185865
REMARK minimizedRMSD -1
REMARK  2 active torsions:
REMARK  status: ('A' for Active; 'I' for Inactive)
REMARK    1  A    between atoms: C1_2  and  C2_3 
REMARK    2  A    between atoms: C2_3  and  C3_4 
ROOT
ATOM      1  C3  UNL d   1       4.538  -2.530   4.902  0.00  0.00    -0.075 A 
ATOM      2  C4  UNL d   1       4.460  -1.691   3.781  0.00  0.00     0.002 A 
ATOM      3  C5  UNL d   1       5.156  -0.481   3.752  0.00  0.00     0.002 A 
ATOM      4  C6  UNL d   1       5.928  -0.092   4.844  0.00  0.00    -0.004 A 
ATOM      5  C7  UNL d   1       6.000  -0.910   5.969  0.00  0.00     0.002 A 
ATOM      6  C8  UNL d   1       5.308  -2.122   6.000  0.00  0.00     0.002 A 
ENDROOT
BRANCH   1   7
ATOM      7  C2  UNL d   1       3.812  -3.853   4.929  0.00  0.00     0.056 C 
BRANCH   7   8
ATOM      8  C1  UNL d   1       4.410  -4.874   5.902  0.00  0.00     0.007 C 
ATOM      9  C   UNL d   1       5.346  -5.869   5.228  0.00  0.00     0.009 C 
ENDBRANCH   7   8
ENDBRANCH   1   7
TORSDOF 2
ENDMDL
