MODEL 1
REMARK minimizedAffinity 0.225403994
REMARK minimizedRMSD -1
REMARK  2 active torsions:
REMARK  status: ('A' for Active; 'I' for Inactive)
REMARK    1  A    between atoms: C1_2  and  C2_3 
REMARK    2  A    between atoms: C2_3  and  C3_4 
ROOT
ATOM      1  C3  UNL d   1       4.088  -5.624   4.511  0.00  0.00    -0.075 A 
ATOM      2  C4  UNL d   1       4.866  -5.999   3.407  0.00  0.00     0.002 A 
ATOM      3  C5  UNL d   1       4.320  -6.000   2.123  0.00  0.00     0.002 A 
ATOM      4  C6  UNL d   1       2.990  -5.637   1.928  0.00  0.00    -0.004 A 
ATOM      5  C7  UNL d   1       2.202  -5.279   3.020  0.00  0.00     0.002 A 
ATOM      6  C8  UNL d   1       2.747  -5.272   4.306  0.00  0.00     0.002 A 
ENDROOT
BRANCH   1   7
ATOM      7  C2  UNL d   1       4.681  -5.592   5.900  0.00  0.00     0.056 C 
BRANCH   7   8
ATOM      8  C1  UNL d   1       5.998  -4.815   5.998  0.00  0.00     0.007 C 
ATOM      9  C   UNL d   1       5.806  -3.304   5.973  0.00  0.00     0.009 C 
ENDBRANCH   7   8
ENDBRANCH   1   7
TORSDOF 2
ENDMDL
