MODEL 1
REMARK minimizedAffinity 9.86011887
REMARK minimizedRMSD -1
REMARK  2 active torsions:
REMARK  status: ('A' for Active; 'I' for Inactive)
REMARK    1  A    between atoms: C1_2  and  C2_3 
REMARK    2  A    between atoms: C2_3  and  C3_4 
ROOT
ATOM      1  C3  UNL d   1      -3.113   2.630   2.697  0.00  0.00    -0.075 A 
ATOM      2  C4  UNL d   1      -2.744   3.629   3.610  0.00  0.00     0.002 A 
ATOM      3  C5  UNL d   1      -3.436   4.839   3.653  0.00  0.00     0.002 A 
ATOM      4  C6  UNL d   1      -4.497   5.070   2.780  0.00  0.00    -0.004 A 
ATOM      5  C7  UNL d   1      -4.862   4.092   1.858  0.00  0.00     0.002 A 
ATOM      6  C8  UNL d   1      -4.174   2.878   1.816  0.00  0.00     0.002 A 
ENDROOT
BRANCH   1   7
ATOM      7  C2  UNL d   1      -2.387   1.306   2.665  0.00  0.00     0.056 C 
BRANCH   7   8
ATOM      8  C1  UNL d   1      -3.310   0.086   2.758  0.00  0.00     0.007 C 
ATOM      9  C   UNL d   1      -3.092  -0.918   1.634  0.00  0.00     0.009 C 
ENDBRANCH   7   8
ENDBRANCH   1   7
TORSDOF 2
ENDMDL
