MODEL 1
REMARK minimizedAffinity 6.7640872
REMARK minimizedRMSD -1
REMARK  2 active torsions:
REMARK  status: ('A' for Active; 'I' for Inactive)
REMARK    1  A    between atoms: C1_2  and  C2_3 
REMARK    2  A    between atoms: C2_3  and  C3_4 
ROOT
ATOM      1  C3  UNL d   1      -3.256   4.010   3.609  0.00  0.00    -0.075 A 
ATOM      2  C4  UNL d   1      -2.198   4.309   4.480  0.00  0.00     0.002 A 
ATOM      3  C5  UNL d   1      -2.341   5.295   5.456  0.00  0.00     0.002 A 
ATOM      4  C6  UNL d   1      -3.538   6.000   5.569  0.00  0.00    -0.004 A 
ATOM      5  C7  UNL d   1      -4.590   5.722   4.698  0.00  0.00     0.002 A 
ATOM      6  C8  UNL d   1      -4.450   4.733   3.723  0.00  0.00     0.002 A 
ENDROOT
BRANCH   1   7
ATOM      7  C2  UNL d   1      -3.117   2.924   2.569  0.00  0.00     0.056 C 
BRANCH   7   8
ATOM      8  C1  UNL d   1      -2.265   1.733   3.021  0.00  0.00     0.007 C 
ATOM      9  C   UNL d   1      -2.907   0.386   2.716  0.00  0.00     0.009 C 
ENDBRANCH   7   8
ENDBRANCH   1   7
TORSDOF 2
ENDMDL
