MODEL 1
REMARK minimizedAffinity 12.1548471
REMARK minimizedRMSD -1
REMARK  2 active torsions:
REMARK  status: ('A' for Active; 'I' for Inactive)
REMARK    1  A    between atoms: C1_2  and  C2_3 
REMARK    2  A    between atoms: C2_3  and  C3_4 
ROOT
ATOM      1  C3  UNL d   1       1.388   0.297  -2.466  0.00  0.00    -0.075 A 
ATOM      2  C4  UNL d   1       2.153   1.302  -1.855  0.00  0.00     0.002 A 
ATOM      3  C5  UNL d   1       2.242   2.571  -2.429  0.00  0.00     0.002 A 
ATOM      4  C6  UNL d   1       1.579   2.847  -3.622  0.00  0.00    -0.004 A 
ATOM      5  C7  UNL d   1       0.831   1.852  -4.246  0.00  0.00     0.002 A 
ATOM      6  C8  UNL d   1       0.736   0.583  -3.672  0.00  0.00     0.002 A 
ENDROOT
BRANCH   1   7
ATOM      7  C2  UNL d   1       1.263  -1.069  -1.835  0.00  0.00     0.056 C 
BRANCH   7   8
ATOM      8  C1  UNL d   1      -0.128  -1.695  -1.974  0.00  0.00     0.007 C 
ATOM      9  C   UNL d   1      -0.107  -3.062  -2.645  0.00  0.00     0.009 C 
ENDBRANCH   7   8
ENDBRANCH   1   7
TORSDOF 2
ENDMDL
