MODEL 1
REMARK minimizedAffinity 8.70816517
REMARK minimizedRMSD -1
REMARK  2 active torsions:
REMARK  status: ('A' for Active; 'I' for Inactive)
REMARK    1  A    between atoms: C1_2  and  C2_3 
REMARK    2  A    between atoms: C2_3  and  C3_4 
ROOT
ATOM      1  C3  UNL d   1      -2.653   3.573   4.195  0.00  0.00    -0.075 A 
ATOM      2  C4  UNL d   1      -3.388   3.581   5.390  0.00  0.00     0.002 A 
ATOM      3  C5  UNL d   1      -3.734   4.787   6.000  0.00  0.00     0.002 A 
ATOM      4  C6  UNL d   1      -3.341   5.997   5.431  0.00  0.00    -0.004 A 
ATOM      5  C7  UNL d   1      -2.597   6.000   4.254  0.00  0.00     0.002 A 
ATOM      6  C8  UNL d   1      -2.253   4.795   3.638  0.00  0.00     0.002 A 
ENDROOT
BRANCH   1   7
ATOM      7  C2  UNL d   1      -2.301   2.272   3.514  0.00  0.00     0.056 C 
BRANCH   7   8
ATOM      8  C1  UNL d   1      -3.516   1.451   3.071  0.00  0.00     0.007 C 
ATOM      9  C   UNL d   1      -3.564   0.063   3.696  0.00  0.00     0.009 C 
ENDBRANCH   7   8
ENDBRANCH   1   7
TORSDOF 2
ENDMDL
