MODEL 1
REMARK minimizedAffinity 10.269105
REMARK minimizedRMSD -1
REMARK  2 active torsions:
REMARK  status: ('A' for Active; 'I' for Inactive)
REMARK    1  A    between atoms: C1_2  and  C2_3 
REMARK    2  A    between atoms: C2_3  and  C3_4 
ROOT
ATOM      1  C3  UNL d   1      -3.596   4.824   4.469  0.00  0.00    -0.075 A 
ATOM      2  C4  UNL d   1      -4.595   5.159   3.544  0.00  0.00     0.002 A 
ATOM      3  C5  UNL d   1      -4.804   4.373   2.410  0.00  0.00     0.002 A 
ATOM      4  C6  UNL d   1      -4.012   3.250   2.182  0.00  0.00    -0.004 A 
ATOM      5  C7  UNL d   1      -3.005   2.917   3.085  0.00  0.00     0.002 A 
ATOM      6  C8  UNL d   1      -2.797   3.699   4.223  0.00  0.00     0.002 A 
ENDROOT
BRANCH   1   7
ATOM      7  C2  UNL d   1      -3.384   5.653   5.712  0.00  0.00     0.056 C 
BRANCH   7   8
ATOM      8  C1  UNL d   1      -1.916   5.986   5.998  0.00  0.00     0.007 C 
ATOM      9  C   UNL d   1      -1.049   6.000   4.746  0.00  0.00     0.009 C 
ENDBRANCH   7   8
ENDBRANCH   1   7
TORSDOF 2
ENDMDL
