MODEL 1
REMARK minimizedAffinity 9.59096622
REMARK minimizedRMSD -1
REMARK  2 active torsions:
REMARK  status: ('A' for Active; 'I' for Inactive)
REMARK    1  A    between atoms: C1_2  and  C2_3 
REMARK    2  A    between atoms: C2_3  and  C3_4 
ROOT
ATOM      1  C3  UNL d   1      -3.127   3.675   3.606  0.00  0.00    -0.075 A 
ATOM      2  C4  UNL d   1      -3.361   3.644   4.988  0.00  0.00     0.002 A 
ATOM      3  C5  UNL d   1      -3.156   4.783   5.767  0.00  0.00     0.002 A 
ATOM      4  C6  UNL d   1      -2.706   5.962   5.177  0.00  0.00    -0.004 A 
ATOM      5  C7  UNL d   1      -2.454   6.000   3.808  0.00  0.00     0.002 A 
ATOM      6  C8  UNL d   1      -2.663   4.863   3.025  0.00  0.00     0.002 A 
ENDROOT
BRANCH   1   7
ATOM      7  C2  UNL d   1      -3.375   2.454   2.753  0.00  0.00     0.056 C 
BRANCH   7   8
ATOM      8  C1  UNL d   1      -2.619   1.205   3.217  0.00  0.00     0.007 C 
ATOM      9  C   UNL d   1      -2.616   0.086   2.184  0.00  0.00     0.009 C 
ENDBRANCH   7   8
ENDBRANCH   1   7
TORSDOF 2
ENDMDL
