MODEL 1
REMARK minimizedAffinity 12.8220682
REMARK minimizedRMSD -1
REMARK  2 active torsions:
REMARK  status: ('A' for Active; 'I' for Inactive)
REMARK    1  A    between atoms: C1_2  and  C2_3 
REMARK    2  A    between atoms: C2_3  and  C3_4 
ROOT
ATOM      1  C3  UNL d   1       2.824   4.540   0.243  0.00  0.00    -0.075 A 
ATOM      2  C4  UNL d   1       2.991   4.123   1.572  0.00  0.00     0.002 A 
ATOM      3  C5  UNL d   1       4.260   4.092   2.150  0.00  0.00     0.002 A 
ATOM      4  C6  UNL d   1       5.377   4.466   1.406  0.00  0.00    -0.004 A 
ATOM      5  C7  UNL d   1       5.225   4.865   0.081  0.00  0.00     0.002 A 
ATOM      6  C8  UNL d   1       3.956   4.902  -0.499  0.00  0.00     0.002 A 
ENDROOT
BRANCH   1   7
ATOM      7  C2  UNL d   1       1.450   4.605  -0.380  0.00  0.00     0.056 C 
BRANCH   7   8
ATOM      8  C1  UNL d   1       0.817   6.000  -0.350  0.00  0.00     0.007 C 
ATOM      9  C   UNL d   1      -0.652   5.984   0.053  0.00  0.00     0.009 C 
ENDBRANCH   7   8
ENDBRANCH   1   7
TORSDOF 2
ENDMDL
