MODEL 1
REMARK minimizedAffinity 3.57497048
REMARK minimizedRMSD -1
REMARK  2 active torsions:
REMARK  status: ('A' for Active; 'I' for Inactive)
REMARK    1  A    between atoms: C1_2  and  C2_3 
REMARK    2  A    between atoms: C2_3  and  C3_4 
ROOT
ATOM      1  C3  UNL d   1       2.319   3.073  -1.742  0.00  0.00    -0.075 A 
ATOM      2  C4  UNL d   1       1.621   2.070  -1.053  0.00  0.00     0.002 A 
ATOM      3  C5  UNL d   1       1.147   0.945  -1.728  0.00  0.00     0.002 A 
ATOM      4  C6  UNL d   1       1.356   0.812  -3.099  0.00  0.00    -0.004 A 
ATOM      5  C7  UNL d   1       2.034   1.809  -3.796  0.00  0.00     0.002 A 
ATOM      6  C8  UNL d   1       2.513   2.935  -3.123  0.00  0.00     0.002 A 
ENDROOT
BRANCH   1   7
ATOM      7  C2  UNL d   1       2.859   4.279  -1.012  0.00  0.00     0.056 C 
BRANCH   7   8
ATOM      8  C1  UNL d   1       2.379   4.398   0.438  0.00  0.00     0.007 C 
ATOM      9  C   UNL d   1       3.339   3.773   1.442  0.00  0.00     0.009 C 
ENDBRANCH   7   8
ENDBRANCH   1   7
TORSDOF 2
ENDMDL
