MODEL 1
REMARK minimizedAffinity -0.711005032
REMARK minimizedRMSD -1
REMARK  0 active torsions:
REMARK  status: ('A' for Active; 'I' for Inactive)
ROOT
ATOM      1  C   UNL d   1       4.127  -5.974  -2.380  0.00  0.00     0.172 C 
ATOM      2  N   UNL d   1       3.878  -5.982  -3.802  0.00  0.00    -0.070 N 
ATOM      3  C1  UNL d   1       4.836  -5.976  -4.780  0.00  0.00    -0.004 A 
ATOM      4  C2  UNL d   1       4.194  -5.987  -6.000  0.00  0.00    -0.047 A 
ATOM      5  C3  UNL d   1       2.802  -5.999  -5.746  0.00  0.00    -0.047 A 
ATOM      6  C4  UNL d   1       2.635  -5.996  -4.377  0.00  0.00    -0.004 A 
ENDROOT
TORSDOF 0
ENDMDL
