MODEL 1
REMARK minimizedAffinity 0.726695836
REMARK minimizedRMSD -1
REMARK  0 active torsions:
REMARK  status: ('A' for Active; 'I' for Inactive)
ROOT
ATOM      1  C   UNL d   1       0.157  -2.497   0.258  0.00  0.00     0.172 C 
ATOM      2  N   UNL d   1       0.995  -2.832   1.385  0.00  0.00    -0.070 N 
ATOM      3  C1  UNL d   1       1.643  -4.024   1.572  0.00  0.00    -0.004 A 
ATOM      4  C2  UNL d   1       2.334  -3.946   2.762  0.00  0.00    -0.047 A 
ATOM      5  C3  UNL d   1       2.091  -2.664   3.310  0.00  0.00    -0.047 A 
ATOM      6  C4  UNL d   1       1.259  -1.995   2.437  0.00  0.00    -0.004 A 
ENDROOT
TORSDOF 0
ENDMDL
