MODEL 1
REMARK minimizedAffinity 2.50253749
REMARK minimizedRMSD -1
REMARK  0 active torsions:
REMARK  status: ('A' for Active; 'I' for Inactive)
ROOT
ATOM      1  C   UNL d   1       2.126  -1.163   2.968  0.00  0.00     0.172 C 
ATOM      2  N   UNL d   1       2.142  -2.529   3.438  0.00  0.00    -0.070 N 
ATOM      3  C1  UNL d   1       1.134  -3.441   3.273  0.00  0.00    -0.004 A 
ATOM      4  C2  UNL d   1       1.535  -4.622   3.860  0.00  0.00    -0.047 A 
ATOM      5  C3  UNL d   1       2.827  -4.412   4.397  0.00  0.00    -0.047 A 
ATOM      6  C4  UNL d   1       3.179  -3.107   4.121  0.00  0.00    -0.004 A 
ENDROOT
TORSDOF 0
ENDMDL
