MODEL 1
REMARK minimizedAffinity 4.05913019
REMARK minimizedRMSD -1
REMARK  0 active torsions:
REMARK  status: ('A' for Active; 'I' for Inactive)
ROOT
ATOM      1  C   UNL d   1      -0.231  -2.660   0.296  0.00  0.00     0.172 C 
ATOM      2  N   UNL d   1       0.632  -2.161   1.341  0.00  0.00    -0.070 N 
ATOM      3  C1  UNL d   1       1.085  -2.882   2.413  0.00  0.00    -0.004 A 
ATOM      4  C2  UNL d   1       1.878  -2.052   3.175  0.00  0.00    -0.047 A 
ATOM      5  C3  UNL d   1       1.902  -0.788   2.539  0.00  0.00    -0.047 A 
ATOM      6  C4  UNL d   1       1.122  -0.884   1.406  0.00  0.00    -0.004 A 
ENDROOT
TORSDOF 0
ENDMDL
