MODEL 1
REMARK minimizedAffinity 3.72488403
REMARK minimizedRMSD -1
REMARK  0 active torsions:
REMARK  status: ('A' for Active; 'I' for Inactive)
ROOT
ATOM      1  C   UNL d   1       2.932   1.190   1.773  0.00  0.00     0.172 C 
ATOM      2  N   UNL d   1       2.438  -0.028   2.371  0.00  0.00    -0.070 N 
ATOM      3  C1  UNL d   1       2.985  -0.664   3.454  0.00  0.00    -0.004 A 
ATOM      4  C2  UNL d   1       2.225  -1.784   3.713  0.00  0.00    -0.047 A 
ATOM      5  C3  UNL d   1       1.186  -1.823   2.753  0.00  0.00    -0.047 A 
ATOM      6  C4  UNL d   1       1.341  -0.724   1.935  0.00  0.00    -0.004 A 
ENDROOT
TORSDOF 0
ENDMDL
