MODEL 1
REMARK minimizedAffinity 11.6989346
REMARK minimizedRMSD -1
REMARK  1 active torsions:
REMARK  status: ('A' for Active; 'I' for Inactive)
REMARK    1  A    between atoms: C1_2  and  C2_3 
ROOT
ATOM      1  C2  UNL d   1       2.389   1.036   1.106  0.00  0.00    -0.081 A 
ATOM      2  C3  UNL d   1       2.763   0.016   1.988  0.00  0.00     0.006 A 
ATOM      3  C4  UNL d   1       3.924  -0.727   1.761  0.00  0.00     0.002 A 
ATOM      4  C5  UNL d   1       4.733  -0.457   0.652  0.00  0.00    -0.080 A 
ATOM      5  C6  UNL d   1       5.998  -1.228   0.413  0.00  0.00     0.076 C 
ATOM      6  C7  UNL d   1       4.351   0.551  -0.239  0.00  0.00     0.002 A 
ATOM      7  C8  UNL d   1       3.190   1.293  -0.013  0.00  0.00     0.006 A 
ENDROOT
BRANCH   1   8
ATOM      8  C1  UNL d   1       1.173   1.882   1.383  0.00  0.00     0.054 C 
ATOM      9  C   UNL d   1       0.267   1.227   2.417  0.00  0.00     0.018 C 
ENDBRANCH   1   8
TORSDOF 1
ENDMDL
