MODEL 1
REMARK minimizedAffinity 12.4605999
REMARK minimizedRMSD -1
REMARK  1 active torsions:
REMARK  status: ('A' for Active; 'I' for Inactive)
REMARK    1  A    between atoms: C1_2  and  C2_3 
ROOT
ATOM      1  C2  UNL d   1      -4.945   1.757   3.646  0.00  0.00    -0.081 A 
ATOM      2  C3  UNL d   1      -4.784   2.252   4.946  0.00  0.00     0.006 A 
ATOM      3  C4  UNL d   1      -4.846   3.625   5.194  0.00  0.00     0.002 A 
ATOM      4  C5  UNL d   1      -5.078   4.525   4.149  0.00  0.00    -0.080 A 
ATOM      5  C6  UNL d   1      -5.178   6.000   4.407  0.00  0.00     0.076 C 
ATOM      6  C7  UNL d   1      -5.223   4.033   2.847  0.00  0.00     0.002 A 
ATOM      7  C8  UNL d   1      -5.160   2.660   2.598  0.00  0.00     0.006 A 
ENDROOT
BRANCH   1   8
ATOM      8  C1  UNL d   1      -4.943   0.273   3.384  0.00  0.00     0.054 C 
ATOM      9  C   UNL d   1      -3.839  -0.116   2.411  0.00  0.00     0.018 C 
ENDBRANCH   1   8
TORSDOF 1
ENDMDL
