MODEL 1
REMARK minimizedAffinity 12.3996382
REMARK minimizedRMSD -1
REMARK  1 active torsions:
REMARK  status: ('A' for Active; 'I' for Inactive)
REMARK    1  A    between atoms: C1_2  and  C2_3 
ROOT
ATOM      1  C2  UNL d   1       1.596   0.846   1.859  0.00  0.00    -0.081 A 
ATOM      2  C3  UNL d   1       2.828   0.230   1.611  0.00  0.00     0.006 A 
ATOM      3  C4  UNL d   1       3.679   0.722   0.618  0.00  0.00     0.002 A 
ATOM      4  C5  UNL d   1       3.315   1.842  -0.137  0.00  0.00    -0.080 A 
ATOM      5  C6  UNL d   1       4.232   2.399  -1.185  0.00  0.00     0.076 C 
ATOM      6  C7  UNL d   1       2.076   2.447   0.100  0.00  0.00     0.002 A 
ATOM      7  C8  UNL d   1       1.225   1.955   1.092  0.00  0.00     0.006 A 
ENDROOT
BRANCH   1   8
ATOM      8  C1  UNL d   1       0.705   0.357   2.973  0.00  0.00     0.054 C 
ATOM      9  C   UNL d   1      -0.223   1.459   3.463  0.00  0.00     0.018 C 
ENDBRANCH   1   8
TORSDOF 1
ENDMDL
