MODEL 1
REMARK minimizedAffinity 3.53593874
REMARK minimizedRMSD -1
REMARK  1 active torsions:
REMARK  status: ('A' for Active; 'I' for Inactive)
REMARK    1  A    between atoms: C1_2  and  C2_3 
ROOT
ATOM      1  C2  UNL d   1      -5.385   0.248   3.505  0.00  0.00    -0.081 A 
ATOM      2  C3  UNL d   1      -5.998   0.384   4.756  0.00  0.00     0.006 A 
ATOM      3  C4  UNL d   1      -5.708   1.481   5.572  0.00  0.00     0.002 A 
ATOM      4  C5  UNL d   1      -4.806   2.462   5.147  0.00  0.00    -0.080 A 
ATOM      5  C6  UNL d   1      -4.509   3.660   5.999  0.00  0.00     0.076 C 
ATOM      6  C7  UNL d   1      -4.180   2.317   3.904  0.00  0.00     0.002 A 
ATOM      7  C8  UNL d   1      -4.469   1.221   3.089  0.00  0.00     0.006 A 
ENDROOT
BRANCH   1   8
ATOM      8  C1  UNL d   1      -5.745  -0.900   2.596  0.00  0.00     0.054 C 
ATOM      9  C   UNL d   1      -4.693  -1.099   1.514  0.00  0.00     0.018 C 
ENDBRANCH   1   8
TORSDOF 1
ENDMDL
