MODEL 1
REMARK minimizedAffinity 12.892149
REMARK minimizedRMSD -1
REMARK  1 active torsions:
REMARK  status: ('A' for Active; 'I' for Inactive)
REMARK    1  A    between atoms: C1_2  and  C2_3 
ROOT
ATOM      1  C2  UNL d   1       1.067   0.378   3.238  0.00  0.00    -0.081 A 
ATOM      2  C3  UNL d   1       1.972  -0.581   3.710  0.00  0.00     0.006 A 
ATOM      3  C4  UNL d   1       3.050  -0.987   2.919  0.00  0.00     0.002 A 
ATOM      4  C5  UNL d   1       3.245  -0.436   1.648  0.00  0.00    -0.080 A 
ATOM      5  C6  UNL d   1       4.415  -0.841   0.802  0.00  0.00     0.076 C 
ATOM      6  C7  UNL d   1       2.331   0.509   1.169  0.00  0.00     0.002 A 
ATOM      7  C8  UNL d   1       1.253   0.915   1.959  0.00  0.00     0.006 A 
ENDROOT
BRANCH   1   8
ATOM      8  C1  UNL d   1      -0.060   0.865   4.113  0.00  0.00     0.054 C 
ATOM      9  C   UNL d   1       0.409   1.090   5.544  0.00  0.00     0.018 C 
ENDBRANCH   1   8
TORSDOF 1
ENDMDL
