MODEL 1
REMARK minimizedAffinity 17.9082298
REMARK minimizedRMSD -1
REMARK  1 active torsions:
REMARK  status: ('A' for Active; 'I' for Inactive)
REMARK    1  A    between atoms: C1_2  and  C2_3 
ROOT
ATOM      1  C2  UNL d   1      -1.105  -3.216  -3.725  0.00  0.00    -0.081 A 
ATOM      2  C3  UNL d   1      -0.809  -4.583  -3.650  0.00  0.00     0.006 A 
ATOM      3  C4  UNL d   1      -1.612  -5.440  -2.893  0.00  0.00     0.002 A 
ATOM      4  C5  UNL d   1      -2.726  -4.948  -2.206  0.00  0.00    -0.080 A 
ATOM      5  C6  UNL d   1      -3.613  -5.862  -1.415  0.00  0.00     0.076 C 
ATOM      6  C7  UNL d   1      -3.011  -3.579  -2.267  0.00  0.00     0.002 A 
ATOM      7  C8  UNL d   1      -2.209  -2.721  -3.023  0.00  0.00     0.006 A 
ENDROOT
BRANCH   1   8
ATOM      8  C1  UNL d   1      -0.280  -2.301  -4.593  0.00  0.00     0.054 C 
ATOM      9  C   UNL d   1      -0.912  -2.120  -5.965  0.00  0.00     0.018 C 
ENDBRANCH   1   8
TORSDOF 1
ENDMDL
