MODEL 1
REMARK minimizedAffinity 10.4291487
REMARK minimizedRMSD -1
REMARK  1 active torsions:
REMARK  status: ('A' for Active; 'I' for Inactive)
REMARK    1  A    between atoms: C1_2  and  C2_3 
ROOT
ATOM      1  C2  UNL d   1      -3.745  -5.166  -1.150  0.00  0.00    -0.081 A 
ATOM      2  C3  UNL d   1      -5.020  -5.590  -1.545  0.00  0.00     0.006 A 
ATOM      3  C4  UNL d   1      -5.758  -4.849  -2.471  0.00  0.00     0.002 A 
ATOM      4  C5  UNL d   1      -5.230  -3.677  -3.023  0.00  0.00    -0.080 A 
ATOM      5  C6  UNL d   1      -6.000  -2.888  -4.041  0.00  0.00     0.076 C 
ATOM      6  C7  UNL d   1      -3.964  -3.244  -2.616  0.00  0.00     0.002 A 
ATOM      7  C8  UNL d   1      -3.226  -3.984  -1.690  0.00  0.00     0.006 A 
ENDROOT
BRANCH   1   8
ATOM      8  C1  UNL d   1      -2.921  -5.998  -0.201  0.00  0.00     0.054 C 
ATOM      9  C   UNL d   1      -3.495  -5.962   1.208  0.00  0.00     0.018 C 
ENDBRANCH   1   8
TORSDOF 1
ENDMDL
