MODEL 1
REMARK minimizedAffinity 14.7636032
REMARK minimizedRMSD -1
REMARK  1 active torsions:
REMARK  status: ('A' for Active; 'I' for Inactive)
REMARK    1  A    between atoms: C1_2  and  C2_3 
ROOT
ATOM      1  C2  UNL d   1       3.464   3.178  -3.801  0.00  0.00    -0.081 A 
ATOM      2  C3  UNL d   1       3.487   4.537  -3.465  0.00  0.00     0.006 A 
ATOM      3  C4  UNL d   1       2.708   5.455  -4.173  0.00  0.00     0.002 A 
ATOM      4  C5  UNL d   1       1.887   5.029  -5.222  0.00  0.00    -0.080 A 
ATOM      5  C6  UNL d   1       1.023   6.000  -5.970  0.00  0.00     0.076 C 
ATOM      6  C7  UNL d   1       1.877   3.674  -5.569  0.00  0.00     0.002 A 
ATOM      7  C8  UNL d   1       2.656   2.755  -4.862  0.00  0.00     0.006 A 
ENDROOT
BRANCH   1   8
ATOM      8  C1  UNL d   1       4.254   2.176  -2.998  0.00  0.00     0.054 C 
ATOM      9  C   UNL d   1       4.360   2.597  -1.539  0.00  0.00     0.018 C 
ENDBRANCH   1   8
TORSDOF 1
ENDMDL
