MODEL 1
REMARK minimizedAffinity 10.1935635
REMARK minimizedRMSD -1
REMARK  1 active torsions:
REMARK  status: ('A' for Active; 'I' for Inactive)
REMARK    1  A    between atoms: C1_2  and  C2_3 
ROOT
ATOM      1  C2  UNL d   1       4.085   4.332   2.435  0.00  0.00    -0.081 A 
ATOM      2  C3  UNL d   1       5.249   3.743   2.943  0.00  0.00     0.006 A 
ATOM      3  C4  UNL d   1       5.878   4.275   4.071  0.00  0.00     0.002 A 
ATOM      4  C5  UNL d   1       5.351   5.400   4.713  0.00  0.00    -0.080 A 
ATOM      5  C6  UNL d   1       5.999   5.964   5.943  0.00  0.00     0.076 C 
ATOM      6  C7  UNL d   1       4.198   6.000   4.195  0.00  0.00     0.002 A 
ATOM      7  C8  UNL d   1       3.568   5.468   3.067  0.00  0.00     0.006 A 
ENDROOT
BRANCH   1   8
ATOM      8  C1  UNL d   1       3.368   3.722   1.258  0.00  0.00     0.054 C 
ATOM      9  C   UNL d   1       2.914   2.302   1.562  0.00  0.00     0.018 C 
ENDBRANCH   1   8
TORSDOF 1
ENDMDL
