MODEL 1
REMARK minimizedAffinity 18.7567692
REMARK minimizedRMSD -1
REMARK  1 active torsions:
REMARK  status: ('A' for Active; 'I' for Inactive)
REMARK    1  A    between atoms: C1_2  and  C2_3 
ROOT
ATOM      1  C2  UNL d   1      -2.399  -2.171  -0.825  0.00  0.00    -0.081 A 
ATOM      2  C3  UNL d   1      -3.084  -3.030  -1.693  0.00  0.00     0.006 A 
ATOM      3  C4  UNL d   1      -2.626  -3.229  -2.998  0.00  0.00     0.002 A 
ATOM      4  C5  UNL d   1      -1.474  -2.579  -3.453  0.00  0.00    -0.080 A 
ATOM      5  C6  UNL d   1      -0.955  -2.808  -4.842  0.00  0.00     0.076 C 
ATOM      6  C7  UNL d   1      -0.800  -1.708  -2.591  0.00  0.00     0.002 A 
ATOM      7  C8  UNL d   1      -1.257  -1.508  -1.287  0.00  0.00     0.006 A 
ENDROOT
BRANCH   1   8
ATOM      8  C1  UNL d   1      -2.853  -2.004   0.603  0.00  0.00     0.054 C 
ATOM      9  C   UNL d   1      -1.731  -2.321   1.581  0.00  0.00     0.018 C 
ENDBRANCH   1   8
TORSDOF 1
ENDMDL
