MODEL 1
REMARK minimizedAffinity -0.298086077
REMARK minimizedRMSD -1
REMARK  0 active torsions:
REMARK  status: ('A' for Active; 'I' for Inactive)
ROOT
ATOM      1  C   UNL d   1       5.998  -2.682   1.893  0.00  0.00     0.023 A 
ATOM      2  C1  UNL d   1       5.944  -4.074   1.833  0.00  0.00     0.003 A 
ATOM      3  C2  UNL d   1       5.892  -4.824   3.010  0.00  0.00     0.048 A 
ATOM      4  C3  UNL d   1       5.894  -4.175   4.244  0.00  0.00     0.023 A 
ATOM      5  C4  UNL d   1       5.947  -2.781   4.309  0.00  0.00     0.048 A 
ATOM      6  C5  UNL d   1       6.000  -2.036   3.130  0.00  0.00     0.003 A 
ATOM      7  I   UNL d   1       5.816  -5.288   5.997  0.00  0.00    -0.146 I 
ENDROOT
TORSDOF 0
ENDMDL
