MODEL 1
REMARK minimizedAffinity -0.27214396
REMARK minimizedRMSD -1
REMARK  0 active torsions:
REMARK  status: ('A' for Active; 'I' for Inactive)
ROOT
ATOM      1  C   UNL d   1       4.808  -4.892  -5.994  0.00  0.00     0.023 A 
ATOM      2  C1  UNL d   1       3.613  -4.543  -5.364  0.00  0.00     0.003 A 
ATOM      3  C2  UNL d   1       3.608  -4.209  -4.009  0.00  0.00     0.048 A 
ATOM      4  C3  UNL d   1       4.802  -4.226  -3.288  0.00  0.00     0.023 A 
ATOM      5  C4  UNL d   1       6.000  -4.574  -3.914  0.00  0.00     0.048 A 
ATOM      6  C5  UNL d   1       6.000  -4.908  -5.269  0.00  0.00     0.003 A 
ATOM      7  I   UNL d   1       4.797  -3.729  -1.270  0.00  0.00    -0.146 I 
ENDROOT
TORSDOF 0
ENDMDL
