MODEL 1
REMARK minimizedAffinity -3.25301337
REMARK minimizedRMSD -1
REMARK  0 active torsions:
REMARK  status: ('A' for Active; 'I' for Inactive)
ROOT
ATOM      1  C   UNL d   1       5.536  -3.659   4.144  0.00  0.00     0.023 A 
ATOM      2  C1  UNL d   1       5.342  -4.854   3.451  0.00  0.00     0.003 A 
ATOM      3  C2  UNL d   1       5.474  -4.885   2.061  0.00  0.00     0.048 A 
ATOM      4  C3  UNL d   1       5.801  -3.718   1.371  0.00  0.00     0.023 A 
ATOM      5  C4  UNL d   1       5.996  -2.521   2.061  0.00  0.00     0.048 A 
ATOM      6  C5  UNL d   1       5.863  -2.494   3.451  0.00  0.00     0.003 A 
ATOM      7  I   UNL d   1       5.998  -3.762  -0.697  0.00  0.00    -0.146 I 
ENDROOT
TORSDOF 0
ENDMDL
