MODEL 1
REMARK minimizedAffinity -1.51138687
REMARK minimizedRMSD -1
REMARK  0 active torsions:
REMARK  status: ('A' for Active; 'I' for Inactive)
ROOT
ATOM      1  C   UNL d   1       5.164  -5.053  -6.000  0.00  0.00     0.023 A 
ATOM      2  C1  UNL d   1       5.112  -3.698  -5.672  0.00  0.00     0.003 A 
ATOM      3  C2  UNL d   1       5.351  -3.286  -4.359  0.00  0.00     0.048 A 
ATOM      4  C3  UNL d   1       5.643  -4.235  -3.380  0.00  0.00     0.023 A 
ATOM      5  C4  UNL d   1       5.697  -5.592  -3.703  0.00  0.00     0.048 A 
ATOM      6  C5  UNL d   1       5.456  -5.998  -5.017  0.00  0.00     0.003 A 
ATOM      7  I   UNL d   1       6.000  -3.625  -1.425  0.00  0.00    -0.146 I 
ENDROOT
TORSDOF 0
ENDMDL
