MODEL 1
REMARK minimizedAffinity -0.289173633
REMARK minimizedRMSD -1
REMARK  0 active torsions:
REMARK  status: ('A' for Active; 'I' for Inactive)
ROOT
ATOM      1  C   UNL d   1       4.561  -3.174   5.998  0.00  0.00     0.023 A 
ATOM      2  C1  UNL d   1       3.956  -4.213   5.291  0.00  0.00     0.003 A 
ATOM      3  C2  UNL d   1       4.367  -4.506   3.990  0.00  0.00     0.048 A 
ATOM      4  C3  UNL d   1       5.386  -3.758   3.401  0.00  0.00     0.023 A 
ATOM      5  C4  UNL d   1       5.995  -2.718   4.105  0.00  0.00     0.048 A 
ATOM      6  C5  UNL d   1       5.580  -2.427   5.406  0.00  0.00     0.003 A 
ATOM      7  I   UNL d   1       6.000  -4.193   1.464  0.00  0.00    -0.146 I 
ENDROOT
TORSDOF 0
ENDMDL
