MODEL 1
REMARK minimizedAffinity 1.07846141
REMARK minimizedRMSD -1
REMARK  0 active torsions:
REMARK  status: ('A' for Active; 'I' for Inactive)
ROOT
ATOM      1  C   UNL d   1       4.152  -3.914   5.907  0.00  0.00     0.023 A 
ATOM      2  C1  UNL d   1       5.468  -4.361   5.790  0.00  0.00     0.003 A 
ATOM      3  C2  UNL d   1       6.000  -4.648   4.532  0.00  0.00     0.048 A 
ATOM      4  C3  UNL d   1       5.210  -4.485   3.394  0.00  0.00     0.023 A 
ATOM      5  C4  UNL d   1       3.893  -4.036   3.506  0.00  0.00     0.048 A 
ATOM      6  C5  UNL d   1       3.365  -3.752   4.767  0.00  0.00     0.003 A 
ATOM      7  I   UNL d   1       6.000  -4.911   1.519  0.00  0.00    -0.146 I 
ENDROOT
TORSDOF 0
ENDMDL
