MODEL 1
REMARK minimizedAffinity 3.63336825
REMARK minimizedRMSD -1
REMARK  0 active torsions:
REMARK  status: ('A' for Active; 'I' for Inactive)
ROOT
ATOM      1  C   UNL d   1       5.834  -1.748   4.342  0.00  0.00     0.023 A 
ATOM      2  C1  UNL d   1       5.705  -2.132   5.677  0.00  0.00     0.003 A 
ATOM      3  C2  UNL d   1       5.107  -3.351   6.000  0.00  0.00     0.048 A 
ATOM      4  C3  UNL d   1       4.641  -4.184   4.983  0.00  0.00     0.023 A 
ATOM      5  C4  UNL d   1       4.769  -3.805   3.645  0.00  0.00     0.048 A 
ATOM      6  C5  UNL d   1       5.367  -2.584   3.328  0.00  0.00     0.003 A 
ATOM      7  I   UNL d   1       3.751  -6.000   5.460  0.00  0.00    -0.146 I 
ENDROOT
TORSDOF 0
ENDMDL
