MODEL 1
REMARK minimizedAffinity -2.27985382
REMARK minimizedRMSD -1
REMARK  0 active torsions:
REMARK  status: ('A' for Active; 'I' for Inactive)
ROOT
ATOM      1  C   UNL d   1       5.999  -2.406   3.055  0.00  0.00     0.023 A 
ATOM      2  C1  UNL d   1       5.966  -2.205   4.435  0.00  0.00     0.003 A 
ATOM      3  C2  UNL d   1       5.551  -3.236   5.282  0.00  0.00     0.048 A 
ATOM      4  C3  UNL d   1       5.173  -4.464   4.741  0.00  0.00     0.023 A 
ATOM      5  C4  UNL d   1       5.206  -4.670   3.361  0.00  0.00     0.048 A 
ATOM      6  C5  UNL d   1       5.620  -3.636   2.519  0.00  0.00     0.003 A 
ATOM      7  I   UNL d   1       4.557  -6.000   5.999  0.00  0.00    -0.146 I 
ENDROOT
TORSDOF 0
ENDMDL
