MODEL 1
REMARK minimizedAffinity 5.51644373
REMARK minimizedRMSD -1
REMARK  0 active torsions:
REMARK  status: ('A' for Active; 'I' for Inactive)
ROOT
ATOM      1  C   UNL d   1       5.994  -3.409  -0.543  0.00  0.00     0.023 A 
ATOM      2  C1  UNL d   1       5.991  -2.717  -1.755  0.00  0.00     0.003 A 
ATOM      3  C2  UNL d   1       5.993  -3.420  -2.961  0.00  0.00     0.048 A 
ATOM      4  C3  UNL d   1       5.997  -4.814  -2.949  0.00  0.00     0.023 A 
ATOM      5  C4  UNL d   1       5.999  -5.511  -1.740  0.00  0.00     0.048 A 
ATOM      6  C5  UNL d   1       5.998  -4.804  -0.536  0.00  0.00     0.003 A 
ATOM      7  I   UNL d   1       6.000  -5.863  -4.744  0.00  0.00    -0.146 I 
ENDROOT
TORSDOF 0
ENDMDL
