MODEL 1
REMARK minimizedAffinity -3.49702144
REMARK minimizedRMSD -1
REMARK  0 active torsions:
REMARK  status: ('A' for Active; 'I' for Inactive)
ROOT
ATOM      1  C   UNL d   1       5.651  -3.265   5.132  0.00  0.00     0.023 A 
ATOM      2  C1  UNL d   1       5.963  -2.316   4.159  0.00  0.00     0.003 A 
ATOM      3  C2  UNL d   1       5.999  -2.680   2.812  0.00  0.00     0.048 A 
ATOM      4  C3  UNL d   1       5.721  -3.997   2.444  0.00  0.00     0.023 A 
ATOM      5  C4  UNL d   1       5.407  -4.950   3.414  0.00  0.00     0.048 A 
ATOM      6  C5  UNL d   1       5.373  -4.581   4.760  0.00  0.00     0.003 A 
ATOM      7  I   UNL d   1       5.774  -4.542   0.439  0.00  0.00    -0.146 I 
ENDROOT
TORSDOF 0
ENDMDL
