MODEL 1
REMARK minimizedAffinity -1.49021351
REMARK minimizedRMSD -1
REMARK  0 active torsions:
REMARK  status: ('A' for Active; 'I' for Inactive)
ROOT
ATOM      1  C   UNL d   1       6.000  -3.040  -1.231  0.00  0.00     0.023 A 
ATOM      2  C1  UNL d   1       5.987  -1.938  -0.375  0.00  0.00     0.003 A 
ATOM      3  C2  UNL d   1       5.971  -2.128   1.008  0.00  0.00     0.048 A 
ATOM      4  C3  UNL d   1       5.968  -3.422   1.529  0.00  0.00     0.023 A 
ATOM      5  C4  UNL d   1       5.981  -4.527   0.676  0.00  0.00     0.048 A 
ATOM      6  C5  UNL d   1       5.997  -4.332  -0.706  0.00  0.00     0.003 A 
ATOM      7  I   UNL d   1       5.943  -3.706   3.587  0.00  0.00    -0.146 I 
ENDROOT
TORSDOF 0
ENDMDL
