MODEL 1
REMARK minimizedAffinity -2.92769146
REMARK minimizedRMSD -1
REMARK  0 active torsions:
REMARK  status: ('A' for Active; 'I' for Inactive)
ROOT
ATOM      1  C   UNL d   1       5.170  -2.926   6.000  0.00  0.00     0.023 A 
ATOM      2  C1  UNL d   1       5.759  -2.252   4.930  0.00  0.00     0.003 A 
ATOM      3  C2  UNL d   1       5.998  -2.922   3.728  0.00  0.00     0.048 A 
ATOM      4  C3  UNL d   1       5.644  -4.265   3.602  0.00  0.00     0.023 A 
ATOM      5  C4  UNL d   1       5.054  -4.943   4.670  0.00  0.00     0.048 A 
ATOM      6  C5  UNL d   1       4.818  -4.270   5.870  0.00  0.00     0.003 A 
ATOM      7  I   UNL d   1       5.999  -5.263   1.814  0.00  0.00    -0.146 I 
ENDROOT
TORSDOF 0
ENDMDL
