MODEL 1
REMARK minimizedAffinity 8.20905781
REMARK minimizedRMSD -1
REMARK  0 active torsions:
REMARK  status: ('A' for Active; 'I' for Inactive)
ROOT
ATOM      1  C4' PXY d   1       5.965  -4.535  -0.874  0.00  0.00     0.077 C 
ATOM      2  C1' PXY d   1       0.794  -2.495   0.714  0.00  0.00     0.077 C 
ATOM      3  C1  PXY d   1       2.154  -3.018   0.295  0.00  0.00    -0.082 A 
ATOM      4  C2  PXY d   1       2.272  -4.263  -0.137  0.00  0.00     0.003 A 
ATOM      5  C3  PXY d   1       3.499  -4.762  -0.489  0.00  0.00     0.003 A 
ATOM      6  C4  PXY d   1       4.610  -3.962  -0.450  0.00  0.00    -0.082 A 
ATOM      7  C5  PXY d   1       4.496  -2.687  -0.021  0.00  0.00     0.003 A 
ATOM      8  C6  PXY d   1       3.248  -2.212   0.372  0.00  0.00     0.003 A 
ENDROOT
TORSDOF 0
ENDMDL
