MODEL 1
REMARK minimizedAffinity 5.08998919
REMARK minimizedRMSD -1
REMARK  0 active torsions:
REMARK  status: ('A' for Active; 'I' for Inactive)
ROOT
ATOM      1  C4' PXY d   1       0.597  -2.471   1.910  0.00  0.00     0.077 C 
ATOM      2  C1' PXY d   1      -3.722   1.140   3.221  0.00  0.00     0.077 C 
ATOM      3  C1  PXY d   1      -2.581   0.200   2.885  0.00  0.00    -0.082 A 
ATOM      4  C2  PXY d   1      -2.601  -0.471   1.745  0.00  0.00     0.003 A 
ATOM      5  C3  PXY d   1      -1.594  -1.350   1.440  0.00  0.00     0.003 A 
ATOM      6  C4  PXY d   1      -0.528  -1.504   2.287  0.00  0.00    -0.082 A 
ATOM      7  C5  PXY d   1      -0.496  -0.815   3.447  0.00  0.00     0.003 A 
ATOM      8  C6  PXY d   1      -1.548   0.041   3.757  0.00  0.00     0.003 A 
ENDROOT
TORSDOF 0
ENDMDL
