MODEL 1
REMARK minimizedAffinity 3.15678358
REMARK minimizedRMSD -1
REMARK  0 active torsions:
REMARK  status: ('A' for Active; 'I' for Inactive)
ROOT
ATOM      1  C4' PXY d   1       5.961   3.626   2.246  0.00  0.00     0.077 C 
ATOM      2  C1' PXY d   1       5.993   1.119  -2.963  0.00  0.00     0.077 C 
ATOM      3  C1  PXY d   1       5.990   1.787  -1.602  0.00  0.00    -0.082 A 
ATOM      4  C2  PXY d   1       5.976   1.043  -0.508  0.00  0.00     0.003 A 
ATOM      5  C3  PXY d   1       5.940   1.631   0.730  0.00  0.00     0.003 A 
ATOM      6  C4  PXY d   1       5.974   2.994   0.851  0.00  0.00    -0.082 A 
ATOM      7  C5  PXY d   1       6.000   3.760  -0.261  0.00  0.00     0.003 A 
ATOM      8  C6  PXY d   1       5.994   3.144  -1.509  0.00  0.00     0.003 A 
ENDROOT
TORSDOF 0
ENDMDL
