MODEL 1
REMARK minimizedAffinity 7.32709312
REMARK minimizedRMSD -1
REMARK  0 active torsions:
REMARK  status: ('A' for Active; 'I' for Inactive)
ROOT
ATOM      1  C4' PXY d   1      -2.858   1.166  -1.781  0.00  0.00     0.077 C 
ATOM      2  C1' PXY d   1       1.036   4.418  -4.552  0.00  0.00     0.077 C 
ATOM      3  C1  PXY d   1       0.006   3.574  -3.827  0.00  0.00    -0.082 A 
ATOM      4  C2  PXY d   1       0.399   2.705  -2.911  0.00  0.00     0.003 A 
ATOM      5  C3  PXY d   1      -0.516   1.911  -2.269  0.00  0.00     0.003 A 
ATOM      6  C4  PXY d   1      -1.853   2.045  -2.530  0.00  0.00    -0.082 A 
ATOM      7  C5  PXY d   1      -2.264   2.938  -3.456  0.00  0.00     0.003 A 
ATOM      8  C6  PXY d   1      -1.315   3.705  -4.126  0.00  0.00     0.003 A 
ENDROOT
TORSDOF 0
ENDMDL
