MODEL 1
REMARK minimizedAffinity 4.10260963
REMARK minimizedRMSD -1
REMARK  0 active torsions:
REMARK  status: ('A' for Active; 'I' for Inactive)
ROOT
ATOM      1  C4' PXY d   1       2.041  -2.662   1.550  0.00  0.00     0.077 C 
ATOM      2  C1' PXY d   1      -2.419   0.436   3.531  0.00  0.00     0.077 C 
ATOM      3  C1  PXY d   1      -1.242  -0.365   3.010  0.00  0.00    -0.082 A 
ATOM      4  C2  PXY d   1      -1.455  -1.526   2.411  0.00  0.00     0.003 A 
ATOM      5  C3  PXY d   1      -0.401  -2.279   1.963  0.00  0.00     0.003 A 
ATOM      6  C4  PXY d   1       0.882  -1.815   2.082  0.00  0.00    -0.082 A 
ATOM      7  C5  PXY d   1       1.107  -0.627   2.683  0.00  0.00     0.003 A 
ATOM      8  C6  PXY d   1       0.025   0.103   3.168  0.00  0.00     0.003 A 
ENDROOT
TORSDOF 0
ENDMDL
