MODEL 1
REMARK minimizedAffinity 7.24477816
REMARK minimizedRMSD -1
REMARK  0 active torsions:
REMARK  status: ('A' for Active; 'I' for Inactive)
ROOT
ATOM      1  C4' PXY d   1      -1.424   1.876  -2.664  0.00  0.00     0.077 C 
ATOM      2  C1' PXY d   1       0.906  -2.386   0.469  0.00  0.00     0.077 C 
ATOM      3  C1  PXY d   1       0.291  -1.277  -0.361  0.00  0.00    -0.082 A 
ATOM      4  C2  PXY d   1       0.787  -0.053  -0.288  0.00  0.00     0.003 A 
ATOM      5  C3  PXY d   1       0.222   0.969  -1.008  0.00  0.00     0.003 A 
ATOM      6  C4  PXY d   1      -0.828   0.724  -1.851  0.00  0.00    -0.082 A 
ATOM      7  C5  PXY d   1      -1.334  -0.525  -1.939  0.00  0.00     0.003 A 
ATOM      8  C6  PXY d   1      -0.772  -1.539  -1.169  0.00  0.00     0.003 A 
ENDROOT
TORSDOF 0
ENDMDL
