MODEL 1
REMARK minimizedAffinity 10.8744802
REMARK minimizedRMSD -1
REMARK  0 active torsions:
REMARK  status: ('A' for Active; 'I' for Inactive)
ROOT
ATOM      1  C4' PXY d   1       1.883  -5.497   1.831  0.00  0.00     0.077 C 
ATOM      2  C1' PXY d   1       2.241   0.138   0.594  0.00  0.00     0.077 C 
ATOM      3  C1  PXY d   1       2.158  -1.342   0.912  0.00  0.00    -0.082 A 
ATOM      4  C2  PXY d   1       0.983  -1.889   1.176  0.00  0.00     0.003 A 
ATOM      5  C3  PXY d   1       0.894  -3.220   1.497  0.00  0.00     0.003 A 
ATOM      6  C4  PXY d   1       2.013  -4.009   1.495  0.00  0.00    -0.082 A 
ATOM      7  C5  PXY d   1       3.214  -3.460   1.216  0.00  0.00     0.003 A 
ATOM      8  C6  PXY d   1       3.288  -2.099   0.933  0.00  0.00     0.003 A 
ENDROOT
TORSDOF 0
ENDMDL
