MODEL 1
REMARK minimizedAffinity 4.17750311
REMARK minimizedRMSD -1
REMARK  0 active torsions:
REMARK  status: ('A' for Active; 'I' for Inactive)
ROOT
ATOM      1  C4' PXY d   1       2.834  -4.060   2.711  0.00  0.00     0.077 C 
ATOM      2  C1' PXY d   1      -0.190  -0.102  -0.223  0.00  0.00     0.077 C 
ATOM      3  C1  PXY d   1       0.598  -1.135   0.558  0.00  0.00    -0.082 A 
ATOM      4  C2  PXY d   1       1.690  -1.663   0.028  0.00  0.00     0.003 A 
ATOM      5  C3  PXY d   1       2.397  -2.622   0.707  0.00  0.00     0.003 A 
ATOM      6  C4  PXY d   1       2.012  -3.006   1.963  0.00  0.00    -0.082 A 
ATOM      7  C5  PXY d   1       0.905  -2.466   2.515  0.00  0.00     0.003 A 
ATOM      8  C6  PXY d   1       0.179  -1.524   1.793  0.00  0.00     0.003 A 
ENDROOT
TORSDOF 0
ENDMDL
