MODEL 1
REMARK minimizedAffinity 11.3347635
REMARK minimizedRMSD -1
REMARK  0 active torsions:
REMARK  status: ('A' for Active; 'I' for Inactive)
ROOT
ATOM      1  C4' PXY d   1       2.962  -2.405   1.379  0.00  0.00     0.077 C 
ATOM      2  C1' PXY d   1      -2.251  -0.330   2.770  0.00  0.00     0.077 C 
ATOM      3  C1  PXY d   1      -0.878  -0.864   2.410  0.00  0.00    -0.082 A 
ATOM      4  C2  PXY d   1      -0.754  -1.738   1.425  0.00  0.00     0.003 A 
ATOM      5  C3  PXY d   1       0.476  -2.255   1.108  0.00  0.00     0.003 A 
ATOM      6  C4  PXY d   1       1.597  -1.832   1.771  0.00  0.00    -0.082 A 
ATOM      7  C5  PXY d   1       1.480  -0.933   2.770  0.00  0.00     0.003 A 
ATOM      8  C6  PXY d   1       0.217  -0.451   3.104  0.00  0.00     0.003 A 
ENDROOT
TORSDOF 0
ENDMDL
