MODEL 1
REMARK minimizedAffinity 5.95196867
REMARK minimizedRMSD -1
REMARK  0 active torsions:
REMARK  status: ('A' for Active; 'I' for Inactive)
ROOT
ATOM      1  C4' PXY d   1      -2.240  -5.256  -1.134  0.00  0.00     0.077 C 
ATOM      2  C1' PXY d   1      -3.049  -0.291  -3.982  0.00  0.00     0.077 C 
ATOM      3  C1  PXY d   1      -2.849  -1.592  -3.230  0.00  0.00    -0.082 A 
ATOM      4  C2  PXY d   1      -1.623  -2.003  -2.948  0.00  0.00     0.003 A 
ATOM      5  C3  PXY d   1      -1.423  -3.193  -2.297  0.00  0.00     0.003 A 
ATOM      6  C4  PXY d   1      -2.490  -3.944  -1.883  0.00  0.00    -0.082 A 
ATOM      7  C5  PXY d   1      -3.744  -3.527  -2.158  0.00  0.00     0.003 A 
ATOM      8  C6  PXY d   1      -3.925  -2.337  -2.857  0.00  0.00     0.003 A 
ENDROOT
TORSDOF 0
ENDMDL
