MODEL 1
REMARK minimizedAffinity 0.175588489
REMARK minimizedRMSD -1
REMARK  0 active torsions:
REMARK  status: ('A' for Active; 'I' for Inactive)
ROOT
ATOM      1  C4' PXY d   1       3.746  -4.356  -5.956  0.00  0.00     0.077 C 
ATOM      2  C1' PXY d   1       4.565   1.366  -5.986  0.00  0.00     0.077 C 
ATOM      3  C1  PXY d   1       4.362  -0.136  -5.984  0.00  0.00    -0.082 A 
ATOM      4  C2  PXY d   1       3.135  -0.630  -5.972  0.00  0.00     0.003 A 
ATOM      5  C3  PXY d   1       2.933  -1.986  -5.937  0.00  0.00     0.003 A 
ATOM      6  C4  PXY d   1       3.999  -2.846  -5.969  0.00  0.00    -0.082 A 
ATOM      7  C5  PXY d   1       5.254  -2.349  -5.992  0.00  0.00     0.003 A 
ATOM      8  C6  PXY d   1       5.437  -0.970  -5.985  0.00  0.00     0.003 A 
ENDROOT
TORSDOF 0
ENDMDL
