MODEL 1
REMARK minimizedAffinity 12.6835566
REMARK minimizedRMSD -1
REMARK  0 active torsions:
REMARK  status: ('A' for Active; 'I' for Inactive)
ROOT
ATOM      1  C4' PXY d   1       0.640   0.279  -0.199  0.00  0.00     0.077 C 
ATOM      2  C1' PXY d   1      -0.860   5.757   0.880  0.00  0.00     0.077 C 
ATOM      3  C1  PXY d   1      -0.458   4.324   0.588  0.00  0.00    -0.082 A 
ATOM      4  C2  PXY d   1      -1.299   3.340   0.862  0.00  0.00     0.003 A 
ATOM      5  C3  PXY d   1      -0.940   2.037   0.634  0.00  0.00     0.003 A 
ATOM      6  C4  PXY d   1       0.273   1.741   0.070  0.00  0.00    -0.082 A 
ATOM      7  C5  PXY d   1       1.132   2.740  -0.222  0.00  0.00     0.003 A 
ATOM      8  C6  PXY d   1       0.764   4.054   0.055  0.00  0.00     0.003 A 
ENDROOT
TORSDOF 0
ENDMDL
