MODEL 1
REMARK minimizedAffinity -1.54862726
REMARK minimizedRMSD -1
REMARK  0 active torsions:
REMARK  status: ('A' for Active; 'I' for Inactive)
ROOT
ATOM      1  C4' PXY d   1       1.435   3.903  -0.492  0.00  0.00     0.077 C 
ATOM      2  C1' PXY d   1      -0.135  -1.090   1.960  0.00  0.00     0.077 C 
ATOM      3  C1  PXY d   1       0.288   0.219   1.324  0.00  0.00    -0.082 A 
ATOM      4  C2  PXY d   1      -0.628   1.016   0.797  0.00  0.00     0.003 A 
ATOM      5  C3  PXY d   1      -0.260   2.189   0.190  0.00  0.00     0.003 A 
ATOM      6  C4  PXY d   1       1.053   2.575   0.168  0.00  0.00    -0.082 A 
ATOM      7  C5  PXY d   1       1.992   1.773   0.713  0.00  0.00     0.003 A 
ATOM      8  C6  PXY d   1       1.602   0.567   1.289  0.00  0.00     0.003 A 
ENDROOT
TORSDOF 0
ENDMDL
