MODEL 1
REMARK minimizedAffinity 8.16476727
REMARK minimizedRMSD -1
REMARK  0 active torsions:
REMARK  status: ('A' for Active; 'I' for Inactive)
ROOT
ATOM      1  C4' PXY d   1      -2.214   1.514  -1.770  0.00  0.00     0.077 C 
ATOM      2  C1' PXY d   1       2.697   1.229   1.265  0.00  0.00     0.077 C 
ATOM      3  C1  PXY d   1       1.409   1.290   0.469  0.00  0.00    -0.082 A 
ATOM      4  C2  PXY d   1       1.135   2.367  -0.250  0.00  0.00     0.003 A 
ATOM      5  C3  PXY d   1      -0.040   2.452  -0.951  0.00  0.00     0.003 A 
ATOM      6  C4  PXY d   1      -0.920   1.404  -0.958  0.00  0.00    -0.082 A 
ATOM      7  C5  PXY d   1      -0.644   0.298  -0.235  0.00  0.00     0.003 A 
ATOM      8  C6  PXY d   1       0.536   0.247   0.502  0.00  0.00     0.003 A 
ENDROOT
TORSDOF 0
ENDMDL
