MODEL 1
REMARK minimizedAffinity 6.19408131
REMARK minimizedRMSD -1
REMARK  0 active torsions:
REMARK  status: ('A' for Active; 'I' for Inactive)
ROOT
ATOM      1  C4' PXY d   1       0.792  -1.225   0.712  0.00  0.00     0.077 C 
ATOM      2  C1' PXY d   1       3.296   3.008   3.750  0.00  0.00     0.077 C 
ATOM      3  C1  PXY d   1       2.636   1.906   2.945  0.00  0.00    -0.082 A 
ATOM      4  C2  PXY d   1       2.252   0.794   3.549  0.00  0.00     0.003 A 
ATOM      5  C3  PXY d   1       1.682  -0.225   2.830  0.00  0.00     0.003 A 
ATOM      6  C4  PXY d   1       1.454  -0.083   1.487  0.00  0.00    -0.082 A 
ATOM      7  C5  PXY d   1       1.834   1.054   0.865  0.00  0.00     0.003 A 
ATOM      8  C6  PXY d   1       2.448   2.060   1.606  0.00  0.00     0.003 A 
ENDROOT
TORSDOF 0
ENDMDL
