MODEL 1
REMARK minimizedAffinity 9.10618401
REMARK minimizedRMSD -1
REMARK  0 active torsions:
REMARK  status: ('A' for Active; 'I' for Inactive)
ROOT
ATOM      1  C4' PXY d   1       1.135  -1.313   1.052  0.00  0.00     0.077 C 
ATOM      2  C1' PXY d   1       3.410   3.279   3.726  0.00  0.00     0.077 C 
ATOM      3  C1  PXY d   1       2.808   2.082   3.016  0.00  0.00    -0.082 A 
ATOM      4  C2  PXY d   1       2.612   0.956   3.682  0.00  0.00     0.003 A 
ATOM      5  C3  PXY d   1       2.098  -0.145   3.048  0.00  0.00     0.003 A 
ATOM      6  C4  PXY d   1       1.731  -0.077   1.730  0.00  0.00    -0.082 A 
ATOM      7  C5  PXY d   1       1.917   1.071   1.046  0.00  0.00     0.003 A 
ATOM      8  C6  PXY d   1       2.479   2.166   1.698  0.00  0.00     0.003 A 
ENDROOT
TORSDOF 0
ENDMDL
