MODEL 1
REMARK minimizedAffinity -4.45600796
REMARK minimizedRMSD -1
REMARK  0 active torsions:
REMARK  status: ('A' for Active; 'I' for Inactive)
ROOT
ATOM      1  C4' PXY d   1       3.460  -0.044  -5.999  0.00  0.00     0.077 C 
ATOM      2  C1' PXY d   1       4.723  -4.895  -3.120  0.00  0.00     0.077 C 
ATOM      3  C1  PXY d   1       4.392  -3.630  -3.886  0.00  0.00    -0.082 A 
ATOM      4  C2  PXY d   1       4.668  -2.451  -3.352  0.00  0.00     0.003 A 
ATOM      5  C3  PXY d   1       4.346  -1.296  -4.018  0.00  0.00     0.003 A 
ATOM      6  C4  PXY d   1       3.785  -1.348  -5.266  0.00  0.00    -0.082 A 
ATOM      7  C5  PXY d   1       3.510  -2.548  -5.822  0.00  0.00     0.003 A 
ATOM      8  C6  PXY d   1       3.807  -3.708  -5.112  0.00  0.00     0.003 A 
ENDROOT
TORSDOF 0
ENDMDL
