MODEL 1
REMARK minimizedAffinity 7.08321142
REMARK minimizedRMSD -1
REMARK  0 active torsions:
REMARK  status: ('A' for Active; 'I' for Inactive)
ROOT
ATOM      1  C4' PXY d   1       2.215  -0.712   3.623  0.00  0.00     0.077 C 
ATOM      2  C1' PXY d   1       1.000   2.539  -1.000  0.00  0.00     0.077 C 
ATOM      3  C1  PXY d   1       1.331   1.691   0.212  0.00  0.00    -0.082 A 
ATOM      4  C2  PXY d   1       0.602   0.619   0.479  0.00  0.00     0.003 A 
ATOM      5  C3  PXY d   1       0.867  -0.141   1.589  0.00  0.00     0.003 A 
ATOM      6  C4  PXY d   1       1.923   0.169   2.405  0.00  0.00    -0.082 A 
ATOM      7  C5  PXY d   1       2.678   1.254   2.132  0.00  0.00     0.003 A 
ATOM      8  C6  PXY d   1       2.367   2.036   1.024  0.00  0.00     0.003 A 
ENDROOT
TORSDOF 0
ENDMDL
