MODEL 1
REMARK minimizedAffinity 3.58218789
REMARK minimizedRMSD -1
REMARK  0 active torsions:
REMARK  status: ('A' for Active; 'I' for Inactive)
ROOT
ATOM      1  C4' PXY d   1      -3.696   2.983  -3.430  0.00  0.00     0.077 C 
ATOM      2  C1' PXY d   1      -0.471  -1.412  -1.506  0.00  0.00     0.077 C 
ATOM      3  C1  PXY d   1      -1.313  -0.262  -2.022  0.00  0.00    -0.082 A 
ATOM      4  C2  PXY d   1      -1.629   0.734  -1.211  0.00  0.00     0.003 A 
ATOM      5  C3  PXY d   1      -2.416   1.766  -1.652  0.00  0.00     0.003 A 
ATOM      6  C4  PXY d   1      -2.840   1.806  -2.954  0.00  0.00    -0.082 A 
ATOM      7  C5  PXY d   1      -2.513   0.799  -3.791  0.00  0.00     0.003 A 
ATOM      8  C6  PXY d   1      -1.747  -0.260  -3.312  0.00  0.00     0.003 A 
ENDROOT
TORSDOF 0
ENDMDL
