MODEL 1
REMARK minimizedAffinity 8.43679905
REMARK minimizedRMSD -1
REMARK  0 active torsions:
REMARK  status: ('A' for Active; 'I' for Inactive)
ROOT
ATOM      1  C4' PXY d   1       0.385   3.018   0.005  0.00  0.00     0.077 C 
ATOM      2  C1' PXY d   1       2.824  -1.127   3.211  0.00  0.00     0.077 C 
ATOM      3  C1  PXY d   1       2.178  -0.049   2.363  0.00  0.00    -0.082 A 
ATOM      4  C2  PXY d   1       2.776   1.124   2.229  0.00  0.00     0.003 A 
ATOM      5  C3  PXY d   1       2.190   2.120   1.492  0.00  0.00     0.003 A 
ATOM      6  C4  PXY d   1       1.005   1.897   0.843  0.00  0.00    -0.082 A 
ATOM      7  C5  PXY d   1       0.394   0.700   0.966  0.00  0.00     0.003 A 
ATOM      8  C6  PXY d   1       0.985  -0.285   1.752  0.00  0.00     0.003 A 
ENDROOT
TORSDOF 0
ENDMDL
