MODEL 1
REMARK minimizedAffinity 5.28501129
REMARK minimizedRMSD -1
REMARK  0 active torsions:
REMARK  status: ('A' for Active; 'I' for Inactive)
ROOT
ATOM      1  C4' PXY d   1      -0.016  -1.752   1.078  0.00  0.00     0.077 C 
ATOM      2  C1' PXY d   1       0.718   3.789  -0.394  0.00  0.00     0.077 C 
ATOM      3  C1  PXY d   1       0.513   2.338  -0.006  0.00  0.00    -0.082 A 
ATOM      4  C2  PXY d   1       1.544   1.620   0.408  0.00  0.00     0.003 A 
ATOM      5  C3  PXY d   1       1.383   0.298   0.733  0.00  0.00     0.003 A 
ATOM      6  C4  PXY d   1       0.143  -0.281   0.685  0.00  0.00    -0.082 A 
ATOM      7  C5  PXY d   1      -0.916   0.448   0.273  0.00  0.00     0.003 A 
ATOM      8  C6  PXY d   1      -0.723   1.777  -0.091  0.00  0.00     0.003 A 
ENDROOT
TORSDOF 0
ENDMDL
