MODEL 1
REMARK minimizedAffinity 8.31820107
REMARK minimizedRMSD -1
REMARK  1 active torsions:
REMARK  status: ('A' for Active; 'I' for Inactive)
REMARK    1  A    between atoms: C1_2  and  C2_3 
ROOT
ATOM      1  C2  UNL d   1       2.280  -3.210   0.555  0.00  0.00    -0.081 A 
ATOM      2  C3  UNL d   1       2.852  -3.665   1.749  0.00  0.00     0.006 A 
ATOM      3  C4  UNL d   1       3.952  -4.525   1.726  0.00  0.00     0.002 A 
ATOM      4  C5  UNL d   1       4.504  -4.938   0.508  0.00  0.00    -0.080 A 
ATOM      5  C6  UNL d   1       5.704  -5.837   0.469  0.00  0.00     0.076 C 
ATOM      6  C7  UNL d   1       3.923  -4.497  -0.685  0.00  0.00     0.002 A 
ATOM      7  C8  UNL d   1       2.822  -3.638  -0.662  0.00  0.00     0.006 A 
ENDROOT
BRANCH   1   8
ATOM      8  C1  UNL d   1       1.134  -2.231   0.577  0.00  0.00     0.054 C 
ATOM      9  C   UNL d   1       1.052  -1.506   1.913  0.00  0.00     0.018 C 
ENDBRANCH   1   8
TORSDOF 1
ENDMDL
