MODEL 1
REMARK minimizedAffinity 8.70854473
REMARK minimizedRMSD -1
REMARK  1 active torsions:
REMARK  status: ('A' for Active; 'I' for Inactive)
REMARK    1  A    between atoms: C1_2  and  C2_3 
ROOT
ATOM      1  C2  UNL d   1       1.101  -2.321   1.856  0.00  0.00    -0.081 A 
ATOM      2  C3  UNL d   1      -0.229  -2.738   1.992  0.00  0.00     0.006 A 
ATOM      3  C4  UNL d   1      -1.157  -1.938   2.663  0.00  0.00     0.002 A 
ATOM      4  C5  UNL d   1      -0.773  -0.705   3.201  0.00  0.00    -0.080 A 
ATOM      5  C6  UNL d   1      -1.767   0.178   3.897  0.00  0.00     0.076 C 
ATOM      6  C7  UNL d   1       0.559  -0.296   3.081  0.00  0.00     0.002 A 
ATOM      7  C8  UNL d   1       1.488  -1.096   2.411  0.00  0.00     0.006 A 
ENDROOT
BRANCH   1   8
ATOM      8  C1  UNL d   1       2.088  -3.152   1.078  0.00  0.00     0.054 C 
ATOM      9  C   UNL d   1       2.582  -2.412  -0.157  0.00  0.00     0.018 C 
ENDBRANCH   1   8
TORSDOF 1
ENDMDL
