MODEL 1
REMARK minimizedAffinity 11.7961407
REMARK minimizedRMSD -1
REMARK  1 active torsions:
REMARK  status: ('A' for Active; 'I' for Inactive)
REMARK    1  A    between atoms: C1_2  and  C2_3 
ROOT
ATOM      1  C2  UNL d   1       2.461   3.381   2.570  0.00  0.00    -0.081 A 
ATOM      2  C3  UNL d   1       1.499   4.394   2.659  0.00  0.00     0.006 A 
ATOM      3  C4  UNL d   1       1.457   5.236   3.773  0.00  0.00     0.002 A 
ATOM      4  C5  UNL d   1       2.381   5.084   4.812  0.00  0.00    -0.080 A 
ATOM      5  C6  UNL d   1       2.367   6.000   6.000  0.00  0.00     0.076 C 
ATOM      6  C7  UNL d   1       3.332   4.060   4.732  0.00  0.00     0.002 A 
ATOM      7  C8  UNL d   1       3.373   3.218   3.618  0.00  0.00     0.006 A 
ENDROOT
BRANCH   1   8
ATOM      8  C1  UNL d   1       2.549   2.514   1.340  0.00  0.00     0.054 C 
ATOM      9  C   UNL d   1       3.964   2.492   0.779  0.00  0.00     0.018 C 
ENDBRANCH   1   8
TORSDOF 1
ENDMDL
