MODEL 1
REMARK minimizedAffinity 10.6268482
REMARK minimizedRMSD -1
REMARK  1 active torsions:
REMARK  status: ('A' for Active; 'I' for Inactive)
REMARK    1  A    between atoms: C1_2  and  C2_3 
ROOT
ATOM      1  C2  UNL d   1      -3.991   2.161   4.659  0.00  0.00    -0.081 A 
ATOM      2  C3  UNL d   1      -4.747   2.932   5.551  0.00  0.00     0.006 A 
ATOM      3  C4  UNL d   1      -4.273   4.168   5.997  0.00  0.00     0.002 A 
ATOM      4  C5  UNL d   1      -3.040   4.657   5.552  0.00  0.00    -0.080 A 
ATOM      5  C6  UNL d   1      -2.533   5.996   5.999  0.00  0.00     0.076 C 
ATOM      6  C7  UNL d   1      -2.277   3.880   4.675  0.00  0.00     0.002 A 
ATOM      7  C8  UNL d   1      -2.750   2.643   4.229  0.00  0.00     0.006 A 
ENDROOT
BRANCH   1   8
ATOM      8  C1  UNL d   1      -4.529   0.858   4.126  0.00  0.00     0.054 C 
ATOM      9  C   UNL d   1      -4.872   0.964   2.647  0.00  0.00     0.018 C 
ENDBRANCH   1   8
TORSDOF 1
ENDMDL
