MODEL 1
REMARK minimizedAffinity 6.22412872
REMARK minimizedRMSD -1
REMARK  1 active torsions:
REMARK  status: ('A' for Active; 'I' for Inactive)
REMARK    1  A    between atoms: C1_2  and  C2_3 
ROOT
ATOM      1  C2  UNL d   1       0.470  -2.845   1.894  0.00  0.00    -0.081 A 
ATOM      2  C3  UNL d   1       1.764  -2.317   1.819  0.00  0.00     0.006 A 
ATOM      3  C4  UNL d   1       2.810  -3.078   1.293  0.00  0.00     0.002 A 
ATOM      4  C5  UNL d   1       2.578  -4.377   0.826  0.00  0.00    -0.080 A 
ATOM      5  C6  UNL d   1       3.686  -5.194   0.232  0.00  0.00     0.076 C 
ATOM      6  C7  UNL d   1       1.288  -4.911   0.918  0.00  0.00     0.002 A 
ATOM      7  C8  UNL d   1       0.242  -4.150   1.444  0.00  0.00     0.006 A 
ENDROOT
BRANCH   1   8
ATOM      8  C1  UNL d   1      -0.673  -2.002   2.401  0.00  0.00     0.054 C 
ATOM      9  C   UNL d   1      -1.947  -2.824   2.540  0.00  0.00     0.018 C 
ENDBRANCH   1   8
TORSDOF 1
ENDMDL
