MODEL 1
REMARK minimizedAffinity 4.13081026
REMARK minimizedRMSD -1
REMARK  1 active torsions:
REMARK  status: ('A' for Active; 'I' for Inactive)
REMARK    1  A    between atoms: C1_2  and  C2_3 
ROOT
ATOM      1  C2  UNL d   1       0.164  -2.776   2.142  0.00  0.00    -0.081 A 
ATOM      2  C3  UNL d   1       0.358  -4.163   2.148  0.00  0.00     0.006 A 
ATOM      3  C4  UNL d   1       1.493  -4.721   1.555  0.00  0.00     0.002 A 
ATOM      4  C5  UNL d   1       2.456  -3.903   0.955  0.00  0.00    -0.080 A 
ATOM      5  C6  UNL d   1       3.694  -4.488   0.342  0.00  0.00     0.076 C 
ATOM      6  C7  UNL d   1       2.254  -2.519   0.934  0.00  0.00     0.002 A 
ATOM      7  C8  UNL d   1       1.119  -1.960   1.526  0.00  0.00     0.006 A 
ENDROOT
BRANCH   1   8
ATOM      8  C1  UNL d   1      -1.026  -2.165   2.837  0.00  0.00     0.054 C 
ATOM      9  C   UNL d   1      -1.825  -3.218   3.593  0.00  0.00     0.018 C 
ENDBRANCH   1   8
TORSDOF 1
ENDMDL
