MODEL 1
REMARK minimizedAffinity -0.422348469
REMARK minimizedRMSD -1
REMARK  1 active torsions:
REMARK  status: ('A' for Active; 'I' for Inactive)
REMARK    1  A    between atoms: C1_2  and  C2_3 
ROOT
ATOM      1  C2  UNL d   1      -4.120   3.563   5.431  0.00  0.00    -0.081 A 
ATOM      2  C3  UNL d   1      -3.558   2.945   4.308  0.00  0.00     0.006 A 
ATOM      3  C4  UNL d   1      -4.156   1.813   3.748  0.00  0.00     0.002 A 
ATOM      4  C5  UNL d   1      -5.330   1.286   4.297  0.00  0.00    -0.080 A 
ATOM      5  C6  UNL d   1      -5.999   0.090   3.688  0.00  0.00     0.076 C 
ATOM      6  C7  UNL d   1      -5.882   1.893   5.431  0.00  0.00     0.002 A 
ATOM      7  C8  UNL d   1      -5.284   3.024   5.991  0.00  0.00     0.006 A 
ENDROOT
BRANCH   1   8
ATOM      8  C1  UNL d   1      -3.513   4.821   5.998  0.00  0.00     0.054 C 
ATOM      9  C   UNL d   1      -4.510   5.971   5.983  0.00  0.00     0.018 C 
ENDBRANCH   1   8
TORSDOF 1
ENDMDL
