MODEL 1
REMARK minimizedAffinity 1.24474001
REMARK minimizedRMSD -1
REMARK  1 active torsions:
REMARK  status: ('A' for Active; 'I' for Inactive)
REMARK    1  A    between atoms: C1_2  and  C2_3 
ROOT
ATOM      1  C2  UNL d   1       3.763  -2.325   3.916  0.00  0.00    -0.081 A 
ATOM      2  C3  UNL d   1       2.696  -1.616   3.350  0.00  0.00     0.006 A 
ATOM      3  C4  UNL d   1       2.211  -1.958   2.085  0.00  0.00     0.002 A 
ATOM      4  C5  UNL d   1       2.779  -3.017   1.369  0.00  0.00    -0.080 A 
ATOM      5  C6  UNL d   1       2.248  -3.413   0.024  0.00  0.00     0.076 C 
ATOM      6  C7  UNL d   1       3.856  -3.714   1.927  0.00  0.00     0.002 A 
ATOM      7  C8  UNL d   1       4.342  -3.373   3.192  0.00  0.00     0.006 A 
ENDROOT
BRANCH   1   8
ATOM      8  C1  UNL d   1       4.246  -2.001   5.307  0.00  0.00     0.054 C 
ATOM      9  C   UNL d   1       5.747  -1.749   5.327  0.00  0.00     0.018 C 
ENDBRANCH   1   8
TORSDOF 1
ENDMDL
