MODEL 1
REMARK minimizedAffinity 5.23023605
REMARK minimizedRMSD -1
REMARK  1 active torsions:
REMARK  status: ('A' for Active; 'I' for Inactive)
REMARK    1  A    between atoms: C1_2  and  C2_3 
ROOT
ATOM      1  C2  UNL d   1       3.962  -3.628   2.828  0.00  0.00    -0.081 A 
ATOM      2  C3  UNL d   1       3.938  -4.281   1.590  0.00  0.00     0.006 A 
ATOM      3  C4  UNL d   1       3.224  -3.741   0.518  0.00  0.00     0.002 A 
ATOM      4  C5  UNL d   1       2.528  -2.536   0.663  0.00  0.00    -0.080 A 
ATOM      5  C6  UNL d   1       1.782  -1.931  -0.488  0.00  0.00     0.076 C 
ATOM      6  C7  UNL d   1       2.538  -1.892   1.905  0.00  0.00     0.002 A 
ATOM      7  C8  UNL d   1       3.251  -2.432   2.978  0.00  0.00     0.006 A 
ENDROOT
BRANCH   1   8
ATOM      8  C1  UNL d   1       4.785  -4.173   3.967  0.00  0.00     0.054 C 
ATOM      9  C   UNL d   1       4.835  -3.195   5.132  0.00  0.00     0.018 C 
ENDBRANCH   1   8
TORSDOF 1
ENDMDL
