MODEL 1
REMARK minimizedAffinity 9.93027878
REMARK minimizedRMSD -1
REMARK  1 active torsions:
REMARK  status: ('A' for Active; 'I' for Inactive)
REMARK    1  A    between atoms: C1_2  and  C2_3 
ROOT
ATOM      1  C2  UNL d   1       0.896  -2.437   1.224  0.00  0.00    -0.081 A 
ATOM      2  C3  UNL d   1       2.105  -1.955   0.707  0.00  0.00     0.006 A 
ATOM      3  C4  UNL d   1       3.124  -2.839   0.347  0.00  0.00     0.002 A 
ATOM      4  C5  UNL d   1       2.949  -4.220   0.491  0.00  0.00    -0.080 A 
ATOM      5  C6  UNL d   1       4.024  -5.182   0.080  0.00  0.00     0.076 C 
ATOM      6  C7  UNL d   1       1.749  -4.701   1.024  0.00  0.00     0.002 A 
ATOM      7  C8  UNL d   1       0.729  -3.817   1.385  0.00  0.00     0.006 A 
ENDROOT
BRANCH   1   8
ATOM      8  C1  UNL d   1      -0.230  -1.490   1.553  0.00  0.00     0.054 C 
ATOM      9  C   UNL d   1      -0.147  -1.011   2.996  0.00  0.00     0.018 C 
ENDBRANCH   1   8
TORSDOF 1
ENDMDL
