MODEL 1
REMARK minimizedAffinity 0.0466996357
REMARK minimizedRMSD -1
REMARK  1 active torsions:
REMARK  status: ('A' for Active; 'I' for Inactive)
REMARK    1  A    between atoms: N_2  and  C1_3 
ROOT
ATOM      1  C1  UNL d   1      -2.758   5.889  -4.339  0.00  0.00     0.143 A 
ATOM      2  C2  UNL d   1      -1.919   5.930  -5.457  0.00  0.00    -0.057 A 
ATOM      3  C3  UNL d   1      -0.526   5.970  -5.319  0.00  0.00     0.033 A 
ATOM      4  C4  UNL d   1       0.053   5.999  -4.055  0.00  0.00    -0.042 A 
ATOM      5  C5  UNL d   1      -0.763   5.985  -2.929  0.00  0.00     0.033 A 
ATOM      6  C6  UNL d   1      -2.153   5.938  -3.073  0.00  0.00    -0.057 A 
ENDROOT
BRANCH   1   7
ATOM      7  N   UNL d   1      -4.152   5.948  -4.410  0.00  0.00    -0.732 N 
ATOM      8  C   UNL d   1      -4.950   5.998  -3.203  0.00  0.00     0.284 C 
ATOM      9  H3  UNL d   1      -4.478   6.567  -5.149  0.00  0.00     0.395 HD
ENDBRANCH   1   7
TORSDOF 1
ENDMDL
