MODEL 1
REMARK minimizedAffinity -0.139389694
REMARK minimizedRMSD -1
REMARK  1 active torsions:
REMARK  status: ('A' for Active; 'I' for Inactive)
REMARK    1  A    between atoms: N_2  and  C1_3 
ROOT
ATOM      1  C1  UNL d   1      -1.263   5.921  -4.062  0.00  0.00     0.143 A 
ATOM      2  C2  UNL d   1      -0.585   5.940  -2.838  0.00  0.00    -0.057 A 
ATOM      3  C3  UNL d   1      -1.280   5.961  -1.623  0.00  0.00     0.033 A 
ATOM      4  C4  UNL d   1      -2.670   5.992  -1.611  0.00  0.00    -0.042 A 
ATOM      5  C5  UNL d   1      -3.365   5.999  -2.815  0.00  0.00     0.033 A 
ATOM      6  C6  UNL d   1      -2.666   5.972  -4.025  0.00  0.00    -0.057 A 
ENDROOT
BRANCH   1   7
ATOM      7  N   UNL d   1      -0.629   6.000  -5.304  0.00  0.00    -0.732 N 
ATOM      8  C   UNL d   1       0.756   5.606  -5.451  0.00  0.00     0.284 C 
ATOM      9  H3  UNL d   1      -1.231   5.697  -6.067  0.00  0.00     0.395 HD
ENDBRANCH   1   7
TORSDOF 1
ENDMDL
