MODEL 1
REMARK minimizedAffinity 2.09334898
REMARK minimizedRMSD -1
REMARK  1 active torsions:
REMARK  status: ('A' for Active; 'I' for Inactive)
REMARK    1  A    between atoms: N_2  and  C1_3 
ROOT
ATOM      1  C1  UNL d   1      -1.876   6.000  -4.277  0.00  0.00     0.143 A 
ATOM      2  C2  UNL d   1      -3.274   5.972  -4.234  0.00  0.00    -0.057 A 
ATOM      3  C3  UNL d   1      -3.963   5.983  -3.016  0.00  0.00     0.033 A 
ATOM      4  C4  UNL d   1      -3.263   5.994  -1.814  0.00  0.00    -0.042 A 
ATOM      5  C5  UNL d   1      -1.873   5.996  -1.832  0.00  0.00     0.033 A 
ATOM      6  C6  UNL d   1      -1.191   5.991  -3.052  0.00  0.00    -0.057 A 
ENDROOT
BRANCH   1   7
ATOM      7  N   UNL d   1      -1.132   5.890  -5.455  0.00  0.00    -0.732 N 
ATOM      8  C   UNL d   1       0.315   5.885  -5.414  0.00  0.00     0.284 C 
ATOM      9  H3  UNL d   1      -1.532   5.219  -6.106  0.00  0.00     0.395 HD
ENDBRANCH   1   7
TORSDOF 1
ENDMDL
