MODEL 1
REMARK minimizedAffinity 0.651075423
REMARK minimizedRMSD -1
REMARK  1 active torsions:
REMARK  status: ('A' for Active; 'I' for Inactive)
REMARK    1  A    between atoms: N_2  and  C1_3 
ROOT
ATOM      1  C1  UNL d   1      -2.365   5.905  -3.168  0.00  0.00     0.143 A 
ATOM      2  C2  UNL d   1      -2.736   5.879  -4.517  0.00  0.00    -0.057 A 
ATOM      3  C3  UNL d   1      -1.774   5.886  -5.535  0.00  0.00     0.033 A 
ATOM      4  C4  UNL d   1      -0.421   5.948  -5.220  0.00  0.00    -0.042 A 
ATOM      5  C5  UNL d   1      -0.030   6.000  -3.887  0.00  0.00     0.033 A 
ATOM      6  C6  UNL d   1      -0.995   5.986  -2.875  0.00  0.00    -0.057 A 
ENDROOT
BRANCH   1   7
ATOM      7  N   UNL d   1      -3.276   6.000  -2.113  0.00  0.00    -0.732 N 
ATOM      8  C   UNL d   1      -2.817   5.999  -0.741  0.00  0.00     0.284 C 
ATOM      9  H3  UNL d   1      -4.021   6.666  -2.302  0.00  0.00     0.395 HD
ENDBRANCH   1   7
TORSDOF 1
ENDMDL
