MODEL 1
REMARK minimizedAffinity -2.49233603
REMARK minimizedRMSD -1
REMARK  1 active torsions:
REMARK  status: ('A' for Active; 'I' for Inactive)
REMARK    1  A    between atoms: N_2  and  C1_3 
ROOT
ATOM      1  C1  UNL d   1      -0.941   5.983  -4.777  0.00  0.00     0.143 A 
ATOM      2  C2  UNL d   1      -2.326   5.935  -4.963  0.00  0.00    -0.057 A 
ATOM      3  C3  UNL d   1      -3.206   5.947  -3.873  0.00  0.00     0.033 A 
ATOM      4  C4  UNL d   1      -2.712   5.977  -2.573  0.00  0.00    -0.042 A 
ATOM      5  C5  UNL d   1      -1.337   6.000  -2.364  0.00  0.00     0.033 A 
ATOM      6  C6  UNL d   1      -0.464   5.995  -3.457  0.00  0.00    -0.057 A 
ENDROOT
BRANCH   1   7
ATOM      7  N   UNL d   1      -0.013   5.875  -5.816  0.00  0.00    -0.732 N 
ATOM      8  C   UNL d   1       1.406   5.990  -5.552  0.00  0.00     0.284 C 
ATOM      9  H3  UNL d   1      -0.254   5.141  -6.478  0.00  0.00     0.395 HD
ENDBRANCH   1   7
TORSDOF 1
ENDMDL
