MODEL 1
REMARK minimizedAffinity -2.53683305
REMARK minimizedRMSD -1
REMARK  1 active torsions:
REMARK  status: ('A' for Active; 'I' for Inactive)
REMARK    1  A    between atoms: N_2  and  C1_3 
ROOT
ATOM      1  C1  UNL d   1      -1.034   6.000  -3.698  0.00  0.00     0.143 A 
ATOM      2  C2  UNL d   1       0.300   5.985  -3.277  0.00  0.00    -0.057 A 
ATOM      3  C3  UNL d   1       1.351   5.902  -4.199  0.00  0.00     0.033 A 
ATOM      4  C4  UNL d   1       1.084   5.803  -5.560  0.00  0.00    -0.042 A 
ATOM      5  C5  UNL d   1      -0.235   5.791  -5.999  0.00  0.00     0.033 A 
ATOM      6  C6  UNL d   1      -1.280   5.880  -5.075  0.00  0.00    -0.057 A 
ENDROOT
BRANCH   1   7
ATOM      7  N   UNL d   1      -2.125   5.981  -2.825  0.00  0.00    -0.732 N 
ATOM      8  C   UNL d   1      -3.479   5.997  -3.337  0.00  0.00     0.284 C 
ATOM      9  H3  UNL d   1      -1.985   5.348  -2.041  0.00  0.00     0.395 HD
ENDBRANCH   1   7
TORSDOF 1
ENDMDL
