MODEL 1
REMARK minimizedAffinity 1.46979749
REMARK minimizedRMSD -1
REMARK  1 active torsions:
REMARK  status: ('A' for Active; 'I' for Inactive)
REMARK    1  A    between atoms: N_2  and  C1_3 
ROOT
ATOM      1  C1  UNL d   1      -1.188   5.925  -3.715  0.00  0.00     0.143 A 
ATOM      2  C2  UNL d   1      -0.698   5.977  -2.406  0.00  0.00    -0.057 A 
ATOM      3  C3  UNL d   1      -1.564   5.999  -1.306  0.00  0.00     0.033 A 
ATOM      4  C4  UNL d   1      -2.942   6.000  -1.499  0.00  0.00    -0.042 A 
ATOM      5  C5  UNL d   1      -3.452   5.974  -2.792  0.00  0.00     0.033 A 
ATOM      6  C6  UNL d   1      -2.581   5.944  -3.886  0.00  0.00    -0.057 A 
ENDROOT
BRANCH   1   7
ATOM      7  N   UNL d   1      -0.379   6.000  -4.852  0.00  0.00    -0.732 N 
ATOM      8  C   UNL d   1       1.063   5.983  -4.733  0.00  0.00     0.284 C 
ATOM      9  H3  UNL d   1      -0.740   5.442  -5.622  0.00  0.00     0.395 HD
ENDBRANCH   1   7
TORSDOF 1
ENDMDL
