MODEL 1
REMARK minimizedAffinity 3.24410367
REMARK minimizedRMSD -1
REMARK  1 active torsions:
REMARK  status: ('A' for Active; 'I' for Inactive)
REMARK    1  A    between atoms: N_2  and  C1_3 
ROOT
ATOM      1  C1  UNL d   1      -3.109  -1.434  -3.246  0.00  0.00     0.143 A 
ATOM      2  C2  UNL d   1      -4.156  -2.361  -3.220  0.00  0.00    -0.057 A 
ATOM      3  C3  UNL d   1      -4.743  -2.760  -2.013  0.00  0.00     0.033 A 
ATOM      4  C4  UNL d   1      -4.272  -2.258  -0.804  0.00  0.00    -0.042 A 
ATOM      5  C5  UNL d   1      -3.215  -1.354  -0.804  0.00  0.00     0.033 A 
ATOM      6  C6  UNL d   1      -2.638  -0.955  -2.014  0.00  0.00    -0.057 A 
ENDROOT
BRANCH   1   7
ATOM      7  N   UNL d   1      -2.418  -1.072  -4.406  0.00  0.00    -0.732 N 
ATOM      8  C   UNL d   1      -1.104  -1.613  -4.680  0.00  0.00     0.284 C 
ATOM      9  H3  UNL d   1      -3.026  -1.023  -5.220  0.00  0.00     0.395 HD
ENDBRANCH   1   7
TORSDOF 1
ENDMDL
