MODEL 1
REMARK minimizedAffinity -2.18316531
REMARK minimizedRMSD -1
REMARK  1 active torsions:
REMARK  status: ('A' for Active; 'I' for Inactive)
REMARK    1  A    between atoms: N_2  and  C1_3 
ROOT
ATOM      1  C1  UNL d   1       3.215   5.544  -4.183  0.00  0.00     0.143 A 
ATOM      2  C2  UNL d   1       3.958   4.557  -3.526  0.00  0.00    -0.057 A 
ATOM      3  C3  UNL d   1       5.154   4.069  -4.065  0.00  0.00     0.033 A 
ATOM      4  C4  UNL d   1       5.615   4.540  -5.290  0.00  0.00    -0.042 A 
ATOM      5  C5  UNL d   1       4.880   5.502  -5.974  0.00  0.00     0.033 A 
ATOM      6  C6  UNL d   1       3.689   5.991  -5.426  0.00  0.00    -0.057 A 
ENDROOT
BRANCH   1   7
ATOM      7  N   UNL d   1       1.968   5.998  -3.747  0.00  0.00    -0.732 N 
ATOM      8  C   UNL d   1       0.829   5.999  -4.641  0.00  0.00     0.284 C 
ATOM      9  H3  UNL d   1       1.753   5.694  -2.800  0.00  0.00     0.395 HD
ENDBRANCH   1   7
TORSDOF 1
ENDMDL
