MODEL 1
REMARK minimizedAffinity 0.971319795
REMARK minimizedRMSD -1
REMARK  1 active torsions:
REMARK  status: ('A' for Active; 'I' for Inactive)
REMARK    1  A    between atoms: N_2  and  C1_3 
ROOT
ATOM      1  C1  UNL d   1      -1.510   6.000  -4.914  0.00  0.00     0.143 A 
ATOM      2  C2  UNL d   1      -2.903   5.975  -5.044  0.00  0.00    -0.057 A 
ATOM      3  C3  UNL d   1      -3.737   5.989  -3.920  0.00  0.00     0.033 A 
ATOM      4  C4  UNL d   1      -3.191   6.000  -2.641  0.00  0.00    -0.042 A 
ATOM      5  C5  UNL d   1      -1.809   6.000  -2.488  0.00  0.00     0.033 A 
ATOM      6  C6  UNL d   1      -0.981   5.992  -3.614  0.00  0.00    -0.057 A 
ENDROOT
BRANCH   1   7
ATOM      7  N   UNL d   1      -0.626   5.887  -5.991  0.00  0.00    -0.732 N 
ATOM      8  C   UNL d   1       0.805   5.906  -5.775  0.00  0.00     0.284 C 
ATOM      9  H3  UNL d   1      -0.934   5.201  -6.676  0.00  0.00     0.395 HD
ENDBRANCH   1   7
TORSDOF 1
ENDMDL
