MODEL 1
REMARK minimizedAffinity -3.38432026
REMARK minimizedRMSD -1
REMARK  1 active torsions:
REMARK  status: ('A' for Active; 'I' for Inactive)
REMARK    1  A    between atoms: N_2  and  C1_3 
ROOT
ATOM      1  C1  UNL d   1      -0.840   5.999  -3.144  0.00  0.00     0.143 A 
ATOM      2  C2  UNL d   1       0.412   5.974  -3.767  0.00  0.00    -0.057 A 
ATOM      3  C3  UNL d   1       0.529   5.989  -5.162  0.00  0.00     0.033 A 
ATOM      4  C4  UNL d   1      -0.609   6.000  -5.962  0.00  0.00    -0.042 A 
ATOM      5  C5  UNL d   1      -1.865   6.000  -5.364  0.00  0.00     0.033 A 
ATOM      6  C6  UNL d   1      -1.975   5.991  -3.970  0.00  0.00    -0.057 A 
ENDROOT
BRANCH   1   7
ATOM      7  N   UNL d   1      -1.024   5.886  -1.763  0.00  0.00    -0.732 N 
ATOM      8  C   UNL d   1      -2.344   5.674  -1.211  0.00  0.00     0.284 C 
ATOM      9  H3  UNL d   1      -0.294   5.335  -1.318  0.00  0.00     0.395 HD
ENDBRANCH   1   7
TORSDOF 1
ENDMDL
