MODEL 1
REMARK minimizedAffinity 4.41957283
REMARK minimizedRMSD -1
REMARK  0 active torsions:
REMARK  status: ('A' for Active; 'I' for Inactive)
ROOT
ATOM      1  C1  BNZ d   1       0.912   3.646  -2.443  0.00  0.00     0.000 A 
ATOM      2  C2  BNZ d   1       0.601   3.346  -1.143  0.00  0.00     0.000 A 
ATOM      3  C3  BNZ d   1      -0.698   3.161  -0.759  0.00  0.00     0.000 A 
ATOM      4  C4  BNZ d   1      -1.686   3.314  -1.665  0.00  0.00     0.000 A 
ATOM      5  C5  BNZ d   1      -1.389   3.625  -2.977  0.00  0.00     0.000 A 
ATOM      6  C6  BNZ d   1      -0.078   3.773  -3.368  0.00  0.00     0.000 A 
ENDROOT
TORSDOF 0
ENDMDL
