MODEL 1
REMARK minimizedAffinity 4.06958485
REMARK minimizedRMSD -1
REMARK  0 active torsions:
REMARK  status: ('A' for Active; 'I' for Inactive)
ROOT
ATOM      1  C1  BNZ d   1       2.326   5.991  -4.706  0.00  0.00     0.000 A 
ATOM      2  C2  BNZ d   1       1.568   5.975  -3.566  0.00  0.00     0.000 A 
ATOM      3  C3  BNZ d   1       0.203   5.945  -3.632  0.00  0.00     0.000 A 
ATOM      4  C4  BNZ d   1      -0.403   5.972  -4.837  0.00  0.00     0.000 A 
ATOM      5  C5  BNZ d   1       0.347   5.999  -5.996  0.00  0.00     0.000 A 
ATOM      6  C6  BNZ d   1       1.721   5.989  -5.926  0.00  0.00     0.000 A 
ENDROOT
TORSDOF 0
ENDMDL
