MODEL 1
REMARK minimizedAffinity 10.8174725
REMARK minimizedRMSD -1
REMARK  0 active torsions:
REMARK  status: ('A' for Active; 'I' for Inactive)
ROOT
ATOM      1  C1  BNZ d   1      -3.745   5.997   2.519  0.00  0.00     0.000 A 
ATOM      2  C2  BNZ d   1      -5.103   5.987   2.696  0.00  0.00     0.000 A 
ATOM      3  C3  BNZ d   1      -5.948   5.957   1.622  0.00  0.00     0.000 A 
ATOM      4  C4  BNZ d   1      -5.436   5.977   0.375  0.00  0.00     0.000 A 
ATOM      5  C5  BNZ d   1      -4.070   5.997   0.180  0.00  0.00     0.000 A 
ATOM      6  C6  BNZ d   1      -3.221   5.988   1.263  0.00  0.00     0.000 A 
ENDROOT
TORSDOF 0
ENDMDL
