MODEL 1
REMARK minimizedAffinity 6.67636251
REMARK minimizedRMSD -1
REMARK  0 active torsions:
REMARK  status: ('A' for Active; 'I' for Inactive)
ROOT
ATOM      1  C1  BNZ d   1      -4.820   5.938   1.901  0.00  0.00     0.000 A 
ATOM      2  C2  BNZ d   1      -5.995   5.999   1.199  0.00  0.00     0.000 A 
ATOM      3  C3  BNZ d   1      -5.998   5.942  -0.167  0.00  0.00     0.000 A 
ATOM      4  C4  BNZ d   1      -4.826   5.865  -0.830  0.00  0.00     0.000 A 
ATOM      5  C5  BNZ d   1      -3.633   5.811  -0.137  0.00  0.00     0.000 A 
ATOM      6  C6  BNZ d   1      -3.636   5.830   1.239  0.00  0.00     0.000 A 
ENDROOT
TORSDOF 0
ENDMDL
