MODEL 1
REMARK minimizedAffinity 6.61066341
REMARK minimizedRMSD -1
REMARK  0 active torsions:
REMARK  status: ('A' for Active; 'I' for Inactive)
ROOT
ATOM      1  C1  BNZ d   1      -0.943   1.819   1.711  0.00  0.00     0.000 A 
ATOM      2  C2  BNZ d   1       0.408   2.013   1.600  0.00  0.00     0.000 A 
ATOM      3  C3  BNZ d   1       0.922   2.820   0.624  0.00  0.00     0.000 A 
ATOM      4  C4  BNZ d   1       0.089   3.399  -0.264  0.00  0.00     0.000 A 
ATOM      5  C5  BNZ d   1      -1.275   3.206  -0.171  0.00  0.00     0.000 A 
ATOM      6  C6  BNZ d   1      -1.792   2.424   0.836  0.00  0.00     0.000 A 
ENDROOT
TORSDOF 0
ENDMDL
