MODEL 1
REMARK minimizedAffinity 6.26718664
REMARK minimizedRMSD -1
REMARK  0 active torsions:
REMARK  status: ('A' for Active; 'I' for Inactive)
ROOT
ATOM      1  C1  BNZ d   1       1.896  -1.644  -3.619  0.00  0.00     0.000 A 
ATOM      2  C2  BNZ d   1       2.147  -0.998  -4.800  0.00  0.00     0.000 A 
ATOM      3  C3  BNZ d   1       1.715  -1.519  -5.988  0.00  0.00     0.000 A 
ATOM      4  C4  BNZ d   1       1.070  -2.704  -5.997  0.00  0.00     0.000 A 
ATOM      5  C5  BNZ d   1       0.818  -3.372  -4.815  0.00  0.00     0.000 A 
ATOM      6  C6  BNZ d   1       1.219  -2.825  -3.618  0.00  0.00     0.000 A 
ENDROOT
TORSDOF 0
ENDMDL
