MODEL 1
REMARK minimizedAffinity 8.71700573
REMARK minimizedRMSD -1
REMARK  0 active torsions:
REMARK  status: ('A' for Active; 'I' for Inactive)
ROOT
ATOM      1  C1  BNZ d   1      -0.863   2.468  -0.843  0.00  0.00     0.000 A 
ATOM      2  C2  BNZ d   1      -1.793   2.414  -1.847  0.00  0.00     0.000 A 
ATOM      3  C3  BNZ d   1      -1.519   2.930  -3.083  0.00  0.00     0.000 A 
ATOM      4  C4  BNZ d   1      -0.333   3.533  -3.301  0.00  0.00     0.000 A 
ATOM      5  C5  BNZ d   1       0.611   3.604  -2.296  0.00  0.00     0.000 A 
ATOM      6  C6  BNZ d   1       0.347   3.049  -1.065  0.00  0.00     0.000 A 
ENDROOT
TORSDOF 0
ENDMDL
