MODEL 1
REMARK minimizedAffinity 11.2841845
REMARK minimizedRMSD -1
REMARK  0 active torsions:
REMARK  status: ('A' for Active; 'I' for Inactive)
ROOT
ATOM      1  C1  BNZ d   1      -5.990   5.999   1.779  0.00  0.00     0.000 A 
ATOM      2  C2  BNZ d   1      -5.882   5.906   0.417  0.00  0.00     0.000 A 
ATOM      3  C3  BNZ d   1      -4.658   5.800  -0.182  0.00  0.00     0.000 A 
ATOM      4  C4  BNZ d   1      -3.544   5.828   0.577  0.00  0.00     0.000 A 
ATOM      5  C5  BNZ d   1      -3.636   5.931   1.951  0.00  0.00     0.000 A 
ATOM      6  C6  BNZ d   1      -4.871   5.997   2.554  0.00  0.00     0.000 A 
ENDROOT
TORSDOF 0
ENDMDL
