MODEL 1
REMARK minimizedAffinity 7.8793869
REMARK minimizedRMSD -1
REMARK  0 active torsions:
REMARK  status: ('A' for Active; 'I' for Inactive)
ROOT
ATOM      1  C1  BNZ d   1       1.454  -3.127  -5.999  0.00  0.00     0.000 A 
ATOM      2  C2  BNZ d   1       0.890  -1.879  -5.997  0.00  0.00     0.000 A 
ATOM      3  C3  BNZ d   1       1.671  -0.757  -5.999  0.00  0.00     0.000 A 
ATOM      4  C4  BNZ d   1       3.014  -0.885  -5.963  0.00  0.00     0.000 A 
ATOM      5  C5  BNZ d   1       3.597  -2.136  -5.955  0.00  0.00     0.000 A 
ATOM      6  C6  BNZ d   1       2.808  -3.262  -5.993  0.00  0.00     0.000 A 
ENDROOT
TORSDOF 0
ENDMDL
