MODEL 1
REMARK minimizedAffinity 8.32557106
REMARK minimizedRMSD -1
REMARK  0 active torsions:
REMARK  status: ('A' for Active; 'I' for Inactive)
ROOT
ATOM      1  C1  BNZ d   1       1.485  -2.600   0.057  0.00  0.00     0.000 A 
ATOM      2  C2  BNZ d   1       1.257  -2.018  -1.162  0.00  0.00     0.000 A 
ATOM      3  C3  BNZ d   1       1.320  -2.754  -2.312  0.00  0.00     0.000 A 
ATOM      4  C4  BNZ d   1       1.649  -4.060  -2.246  0.00  0.00     0.000 A 
ATOM      5  C5  BNZ d   1       1.891  -4.659  -1.026  0.00  0.00     0.000 A 
ATOM      6  C6  BNZ d   1       1.789  -3.924   0.133  0.00  0.00     0.000 A 
ENDROOT
TORSDOF 0
ENDMDL
