MODEL 1
REMARK minimizedAffinity 8.80085087
REMARK minimizedRMSD -1
REMARK  0 active torsions:
REMARK  status: ('A' for Active; 'I' for Inactive)
ROOT
ATOM      1  C1  BNZ d   1       1.667   5.988  -5.890  0.00  0.00     0.000 A 
ATOM      2  C2  BNZ d   1       2.318   5.996  -4.685  0.00  0.00     0.000 A 
ATOM      3  C3  BNZ d   1       1.618   5.980  -3.511  0.00  0.00     0.000 A 
ATOM      4  C4  BNZ d   1       0.269   5.996  -3.543  0.00  0.00     0.000 A 
ATOM      5  C5  BNZ d   1      -0.401   5.997  -4.750  0.00  0.00     0.000 A 
ATOM      6  C6  BNZ d   1       0.307   5.974  -5.930  0.00  0.00     0.000 A 
ENDROOT
TORSDOF 0
ENDMDL
