MODEL 1
REMARK minimizedAffinity 3.00170064
REMARK minimizedRMSD -1
REMARK  0 active torsions:
REMARK  status: ('A' for Active; 'I' for Inactive)
ROOT
ATOM      1  C1  BNZ d   1       0.271   2.378   0.118  0.00  0.00     0.000 A 
ATOM      2  C2  BNZ d   1       1.087   3.213  -0.598  0.00  0.00     0.000 A 
ATOM      3  C3  BNZ d   1       0.569   4.066  -1.533  0.00  0.00     0.000 A 
ATOM      4  C4  BNZ d   1      -0.757   4.054  -1.779  0.00  0.00     0.000 A 
ATOM      5  C5  BNZ d   1      -1.592   3.212  -1.072  0.00  0.00     0.000 A 
ATOM      6  C6  BNZ d   1      -1.072   2.383  -0.104  0.00  0.00     0.000 A 
ENDROOT
TORSDOF 0
ENDMDL
