MODEL 1
REMARK minimizedAffinity 7.1622653
REMARK minimizedRMSD -1
REMARK  0 active torsions:
REMARK  status: ('A' for Active; 'I' for Inactive)
ROOT
ATOM      1  C1  BNZ d   1       1.623  -1.557  -1.024  0.00  0.00     0.000 A 
ATOM      2  C2  BNZ d   1       1.860  -1.239   0.287  0.00  0.00     0.000 A 
ATOM      3  C3  BNZ d   1       2.096  -2.217   1.213  0.00  0.00     0.000 A 
ATOM      4  C4  BNZ d   1       2.055  -3.511   0.835  0.00  0.00     0.000 A 
ATOM      5  C5  BNZ d   1       1.809  -3.848  -0.481  0.00  0.00     0.000 A 
ATOM      6  C6  BNZ d   1       1.610  -2.860  -1.418  0.00  0.00     0.000 A 
ENDROOT
TORSDOF 0
ENDMDL
