MODEL 1
REMARK minimizedAffinity 9.38033199
REMARK minimizedRMSD -1
REMARK  0 active torsions:
REMARK  status: ('A' for Active; 'I' for Inactive)
ROOT
ATOM      1  C1  BNZ d   1       3.705  -2.140  -5.999  0.00  0.00     0.000 A 
ATOM      2  C2  BNZ d   1       3.281  -0.838  -5.996  0.00  0.00     0.000 A 
ATOM      3  C3  BNZ d   1       1.949  -0.536  -5.970  0.00  0.00     0.000 A 
ATOM      4  C4  BNZ d   1       1.042  -1.534  -5.987  0.00  0.00     0.000 A 
ATOM      5  C5  BNZ d   1       1.453  -2.852  -5.998  0.00  0.00     0.000 A 
ATOM      6  C6  BNZ d   1       2.796  -3.153  -5.985  0.00  0.00     0.000 A 
ENDROOT
TORSDOF 0
ENDMDL
