MODEL 1
REMARK minimizedAffinity 7.38464499
REMARK minimizedRMSD -1
REMARK  0 active torsions:
REMARK  status: ('A' for Active; 'I' for Inactive)
ROOT
ATOM      1  C1  BNZ d   1      -0.055   2.946  -0.774  0.00  0.00     0.000 A 
ATOM      2  C2  BNZ d   1       0.160   3.801   0.273  0.00  0.00     0.000 A 
ATOM      3  C3  BNZ d   1       0.363   5.135   0.057  0.00  0.00     0.000 A 
ATOM      4  C4  BNZ d   1       0.389   5.606  -1.207  0.00  0.00     0.000 A 
ATOM      5  C5  BNZ d   1       0.183   4.754  -2.274  0.00  0.00     0.000 A 
ATOM      6  C6  BNZ d   1      -0.059   3.418  -2.050  0.00  0.00     0.000 A 
ENDROOT
TORSDOF 0
ENDMDL
