MODEL 1
REMARK minimizedAffinity -2.99723625
REMARK minimizedRMSD -1
REMARK  0 active torsions:
REMARK  status: ('A' for Active; 'I' for Inactive)
ROOT
ATOM      1  C   UNL d   1      -1.149   0.286   0.548  0.00  0.00     0.172 C 
ATOM      2  N   UNL d   1       0.099  -0.200   0.009  0.00  0.00    -0.070 N 
ATOM      3  C1  UNL d   1       0.508  -1.507  -0.005  0.00  0.00    -0.004 A 
ATOM      4  C2  UNL d   1       1.749  -1.555  -0.602  0.00  0.00    -0.047 A 
ATOM      5  C3  UNL d   1       2.099  -0.231  -0.959  0.00  0.00    -0.047 A 
ATOM      6  C4  UNL d   1       1.060   0.587  -0.569  0.00  0.00    -0.004 A 
ENDROOT
TORSDOF 0
ENDMDL
