MODEL 1
REMARK minimizedAffinity -4.08660126
REMARK minimizedRMSD -1
REMARK  0 active torsions:
REMARK  status: ('A' for Active; 'I' for Inactive)
ROOT
ATOM      1  C   UNL d   1       0.775  -0.710  -0.564  0.00  0.00     0.172 C 
ATOM      2  N   UNL d   1       1.523   0.065  -1.526  0.00  0.00    -0.070 N 
ATOM      3  C1  UNL d   1       1.189   1.314  -1.978  0.00  0.00    -0.004 A 
ATOM      4  C2  UNL d   1       2.152   1.707  -2.882  0.00  0.00    -0.047 A 
ATOM      5  C3  UNL d   1       3.097   0.658  -2.977  0.00  0.00    -0.047 A 
ATOM      6  C4  UNL d   1       2.683  -0.346  -2.127  0.00  0.00    -0.004 A 
ENDROOT
TORSDOF 0
ENDMDL
