MODEL 1
REMARK minimizedAffinity -1.89504123
REMARK minimizedRMSD -1
REMARK  0 active torsions:
REMARK  status: ('A' for Active; 'I' for Inactive)
ROOT
ATOM      1  C   UNL d   1       1.963  -0.619  -0.968  0.00  0.00     0.172 C 
ATOM      2  N   UNL d   1       0.648  -0.123  -0.636  0.00  0.00    -0.070 N 
ATOM      3  C1  UNL d   1       0.186   1.141  -0.885  0.00  0.00    -0.004 A 
ATOM      4  C2  UNL d   1      -1.110   1.216  -0.420  0.00  0.00    -0.047 A 
ATOM      5  C3  UNL d   1      -1.436  -0.047   0.128  0.00  0.00    -0.047 A 
ATOM      6  C4  UNL d   1      -0.330  -0.857  -0.019  0.00  0.00    -0.004 A 
ENDROOT
TORSDOF 0
ENDMDL
