MODEL 1
REMARK minimizedAffinity -3.08626652
REMARK minimizedRMSD -1
REMARK  0 active torsions:
REMARK  status: ('A' for Active; 'I' for Inactive)
ROOT
ATOM      1  C   UNL d   1      -0.118   0.967  -0.467  0.00  0.00     0.172 C 
ATOM      2  N   UNL d   1       0.985   0.219  -1.022  0.00  0.00    -0.070 N 
ATOM      3  C1  UNL d   1       1.226  -1.114  -0.821  0.00  0.00    -0.004 A 
ATOM      4  C2  UNL d   1       2.368  -1.446  -1.517  0.00  0.00    -0.047 A 
ATOM      5  C3  UNL d   1       2.829  -0.272  -2.159  0.00  0.00    -0.047 A 
ATOM      6  C4  UNL d   1       1.954   0.743  -1.835  0.00  0.00    -0.004 A 
ENDROOT
TORSDOF 0
ENDMDL
