MODEL 1
REMARK minimizedAffinity -3.59147573
REMARK minimizedRMSD -1
REMARK  0 active torsions:
REMARK  status: ('A' for Active; 'I' for Inactive)
ROOT
ATOM      1  C   UNL d   1      -1.123   0.339   0.582  0.00  0.00     0.172 C 
ATOM      2  N   UNL d   1       0.081  -0.196  -0.009  0.00  0.00    -0.070 N 
ATOM      3  C1  UNL d   1       0.277  -1.499  -0.382  0.00  0.00    -0.004 A 
ATOM      4  C2  UNL d   1       1.549  -1.603  -0.902  0.00  0.00    -0.047 A 
ATOM      5  C3  UNL d   1       2.139  -0.318  -0.837  0.00  0.00    -0.047 A 
ATOM      6  C4  UNL d   1       1.209   0.534  -0.280  0.00  0.00    -0.004 A 
ENDROOT
TORSDOF 0
ENDMDL
