MODEL 1
REMARK minimizedAffinity -3.87882519
REMARK minimizedRMSD -1
REMARK  0 active torsions:
REMARK  status: ('A' for Active; 'I' for Inactive)
ROOT
ATOM      1  C   UNL d   1      -0.140   0.192   0.313  0.00  0.00     0.172 C 
ATOM      2  N   UNL d   1       0.848   0.304  -0.734  0.00  0.00    -0.070 N 
ATOM      3  C1  UNL d   1       0.966   1.348  -1.612  0.00  0.00    -0.004 A 
ATOM      4  C2  UNL d   1       2.026   1.078  -2.450  0.00  0.00    -0.047 A 
ATOM      5  C3  UNL d   1       2.563  -0.173  -2.063  0.00  0.00    -0.047 A 
ATOM      6  C4  UNL d   1       1.815  -0.630  -0.999  0.00  0.00    -0.004 A 
ENDROOT
TORSDOF 0
ENDMDL
