MODEL 1
REMARK minimizedAffinity -3.70557261
REMARK minimizedRMSD -1
REMARK  0 active torsions:
REMARK  status: ('A' for Active; 'I' for Inactive)
ROOT
ATOM      1  C   UNL d   1       0.125  -0.275   0.134  0.00  0.00     0.172 C 
ATOM      2  N   UNL d   1       1.183  -0.041  -0.821  0.00  0.00    -0.070 N 
ATOM      3  C1  UNL d   1       2.305  -0.811  -0.974  0.00  0.00    -0.004 A 
ATOM      4  C2  UNL d   1       3.061  -0.259  -1.985  0.00  0.00    -0.047 A 
ATOM      5  C3  UNL d   1       2.370   0.883  -2.455  0.00  0.00    -0.047 A 
ATOM      6  C4  UNL d   1       1.211   0.994  -1.717  0.00  0.00    -0.004 A 
ENDROOT
TORSDOF 0
ENDMDL
