MODEL 1
REMARK minimizedAffinity -3.77541971
REMARK minimizedRMSD -1
REMARK  0 active torsions:
REMARK  status: ('A' for Active; 'I' for Inactive)
ROOT
ATOM      1  C   UNL d   1      -0.453   0.393   0.320  0.00  0.00     0.172 C 
ATOM      2  N   UNL d   1       0.740   0.438  -0.493  0.00  0.00    -0.070 N 
ATOM      3  C1  UNL d   1       0.842   1.021  -1.728  0.00  0.00    -0.004 A 
ATOM      4  C2  UNL d   1       2.137   0.850  -2.169  0.00  0.00    -0.047 A 
ATOM      5  C3  UNL d   1       2.836   0.139  -1.165  0.00  0.00    -0.047 A 
ATOM      6  C4  UNL d   1       1.947  -0.104  -0.139  0.00  0.00    -0.004 A 
ENDROOT
TORSDOF 0
ENDMDL
