MODEL 1
REMARK minimizedAffinity -2.45602512
REMARK minimizedRMSD -1
REMARK  0 active torsions:
REMARK  status: ('A' for Active; 'I' for Inactive)
ROOT
ATOM      1  C   UNL d   1       2.585  -1.521  -0.525  0.00  0.00     0.172 C 
ATOM      2  N   UNL d   1       1.237  -1.123  -0.195  0.00  0.00    -0.070 N 
ATOM      3  C1  UNL d   1       0.729   0.144  -0.303  0.00  0.00    -0.004 A 
ATOM      4  C2  UNL d   1      -0.586   0.108   0.106  0.00  0.00    -0.047 A 
ATOM      5  C3  UNL d   1      -0.879  -1.227   0.474  0.00  0.00    -0.047 A 
ATOM      6  C4  UNL d   1       0.267  -1.968   0.277  0.00  0.00    -0.004 A 
ENDROOT
TORSDOF 0
ENDMDL
