MODEL 1
REMARK minimizedAffinity -3.03090668
REMARK minimizedRMSD -1
REMARK  0 active torsions:
REMARK  status: ('A' for Active; 'I' for Inactive)
ROOT
ATOM      1  C   UNL d   1      -0.017  -0.276   0.238  0.00  0.00     0.172 C 
ATOM      2  N   UNL d   1       1.343  -0.282  -0.247  0.00  0.00    -0.070 N 
ATOM      3  C1  UNL d   1       1.770  -0.841  -1.422  0.00  0.00    -0.004 A 
ATOM      4  C2  UNL d   1       3.129  -0.634  -1.518  0.00  0.00    -0.047 A 
ATOM      5  C3  UNL d   1       3.534   0.072  -0.361  0.00  0.00    -0.047 A 
ATOM      6  C4  UNL d   1       2.408   0.278   0.409  0.00  0.00    -0.004 A 
ENDROOT
TORSDOF 0
ENDMDL
