MODEL 1
REMARK minimizedAffinity -3.39840412
REMARK minimizedRMSD -1
REMARK  0 active torsions:
REMARK  status: ('A' for Active; 'I' for Inactive)
ROOT
ATOM      1  C   UNL d   1      -0.981   0.508   0.179  0.00  0.00     0.172 C 
ATOM      2  N   UNL d   1       0.239   0.033  -0.431  0.00  0.00    -0.070 N 
ATOM      3  C1  UNL d   1       0.966   0.695  -1.384  0.00  0.00    -0.004 A 
ATOM      4  C2  UNL d   1       2.055  -0.087  -1.703  0.00  0.00    -0.047 A 
ATOM      5  C3  UNL d   1       1.980  -1.260  -0.916  0.00  0.00    -0.047 A 
ATOM      6  C4  UNL d   1       0.846  -1.160  -0.137  0.00  0.00    -0.004 A 
ENDROOT
TORSDOF 0
ENDMDL
