MODEL 1
REMARK minimizedAffinity -4.21240377
REMARK minimizedRMSD -1
REMARK  0 active torsions:
REMARK  status: ('A' for Active; 'I' for Inactive)
ROOT
ATOM      1  C   UNL d   1       0.268   0.379   0.429  0.00  0.00     0.172 C 
ATOM      2  N   UNL d   1       1.238   0.338  -0.640  0.00  0.00    -0.070 N 
ATOM      3  C1  UNL d   1       1.356   1.259  -1.647  0.00  0.00    -0.004 A 
ATOM      4  C2  UNL d   1       2.395   0.864  -2.461  0.00  0.00    -0.047 A 
ATOM      5  C3  UNL d   1       2.920  -0.336  -1.925  0.00  0.00    -0.047 A 
ATOM      6  C4  UNL d   1       2.185  -0.639  -0.799  0.00  0.00    -0.004 A 
ENDROOT
TORSDOF 0
ENDMDL
