MODEL 1
REMARK minimizedAffinity -4.14473391
REMARK minimizedRMSD -1
REMARK  0 active torsions:
REMARK  status: ('A' for Active; 'I' for Inactive)
ROOT
ATOM      1  C   UNL d   1      -0.311   0.097   0.127  0.00  0.00     0.172 C 
ATOM      2  N   UNL d   1       0.934   0.187  -0.600  0.00  0.00    -0.070 N 
ATOM      3  C1  UNL d   1       1.950  -0.730  -0.560  0.00  0.00    -0.004 A 
ATOM      4  C2  UNL d   1       2.956  -0.282  -1.388  0.00  0.00    -0.047 A 
ATOM      5  C3  UNL d   1       2.530   0.948  -1.945  0.00  0.00    -0.047 A 
ATOM      6  C4  UNL d   1       1.275   1.214  -1.440  0.00  0.00    -0.004 A 
ENDROOT
TORSDOF 0
ENDMDL
