MODEL 1
REMARK minimizedAffinity -3.33482337
REMARK minimizedRMSD -1
REMARK  0 active torsions:
REMARK  status: ('A' for Active; 'I' for Inactive)
ROOT
ATOM      1  C   UNL d   1      -0.807   0.227   0.316  0.00  0.00     0.172 C 
ATOM      2  N   UNL d   1       0.397  -0.154  -0.384  0.00  0.00    -0.070 N 
ATOM      3  C1  UNL d   1       1.038   0.594  -1.336  0.00  0.00    -0.004 A 
ATOM      4  C2  UNL d   1       2.142  -0.116  -1.757  0.00  0.00    -0.047 A 
ATOM      5  C3  UNL d   1       2.165  -1.332  -1.034  0.00  0.00    -0.047 A 
ATOM      6  C4  UNL d   1       1.073  -1.329  -0.191  0.00  0.00    -0.004 A 
ENDROOT
TORSDOF 0
ENDMDL
