MODEL 1
REMARK minimizedAffinity -3.56860495
REMARK minimizedRMSD -1
REMARK  0 active torsions:
REMARK  status: ('A' for Active; 'I' for Inactive)
ROOT
ATOM      1  C   UNL d   1      -0.833   0.433   0.073  0.00  0.00     0.172 C 
ATOM      2  N   UNL d   1       0.424   0.442  -0.637  0.00  0.00    -0.070 N 
ATOM      3  C1  UNL d   1       0.873   1.448  -1.451  0.00  0.00    -0.004 A 
ATOM      4  C2  UNL d   1       2.109   1.078  -1.936  0.00  0.00    -0.047 A 
ATOM      5  C3  UNL d   1       2.413  -0.195  -1.395  0.00  0.00    -0.047 A 
ATOM      6  C4  UNL d   1       1.352  -0.564  -0.595  0.00  0.00    -0.004 A 
ENDROOT
TORSDOF 0
ENDMDL
