MODEL 1
REMARK minimizedAffinity -3.61501765
REMARK minimizedRMSD -1
REMARK  0 active torsions:
REMARK  status: ('A' for Active; 'I' for Inactive)
ROOT
ATOM      1  C   UNL d   1      -0.508   0.340   0.354  0.00  0.00     0.172 C 
ATOM      2  N   UNL d   1       0.663  -0.137  -0.343  0.00  0.00    -0.070 N 
ATOM      3  C1  UNL d   1       1.166  -1.409  -0.282  0.00  0.00    -0.004 A 
ATOM      4  C2  UNL d   1       2.285  -1.460  -1.085  0.00  0.00    -0.047 A 
ATOM      5  C3  UNL d   1       2.460  -0.174  -1.649  0.00  0.00    -0.047 A 
ATOM      6  C4  UNL d   1       1.442   0.625  -1.173  0.00  0.00    -0.004 A 
ENDROOT
TORSDOF 0
ENDMDL
