MODEL 1
REMARK minimizedAffinity -3.63929248
REMARK minimizedRMSD -1
REMARK  0 active torsions:
REMARK  status: ('A' for Active; 'I' for Inactive)
ROOT
ATOM      1  C   UNL d   1      -1.110   0.342   0.404  0.00  0.00     0.172 C 
ATOM      2  N   UNL d   1       0.092  -0.141  -0.234  0.00  0.00    -0.070 N 
ATOM      3  C1  UNL d   1       1.012   0.631  -0.892  0.00  0.00    -0.004 A 
ATOM      4  C2  UNL d   1       2.007  -0.201  -1.356  0.00  0.00    -0.047 A 
ATOM      5  C3  UNL d   1       1.674  -1.519  -0.963  0.00  0.00    -0.047 A 
ATOM      6  C4  UNL d   1       0.484  -1.453  -0.270  0.00  0.00    -0.004 A 
ENDROOT
TORSDOF 0
ENDMDL
