MODEL 1
REMARK minimizedAffinity -4.67037821
REMARK minimizedRMSD -1
REMARK  0 active torsions:
REMARK  status: ('A' for Active; 'I' for Inactive)
ROOT
ATOM      1  C4' PXY d   1      -4.081   1.211   1.092  0.00  0.00     0.077 C 
ATOM      2  C1' PXY d   1       1.382   1.626  -0.754  0.00  0.00     0.077 C 
ATOM      3  C1  PXY d   1      -0.048   1.526  -0.261  0.00  0.00    -0.082 A 
ATOM      4  C2  PXY d   1      -0.753   0.435  -0.515  0.00  0.00     0.003 A 
ATOM      5  C3  PXY d   1      -2.058   0.341  -0.103  0.00  0.00     0.003 A 
ATOM      6  C4  PXY d   1      -2.630   1.352   0.621  0.00  0.00    -0.082 A 
ATOM      7  C5  PXY d   1      -1.915   2.464   0.893  0.00  0.00     0.003 A 
ATOM      8  C6  PXY d   1      -0.605   2.557   0.431  0.00  0.00     0.003 A 
ENDROOT
TORSDOF 0
ENDMDL
