MODEL 1
REMARK minimizedAffinity -1.23880458
REMARK minimizedRMSD -1
REMARK  0 active torsions:
REMARK  status: ('A' for Active; 'I' for Inactive)
ROOT
ATOM      1  C4' PXY d   1      -0.738   3.352   2.130  0.00  0.00     0.077 C 
ATOM      2  C1' PXY d   1      -0.376  -1.516  -0.965  0.00  0.00     0.077 C 
ATOM      3  C1  PXY d   1      -0.458  -0.238  -0.155  0.00  0.00    -0.082 A 
ATOM      4  C2  PXY d   1      -1.443  -0.076   0.713  0.00  0.00     0.003 A 
ATOM      5  C3  PXY d   1      -1.551   1.088   1.431  0.00  0.00     0.003 A 
ATOM      6  C4  PXY d   1      -0.610   2.074   1.297  0.00  0.00    -0.082 A 
ATOM      7  C5  PXY d   1       0.404   1.911   0.421  0.00  0.00     0.003 A 
ATOM      8  C6  PXY d   1       0.472   0.740  -0.328  0.00  0.00     0.003 A 
ENDROOT
TORSDOF 0
ENDMDL
