MODEL 1
REMARK minimizedAffinity -2.52319837
REMARK minimizedRMSD -1
REMARK  0 active torsions:
REMARK  status: ('A' for Active; 'I' for Inactive)
ROOT
ATOM      1  C4' PXY d   1      -0.804  -2.879   0.680  0.00  0.00     0.077 C 
ATOM      2  C1' PXY d   1       1.759   2.136  -0.623  0.00  0.00     0.077 C 
ATOM      3  C1  PXY d   1       1.097   0.814  -0.287  0.00  0.00    -0.082 A 
ATOM      4  C2  PXY d   1      -0.218   0.758  -0.150  0.00  0.00     0.003 A 
ATOM      5  C3  PXY d   1      -0.830  -0.423   0.186  0.00  0.00     0.003 A 
ATOM      6  C4  PXY d   1      -0.093  -1.568   0.331  0.00  0.00    -0.082 A 
ATOM      7  C5  PXY d   1       1.247  -1.520   0.183  0.00  0.00     0.003 A 
ATOM      8  C6  PXY d   1       1.853  -0.304  -0.118  0.00  0.00     0.003 A 
ENDROOT
TORSDOF 0
ENDMDL
