MODEL 1
REMARK minimizedAffinity -2.5208571
REMARK minimizedRMSD -1
REMARK  0 active torsions:
REMARK  status: ('A' for Active; 'I' for Inactive)
ROOT
ATOM      1  C4' PXY d   1      -3.003   2.400   1.186  0.00  0.00     0.077 C 
ATOM      2  C1' PXY d   1       2.163   0.451  -0.525  0.00  0.00     0.077 C 
ATOM      3  C1  PXY d   1       0.814   0.974  -0.075  0.00  0.00    -0.082 A 
ATOM      4  C2  PXY d   1      -0.065   0.142   0.461  0.00  0.00     0.003 A 
ATOM      5  C3  PXY d   1      -1.302   0.592   0.844  0.00  0.00     0.003 A 
ATOM      6  C4  PXY d   1      -1.624   1.918   0.726  0.00  0.00    -0.082 A 
ATOM      7  C5  PXY d   1      -0.729   2.775   0.190  0.00  0.00     0.003 A 
ATOM      8  C6  PXY d   1       0.506   2.291  -0.231  0.00  0.00     0.003 A 
ENDROOT
TORSDOF 0
ENDMDL
