MODEL 1
REMARK minimizedAffinity -3.85380864
REMARK minimizedRMSD -1
REMARK  0 active torsions:
REMARK  status: ('A' for Active; 'I' for Inactive)
ROOT
ATOM      1  C4' PXY d   1      -0.069  -2.207  -1.659  0.00  0.00     0.077 C 
ATOM      2  C1' PXY d   1       0.164   3.033   0.771  0.00  0.00     0.077 C 
ATOM      3  C1  PXY d   1       0.116   1.657   0.136  0.00  0.00    -0.082 A 
ATOM      4  C2  PXY d   1      -0.801   1.391  -0.780  0.00  0.00     0.003 A 
ATOM      5  C3  PXY d   1      -0.879   0.142  -1.341  0.00  0.00     0.003 A 
ATOM      6  C4  PXY d   1       0.023  -0.829  -0.998  0.00  0.00    -0.082 A 
ATOM      7  C5  PXY d   1       0.968  -0.562  -0.072  0.00  0.00     0.003 A 
ATOM      8  C6  PXY d   1       1.005   0.699   0.516  0.00  0.00     0.003 A 
ENDROOT
TORSDOF 0
ENDMDL
