MODEL 1
REMARK minimizedAffinity -5.34417295
REMARK minimizedRMSD -1
REMARK  0 active torsions:
REMARK  status: ('A' for Active; 'I' for Inactive)
ROOT
ATOM      1  C4' PXY d   1      -0.001  -1.961   0.014  0.00  0.00     0.077 C 
ATOM      2  C1' PXY d   1       0.564   3.786  -0.245  0.00  0.00     0.077 C 
ATOM      3  C1  PXY d   1       0.406   2.280  -0.169  0.00  0.00    -0.082 A 
ATOM      4  C2  PXY d   1       1.449   1.500  -0.402  0.00  0.00     0.003 A 
ATOM      5  C3  PXY d   1       1.316   0.136  -0.369  0.00  0.00     0.003 A 
ATOM      6  C4  PXY d   1       0.115  -0.436  -0.042  0.00  0.00    -0.082 A 
ATOM      7  C5  PXY d   1      -0.952   0.354   0.206  0.00  0.00     0.003 A 
ATOM      8  C6  PXY d   1      -0.806   1.736   0.127  0.00  0.00     0.003 A 
ENDROOT
TORSDOF 0
ENDMDL
