MODEL 1
REMARK minimizedAffinity -1.51032233
REMARK minimizedRMSD -1
REMARK  0 active torsions:
REMARK  status: ('A' for Active; 'I' for Inactive)
ROOT
ATOM      1  C4' PXY d   1       0.043  -3.858  -3.343  0.00  0.00     0.077 C 
ATOM      2  C1' PXY d   1      -3.774  -5.373   0.725  0.00  0.00     0.077 C 
ATOM      3  C1  PXY d   1      -2.767  -4.987  -0.340  0.00  0.00    -0.082 A 
ATOM      4  C2  PXY d   1      -2.559  -3.709  -0.611  0.00  0.00     0.003 A 
ATOM      5  C3  PXY d   1      -1.675  -3.343  -1.593  0.00  0.00     0.003 A 
ATOM      6  C4  PXY d   1      -0.958  -4.294  -2.269  0.00  0.00    -0.082 A 
ATOM      7  C5  PXY d   1      -1.157  -5.600  -1.992  0.00  0.00     0.003 A 
ATOM      8  C6  PXY d   1      -2.089  -5.952  -1.019  0.00  0.00     0.003 A 
ENDROOT
TORSDOF 0
ENDMDL
