MODEL 1
REMARK minimizedAffinity -3.83569598
REMARK minimizedRMSD -1
REMARK  0 active torsions:
REMARK  status: ('A' for Active; 'I' for Inactive)
ROOT
ATOM      1  C4' PXY d   1      -0.153  -2.501  -0.032  0.00  0.00     0.077 C 
ATOM      2  C1' PXY d   1       0.058   3.276  -0.098  0.00  0.00     0.077 C 
ATOM      3  C1  PXY d   1      -0.006   1.761  -0.070  0.00  0.00    -0.082 A 
ATOM      4  C2  PXY d   1       0.998   1.055  -0.564  0.00  0.00     0.003 A 
ATOM      5  C3  PXY d   1       0.943  -0.315  -0.577  0.00  0.00     0.003 A 
ATOM      6  C4  PXY d   1      -0.128  -0.970  -0.030  0.00  0.00    -0.082 A 
ATOM      7  C5  PXY d   1      -1.152  -0.257   0.486  0.00  0.00     0.003 A 
ATOM      8  C6  PXY d   1      -1.095   1.134   0.451  0.00  0.00     0.003 A 
ENDROOT
TORSDOF 0
ENDMDL
