MODEL 1
REMARK minimizedAffinity 9.09100342
REMARK minimizedRMSD -1
REMARK  0 active torsions:
REMARK  status: ('A' for Active; 'I' for Inactive)
ROOT
ATOM      1  C4' PXY d   1       6.000   4.504  -5.688  0.00  0.00     0.077 C 
ATOM      2  C1' PXY d   1       1.900   0.765  -4.067  0.00  0.00     0.077 C 
ATOM      3  C1  PXY d   1       2.970   1.755  -4.484  0.00  0.00    -0.082 A 
ATOM      4  C2  PXY d   1       3.620   1.574  -5.622  0.00  0.00     0.003 A 
ATOM      5  C3  PXY d   1       4.612   2.441  -6.000  0.00  0.00     0.003 A 
ATOM      6  C4  PXY d   1       4.906   3.535  -5.230  0.00  0.00    -0.082 A 
ATOM      7  C5  PXY d   1       4.239   3.733  -4.073  0.00  0.00     0.003 A 
ATOM      8  C6  PXY d   1       3.264   2.818  -3.688  0.00  0.00     0.003 A 
ENDROOT
TORSDOF 0
ENDMDL
