MODEL 1
REMARK minimizedAffinity -0.579736054
REMARK minimizedRMSD -1
REMARK  0 active torsions:
REMARK  status: ('A' for Active; 'I' for Inactive)
ROOT
ATOM      1  C4' PXY d   1       1.502   4.858  -3.426  0.00  0.00     0.077 C 
ATOM      2  C1' PXY d   1       6.000   2.296  -6.000  0.00  0.00     0.077 C 
ATOM      3  C1  PXY d   1       4.815   2.970  -5.337  0.00  0.00    -0.082 A 
ATOM      4  C2  PXY d   1       4.970   3.557  -4.161  0.00  0.00     0.003 A 
ATOM      5  C3  PXY d   1       3.901   4.143  -3.532  0.00  0.00     0.003 A 
ATOM      6  C4  PXY d   1       2.673   4.174  -4.137  0.00  0.00    -0.082 A 
ATOM      7  C5  PXY d   1       2.509   3.586  -5.341  0.00  0.00     0.003 A 
ATOM      8  C6  PXY d   1       3.597   2.961  -5.944  0.00  0.00     0.003 A 
ENDROOT
TORSDOF 0
ENDMDL
