MODEL 1
REMARK minimizedAffinity -4.70873928
REMARK minimizedRMSD -1
REMARK  0 active torsions:
REMARK  status: ('A' for Active; 'I' for Inactive)
ROOT
ATOM      1  C4' PXY d   1      -0.098   3.468  -0.032  0.00  0.00     0.077 C 
ATOM      2  C1' PXY d   1       0.226  -2.297  -0.294  0.00  0.00     0.077 C 
ATOM      3  C1  PXY d   1       0.128  -0.786  -0.227  0.00  0.00    -0.082 A 
ATOM      4  C2  PXY d   1       1.168  -0.047  -0.577  0.00  0.00     0.003 A 
ATOM      5  C3  PXY d   1       1.107   1.321  -0.491  0.00  0.00     0.003 A 
ATOM      6  C4  PXY d   1      -0.048   1.939  -0.094  0.00  0.00    -0.082 A 
ATOM      7  C5  PXY d   1      -1.117   1.192   0.255  0.00  0.00     0.003 A 
ATOM      8  C6  PXY d   1      -1.021  -0.195   0.200  0.00  0.00     0.003 A 
ENDROOT
TORSDOF 0
ENDMDL
