MODEL 1
REMARK minimizedAffinity -4.69522619
REMARK minimizedRMSD -1
REMARK  0 active torsions:
REMARK  status: ('A' for Active; 'I' for Inactive)
ROOT
ATOM      1  C4' PXY d   1      -0.098   3.382   0.714  0.00  0.00     0.077 C 
ATOM      2  C1' PXY d   1      -0.647  -2.292  -0.243  0.00  0.00     0.077 C 
ATOM      3  C1  PXY d   1      -0.490  -0.805   0.006  0.00  0.00    -0.082 A 
ATOM      4  C2  PXY d   1      -1.413  -0.157   0.698  0.00  0.00     0.003 A 
ATOM      5  C3  PXY d   1      -1.303   1.194   0.906  0.00  0.00     0.003 A 
ATOM      6  C4  PXY d   1      -0.211   1.879   0.446  0.00  0.00    -0.082 A 
ATOM      7  C5  PXY d   1       0.740   1.223  -0.252  0.00  0.00     0.003 A 
ATOM      8  C6  PXY d   1       0.590  -0.141  -0.487  0.00  0.00     0.003 A 
ENDROOT
TORSDOF 0
ENDMDL
