MODEL 1
REMARK minimizedAffinity -3.89418197
REMARK minimizedRMSD -1
REMARK  0 active torsions:
REMARK  status: ('A' for Active; 'I' for Inactive)
ROOT
ATOM      1  C4' PXY d   1       0.128  -2.534  -0.246  0.00  0.00     0.077 C 
ATOM      2  C1' PXY d   1      -0.003   3.241  -0.028  0.00  0.00     0.077 C 
ATOM      3  C1  PXY d   1       0.022   1.726  -0.077  0.00  0.00    -0.082 A 
ATOM      4  C2  PXY d   1       1.127   1.101  -0.450  0.00  0.00     0.003 A 
ATOM      5  C3  PXY d   1       1.157  -0.267  -0.530  0.00  0.00     0.003 A 
ATOM      6  C4  PXY d   1       0.060  -1.006  -0.174  0.00  0.00    -0.082 A 
ATOM      7  C5  PXY d   1      -1.068  -0.377   0.218  0.00  0.00     0.003 A 
ATOM      8  C6  PXY d   1      -1.090   1.015   0.254  0.00  0.00     0.003 A 
ENDROOT
TORSDOF 0
ENDMDL
