MODEL 1
REMARK minimizedAffinity -3.80194235
REMARK minimizedRMSD -1
REMARK  0 active torsions:
REMARK  status: ('A' for Active; 'I' for Inactive)
ROOT
ATOM      1  C4' PXY d   1       2.266   0.919   0.859  0.00  0.00     0.077 C 
ATOM      2  C1' PXY d   1      -0.836  -3.549  -1.096  0.00  0.00     0.077 C 
ATOM      3  C1  PXY d   1      -0.026  -2.371  -0.594  0.00  0.00    -0.082 A 
ATOM      4  C2  PXY d   1       0.957  -2.573   0.268  0.00  0.00     0.003 A 
ATOM      5  C3  PXY d   1       1.680  -1.514   0.757  0.00  0.00     0.003 A 
ATOM      6  C4  PXY d   1       1.427  -0.242   0.318  0.00  0.00    -0.082 A 
ATOM      7  C5  PXY d   1       0.432  -0.029  -0.569  0.00  0.00     0.003 A 
ATOM      8  C6  PXY d   1      -0.316  -1.112  -1.022  0.00  0.00     0.003 A 
ENDROOT
TORSDOF 0
ENDMDL
