MODEL 1
REMARK minimizedAffinity -3.18894053
REMARK minimizedRMSD -1
REMARK  0 active torsions:
REMARK  status: ('A' for Active; 'I' for Inactive)
ROOT
ATOM      1  C4' PXY d   1      -0.624  -2.644  -0.468  0.00  0.00     0.077 C 
ATOM      2  C1' PXY d   1      -1.016   2.787   1.471  0.00  0.00     0.077 C 
ATOM      3  C1  PXY d   1      -0.904   1.367   0.954  0.00  0.00    -0.082 A 
ATOM      4  C2  PXY d   1      -1.911   0.526   1.128  0.00  0.00     0.003 A 
ATOM      5  C3  PXY d   1      -1.814  -0.771   0.694  0.00  0.00     0.003 A 
ATOM      6  C4  PXY d   1      -0.696  -1.198   0.029  0.00  0.00    -0.082 A 
ATOM      7  C5  PXY d   1       0.331  -0.343  -0.161  0.00  0.00     0.003 A 
ATOM      8  C6  PXY d   1       0.230   0.958   0.323  0.00  0.00     0.003 A 
ENDROOT
TORSDOF 0
ENDMDL
