MODEL 1
REMARK minimizedAffinity -3.8920362
REMARK minimizedRMSD -1
REMARK  0 active torsions:
REMARK  status: ('A' for Active; 'I' for Inactive)
ROOT
ATOM      1  C4' PXY d   1      -0.988   2.354   0.835  0.00  0.00     0.077 C 
ATOM      2  C1' PXY d   1       0.549  -2.793  -1.299  0.00  0.00     0.077 C 
ATOM      3  C1  PXY d   1       0.135  -1.448  -0.736  0.00  0.00    -0.082 A 
ATOM      4  C2  PXY d   1       0.733  -0.348  -1.163  0.00  0.00     0.003 A 
ATOM      5  C3  PXY d   1       0.393   0.874  -0.641  0.00  0.00     0.003 A 
ATOM      6  C4  PXY d   1      -0.608   0.976   0.288  0.00  0.00    -0.082 A 
ATOM      7  C5  PXY d   1      -1.231  -0.141   0.721  0.00  0.00     0.003 A 
ATOM      8  C6  PXY d   1      -0.842  -1.376   0.209  0.00  0.00     0.003 A 
ENDROOT
TORSDOF 0
ENDMDL
