MODEL 1
REMARK minimizedAffinity -1.90555239
REMARK minimizedRMSD -1
REMARK  0 active torsions:
REMARK  status: ('A' for Active; 'I' for Inactive)
ROOT
ATOM      1  C4' PXY d   1      -0.897   0.480   0.536  0.00  0.00     0.077 C 
ATOM      2  C1' PXY d   1       0.903  -4.409  -1.967  0.00  0.00     0.077 C 
ATOM      3  C1  PXY d   1       0.436  -3.131  -1.299  0.00  0.00    -0.082 A 
ATOM      4  C2  PXY d   1      -0.579  -2.457  -1.814  0.00  0.00     0.003 A 
ATOM      5  C3  PXY d   1      -0.994  -1.282  -1.242  0.00  0.00     0.003 A 
ATOM      6  C4  PXY d   1      -0.398  -0.820  -0.099  0.00  0.00    -0.082 A 
ATOM      7  C5  PXY d   1       0.632  -1.508   0.439  0.00  0.00     0.003 A 
ATOM      8  C6  PXY d   1       1.064  -2.676  -0.181  0.00  0.00     0.003 A 
ENDROOT
TORSDOF 0
ENDMDL
