MODEL 1
REMARK minimizedAffinity -2.7711463
REMARK minimizedRMSD -1
REMARK  0 active torsions:
REMARK  status: ('A' for Active; 'I' for Inactive)
ROOT
ATOM      1  C4' PXY d   1      -0.256  -2.594   0.042  0.00  0.00     0.077 C 
ATOM      2  C1' PXY d   1       0.804   3.079  -0.301  0.00  0.00     0.077 C 
ATOM      3  C1  PXY d   1       0.518   1.593  -0.201  0.00  0.00    -0.082 A 
ATOM      4  C2  PXY d   1       1.413   0.724  -0.640  0.00  0.00     0.003 A 
ATOM      5  C3  PXY d   1       1.157  -0.622  -0.587  0.00  0.00     0.003 A 
ATOM      6  C4  PXY d   1      -0.005  -1.085  -0.030  0.00  0.00    -0.082 A 
ATOM      7  C5  PXY d   1      -0.919  -0.204   0.430  0.00  0.00     0.003 A 
ATOM      8  C6  PXY d   1      -0.658   1.159   0.329  0.00  0.00     0.003 A 
ENDROOT
TORSDOF 0
ENDMDL
