MODEL 1
REMARK minimizedAffinity -3.51880836
REMARK minimizedRMSD -1
REMARK  0 active torsions:
REMARK  status: ('A' for Active; 'I' for Inactive)
ROOT
ATOM      1  C4' PXY d   1      -0.204  -1.996   0.005  0.00  0.00     0.077 C 
ATOM      2  C1' PXY d   1       0.501   3.736  -0.265  0.00  0.00     0.077 C 
ATOM      3  C1  PXY d   1       0.308   2.234  -0.184  0.00  0.00    -0.082 A 
ATOM      4  C2  PXY d   1       1.227   1.428  -0.692  0.00  0.00     0.003 A 
ATOM      5  C3  PXY d   1       1.053   0.069  -0.656  0.00  0.00     0.003 A 
ATOM      6  C4  PXY d   1      -0.047  -0.473  -0.046  0.00  0.00    -0.082 A 
ATOM      7  C5  PXY d   1      -0.983   0.342   0.484  0.00  0.00     0.003 A 
ATOM      8  C6  PXY d   1      -0.808   1.720   0.401  0.00  0.00     0.003 A 
ENDROOT
TORSDOF 0
ENDMDL
