MODEL 1
REMARK minimizedAffinity 7.86613274
REMARK minimizedRMSD -1
REMARK  0 active torsions:
REMARK  status: ('A' for Active; 'I' for Inactive)
ROOT
ATOM      1  C   UNL d   1       1.835  -4.200   0.896  0.00  0.00     0.172 C 
ATOM      2  N   UNL d   1       0.724  -3.282   0.985  0.00  0.00    -0.070 N 
ATOM      3  C1  UNL d   1       0.812  -1.946   1.274  0.00  0.00    -0.004 A 
ATOM      4  C2  UNL d   1      -0.464  -1.426   1.263  0.00  0.00    -0.047 A 
ATOM      5  C3  UNL d   1      -1.350  -2.486   0.956  0.00  0.00    -0.047 A 
ATOM      6  C4  UNL d   1      -0.588  -3.623   0.789  0.00  0.00    -0.004 A 
ENDROOT
TORSDOF 0
ENDMDL
