MODEL 1
REMARK minimizedAffinity 1.57235014
REMARK minimizedRMSD -1
REMARK  0 active torsions:
REMARK  status: ('A' for Active; 'I' for Inactive)
ROOT
ATOM      1  C   UNL d   1       1.905   3.356  -0.586  0.00  0.00     0.172 C 
ATOM      2  N   UNL d   1       2.112   2.155   0.189  0.00  0.00    -0.070 N 
ATOM      3  C1  UNL d   1       3.321   1.555   0.423  0.00  0.00    -0.004 A 
ATOM      4  C2  UNL d   1       3.094   0.441   1.203  0.00  0.00    -0.047 A 
ATOM      5  C3  UNL d   1       1.702   0.369   1.445  0.00  0.00    -0.047 A 
ATOM      6  C4  UNL d   1       1.118   1.443   0.806  0.00  0.00    -0.004 A 
ENDROOT
TORSDOF 0
ENDMDL
