MODEL 1
REMARK minimizedAffinity 4.17678833
REMARK minimizedRMSD -1
REMARK  0 active torsions:
REMARK  status: ('A' for Active; 'I' for Inactive)
ROOT
ATOM      1  C   UNL d   1       0.309  -3.199  -2.354  0.00  0.00     0.172 C 
ATOM      2  N   UNL d   1      -0.340  -2.841  -1.115  0.00  0.00    -0.070 N 
ATOM      3  C1  UNL d   1       0.295  -2.463   0.039  0.00  0.00    -0.004 A 
ATOM      4  C2  UNL d   1      -0.672  -2.205   0.987  0.00  0.00    -0.047 A 
ATOM      5  C3  UNL d   1      -1.930  -2.435   0.382  0.00  0.00    -0.047 A 
ATOM      6  C4  UNL d   1      -1.696  -2.828  -0.918  0.00  0.00    -0.004 A 
ENDROOT
TORSDOF 0
ENDMDL
