MODEL 1
REMARK minimizedAffinity 0.856700718
REMARK minimizedRMSD -1
REMARK  0 active torsions:
REMARK  status: ('A' for Active; 'I' for Inactive)
ROOT
ATOM      1  C   UNL d   1      -0.736  -1.797   0.854  0.00  0.00     0.172 C 
ATOM      2  N   UNL d   1      -1.004  -1.892  -0.561  0.00  0.00    -0.070 N 
ATOM      3  C1  UNL d   1      -2.205  -1.634  -1.166  0.00  0.00    -0.004 A 
ATOM      4  C2  UNL d   1      -2.049  -1.838  -2.520  0.00  0.00    -0.047 A 
ATOM      5  C3  UNL d   1      -0.708  -2.234  -2.736  0.00  0.00    -0.047 A 
ATOM      6  C4  UNL d   1      -0.083  -2.259  -1.507  0.00  0.00    -0.004 A 
ENDROOT
TORSDOF 0
ENDMDL
