MODEL 1
REMARK minimizedAffinity -0.0301060285
REMARK minimizedRMSD -1
REMARK  0 active torsions:
REMARK  status: ('A' for Active; 'I' for Inactive)
ROOT
ATOM      1  C   UNL d   1       1.222  -2.992  -1.478  0.00  0.00     0.172 C 
ATOM      2  N   UNL d   1      -0.189  -3.299  -1.506  0.00  0.00    -0.070 N 
ATOM      3  C1  UNL d   1      -1.206  -2.383  -1.510  0.00  0.00    -0.004 A 
ATOM      4  C2  UNL d   1      -2.397  -3.075  -1.541  0.00  0.00    -0.047 A 
ATOM      5  C3  UNL d   1      -2.086  -4.455  -1.555  0.00  0.00    -0.047 A 
ATOM      6  C4  UNL d   1      -0.711  -4.566  -1.533  0.00  0.00    -0.004 A 
ENDROOT
TORSDOF 0
ENDMDL
