MODEL 1
REMARK minimizedAffinity 1.09549391
REMARK minimizedRMSD -1
REMARK  0 active torsions:
REMARK  status: ('A' for Active; 'I' for Inactive)
ROOT
ATOM      1  C   UNL d   1       2.009   0.309   1.075  0.00  0.00     0.172 C 
ATOM      2  N   UNL d   1       1.542  -0.818   1.848  0.00  0.00    -0.070 N 
ATOM      3  C1  UNL d   1       2.022  -1.199   3.073  0.00  0.00    -0.004 A 
ATOM      4  C2  UNL d   1       1.318  -2.314   3.474  0.00  0.00    -0.047 A 
ATOM      5  C3  UNL d   1       0.383  -2.613   2.454  0.00  0.00    -0.047 A 
ATOM      6  C4  UNL d   1       0.544  -1.671   1.460  0.00  0.00    -0.004 A 
ENDROOT
TORSDOF 0
ENDMDL
