MODEL 1
REMARK minimizedAffinity 1.60014701
REMARK minimizedRMSD -1
REMARK  0 active torsions:
REMARK  status: ('A' for Active; 'I' for Inactive)
ROOT
ATOM      1  C   UNL d   1       0.875  -0.879   3.951  0.00  0.00     0.172 C 
ATOM      2  N   UNL d   1       1.147  -2.186   4.503  0.00  0.00    -0.070 N 
ATOM      3  C1  UNL d   1       2.204  -2.506   5.311  0.00  0.00    -0.004 A 
ATOM      4  C2  UNL d   1       2.107  -3.845   5.622  0.00  0.00    -0.047 A 
ATOM      5  C3  UNL d   1       0.952  -4.347   4.977  0.00  0.00    -0.047 A 
ATOM      6  C4  UNL d   1       0.377  -3.298   4.291  0.00  0.00    -0.004 A 
ENDROOT
TORSDOF 0
ENDMDL
