MODEL 1
REMARK minimizedAffinity -1.968593
REMARK minimizedRMSD -1
REMARK  0 active torsions:
REMARK  status: ('A' for Active; 'I' for Inactive)
ROOT
ATOM      1  C   UNL d   1       0.030  -1.379   0.487  0.00  0.00     0.172 C 
ATOM      2  N   UNL d   1       0.639  -0.072   0.562  0.00  0.00    -0.070 N 
ATOM      3  C1  UNL d   1       0.125   1.080   0.028  0.00  0.00    -0.004 A 
ATOM      4  C2  UNL d   1       1.000   2.105   0.315  0.00  0.00    -0.047 A 
ATOM      5  C3  UNL d   1       2.078   1.550   1.045  0.00  0.00    -0.047 A 
ATOM      6  C4  UNL d   1       1.829   0.201   1.183  0.00  0.00    -0.004 A 
ENDROOT
TORSDOF 0
ENDMDL
