MODEL 1
REMARK minimizedAffinity 7.92563486
REMARK minimizedRMSD -1
REMARK  0 active torsions:
REMARK  status: ('A' for Active; 'I' for Inactive)
ROOT
ATOM      1  C1  DEN d   1       0.366  -2.217   1.587  0.00  0.00     0.130 A 
ATOM      2  C2  DEN d   1      -0.731  -2.818   2.341  0.00  0.00    -0.031 A 
ATOM      3  C3  DEN d   1      -1.411  -1.744   3.093  0.00  0.00     0.027 A 
ATOM      4  C4  DEN d   1      -0.876   0.778   3.159  0.00  0.00     0.027 A 
ATOM      5  C5  DEN d   1      -0.028   1.759   2.693  0.00  0.00    -0.003 A 
ATOM      6  C6  DEN d   1       1.022   1.480   1.860  0.00  0.00     0.001 A 
ATOM      7  C7  DEN d   1       1.225   0.195   1.430  0.00  0.00     0.017 A 
ATOM      8  C8  DEN d   1       0.379  -0.800   1.901  0.00  0.00    -0.094 A 
ATOM      9  C9  DEN d   1      -0.684  -0.496   2.734  0.00  0.00    -0.072 A 
ENDROOT
TORSDOF 0
ENDMDL
