MODEL 1
REMARK minimizedAffinity 8.34120846
REMARK minimizedRMSD -1
REMARK  0 active torsions:
REMARK  status: ('A' for Active; 'I' for Inactive)
ROOT
ATOM      1  C1  DEN d   1       2.013  -1.139   1.747  0.00  0.00     0.130 A 
ATOM      2  C2  DEN d   1       0.991  -0.915   0.728  0.00  0.00    -0.031 A 
ATOM      3  C3  DEN d   1      -0.287  -0.643   1.416  0.00  0.00     0.027 A 
ATOM      4  C4  DEN d   1      -0.779  -0.542   3.946  0.00  0.00     0.027 A 
ATOM      5  C5  DEN d   1      -0.231  -0.676   5.202  0.00  0.00    -0.003 A 
ATOM      6  C6  DEN d   1       1.085  -1.004   5.393  0.00  0.00     0.001 A 
ATOM      7  C7  DEN d   1       1.909  -1.165   4.310  0.00  0.00     0.017 A 
ATOM      8  C8  DEN d   1       1.361  -1.039   3.040  0.00  0.00    -0.094 A 
ATOM      9  C9  DEN d   1       0.031  -0.695   2.868  0.00  0.00    -0.072 A 
ENDROOT
TORSDOF 0
ENDMDL
