MODEL 1
REMARK minimizedAffinity 14.1505871
REMARK minimizedRMSD -1
REMARK  0 active torsions:
REMARK  status: ('A' for Active; 'I' for Inactive)
ROOT
ATOM      1  C1  DEN d   1       4.750   3.316  -0.750  0.00  0.00     0.130 A 
ATOM      2  C2  DEN d   1       3.527   3.011  -0.014  0.00  0.00    -0.031 A 
ATOM      3  C3  DEN d   1       3.018   1.710  -0.492  0.00  0.00     0.027 A 
ATOM      4  C4  DEN d   1       4.003   0.144  -2.289  0.00  0.00     0.027 A 
ATOM      5  C5  DEN d   1       5.025  -0.018  -3.199  0.00  0.00    -0.003 A 
ATOM      6  C6  DEN d   1       6.000   0.927  -3.378  0.00  0.00     0.001 A 
ATOM      7  C7  DEN d   1       5.999   2.058  -2.605  0.00  0.00     0.017 A 
ATOM      8  C8  DEN d   1       4.968   2.232  -1.691  0.00  0.00    -0.094 A 
ATOM      9  C9  DEN d   1       3.999   1.259  -1.516  0.00  0.00    -0.072 A 
ENDROOT
TORSDOF 0
ENDMDL
