MODEL 1
REMARK minimizedAffinity 11.6812706
REMARK minimizedRMSD -1
REMARK  0 active torsions:
REMARK  status: ('A' for Active; 'I' for Inactive)
ROOT
ATOM      1  C1  DEN d   1      -1.626  -1.107  -1.516  0.00  0.00     0.130 A 
ATOM      2  C2  DEN d   1      -2.122  -0.980  -0.148  0.00  0.00    -0.031 A 
ATOM      3  C3  DEN d   1      -0.966  -0.724   0.734  0.00  0.00     0.027 A 
ATOM      4  C4  DEN d   1       1.529  -0.507   0.119  0.00  0.00     0.027 A 
ATOM      5  C5  DEN d   1       2.438  -0.551  -0.915  0.00  0.00    -0.003 A 
ATOM      6  C6  DEN d   1       2.063  -0.815  -2.206  0.00  0.00     0.001 A 
ATOM      7  C7  DEN d   1       0.739  -1.001  -2.504  0.00  0.00     0.017 A 
ATOM      8  C8  DEN d   1      -0.182  -0.965  -1.466  0.00  0.00    -0.094 A 
ATOM      9  C9  DEN d   1       0.215  -0.685  -0.169  0.00  0.00    -0.072 A 
ENDROOT
TORSDOF 0
ENDMDL
