MODEL 1
REMARK minimizedAffinity 8.7905674
REMARK minimizedRMSD -1
REMARK  0 active torsions:
REMARK  status: ('A' for Active; 'I' for Inactive)
ROOT
ATOM      1  C1  DEN d   1       2.126   3.643   5.804  0.00  0.00     0.130 A 
ATOM      2  C2  DEN d   1       1.318   4.859   5.795  0.00  0.00    -0.031 A 
ATOM      3  C3  DEN d   1       2.214   6.000   5.517  0.00  0.00     0.027 A 
ATOM      4  C4  DEN d   1       4.759   6.000   5.096  0.00  0.00     0.027 A 
ATOM      5  C5  DEN d   1       5.883   5.208   5.016  0.00  0.00    -0.003 A 
ATOM      6  C6  DEN d   1       5.840   3.855   5.223  0.00  0.00     0.001 A 
ATOM      7  C7  DEN d   1       4.640   3.245   5.478  0.00  0.00     0.017 A 
ATOM      8  C8  DEN d   1       3.503   4.038   5.569  0.00  0.00    -0.094 A 
ATOM      9  C9  DEN d   1       3.565   5.402   5.343  0.00  0.00    -0.072 A 
ENDROOT
TORSDOF 0
ENDMDL
