MODEL 1
REMARK minimizedAffinity 7.10780144
REMARK minimizedRMSD -1
REMARK  0 active torsions:
REMARK  status: ('A' for Active; 'I' for Inactive)
ROOT
ATOM      1  C1  DEN d   1      -0.520   1.226  -3.333  0.00  0.00     0.130 A 
ATOM      2  C2  DEN d   1      -1.473   2.324  -3.468  0.00  0.00    -0.031 A 
ATOM      3  C3  DEN d   1      -2.672   1.988  -2.674  0.00  0.00     0.027 A 
ATOM      4  C4  DEN d   1      -3.139  -0.112  -1.251  0.00  0.00     0.027 A 
ATOM      5  C5  DEN d   1      -2.631  -1.325  -0.839  0.00  0.00    -0.003 A 
ATOM      6  C6  DEN d   1      -1.409  -1.784  -1.254  0.00  0.00     0.001 A 
ATOM      7  C7  DEN d   1      -0.633  -1.004  -2.070  0.00  0.00     0.017 A 
ATOM      8  C8  DEN d   1      -1.141   0.216  -2.495  0.00  0.00    -0.094 A 
ATOM      9  C9  DEN d   1      -2.373   0.668  -2.055  0.00  0.00    -0.072 A 
ENDROOT
TORSDOF 0
ENDMDL
