MODEL 1
REMARK minimizedAffinity 17.9826508
REMARK minimizedRMSD -1
REMARK  0 active torsions:
REMARK  status: ('A' for Active; 'I' for Inactive)
ROOT
ATOM      1  C1  DEN d   1       1.943   4.633   3.892  0.00  0.00     0.130 A 
ATOM      2  C2  DEN d   1       1.159   5.349   4.895  0.00  0.00    -0.031 A 
ATOM      3  C3  DEN d   1       2.093   5.897   5.899  0.00  0.00     0.027 A 
ATOM      4  C4  DEN d   1       4.664   5.711   5.995  0.00  0.00     0.027 A 
ATOM      5  C5  DEN d   1       5.776   5.191   5.371  0.00  0.00    -0.003 A 
ATOM      6  C6  DEN d   1       5.686   4.426   4.238  0.00  0.00     0.001 A 
ATOM      7  C7  DEN d   1       4.462   4.197   3.668  0.00  0.00     0.017 A 
ATOM      8  C8  DEN d   1       3.335   4.712   4.297  0.00  0.00    -0.094 A 
ATOM      9  C9  DEN d   1       3.448   5.493   5.434  0.00  0.00    -0.072 A 
ENDROOT
TORSDOF 0
ENDMDL
