MODEL 1
REMARK minimizedAffinity 3.16673088
REMARK minimizedRMSD -1
REMARK  0 active torsions:
REMARK  status: ('A' for Active; 'I' for Inactive)
ROOT
ATOM      1  C1  DEN d   1       5.193   0.884   0.502  0.00  0.00     0.130 A 
ATOM      2  C2  DEN d   1       5.611   2.271   0.315  0.00  0.00    -0.031 A 
ATOM      3  C3  DEN d   1       6.000   2.443  -1.100  0.00  0.00     0.027 A 
ATOM      4  C4  DEN d   1       5.990   0.709  -3.008  0.00  0.00     0.027 A 
ATOM      5  C5  DEN d   1       5.726  -0.604  -3.330  0.00  0.00    -0.003 A 
ATOM      6  C6  DEN d   1       5.302  -1.514  -2.398  0.00  0.00     0.001 A 
ATOM      7  C7  DEN d   1       5.086  -1.112  -1.107  0.00  0.00     0.017 A 
ATOM      8  C8  DEN d   1       5.357   0.209  -0.773  0.00  0.00    -0.094 A 
ATOM      9  C9  DEN d   1       5.773   1.116  -1.732  0.00  0.00    -0.072 A 
ENDROOT
TORSDOF 0
ENDMDL
