MODEL 1
REMARK minimizedAffinity -3.36381102
REMARK minimizedRMSD -1
REMARK  0 active torsions:
REMARK  status: ('A' for Active; 'I' for Inactive)
ROOT
ATOM      1  C1  DEN d   1      -2.224  -2.167   1.594  0.00  0.00     0.130 A 
ATOM      2  C2  DEN d   1      -3.407  -2.977   1.316  0.00  0.00    -0.031 A 
ATOM      3  C3  DEN d   1      -3.781  -2.768  -0.097  0.00  0.00     0.027 A 
ATOM      4  C4  DEN d   1      -2.646  -1.281  -1.873  0.00  0.00     0.027 A 
ATOM      5  C5  DEN d   1      -1.616  -0.396  -2.104  0.00  0.00    -0.003 A 
ATOM      6  C6  DEN d   1      -0.744  -0.016  -1.118  0.00  0.00     0.001 A 
ATOM      7  C7  DEN d   1      -0.859  -0.558   0.134  0.00  0.00     0.017 A 
ATOM      8  C8  DEN d   1      -1.899  -1.445   0.377  0.00  0.00    -0.094 A 
ATOM      9  C9  DEN d   1      -2.763  -1.826  -0.636  0.00  0.00    -0.072 A 
ENDROOT
TORSDOF 0
ENDMDL
