MODEL 1
REMARK minimizedAffinity -4.57963896
REMARK minimizedRMSD -1
REMARK  0 active torsions:
REMARK  status: ('A' for Active; 'I' for Inactive)
ROOT
ATOM      1  C1  DEN d   1      -0.450   0.490  -1.734  0.00  0.00     0.130 A 
ATOM      2  C2  DEN d   1       0.852   0.928  -1.239  0.00  0.00    -0.031 A 
ATOM      3  C3  DEN d   1       1.108   0.240   0.043  0.00  0.00     0.027 A 
ATOM      4  C4  DEN d   1      -0.377  -1.454   1.299  0.00  0.00     0.027 A 
ATOM      5  C5  DEN d   1      -1.578  -2.127   1.277  0.00  0.00    -0.003 A 
ATOM      6  C6  DEN d   1      -2.495  -1.951   0.275  0.00  0.00     0.001 A 
ATOM      7  C7  DEN d   1      -2.206  -1.114  -0.771  0.00  0.00     0.017 A 
ATOM      8  C8  DEN d   1      -0.999  -0.427  -0.751  0.00  0.00    -0.094 A 
ATOM      9  C9  DEN d   1      -0.080  -0.628   0.264  0.00  0.00    -0.072 A 
ENDROOT
TORSDOF 0
ENDMDL
