MODEL 1
REMARK minimizedAffinity -1.55143094
REMARK minimizedRMSD -1
REMARK  0 active torsions:
REMARK  status: ('A' for Active; 'I' for Inactive)
ROOT
ATOM      1  C1  DEN d   1       0.467   0.411  -0.060  0.00  0.00     0.130 A 
ATOM      2  C2  DEN d   1       0.768   0.566  -1.480  0.00  0.00    -0.031 A 
ATOM      3  C3  DEN d   1      -0.297  -0.107  -2.249  0.00  0.00     0.027 A 
ATOM      4  C4  DEN d   1      -2.376  -1.364  -1.384  0.00  0.00     0.027 A 
ATOM      5  C5  DEN d   1      -3.053  -1.770  -0.255  0.00  0.00    -0.003 A 
ATOM      6  C6  DEN d   1      -2.591  -1.509   1.008  0.00  0.00     0.001 A 
ATOM      7  C7  DEN d   1      -1.441  -0.783   1.173  0.00  0.00     0.017 A 
ATOM      8  C8  DEN d   1      -0.749  -0.377   0.039  0.00  0.00    -0.094 A 
ATOM      9  C9  DEN d   1      -1.239  -0.640  -1.228  0.00  0.00    -0.072 A 
ENDROOT
TORSDOF 0
ENDMDL
