MODEL 1
REMARK minimizedAffinity 2.33988285
REMARK minimizedRMSD -1
REMARK  0 active torsions:
REMARK  status: ('A' for Active; 'I' for Inactive)
ROOT
ATOM      1  C1  DEN d   1      -2.163  -0.350  -1.811  0.00  0.00     0.130 A 
ATOM      2  C2  DEN d   1      -1.331   0.730  -2.335  0.00  0.00    -0.031 A 
ATOM      3  C3  DEN d   1      -0.169   0.888  -1.437  0.00  0.00     0.027 A 
ATOM      4  C4  DEN d   1       0.421  -0.430   0.700  0.00  0.00     0.027 A 
ATOM      5  C5  DEN d   1       0.012  -1.435   1.548  0.00  0.00    -0.003 A 
ATOM      6  C6  DEN d   1      -1.159  -2.120   1.357  0.00  0.00     0.001 A 
ATOM      7  C7  DEN d   1      -1.939  -1.839   0.266  0.00  0.00     0.017 A 
ATOM      8  C8  DEN d   1      -1.537  -0.823  -0.589  0.00  0.00    -0.094 A 
ATOM      9  C9  DEN d   1      -0.343  -0.150  -0.386  0.00  0.00    -0.072 A 
ENDROOT
TORSDOF 0
ENDMDL
