MODEL 1
REMARK minimizedAffinity -2.91888642
REMARK minimizedRMSD -1
REMARK  0 active torsions:
REMARK  status: ('A' for Active; 'I' for Inactive)
ROOT
ATOM      1  C1  DEN d   1      -1.999   0.053   1.354  0.00  0.00     0.130 A 
ATOM      2  C2  DEN d   1      -3.371  -0.244   0.950  0.00  0.00    -0.031 A 
ATOM      3  C3  DEN d   1      -3.398  -0.367  -0.521  0.00  0.00     0.027 A 
ATOM      4  C4  DEN d   1      -1.458  -0.132  -2.204  0.00  0.00     0.027 A 
ATOM      5  C5  DEN d   1      -0.112   0.128  -2.337  0.00  0.00    -0.003 A 
ATOM      6  C6  DEN d   1       0.686   0.413  -1.261  0.00  0.00     0.001 A 
ATOM      7  C7  DEN d   1       0.153   0.399   0.001  0.00  0.00     0.017 A 
ATOM      8  C8  DEN d   1      -1.205   0.145   0.142  0.00  0.00    -0.094 A 
ATOM      9  C9  DEN d   1      -1.992  -0.152  -0.957  0.00  0.00    -0.072 A 
ENDROOT
TORSDOF 0
ENDMDL
