MODEL 1
REMARK minimizedAffinity -3.96059918
REMARK minimizedRMSD -1
REMARK  0 active torsions:
REMARK  status: ('A' for Active; 'I' for Inactive)
ROOT
ATOM      1  C1  DEN d   1       0.065  -2.155   2.107  0.00  0.00     0.130 A 
ATOM      2  C2  DEN d   1      -1.276  -2.732   2.157  0.00  0.00    -0.031 A 
ATOM      3  C3  DEN d   1      -2.086  -2.094   1.099  0.00  0.00     0.027 A 
ATOM      4  C4  DEN d   1      -1.397  -0.284  -0.604  0.00  0.00     0.027 A 
ATOM      5  C5  DEN d   1      -0.365   0.525  -1.026  0.00  0.00    -0.003 A 
ATOM      6  C6  DEN d   1       0.862   0.521  -0.418  0.00  0.00     0.001 A 
ATOM      7  C7  DEN d   1       1.103  -0.340   0.620  0.00  0.00     0.017 A 
ATOM      8  C8  DEN d   1       0.065  -1.153   1.057  0.00  0.00    -0.094 A 
ATOM      9  C9  DEN d   1      -1.165  -1.143   0.420  0.00  0.00    -0.072 A 
ENDROOT
TORSDOF 0
ENDMDL
