MODEL 1
REMARK minimizedAffinity -3.77523851
REMARK minimizedRMSD -1
REMARK  0 active torsions:
REMARK  status: ('A' for Active; 'I' for Inactive)
ROOT
ATOM      1  C   UNL d   1      -0.575   0.742   0.016  0.00  0.00     0.172 C 
ATOM      2  N   UNL d   1       0.783   0.319   0.262  0.00  0.00    -0.070 N 
ATOM      3  C1  UNL d   1       1.206  -0.978   0.385  0.00  0.00    -0.004 A 
ATOM      4  C2  UNL d   1       2.565  -0.959   0.613  0.00  0.00    -0.047 A 
ATOM      5  C3  UNL d   1       2.973   0.395   0.629  0.00  0.00    -0.047 A 
ATOM      6  C4  UNL d   1       1.850   1.165   0.410  0.00  0.00    -0.004 A 
ENDROOT
TORSDOF 0
ENDMDL
