MODEL 1
REMARK minimizedAffinity -3.07245016
REMARK minimizedRMSD -1
REMARK  0 active torsions:
REMARK  status: ('A' for Active; 'I' for Inactive)
ROOT
ATOM      1  C   UNL d   1       2.267  -1.447   0.841  0.00  0.00     0.172 C 
ATOM      2  N   UNL d   1       1.143  -0.684   0.350  0.00  0.00    -0.070 N 
ATOM      3  C1  UNL d   1       0.108  -1.179  -0.397  0.00  0.00    -0.004 A 
ATOM      4  C2  UNL d   1      -0.756  -0.138  -0.663  0.00  0.00    -0.047 A 
ATOM      5  C3  UNL d   1      -0.220   1.022  -0.055  0.00  0.00    -0.047 A 
ATOM      6  C4  UNL d   1       0.956   0.656   0.565  0.00  0.00    -0.004 A 
ENDROOT
TORSDOF 0
ENDMDL
