MODEL 1
REMARK minimizedAffinity -2.35293317
REMARK minimizedRMSD -1
REMARK  0 active torsions:
REMARK  status: ('A' for Active; 'I' for Inactive)
ROOT
ATOM      1  C   UNL d   1       2.672  -1.484  -0.915  0.00  0.00     0.172 C 
ATOM      2  N   UNL d   1       1.809  -1.118   0.183  0.00  0.00    -0.070 N 
ATOM      3  C1  UNL d   1       0.482  -0.797   0.082  0.00  0.00    -0.004 A 
ATOM      4  C2  UNL d   1       0.019  -0.511   1.348  0.00  0.00    -0.047 A 
ATOM      5  C3  UNL d   1       1.107  -0.663   2.241  0.00  0.00    -0.047 A 
ATOM      6  C4  UNL d   1       2.202  -1.040   1.493  0.00  0.00    -0.004 A 
ENDROOT
TORSDOF 0
ENDMDL
