MODEL 1
REMARK minimizedAffinity -4.18798828
REMARK minimizedRMSD -1
REMARK  0 active torsions:
REMARK  status: ('A' for Active; 'I' for Inactive)
ROOT
ATOM      1  C   UNL d   1      -0.595   0.790   0.160  0.00  0.00     0.172 C 
ATOM      2  N   UNL d   1       0.760   0.370   0.426  0.00  0.00    -0.070 N 
ATOM      3  C1  UNL d   1       1.182  -0.926   0.562  0.00  0.00    -0.004 A 
ATOM      4  C2  UNL d   1       2.538  -0.905   0.808  0.00  0.00    -0.047 A 
ATOM      5  C3  UNL d   1       2.945   0.450   0.822  0.00  0.00    -0.047 A 
ATOM      6  C4  UNL d   1       1.825   1.218   0.583  0.00  0.00    -0.004 A 
ENDROOT
TORSDOF 0
ENDMDL
