MODEL 1
REMARK minimizedAffinity -3.23650813
REMARK minimizedRMSD -1
REMARK  0 active torsions:
REMARK  status: ('A' for Active; 'I' for Inactive)
ROOT
ATOM      1  C   UNL d   1       2.772  -1.371   0.830  0.00  0.00     0.172 C 
ATOM      2  N   UNL d   1       1.627  -0.650   0.325  0.00  0.00    -0.070 N 
ATOM      3  C1  UNL d   1       1.470   0.710   0.339  0.00  0.00    -0.004 A 
ATOM      4  C2  UNL d   1       0.249   1.000  -0.231  0.00  0.00    -0.047 A 
ATOM      5  C3  UNL d   1      -0.349  -0.229  -0.599  0.00  0.00    -0.047 A 
ATOM      6  C4  UNL d   1       0.526  -1.234  -0.243  0.00  0.00    -0.004 A 
ENDROOT
TORSDOF 0
ENDMDL
