MODEL 1
REMARK minimizedAffinity -3.34384894
REMARK minimizedRMSD -1
REMARK  0 active torsions:
REMARK  status: ('A' for Active; 'I' for Inactive)
ROOT
ATOM      1  C   UNL d   1      -0.778   0.741  -0.040  0.00  0.00     0.172 C 
ATOM      2  N   UNL d   1       0.363  -0.093   0.254  0.00  0.00    -0.070 N 
ATOM      3  C1  UNL d   1       0.536  -1.386  -0.164  0.00  0.00    -0.004 A 
ATOM      4  C2  UNL d   1       1.747  -1.828   0.323  0.00  0.00    -0.047 A 
ATOM      5  C3  UNL d   1       2.321  -0.766   1.061  0.00  0.00    -0.047 A 
ATOM      6  C4  UNL d   1       1.443   0.296   1.002  0.00  0.00    -0.004 A 
ENDROOT
TORSDOF 0
ENDMDL
