MODEL 1
REMARK minimizedAffinity 14.6154976
REMARK minimizedRMSD -1
REMARK  0 active torsions:
REMARK  status: ('A' for Active; 'I' for Inactive)
ROOT
ATOM      1  C   UNL d   1      -3.260   1.676  -4.891  0.00  0.00     0.124 A 
ATOM      2  C1  UNL d   1      -2.845   0.448  -4.396  0.00  0.00     0.062 A 
ATOM      3  C2  UNL d   1      -3.426  -0.075  -3.244  0.00  0.00     0.162 A 
ATOM      4  C3  UNL d   1      -4.430   0.630  -2.579  0.00  0.00    -0.034 A 
ATOM      5  C4  UNL d   1      -4.841   1.865  -3.083  0.00  0.00     0.162 A 
ATOM      6  C5  UNL d   1      -4.257   2.383  -4.234  0.00  0.00     0.062 A 
ATOM      7  F   UNL d   1      -4.660   3.570  -4.711  0.00  0.00    -0.097 F 
ATOM      8  F1  UNL d   1      -5.803   2.569  -2.469  0.00  0.00    -0.096 F 
ATOM      9  I   UNL d   1      -5.301  -0.149  -0.857  0.00  0.00    -0.060 I 
ATOM     10  F2  UNL d   1      -3.005  -1.264  -2.788  0.00  0.00    -0.096 F 
ATOM     11  F3  UNL d   1      -1.881  -0.237  -5.028  0.00  0.00    -0.097 F 
ATOM     12  F4  UNL d   1      -2.699   2.177  -5.999  0.00  0.00    -0.092 F 
ENDROOT
TORSDOF 0
ENDMDL
