MODEL 1
REMARK minimizedAffinity 29.9532585
REMARK minimizedRMSD -1
REMARK  0 active torsions:
REMARK  status: ('A' for Active; 'I' for Inactive)
ROOT
ATOM      1  C   UNL d   1      -3.049   1.504  -5.062  0.00  0.00     0.124 A 
ATOM      2  C1  UNL d   1      -4.073   0.884  -4.360  0.00  0.00     0.062 A 
ATOM      3  C2  UNL d   1      -4.916   1.633  -3.543  0.00  0.00     0.162 A 
ATOM      4  C3  UNL d   1      -4.739   3.011  -3.425  0.00  0.00    -0.034 A 
ATOM      5  C4  UNL d   1      -3.706   3.628  -4.134  0.00  0.00     0.162 A 
ATOM      6  C5  UNL d   1      -2.867   2.875  -4.949  0.00  0.00     0.062 A 
ATOM      7  F   UNL d   1      -1.878   3.477  -5.627  0.00  0.00    -0.097 F 
ATOM      8  F1  UNL d   1      -3.508   4.952  -4.044  0.00  0.00    -0.096 F 
ATOM      9  I   UNL d   1      -5.997   4.134  -2.206  0.00  0.00    -0.060 I 
ATOM     10  F2  UNL d   1      -5.897   1.007  -2.876  0.00  0.00    -0.096 F 
ATOM     11  F3  UNL d   1      -4.251  -0.441  -4.467  0.00  0.00    -0.097 F 
ATOM     12  F4  UNL d   1      -2.240   0.781  -5.847  0.00  0.00    -0.092 F 
ENDROOT
TORSDOF 0
ENDMDL
