MODEL 1
REMARK minimizedAffinity 18.6040859
REMARK minimizedRMSD -1
REMARK  0 active torsions:
REMARK  status: ('A' for Active; 'I' for Inactive)
ROOT
ATOM      1  C   UNL d   1       2.690  -2.935  -1.833  0.00  0.00     0.124 A 
ATOM      2  C1  UNL d   1       2.793  -2.380  -0.565  0.00  0.00     0.062 A 
ATOM      3  C2  UNL d   1       3.452  -1.168  -0.383  0.00  0.00     0.162 A 
ATOM      4  C3  UNL d   1       4.012  -0.501  -1.473  0.00  0.00    -0.034 A 
ATOM      5  C4  UNL d   1       3.905  -1.066  -2.745  0.00  0.00     0.162 A 
ATOM      6  C5  UNL d   1       3.246  -2.278  -2.922  0.00  0.00     0.062 A 
ATOM      7  F   UNL d   1       3.148  -2.813  -4.148  0.00  0.00    -0.097 F 
ATOM      8  F1  UNL d   1       4.433  -0.451  -3.814  0.00  0.00    -0.096 F 
ATOM      9  I   UNL d   1       4.998   1.312  -1.205  0.00  0.00    -0.060 I 
ATOM     10  F2  UNL d   1       3.536  -0.655   0.853  0.00  0.00    -0.096 F 
ATOM     11  F3  UNL d   1       2.257  -3.014   0.488  0.00  0.00    -0.097 F 
ATOM     12  F4  UNL d   1       2.056  -4.103  -2.006  0.00  0.00    -0.092 F 
ENDROOT
TORSDOF 0
ENDMDL
