MODEL 1
REMARK minimizedAffinity 30.8591709
REMARK minimizedRMSD -1
REMARK  0 active torsions:
REMARK  status: ('A' for Active; 'I' for Inactive)
ROOT
ATOM      1  C   UNL d   1       0.516   0.877  -1.129  0.00  0.00     0.124 A 
ATOM      2  C1  UNL d   1      -0.259   1.274  -0.048  0.00  0.00     0.062 A 
ATOM      3  C2  UNL d   1       0.123   0.940   1.247  0.00  0.00     0.162 A 
ATOM      4  C3  UNL d   1       1.287   0.204   1.470  0.00  0.00    -0.034 A 
ATOM      5  C4  UNL d   1       2.061  -0.192   0.378  0.00  0.00     0.162 A 
ATOM      6  C5  UNL d   1       1.675   0.145  -0.915  0.00  0.00     0.062 A 
ATOM      7  F   UNL d   1       2.425  -0.239  -1.959  0.00  0.00    -0.097 F 
ATOM      8  F1  UNL d   1       3.186  -0.900   0.556  0.00  0.00    -0.096 F 
ATOM      9  I   UNL d   1       1.862  -0.298   3.406  0.00  0.00    -0.060 I 
ATOM     10  F2  UNL d   1      -0.645   1.336   2.273  0.00  0.00    -0.096 F 
ATOM     11  F3  UNL d   1      -1.380   1.981  -0.252  0.00  0.00    -0.097 F 
ATOM     12  F4  UNL d   1       0.145   1.200  -2.375  0.00  0.00    -0.092 F 
ENDROOT
TORSDOF 0
ENDMDL
