MODEL 1
REMARK minimizedAffinity 13.8953094
REMARK minimizedRMSD -1
REMARK  0 active torsions:
REMARK  status: ('A' for Active; 'I' for Inactive)
ROOT
ATOM      1  C   UNL d   1       4.314   1.107  -0.251  0.00  0.00     0.124 A 
ATOM      2  C1  UNL d   1       3.319   0.189   0.055  0.00  0.00     0.062 A 
ATOM      3  C2  UNL d   1       3.045  -0.862  -0.816  0.00  0.00     0.162 A 
ATOM      4  C3  UNL d   1       3.767  -1.001  -2.001  0.00  0.00    -0.034 A 
ATOM      5  C4  UNL d   1       4.765  -0.073  -2.303  0.00  0.00     0.162 A 
ATOM      6  C5  UNL d   1       5.036   0.976  -1.429  0.00  0.00     0.062 A 
ATOM      7  F   UNL d   1       5.998   1.862  -1.727  0.00  0.00    -0.097 F 
ATOM      8  F1  UNL d   1       5.479  -0.177  -3.434  0.00  0.00    -0.096 F 
ATOM      9  I   UNL d   1       3.359  -2.570  -3.306  0.00  0.00    -0.060 I 
ATOM     10  F2  UNL d   1       2.078  -1.734  -0.495  0.00  0.00    -0.096 F 
ATOM     11  F3  UNL d   1       2.620   0.315   1.192  0.00  0.00    -0.097 F 
ATOM     12  F4  UNL d   1       4.576   2.118   0.588  0.00  0.00    -0.092 F 
ENDROOT
TORSDOF 0
ENDMDL
