MODEL 1
REMARK minimizedAffinity 24.6914234
REMARK minimizedRMSD -1
REMARK  0 active torsions:
REMARK  status: ('A' for Active; 'I' for Inactive)
ROOT
ATOM      1  C   UNL d   1      -3.519   0.726  -4.987  0.00  0.00     0.124 A 
ATOM      2  C1  UNL d   1      -2.373   1.509  -4.986  0.00  0.00     0.062 A 
ATOM      3  C2  UNL d   1      -1.466   1.420  -3.934  0.00  0.00     0.162 A 
ATOM      4  C3  UNL d   1      -1.700   0.544  -2.875  0.00  0.00    -0.034 A 
ATOM      5  C4  UNL d   1      -2.855  -0.240  -2.882  0.00  0.00     0.162 A 
ATOM      6  C5  UNL d   1      -3.759  -0.147  -3.936  0.00  0.00     0.062 A 
ATOM      7  F   UNL d   1      -4.866  -0.905  -3.935  0.00  0.00    -0.097 F 
ATOM      8  F1  UNL d   1      -3.112  -1.093  -1.879  0.00  0.00    -0.096 F 
ATOM      9  I   UNL d   1      -0.346   0.408  -1.300  0.00  0.00    -0.060 I 
ATOM     10  F2  UNL d   1      -0.367   2.189  -3.959  0.00  0.00    -0.096 F 
ATOM     11  F3  UNL d   1      -2.140   2.354  -6.000  0.00  0.00    -0.097 F 
ATOM     12  F4  UNL d   1      -4.391   0.814  -6.000  0.00  0.00    -0.092 F 
ENDROOT
TORSDOF 0
ENDMDL
