MODEL 1
REMARK minimizedAffinity 20.0337791
REMARK minimizedRMSD -1
REMARK  0 active torsions:
REMARK  status: ('A' for Active; 'I' for Inactive)
ROOT
ATOM      1  C   UNL d   1      -0.392   1.068   0.338  0.00  0.00     0.124 A 
ATOM      2  C1  UNL d   1       0.301   1.139   1.539  0.00  0.00     0.062 A 
ATOM      3  C2  UNL d   1       1.653   0.814   1.587  0.00  0.00     0.162 A 
ATOM      4  C3  UNL d   1       2.323   0.416   0.430  0.00  0.00    -0.034 A 
ATOM      5  C4  UNL d   1       1.620   0.345  -0.773  0.00  0.00     0.162 A 
ATOM      6  C5  UNL d   1       0.268   0.671  -0.817  0.00  0.00     0.062 A 
ATOM      7  F   UNL d   1      -0.399   0.601  -1.978  0.00  0.00    -0.097 F 
ATOM      8  F1  UNL d   1       2.233  -0.034  -1.904  0.00  0.00    -0.096 F 
ATOM      9  I   UNL d   1       4.345  -0.071   0.499  0.00  0.00    -0.060 I 
ATOM     10  F2  UNL d   1       2.297   0.893   2.761  0.00  0.00    -0.096 F 
ATOM     11  F3  UNL d   1      -0.335   1.522   2.656  0.00  0.00    -0.097 F 
ATOM     12  F4  UNL d   1      -1.693   1.380   0.294  0.00  0.00    -0.092 F 
ENDROOT
TORSDOF 0
ENDMDL
