MODEL 1
REMARK minimizedAffinity 11.2813673
REMARK minimizedRMSD -1
REMARK  0 active torsions:
REMARK  status: ('A' for Active; 'I' for Inactive)
ROOT
ATOM      1  C   UNL d   1       0.383  -3.189  -1.017  0.00  0.00     0.124 A 
ATOM      2  C1  UNL d   1       1.545  -3.428  -0.295  0.00  0.00     0.062 A 
ATOM      3  C2  UNL d   1       2.447  -2.395  -0.058  0.00  0.00     0.162 A 
ATOM      4  C3  UNL d   1       2.191  -1.112  -0.543  0.00  0.00    -0.034 A 
ATOM      5  C4  UNL d   1       1.021  -0.879  -1.269  0.00  0.00     0.162 A 
ATOM      6  C5  UNL d   1       0.123  -1.915  -1.503  0.00  0.00     0.062 A 
ATOM      7  F   UNL d   1      -0.998  -1.682  -2.201  0.00  0.00    -0.097 F 
ATOM      8  F1  UNL d   1       0.744   0.342  -1.749  0.00  0.00    -0.096 F 
ATOM      9  I   UNL d   1       3.537   0.436  -0.190  0.00  0.00    -0.060 I 
ATOM     10  F2  UNL d   1       3.561  -2.654   0.642  0.00  0.00    -0.096 F 
ATOM     11  F3  UNL d   1       1.799  -4.658   0.174  0.00  0.00    -0.097 F 
ATOM     12  F4  UNL d   1      -0.482  -4.185  -1.245  0.00  0.00    -0.092 F 
ENDROOT
TORSDOF 0
ENDMDL
