MODEL 1
REMARK minimizedAffinity 24.2102604
REMARK minimizedRMSD -1
REMARK  0 active torsions:
REMARK  status: ('A' for Active; 'I' for Inactive)
ROOT
ATOM      1  C   UNL d   1      -1.238   1.990   0.801  0.00  0.00     0.124 A 
ATOM      2  C1  UNL d   1      -2.356   1.168   0.852  0.00  0.00     0.062 A 
ATOM      3  C2  UNL d   1      -3.447   1.518   1.643  0.00  0.00     0.162 A 
ATOM      4  C3  UNL d   1      -3.426   2.696   2.390  0.00  0.00    -0.034 A 
ATOM      5  C4  UNL d   1      -2.298   3.517   2.334  0.00  0.00     0.162 A 
ATOM      6  C5  UNL d   1      -1.210   3.163   1.542  0.00  0.00     0.062 A 
ATOM      7  F   UNL d   1      -0.131   3.958   1.495  0.00  0.00    -0.097 F 
ATOM      8  F1  UNL d   1      -2.244   4.656   3.040  0.00  0.00    -0.096 F 
ATOM      9  I   UNL d   1      -5.054   3.222   3.574  0.00  0.00    -0.060 I 
ATOM     10  F2  UNL d   1      -4.513   0.705   1.673  0.00  0.00    -0.096 F 
ATOM     11  F3  UNL d   1      -2.385   0.034   0.137  0.00  0.00    -0.097 F 
ATOM     12  F4  UNL d   1      -0.190   1.651   0.040  0.00  0.00    -0.092 F 
ENDROOT
TORSDOF 0
ENDMDL
