MODEL 1
REMARK minimizedAffinity 18.0795021
REMARK minimizedRMSD -1
REMARK  0 active torsions:
REMARK  status: ('A' for Active; 'I' for Inactive)
ROOT
ATOM      1  C   UNL d   1       1.212  -0.677  -0.417  0.00  0.00     0.124 A 
ATOM      2  C1  UNL d   1       1.662  -1.990  -0.393  0.00  0.00     0.062 A 
ATOM      3  C2  UNL d   1       0.805  -3.030  -0.740  0.00  0.00     0.162 A 
ATOM      4  C3  UNL d   1      -0.511  -2.762  -1.115  0.00  0.00    -0.034 A 
ATOM      5  C4  UNL d   1      -0.957  -1.439  -1.136  0.00  0.00     0.162 A 
ATOM      6  C5  UNL d   1      -0.096  -0.403  -0.788  0.00  0.00     0.062 A 
ATOM      7  F   UNL d   1      -0.533   0.865  -0.812  0.00  0.00    -0.097 F 
ATOM      8  F1  UNL d   1      -2.216  -1.146  -1.492  0.00  0.00    -0.096 F 
ATOM      9  I   UNL d   1      -1.796  -4.315  -1.634  0.00  0.00    -0.060 I 
ATOM     10  F2  UNL d   1       1.267  -4.289  -0.707  0.00  0.00    -0.096 F 
ATOM     11  F3  UNL d   1       2.926  -2.258  -0.033  0.00  0.00    -0.097 F 
ATOM     12  F4  UNL d   1       2.039   0.321  -0.081  0.00  0.00    -0.092 F 
ENDROOT
TORSDOF 0
ENDMDL
