MODEL 1
REMARK minimizedAffinity 9.46542454
REMARK minimizedRMSD -1
REMARK  0 active torsions:
REMARK  status: ('A' for Active; 'I' for Inactive)
ROOT
ATOM      1  O1  BZF d   1       2.366   0.697  -1.297  0.00  0.00    -0.204 OA
ATOM      2  C2  BZF d   1       2.551   1.913  -0.668  0.00  0.00     0.174 A 
ATOM      3  C3  BZF d   1       2.456   1.778   0.671  0.00  0.00    -0.012 A 
ATOM      4  C3A BZF d   1       2.289   0.375   0.897  0.00  0.00    -0.107 A 
ATOM      5  C4  BZF d   1       2.153  -0.384   2.024  0.00  0.00     0.055 A 
ATOM      6  C5  BZF d   1       1.933  -1.719   1.898  0.00  0.00    -0.016 A 
ATOM      7  C6  BZF d   1       1.838  -2.326   0.663  0.00  0.00     0.022 A 
ATOM      8  C7  BZF d   1       1.971  -1.615  -0.483  0.00  0.00     0.029 A 
ATOM      9  C7A BZF d   1       2.226  -0.271  -0.359  0.00  0.00     0.058 A 
ENDROOT
TORSDOF 0
ENDMDL
