MODEL 1
REMARK minimizedAffinity 10.8574924
REMARK minimizedRMSD -1
REMARK  0 active torsions:
REMARK  status: ('A' for Active; 'I' for Inactive)
ROOT
ATOM      1  O1  BZF d   1      -5.591   2.656   3.068  0.00  0.00    -0.204 OA
ATOM      2  C2  BZF d   1      -5.207   3.197   1.857  0.00  0.00     0.174 A 
ATOM      3  C3  BZF d   1      -5.066   4.535   1.954  0.00  0.00    -0.012 A 
ATOM      4  C3A BZF d   1      -5.291   4.838   3.334  0.00  0.00    -0.107 A 
ATOM      5  C4  BZF d   1      -5.274   5.997   4.056  0.00  0.00     0.055 A 
ATOM      6  C5  BZF d   1      -5.610   5.961   5.372  0.00  0.00    -0.016 A 
ATOM      7  C6  BZF d   1      -5.972   4.785   5.996  0.00  0.00     0.022 A 
ATOM      8  C7  BZF d   1      -5.999   3.609   5.323  0.00  0.00     0.029 A 
ATOM      9  C7A BZF d   1      -5.628   3.638   4.001  0.00  0.00     0.058 A 
ENDROOT
TORSDOF 0
ENDMDL
