MODEL 1
REMARK minimizedAffinity 17.5956478
REMARK minimizedRMSD -1
REMARK  0 active torsions:
REMARK  status: ('A' for Active; 'I' for Inactive)
ROOT
ATOM      1  O1  BZF d   1      -5.865   3.673   5.229  0.00  0.00    -0.204 OA
ATOM      2  C2  BZF d   1      -5.999   4.834   5.965  0.00  0.00     0.174 A 
ATOM      3  C3  BZF d   1      -5.945   5.917   5.164  0.00  0.00    -0.012 A 
ATOM      4  C3A BZF d   1      -5.858   5.398   3.834  0.00  0.00    -0.107 A 
ATOM      5  C4  BZF d   1      -5.791   5.981   2.601  0.00  0.00     0.055 A 
ATOM      6  C5  BZF d   1      -5.641   5.192   1.505  0.00  0.00    -0.016 A 
ATOM      7  C6  BZF d   1      -5.548   3.819   1.605  0.00  0.00     0.022 A 
ATOM      8  C7  BZF d   1      -5.615   3.195   2.806  0.00  0.00     0.029 A 
ATOM      9  C7A BZF d   1      -5.800   3.987   3.913  0.00  0.00     0.058 A 
ENDROOT
TORSDOF 0
ENDMDL
