MODEL 1
REMARK minimizedAffinity 9.0952158
REMARK minimizedRMSD -1
REMARK  0 active torsions:
REMARK  status: ('A' for Active; 'I' for Inactive)
ROOT
ATOM      1  O1  BZF d   1       4.219   0.432  -1.491  0.00  0.00    -0.204 OA
ATOM      2  C2  BZF d   1       4.257   1.267  -0.391  0.00  0.00     0.174 A 
ATOM      3  C3  BZF d   1       3.525   0.759   0.621  0.00  0.00    -0.012 A 
ATOM      4  C3A BZF d   1       3.071  -0.515   0.155  0.00  0.00    -0.107 A 
ATOM      5  C4  BZF d   1       2.312  -1.504   0.713  0.00  0.00     0.055 A 
ATOM      6  C5  BZF d   1       1.989  -2.591  -0.035  0.00  0.00    -0.016 A 
ATOM      7  C6  BZF d   1       2.401  -2.719  -1.345  0.00  0.00     0.022 A 
ATOM      8  C7  BZF d   1       3.159  -1.767  -1.941  0.00  0.00     0.029 A 
ATOM      9  C7A BZF d   1       3.516  -0.683  -1.177  0.00  0.00     0.058 A 
ENDROOT
TORSDOF 0
ENDMDL
