MODEL 1
REMARK minimizedAffinity 7.5680747
REMARK minimizedRMSD -1
REMARK  0 active torsions:
REMARK  status: ('A' for Active; 'I' for Inactive)
ROOT
ATOM      1  O1  BZF d   1       4.602   0.432  -1.477  0.00  0.00    -0.204 OA
ATOM      2  C2  BZF d   1       4.162   1.257  -0.460  0.00  0.00     0.174 A 
ATOM      3  C3  BZF d   1       3.219   0.641   0.282  0.00  0.00    -0.012 A 
ATOM      4  C3A BZF d   1       3.126  -0.683  -0.251  0.00  0.00    -0.107 A 
ATOM      5  C4  BZF d   1       2.375  -1.776   0.075  0.00  0.00     0.055 A 
ATOM      6  C5  BZF d   1       2.470  -2.895  -0.691  0.00  0.00    -0.016 A 
ATOM      7  C6  BZF d   1       3.301  -2.954  -1.790  0.00  0.00     0.022 A 
ATOM      8  C7  BZF d   1       4.070  -1.897  -2.150  0.00  0.00     0.029 A 
ATOM      9  C7A BZF d   1       4.000  -0.776  -1.359  0.00  0.00     0.058 A 
ENDROOT
TORSDOF 0
ENDMDL
