MODEL 1
REMARK minimizedAffinity 2.67283225
REMARK minimizedRMSD -1
REMARK  0 active torsions:
REMARK  status: ('A' for Active; 'I' for Inactive)
ROOT
ATOM      1  O1  BZF d   1       2.368  -2.667   0.250  0.00  0.00    -0.204 OA
ATOM      2  C2  BZF d   1       2.849  -1.414  -0.075  0.00  0.00     0.174 A 
ATOM      3  C3  BZF d   1       2.018  -0.791  -0.935  0.00  0.00    -0.012 A 
ATOM      4  C3A BZF d   1       0.904  -1.676  -1.089  0.00  0.00    -0.107 A 
ATOM      5  C4  BZF d   1      -0.257  -1.608  -1.806  0.00  0.00     0.055 A 
ATOM      6  C5  BZF d   1      -1.101  -2.673  -1.798  0.00  0.00    -0.016 A 
ATOM      7  C6  BZF d   1      -0.814  -3.822  -1.090  0.00  0.00     0.022 A 
ATOM      8  C7  BZF d   1       0.323  -3.934  -0.360  0.00  0.00     0.029 A 
ATOM      9  C7A BZF d   1       1.162  -2.847  -0.340  0.00  0.00     0.058 A 
ENDROOT
TORSDOF 0
ENDMDL
