MODEL 1
REMARK minimizedAffinity 22.1136684
REMARK minimizedRMSD -1
REMARK  0 active torsions:
REMARK  status: ('A' for Active; 'I' for Inactive)
ROOT
ATOM      1  O1  BZF d   1       2.114   1.627   3.691  0.00  0.00    -0.204 OA
ATOM      2  C2  BZF d   1       2.073   2.994   3.886  0.00  0.00     0.174 A 
ATOM      3  C3  BZF d   1       2.076   3.646   2.706  0.00  0.00    -0.012 A 
ATOM      4  C3A BZF d   1       2.028   2.620   1.709  0.00  0.00    -0.107 A 
ATOM      5  C4  BZF d   1       1.993   2.638   0.344  0.00  0.00     0.055 A 
ATOM      6  C5  BZF d   1       2.025   1.460  -0.333  0.00  0.00    -0.016 A 
ATOM      7  C6  BZF d   1       2.097   0.248   0.322  0.00  0.00     0.022 A 
ATOM      8  C7  BZF d   1       2.129   0.180   1.675  0.00  0.00     0.029 A 
ATOM      9  C7A BZF d   1       2.064   1.367   2.363  0.00  0.00     0.058 A 
ENDROOT
TORSDOF 0
ENDMDL
