MODEL 1
REMARK minimizedAffinity 13.4634552
REMARK minimizedRMSD -1
REMARK  0 active torsions:
REMARK  status: ('A' for Active; 'I' for Inactive)
ROOT
ATOM      1  O1  BZF d   1      -4.599   2.273   4.138  0.00  0.00    -0.204 OA
ATOM      2  C2  BZF d   1      -5.314   1.520   5.049  0.00  0.00     0.174 A 
ATOM      3  C3  BZF d   1      -5.928   2.315   5.949  0.00  0.00    -0.012 A 
ATOM      4  C3A BZF d   1      -5.649   3.652   5.522  0.00  0.00    -0.107 A 
ATOM      5  C4  BZF d   1      -5.999   4.883   6.000  0.00  0.00     0.055 A 
ATOM      6  C5  BZF d   1      -5.501   5.993   5.393  0.00  0.00    -0.016 A 
ATOM      7  C6  BZF d   1      -4.649   5.909   4.312  0.00  0.00     0.022 A 
ATOM      8  C7  BZF d   1      -4.277   4.711   3.799  0.00  0.00     0.029 A 
ATOM      9  C7A BZF d   1      -4.805   3.588   4.389  0.00  0.00     0.058 A 
ENDROOT
TORSDOF 0
ENDMDL
