MODEL 1
REMARK minimizedAffinity 13.5227242
REMARK minimizedRMSD -1
REMARK  0 active torsions:
REMARK  status: ('A' for Active; 'I' for Inactive)
ROOT
ATOM      1  O1  BZF d   1       2.674  -0.896  -0.697  0.00  0.00    -0.204 OA
ATOM      2  C2  BZF d   1       2.007   0.077  -1.415  0.00  0.00     0.174 A 
ATOM      3  C3  BZF d   1       1.624   1.088  -0.610  0.00  0.00    -0.012 A 
ATOM      4  C3A BZF d   1       2.161   0.768   0.677  0.00  0.00    -0.107 A 
ATOM      5  C4  BZF d   1       2.133   1.397   1.889  0.00  0.00     0.055 A 
ATOM      6  C5  BZF d   1       2.692   0.783   2.965  0.00  0.00    -0.016 A 
ATOM      7  C6  BZF d   1       3.283  -0.459   2.866  0.00  0.00     0.022 A 
ATOM      8  C7  BZF d   1       3.340  -1.120   1.684  0.00  0.00     0.029 A 
ATOM      9  C7A BZF d   1       2.805  -0.488   0.588  0.00  0.00     0.058 A 
ENDROOT
TORSDOF 0
ENDMDL
