MODEL 1
REMARK minimizedAffinity 0.411310971
REMARK minimizedRMSD -1
REMARK  0 active torsions:
REMARK  status: ('A' for Active; 'I' for Inactive)
ROOT
ATOM      1  O1  BZF d   1      -3.804   5.963   4.666  0.00  0.00    -0.204 OA
ATOM      2  C2  BZF d   1      -5.086   5.950   5.181  0.00  0.00     0.174 A 
ATOM      3  C3  BZF d   1      -6.000   5.998   4.191  0.00  0.00    -0.012 A 
ATOM      4  C3A BZF d   1      -5.243   5.951   2.977  0.00  0.00    -0.107 A 
ATOM      5  C4  BZF d   1      -5.587   5.952   1.656  0.00  0.00     0.055 A 
ATOM      6  C5  BZF d   1      -4.605   5.973   0.717  0.00  0.00    -0.016 A 
ATOM      7  C6  BZF d   1      -3.270   5.999   1.064  0.00  0.00     0.022 A 
ATOM      8  C7  BZF d   1      -2.879   5.995   2.362  0.00  0.00     0.029 A 
ATOM      9  C7A BZF d   1      -3.870   5.940   3.313  0.00  0.00     0.058 A 
ENDROOT
TORSDOF 0
ENDMDL
