MODEL 1
REMARK minimizedAffinity 12.2632189
REMARK minimizedRMSD -1
REMARK  0 active torsions:
REMARK  status: ('A' for Active; 'I' for Inactive)
ROOT
ATOM      1  C4' PXY d   1       1.875  -5.658   2.239  0.00  0.00     0.077 C 
ATOM      2  C1' PXY d   1       0.325  -2.001  -1.961  0.00  0.00     0.077 C 
ATOM      3  C1  PXY d   1       0.720  -2.958  -0.854  0.00  0.00    -0.082 A 
ATOM      4  C2  PXY d   1       2.001  -3.165  -0.594  0.00  0.00     0.003 A 
ATOM      5  C3  PXY d   1       2.376  -4.051   0.383  0.00  0.00     0.003 A 
ATOM      6  C4  PXY d   1       1.430  -4.693   1.136  0.00  0.00    -0.082 A 
ATOM      7  C5  PXY d   1       0.121  -4.480   0.884  0.00  0.00     0.003 A 
ATOM      8  C6  PXY d   1      -0.239  -3.607  -0.139  0.00  0.00     0.003 A 
ENDROOT
TORSDOF 0
ENDMDL
