MODEL 1
REMARK minimizedAffinity -2.73959446
REMARK minimizedRMSD -1
REMARK  0 active torsions:
REMARK  status: ('A' for Active; 'I' for Inactive)
ROOT
ATOM      1  C4' PXY d   1       5.724   4.485   5.660  0.00  0.00     0.077 C 
ATOM      2  C1' PXY d   1       4.414   5.654   0.153  0.00  0.00     0.077 C 
ATOM      3  C1  PXY d   1       4.761   5.336   1.594  0.00  0.00    -0.082 A 
ATOM      4  C2  PXY d   1       4.167   5.999   2.572  0.00  0.00     0.003 A 
ATOM      5  C3  PXY d   1       4.493   5.746   3.880  0.00  0.00     0.003 A 
ATOM      6  C4  PXY d   1       5.397   4.767   4.191  0.00  0.00    -0.082 A 
ATOM      7  C5  PXY d   1       6.000   4.078   3.199  0.00  0.00     0.003 A 
ATOM      8  C6  PXY d   1       5.686   4.378   1.877  0.00  0.00     0.003 A 
ENDROOT
TORSDOF 0
ENDMDL
