MODEL 1
REMARK minimizedAffinity 7.43832541
REMARK minimizedRMSD -1
REMARK  0 active torsions:
REMARK  status: ('A' for Active; 'I' for Inactive)
ROOT
ATOM      1  C4' PXY d   1       4.952   5.947   5.798  0.00  0.00     0.077 C 
ATOM      2  C1' PXY d   1       4.730   5.590   0.033  0.00  0.00     0.077 C 
ATOM      3  C1  PXY d   1       4.777   5.690   1.545  0.00  0.00    -0.082 A 
ATOM      4  C2  PXY d   1       5.938   5.593   2.171  0.00  0.00     0.003 A 
ATOM      5  C3  PXY d   1       5.995   5.649   3.540  0.00  0.00     0.003 A 
ATOM      6  C4  PXY d   1       4.858   5.861   4.272  0.00  0.00    -0.082 A 
ATOM      7  C5  PXY d   1       3.670   5.972   3.640  0.00  0.00     0.003 A 
ATOM      8  C6  PXY d   1       3.629   5.871   2.252  0.00  0.00     0.003 A 
ENDROOT
TORSDOF 0
ENDMDL
