MODEL 1
REMARK minimizedAffinity -1.5679611
REMARK minimizedRMSD -1
REMARK  0 active torsions:
REMARK  status: ('A' for Active; 'I' for Inactive)
ROOT
ATOM      1  C4' PXY d   1       3.274   5.994  -0.108  0.00  0.00     0.077 C 
ATOM      2  C1' PXY d   1       5.973   5.773   4.999  0.00  0.00     0.077 C 
ATOM      3  C1  PXY d   1       5.276   5.835   3.654  0.00  0.00    -0.082 A 
ATOM      4  C2  PXY d   1       3.961   5.974   3.605  0.00  0.00     0.003 A 
ATOM      5  C3  PXY d   1       3.312   6.000   2.397  0.00  0.00     0.003 A 
ATOM      6  C4  PXY d   1       4.021   5.936   1.228  0.00  0.00    -0.082 A 
ATOM      7  C5  PXY d   1       5.363   5.805   1.270  0.00  0.00     0.003 A 
ATOM      8  C6  PXY d   1       6.000   5.739   2.506  0.00  0.00     0.003 A 
ENDROOT
TORSDOF 0
ENDMDL
