MODEL 1
REMARK minimizedAffinity -1.28955507
REMARK minimizedRMSD -1
REMARK  0 active torsions:
REMARK  status: ('A' for Active; 'I' for Inactive)
ROOT
ATOM      1  C4' PXY d   1       3.543   5.560   0.062  0.00  0.00     0.077 C 
ATOM      2  C1' PXY d   1       5.966   5.368   5.307  0.00  0.00     0.077 C 
ATOM      3  C1  PXY d   1       5.343   5.418   3.926  0.00  0.00    -0.082 A 
ATOM      4  C2  PXY d   1       4.153   5.975   3.765  0.00  0.00     0.003 A 
ATOM      5  C3  PXY d   1       3.561   6.000   2.528  0.00  0.00     0.003 A 
ATOM      6  C4  PXY d   1       4.215   5.496   1.436  0.00  0.00    -0.082 A 
ATOM      7  C5  PXY d   1       5.434   4.936   1.590  0.00  0.00     0.003 A 
ATOM      8  C6  PXY d   1       6.000   4.884   2.861  0.00  0.00     0.003 A 
ENDROOT
TORSDOF 0
ENDMDL
