MODEL 1
REMARK minimizedAffinity -3.24803996
REMARK minimizedRMSD -1
REMARK  0 active torsions:
REMARK  status: ('A' for Active; 'I' for Inactive)
ROOT
ATOM      1  C4' PXY d   1       4.558  -5.995   5.108  0.00  0.00     0.077 C 
ATOM      2  C1' PXY d   1       5.932  -0.394   4.713  0.00  0.00     0.077 C 
ATOM      3  C1  PXY d   1       5.582  -1.865   4.825  0.00  0.00    -0.082 A 
ATOM      4  C2  PXY d   1       4.862  -2.439   3.875  0.00  0.00     0.003 A 
ATOM      5  C3  PXY d   1       4.509  -3.761   3.976  0.00  0.00     0.003 A 
ATOM      6  C4  PXY d   1       4.943  -4.515   5.032  0.00  0.00    -0.082 A 
ATOM      7  C5  PXY d   1       5.688  -3.939   6.000  0.00  0.00     0.003 A 
ATOM      8  C6  PXY d   1       6.000  -2.586   5.900  0.00  0.00     0.003 A 
ENDROOT
TORSDOF 0
ENDMDL
