MODEL 1
REMARK minimizedAffinity 7.41061163
REMARK minimizedRMSD -1
REMARK  0 active torsions:
REMARK  status: ('A' for Active; 'I' for Inactive)
ROOT
ATOM      1  C4' PXY d   1      -2.261   4.594   4.814  0.00  0.00     0.077 C 
ATOM      2  C1' PXY d   1      -2.551  -0.299   1.751  0.00  0.00     0.077 C 
ATOM      3  C1  PXY d   1      -2.482   0.990   2.545  0.00  0.00    -0.082 A 
ATOM      4  C2  PXY d   1      -1.518   1.159   3.436  0.00  0.00     0.003 A 
ATOM      5  C3  PXY d   1      -1.459   2.306   4.185  0.00  0.00     0.003 A 
ATOM      6  C4  PXY d   1      -2.364   3.312   3.983  0.00  0.00    -0.082 A 
ATOM      7  C5  PXY d   1      -3.344   3.152   3.069  0.00  0.00     0.003 A 
ATOM      8  C6  PXY d   1      -3.411   1.964   2.347  0.00  0.00     0.003 A 
ENDROOT
TORSDOF 0
ENDMDL
