MODEL 1
REMARK minimizedAffinity 5.61170149
REMARK minimizedRMSD -1
REMARK  0 active torsions:
REMARK  status: ('A' for Active; 'I' for Inactive)
ROOT
ATOM      1  C4' PXY d   1       6.000   0.004  -3.546  0.00  0.00     0.077 C 
ATOM      2  C1' PXY d   1       0.578  -0.305  -1.565  0.00  0.00     0.077 C 
ATOM      3  C1  PXY d   1       2.004  -0.229  -2.073  0.00  0.00    -0.082 A 
ATOM      4  C2  PXY d   1       2.306   0.608  -3.052  0.00  0.00     0.003 A 
ATOM      5  C3  PXY d   1       3.584   0.668  -3.545  0.00  0.00     0.003 A 
ATOM      6  C4  PXY d   1       4.575  -0.100  -2.995  0.00  0.00    -0.082 A 
ATOM      7  C5  PXY d   1       4.278  -0.948  -1.988  0.00  0.00     0.003 A 
ATOM      8  C6  PXY d   1       2.966  -1.023  -1.529  0.00  0.00     0.003 A 
ENDROOT
TORSDOF 0
ENDMDL
