MODEL 1
REMARK minimizedAffinity 18.7609348
REMARK minimizedRMSD -1
REMARK  0 active torsions:
REMARK  status: ('A' for Active; 'I' for Inactive)
ROOT
ATOM      1  C4' PXY d   1      -5.996  -0.753   5.608  0.00  0.00     0.077 C 
ATOM      2  C1' PXY d   1      -1.849   1.068   2.015  0.00  0.00     0.077 C 
ATOM      3  C1  PXY d   1      -2.946   0.595   2.949  0.00  0.00    -0.082 A 
ATOM      4  C2  PXY d   1      -2.697   0.475   4.243  0.00  0.00     0.003 A 
ATOM      5  C3  PXY d   1      -3.667   0.018   5.096  0.00  0.00     0.003 A 
ATOM      6  C4  PXY d   1      -4.922  -0.269   4.629  0.00  0.00    -0.082 A 
ATOM      7  C5  PXY d   1      -5.187  -0.139   3.312  0.00  0.00     0.003 A 
ATOM      8  C6  PXY d   1      -4.176   0.287   2.455  0.00  0.00     0.003 A 
ENDROOT
TORSDOF 0
ENDMDL
