MODEL 1
REMARK minimizedAffinity 8.57838058
REMARK minimizedRMSD -1
REMARK  0 active torsions:
REMARK  status: ('A' for Active; 'I' for Inactive)
ROOT
ATOM      1  C4' PXY d   1       3.936  -1.899   0.678  0.00  0.00     0.077 C 
ATOM      2  C1' PXY d   1      -0.240  -2.800  -3.217  0.00  0.00     0.077 C 
ATOM      3  C1  PXY d   1       0.859  -2.553  -2.202  0.00  0.00    -0.082 A 
ATOM      4  C2  PXY d   1       1.312  -3.558  -1.471  0.00  0.00     0.003 A 
ATOM      5  C3  PXY d   1       2.283  -3.346  -0.526  0.00  0.00     0.003 A 
ATOM      6  C4  PXY d   1       2.834  -2.103  -0.366  0.00  0.00    -0.082 A 
ATOM      7  C5  PXY d   1       2.385  -1.075  -1.116  0.00  0.00     0.003 A 
ATOM      8  C6  PXY d   1       1.370  -1.302  -2.041  0.00  0.00     0.003 A 
ENDROOT
TORSDOF 0
ENDMDL
