MODEL 1
REMARK minimizedAffinity 6.80167961
REMARK minimizedRMSD -1
REMARK  0 active torsions:
REMARK  status: ('A' for Active; 'I' for Inactive)
ROOT
ATOM      1  C4' PXY d   1       3.604   4.762   0.036  0.00  0.00     0.077 C 
ATOM      2  C1' PXY d   1       5.928   5.845   5.217  0.00  0.00     0.077 C 
ATOM      3  C1  PXY d   1       5.307   5.562   3.864  0.00  0.00    -0.082 A 
ATOM      4  C2  PXY d   1       5.999   4.899   2.952  0.00  0.00     0.003 A 
ATOM      5  C3  PXY d   1       5.465   4.662   1.711  0.00  0.00     0.003 A 
ATOM      6  C4  PXY d   1       4.188   5.062   1.420  0.00  0.00    -0.082 A 
ATOM      7  C5  PXY d   1       3.471   5.730   2.348  0.00  0.00     0.003 A 
ATOM      8  C6  PXY d   1       4.047   5.996   3.587  0.00  0.00     0.003 A 
ENDROOT
TORSDOF 0
ENDMDL
