MODEL 1
REMARK minimizedAffinity 6.31162596
REMARK minimizedRMSD -1
REMARK  0 active torsions:
REMARK  status: ('A' for Active; 'I' for Inactive)
ROOT
ATOM      1  C4' PXY d   1       2.309  -3.404  -0.226  0.00  0.00     0.077 C 
ATOM      2  C1' PXY d   1       0.321   1.204  -3.095  0.00  0.00     0.077 C 
ATOM      3  C1  PXY d   1       0.854  -0.002  -2.347  0.00  0.00    -0.082 A 
ATOM      4  C2  PXY d   1       0.042  -1.006  -2.060  0.00  0.00     0.003 A 
ATOM      5  C3  PXY d   1       0.500  -2.090  -1.356  0.00  0.00     0.003 A 
ATOM      6  C4  PXY d   1       1.816  -2.171  -0.988  0.00  0.00    -0.082 A 
ATOM      7  C5  PXY d   1       2.654  -1.155  -1.286  0.00  0.00     0.003 A 
ATOM      8  C6  PXY d   1       2.160  -0.045  -1.965  0.00  0.00     0.003 A 
ENDROOT
TORSDOF 0
ENDMDL
