MODEL 1
REMARK minimizedAffinity 8.96291351
REMARK minimizedRMSD -1
REMARK  0 active torsions:
REMARK  status: ('A' for Active; 'I' for Inactive)
ROOT
ATOM      1  C4' PXY d   1      -3.813  -1.929  -0.628  0.00  0.00     0.077 C 
ATOM      2  C1' PXY d   1       1.680  -2.664  -2.274  0.00  0.00     0.077 C 
ATOM      3  C1  PXY d   1       0.243  -2.460  -1.836  0.00  0.00    -0.082 A 
ATOM      4  C2  PXY d   1      -0.555  -3.507  -1.699  0.00  0.00     0.003 A 
ATOM      5  C3  PXY d   1      -1.866  -3.338  -1.335  0.00  0.00     0.003 A 
ATOM      6  C4  PXY d   1      -2.352  -2.088  -1.058  0.00  0.00    -0.082 A 
ATOM      7  C5  PXY d   1      -1.542  -1.016  -1.185  0.00  0.00     0.003 A 
ATOM      8  C6  PXY d   1      -0.225  -1.205  -1.595  0.00  0.00     0.003 A 
ENDROOT
TORSDOF 0
ENDMDL
