MODEL 1
REMARK minimizedAffinity 5.74955559
REMARK minimizedRMSD -1
REMARK  0 active torsions:
REMARK  status: ('A' for Active; 'I' for Inactive)
ROOT
ATOM      1  C4' PXY d   1      -1.065  -1.734  -1.405  0.00  0.00     0.077 C 
ATOM      2  C1' PXY d   1       2.956   2.136  -2.910  0.00  0.00     0.077 C 
ATOM      3  C1  PXY d   1       1.910   1.112  -2.515  0.00  0.00    -0.082 A 
ATOM      4  C2  PXY d   1       0.645   1.306  -2.849  0.00  0.00     0.003 A 
ATOM      5  C3  PXY d   1      -0.318   0.406  -2.472  0.00  0.00     0.003 A 
ATOM      6  C4  PXY d   1       0.025  -0.732  -1.792  0.00  0.00    -0.082 A 
ATOM      7  C5  PXY d   1       1.316  -0.942  -1.457  0.00  0.00     0.003 A 
ATOM      8  C6  PXY d   1       2.272   0.004  -1.813  0.00  0.00     0.003 A 
ENDROOT
TORSDOF 0
ENDMDL
