MODEL 1
REMARK minimizedAffinity 3.83473897
REMARK minimizedRMSD -1
REMARK  0 active torsions:
REMARK  status: ('A' for Active; 'I' for Inactive)
ROOT
ATOM      1  C4' PXY d   1      -3.630  -1.978   0.257  0.00  0.00     0.077 C 
ATOM      2  C1' PXY d   1      -1.413   2.128   3.669  0.00  0.00     0.077 C 
ATOM      3  C1  PXY d   1      -1.995   1.043   2.785  0.00  0.00    -0.082 A 
ATOM      4  C2  PXY d   1      -1.732   1.045   1.488  0.00  0.00     0.003 A 
ATOM      5  C3  PXY d   1      -2.277   0.090   0.668  0.00  0.00     0.003 A 
ATOM      6  C4  PXY d   1      -3.056  -0.908   1.190  0.00  0.00    -0.082 A 
ATOM      7  C5  PXY d   1      -3.320  -0.923   2.513  0.00  0.00     0.003 A 
ATOM      8  C6  PXY d   1      -2.791   0.079   3.322  0.00  0.00     0.003 A 
ENDROOT
TORSDOF 0
ENDMDL
