MODEL 1
REMARK minimizedAffinity 9.84471035
REMARK minimizedRMSD -1
REMARK  0 active torsions:
REMARK  status: ('A' for Active; 'I' for Inactive)
ROOT
ATOM      1  C4' PXY d   1       3.381  -1.204  -0.557  0.00  0.00     0.077 C 
ATOM      2  C1' PXY d   1       0.924   0.985  -5.310  0.00  0.00     0.077 C 
ATOM      3  C1  PXY d   1       1.557   0.404  -4.061  0.00  0.00    -0.082 A 
ATOM      4  C2  PXY d   1       2.563   1.039  -3.482  0.00  0.00     0.003 A 
ATOM      5  C3  PXY d   1       3.169   0.512  -2.370  0.00  0.00     0.003 A 
ATOM      6  C4  PXY d   1       2.705  -0.650  -1.815  0.00  0.00    -0.082 A 
ATOM      7  C5  PXY d   1       1.672  -1.298  -2.393  0.00  0.00     0.003 A 
ATOM      8  C6  PXY d   1       1.098  -0.768  -3.545  0.00  0.00     0.003 A 
ENDROOT
TORSDOF 0
ENDMDL
