MODEL 1
REMARK minimizedAffinity 10.5631275
REMARK minimizedRMSD -1
REMARK  0 active torsions:
REMARK  status: ('A' for Active; 'I' for Inactive)
ROOT
ATOM      1  C4' PXY d   1      -1.074  -3.015  -0.821  0.00  0.00     0.077 C 
ATOM      2  C1' PXY d   1       2.685  -6.000   2.401  0.00  0.00     0.077 C 
ATOM      3  C1  PXY d   1       1.690  -5.226   1.558  0.00  0.00    -0.082 A 
ATOM      4  C2  PXY d   1       2.128  -4.398   0.624  0.00  0.00     0.003 A 
ATOM      5  C3  PXY d   1       1.243  -3.666  -0.125  0.00  0.00     0.003 A 
ATOM      6  C4  PXY d   1      -0.106  -3.824   0.047  0.00  0.00    -0.082 A 
ATOM      7  C5  PXY d   1      -0.561  -4.675   0.991  0.00  0.00     0.003 A 
ATOM      8  C6  PXY d   1       0.354  -5.377   1.769  0.00  0.00     0.003 A 
ENDROOT
TORSDOF 0
ENDMDL
