MODEL 1
REMARK minimizedAffinity 0.605002344
REMARK minimizedRMSD -1
REMARK  0 active torsions:
REMARK  status: ('A' for Active; 'I' for Inactive)
ROOT
ATOM      1  C4' PXY d   1       4.983   5.450   5.951  0.00  0.00     0.077 C 
ATOM      2  C1' PXY d   1       4.928   5.427   0.171  0.00  0.00     0.077 C 
ATOM      3  C1  PXY d   1       4.933   5.443   1.686  0.00  0.00    -0.082 A 
ATOM      4  C2  PXY d   1       5.989   4.987   2.341  0.00  0.00     0.003 A 
ATOM      5  C3  PXY d   1       5.998   4.965   3.712  0.00  0.00     0.003 A 
ATOM      6  C4  PXY d   1       4.937   5.462   4.420  0.00  0.00    -0.082 A 
ATOM      7  C5  PXY d   1       3.861   5.939   3.759  0.00  0.00     0.003 A 
ATOM      8  C6  PXY d   1       3.854   5.915   2.368  0.00  0.00     0.003 A 
ENDROOT
TORSDOF 0
ENDMDL
