MODEL 1
REMARK minimizedAffinity 3.70426345
REMARK minimizedRMSD -1
REMARK  0 active torsions:
REMARK  status: ('A' for Active; 'I' for Inactive)
ROOT
ATOM      1  C4' PXY d   1       4.853   5.985   5.568  0.00  0.00     0.077 C 
ATOM      2  C1' PXY d   1       4.693   5.929  -0.210  0.00  0.00     0.077 C 
ATOM      3  C1  PXY d   1       4.747   5.938   1.305  0.00  0.00    -0.082 A 
ATOM      4  C2  PXY d   1       3.621   5.935   2.000  0.00  0.00     0.003 A 
ATOM      5  C3  PXY d   1       3.651   5.976   3.370  0.00  0.00     0.003 A 
ATOM      6  C4  PXY d   1       4.847   5.966   4.037  0.00  0.00    -0.082 A 
ATOM      7  C5  PXY d   1       6.000   5.959   3.336  0.00  0.00     0.003 A 
ATOM      8  C6  PXY d   1       5.948   5.959   1.945  0.00  0.00     0.003 A 
ENDROOT
TORSDOF 0
ENDMDL
