MODEL 1
REMARK minimizedAffinity -0.563343823
REMARK minimizedRMSD -1
REMARK  0 active torsions:
REMARK  status: ('A' for Active; 'I' for Inactive)
ROOT
ATOM      1  C4' PXY d   1       3.400   2.914  -2.090  0.00  0.00     0.077 C 
ATOM      2  C1' PXY d   1       1.975  -2.632  -1.297  0.00  0.00     0.077 C 
ATOM      3  C1  PXY d   1       2.338  -1.176  -1.512  0.00  0.00    -0.082 A 
ATOM      4  C2  PXY d   1       3.592  -0.784  -1.352  0.00  0.00     0.003 A 
ATOM      5  C3  PXY d   1       3.932   0.534  -1.512  0.00  0.00     0.003 A 
ATOM      6  C4  PXY d   1       2.989   1.452  -1.892  0.00  0.00    -0.082 A 
ATOM      7  C5  PXY d   1       1.710   1.058  -2.068  0.00  0.00     0.003 A 
ATOM      8  C6  PXY d   1       1.377  -0.278  -1.860  0.00  0.00     0.003 A 
ENDROOT
TORSDOF 0
ENDMDL
