MODEL 1
REMARK minimizedAffinity 5.96611547
REMARK minimizedRMSD -1
REMARK  0 active torsions:
REMARK  status: ('A' for Active; 'I' for Inactive)
ROOT
ATOM      1  C2' OXE d   1      -0.549   1.013  -0.586  0.00  0.00     0.078 C 
ATOM      2  C1' OXE d   1      -0.851   2.380   1.847  0.00  0.00     0.078 C 
ATOM      3  C1  OXE d   1      -0.823   3.197   0.579  0.00  0.00    -0.078 A 
ATOM      4  C2  OXE d   1      -0.628   2.524  -0.603  0.00  0.00    -0.078 A 
ATOM      5  C3  OXE d   1      -0.648   3.223  -1.806  0.00  0.00     0.003 A 
ATOM      6  C4  OXE d   1      -0.711   4.622  -1.812  0.00  0.00    -0.002 A 
ATOM      7  C5  OXE d   1      -0.871   5.331  -0.616  0.00  0.00    -0.002 A 
ATOM      8  C6  OXE d   1      -0.971   4.632   0.582  0.00  0.00     0.003 A 
ENDROOT
TORSDOF 0
ENDMDL
