MODEL 1
REMARK minimizedAffinity 12.9380827
REMARK minimizedRMSD -1
REMARK  0 active torsions:
REMARK  status: ('A' for Active; 'I' for Inactive)
ROOT
ATOM      1  C2' OXE d   1       0.376   2.643   1.764  0.00  0.00     0.078 C 
ATOM      2  C1' OXE d   1      -0.929   1.490  -0.438  0.00  0.00     0.078 C 
ATOM      3  C1  OXE d   1      -0.519   2.938  -0.542  0.00  0.00    -0.078 A 
ATOM      4  C2  OXE d   1       0.077   3.507   0.558  0.00  0.00    -0.078 A 
ATOM      5  C3  OXE d   1       0.523   4.824   0.495  0.00  0.00     0.003 A 
ATOM      6  C4  OXE d   1       0.234   5.619  -0.620  0.00  0.00    -0.002 A 
ATOM      7  C5  OXE d   1      -0.408   5.070  -1.736  0.00  0.00    -0.002 A 
ATOM      8  C6  OXE d   1      -0.752   3.722  -1.729  0.00  0.00     0.003 A 
ENDROOT
TORSDOF 0
ENDMDL
