MODEL 1
REMARK minimizedAffinity 4.86680412
REMARK minimizedRMSD -1
REMARK  0 active torsions:
REMARK  status: ('A' for Active; 'I' for Inactive)
ROOT
ATOM      1  C2' OXE d   1      -2.054   2.733   1.559  0.00  0.00     0.078 C 
ATOM      2  C1' OXE d   1      -0.399   4.053  -0.285  0.00  0.00     0.078 C 
ATOM      3  C1  OXE d   1       0.239   3.507   0.968  0.00  0.00    -0.078 A 
ATOM      4  C2  OXE d   1      -0.586   2.904   1.886  0.00  0.00    -0.078 A 
ATOM      5  C3  OXE d   1      -0.041   2.335   3.034  0.00  0.00     0.003 A 
ATOM      6  C4  OXE d   1       1.316   2.506   3.334  0.00  0.00    -0.002 A 
ATOM      7  C5  OXE d   1       2.167   3.153   2.431  0.00  0.00    -0.002 A 
ATOM      8  C6  OXE d   1       1.653   3.620   1.227  0.00  0.00     0.003 A 
ENDROOT
TORSDOF 0
ENDMDL
