MODEL 1
REMARK minimizedAffinity 12.1953344
REMARK minimizedRMSD -1
REMARK  0 active torsions:
REMARK  status: ('A' for Active; 'I' for Inactive)
ROOT
ATOM      1  C2' OXE d   1       3.008  -3.297   0.432  0.00  0.00     0.078 C 
ATOM      2  C1' OXE d   1       4.870  -5.233  -0.383  0.00  0.00     0.078 C 
ATOM      3  C1  OXE d   1       4.974  -3.857  -0.992  0.00  0.00    -0.078 A 
ATOM      4  C2  OXE d   1       4.029  -2.929  -0.622  0.00  0.00    -0.078 A 
ATOM      5  C3  OXE d   1       4.111  -1.629  -1.112  0.00  0.00     0.003 A 
ATOM      6  C4  OXE d   1       5.053  -1.300  -2.094  0.00  0.00    -0.002 A 
ATOM      7  C5  OXE d   1       5.999  -2.240  -2.514  0.00  0.00    -0.002 A 
ATOM      8  C6  OXE d   1       6.000  -3.508  -1.943  0.00  0.00     0.003 A 
ENDROOT
TORSDOF 0
ENDMDL
