MODEL 1
REMARK minimizedAffinity 14.3253479
REMARK minimizedRMSD -1
REMARK  0 active torsions:
REMARK  status: ('A' for Active; 'I' for Inactive)
ROOT
ATOM      1  C2' OXE d   1       0.345  -0.660  -1.601  0.00  0.00     0.078 C 
ATOM      2  C1' OXE d   1      -0.555   1.847  -0.716  0.00  0.00     0.078 C 
ATOM      3  C1  OXE d   1      -1.593   0.816  -1.085  0.00  0.00    -0.078 A 
ATOM      4  C2  OXE d   1      -1.143  -0.392  -1.561  0.00  0.00    -0.078 A 
ATOM      5  C3  OXE d   1      -2.058  -1.397  -1.864  0.00  0.00     0.003 A 
ATOM      6  C4  OXE d   1      -3.433  -1.136  -1.834  0.00  0.00    -0.002 A 
ATOM      7  C5  OXE d   1      -3.912   0.101  -1.390  0.00  0.00    -0.002 A 
ATOM      8  C6  OXE d   1      -3.008   1.071  -0.972  0.00  0.00     0.003 A 
ENDROOT
TORSDOF 0
ENDMDL
