MODEL 1
REMARK minimizedAffinity 7.37519121
REMARK minimizedRMSD -1
REMARK  0 active torsions:
REMARK  status: ('A' for Active; 'I' for Inactive)
ROOT
ATOM      1  C2' OXE d   1       2.291  -1.598  -1.117  0.00  0.00     0.078 C 
ATOM      2  C1' OXE d   1       2.226  -4.080   0.193  0.00  0.00     0.078 C 
ATOM      3  C1  OXE d   1       3.570  -3.544  -0.234  0.00  0.00    -0.078 A 
ATOM      4  C2  OXE d   1       3.588  -2.352  -0.915  0.00  0.00    -0.078 A 
ATOM      5  C3  OXE d   1       4.806  -1.786  -1.284  0.00  0.00     0.003 A 
ATOM      6  C4  OXE d   1       6.000  -2.494  -1.102  0.00  0.00    -0.002 A 
ATOM      7  C5  OXE d   1       6.000  -3.729  -0.445  0.00  0.00    -0.002 A 
ATOM      8  C6  OXE d   1       4.801  -4.247   0.032  0.00  0.00     0.003 A 
ENDROOT
TORSDOF 0
ENDMDL
