MODEL 1
REMARK minimizedAffinity 6.79476833
REMARK minimizedRMSD -1
REMARK  0 active torsions:
REMARK  status: ('A' for Active; 'I' for Inactive)
ROOT
ATOM      1  C2' OXE d   1      -3.253  -4.818   4.839  0.00  0.00     0.078 C 
ATOM      2  C1' OXE d   1      -5.897  -4.957   5.771  0.00  0.00     0.078 C 
ATOM      3  C1  OXE d   1      -5.276  -3.591   5.618  0.00  0.00    -0.078 A 
ATOM      4  C2  OXE d   1      -3.966  -3.534   5.205  0.00  0.00    -0.078 A 
ATOM      5  C3  OXE d   1      -3.363  -2.298   4.994  0.00  0.00     0.003 A 
ATOM      6  C4  OXE d   1      -4.026  -1.116   5.345  0.00  0.00    -0.002 A 
ATOM      7  C5  OXE d   1      -5.347  -1.153   5.805  0.00  0.00    -0.002 A 
ATOM      8  C6  OXE d   1      -5.999  -2.377   5.906  0.00  0.00     0.003 A 
ENDROOT
TORSDOF 0
ENDMDL
