MODEL 1
REMARK minimizedAffinity 6.63049936
REMARK minimizedRMSD -1
REMARK  0 active torsions:
REMARK  status: ('A' for Active; 'I' for Inactive)
ROOT
ATOM      1  C2' OXE d   1       1.128  -5.930  -5.916  0.00  0.00     0.078 C 
ATOM      2  C1' OXE d   1       1.681  -5.363  -3.223  0.00  0.00     0.078 C 
ATOM      3  C1  OXE d   1       0.743  -4.439  -3.958  0.00  0.00    -0.078 A 
ATOM      4  C2  OXE d   1       0.515  -4.697  -5.289  0.00  0.00    -0.078 A 
ATOM      5  C3  OXE d   1      -0.385  -3.908  -6.000  0.00  0.00     0.003 A 
ATOM      6  C4  OXE d   1      -0.940  -2.764  -5.414  0.00  0.00    -0.002 A 
ATOM      7  C5  OXE d   1      -0.690  -2.460  -4.072  0.00  0.00    -0.002 A 
ATOM      8  C6  OXE d   1       0.114  -3.310  -3.320  0.00  0.00     0.003 A 
ENDROOT
TORSDOF 0
ENDMDL
