MODEL 1
REMARK minimizedAffinity 0.613573968
REMARK minimizedRMSD -1
REMARK  0 active torsions:
REMARK  status: ('A' for Active; 'I' for Inactive)
ROOT
ATOM      1  C   UNL d   1      -1.884   3.895  -2.241  0.00  0.00    -0.002 A 
ATOM      2  C1  UNL d   1      -2.698   2.876  -1.767  0.00  0.00     0.010 A 
ATOM      3  C2  UNL d   1      -2.294   1.543  -1.861  0.00  0.00     0.041 A 
ATOM      4  C3  UNL d   1      -1.045   1.248  -2.444  0.00  0.00    -0.075 A 
ATOM      5  S   UNL d   1      -0.343  -0.311  -2.665  0.00  0.00     0.015 SA
ATOM      6  C4  UNL d   1       1.054   0.340  -3.393  0.00  0.00     0.022 A 
ATOM      7  C5  UNL d   1       1.003   1.711  -3.474  0.00  0.00     0.026 A 
ATOM      8  C6  UNL d   1      -0.208   2.257  -2.928  0.00  0.00    -0.082 A 
ATOM      9  C7  UNL d   1      -0.646   3.599  -2.819  0.00  0.00     0.045 A 
ENDROOT
TORSDOF 0
ENDMDL
