MODEL 1
REMARK minimizedAffinity -0.427612573
REMARK minimizedRMSD -1
REMARK  0 active torsions:
REMARK  status: ('A' for Active; 'I' for Inactive)
ROOT
ATOM      1  C   UNL d   1       2.008  -2.841   1.546  0.00  0.00    -0.002 A 
ATOM      2  C1  UNL d   1       2.635  -2.737   0.313  0.00  0.00     0.010 A 
ATOM      3  C2  UNL d   1       2.174  -1.831  -0.644  0.00  0.00     0.041 A 
ATOM      4  C3  UNL d   1       1.061  -1.022  -0.337  0.00  0.00    -0.075 A 
ATOM      5  S   UNL d   1       0.322   0.158  -1.353  0.00  0.00     0.015 SA
ATOM      6  C4  UNL d   1      -0.843   0.552  -0.174  0.00  0.00     0.022 A 
ATOM      7  C5  UNL d   1      -0.687  -0.189   0.973  0.00  0.00     0.026 A 
ATOM      8  C6  UNL d   1       0.413  -1.109   0.898  0.00  0.00    -0.082 A 
ATOM      9  C7  UNL d   1       0.905  -2.038   1.847  0.00  0.00     0.045 A 
ENDROOT
TORSDOF 0
ENDMDL
