MODEL 1
REMARK minimizedAffinity 1.09457707
REMARK minimizedRMSD -1
REMARK  2 active torsions:
REMARK  status: ('A' for Active; 'I' for Inactive)
REMARK    1  A    between atoms: C2'_3  and  C1'_4 
REMARK    2  A    between atoms: C1'_4  and  C1_5 
ROOT
ATOM      1  C1  I4B d   1       3.512   5.954   3.660  0.00  0.00    -0.075 A 
ATOM      2  C2  I4B d   1       3.531   5.994   5.032  0.00  0.00     0.003 A 
ATOM      3  C3  I4B d   1       2.317   5.986   5.761  0.00  0.00     0.002 A 
ATOM      4  C4  I4B d   1       1.116   5.987   5.082  0.00  0.00    -0.004 A 
ATOM      5  C5  I4B d   1       1.100   5.923   3.692  0.00  0.00     0.002 A 
ATOM      6  C6  I4B d   1       2.305   5.894   2.976  0.00  0.00     0.003 A 
ENDROOT
BRANCH   1   7
ATOM      7  C1' I4B d   1       4.812   5.997   2.920  0.00  0.00     0.060 C 
BRANCH   7   8
ATOM      8  C2' I4B d   1       4.669   5.145   1.675  0.00  0.00    -0.013 C 
ATOM      9  C4' I4B d   1       4.598   5.998   0.436  0.00  0.00     0.013 C 
ATOM     10  C3' I4B d   1       5.838   4.207   1.620  0.00  0.00     0.013 C 
ENDBRANCH   7   8
ENDBRANCH   1   7
TORSDOF 2
ENDMDL
