MODEL 1
REMARK minimizedAffinity -1.20579886
REMARK minimizedRMSD -1
REMARK  2 active torsions:
REMARK  status: ('A' for Active; 'I' for Inactive)
REMARK    1  A    between atoms: C2'_3  and  C1'_4 
REMARK    2  A    between atoms: C1'_4  and  C1_5 
ROOT
ATOM      1  C1  I4B d   1       0.163  -1.161   1.167  0.00  0.00    -0.075 A 
ATOM      2  C2  I4B d   1       1.258  -0.866   0.394  0.00  0.00     0.003 A 
ATOM      3  C3  I4B d   1       2.538  -0.742   0.988  0.00  0.00     0.002 A 
ATOM      4  C4  I4B d   1       2.667  -0.870   2.356  0.00  0.00    -0.004 A 
ATOM      5  C5  I4B d   1       1.560  -1.192   3.135  0.00  0.00     0.002 A 
ATOM      6  C6  I4B d   1       0.302  -1.351   2.536  0.00  0.00     0.003 A 
ENDROOT
BRANCH   1   7
ATOM      7  C1' I4B d   1      -1.178  -1.253   0.512  0.00  0.00     0.060 C 
BRANCH   7   8
ATOM      8  C2' I4B d   1      -1.909   0.051   0.761  0.00  0.00    -0.013 C 
ATOM      9  C4' I4B d   1      -2.548   0.066   2.124  0.00  0.00     0.013 C 
ATOM     10  C3' I4B d   1      -0.923   1.170   0.613  0.00  0.00     0.013 C 
ENDBRANCH   7   8
ENDBRANCH   1   7
TORSDOF 2
ENDMDL
