MODEL 1
REMARK minimizedAffinity -4.71202564
REMARK minimizedRMSD -1
REMARK  2 active torsions:
REMARK  status: ('A' for Active; 'I' for Inactive)
REMARK    1  A    between atoms: C2'_3  and  C1'_4 
REMARK    2  A    between atoms: C1'_4  and  C1_5 
ROOT
ATOM      1  C1  I4B d   1      -0.076   0.057  -0.346  0.00  0.00    -0.075 A 
ATOM      2  C2  I4B d   1       1.114  -0.474   0.086  0.00  0.00     0.003 A 
ATOM      3  C3  I4B d   1       1.262  -0.890   1.431  0.00  0.00     0.002 A 
ATOM      4  C4  I4B d   1       0.220  -0.711   2.317  0.00  0.00    -0.004 A 
ATOM      5  C5  I4B d   1      -0.993  -0.193   1.872  0.00  0.00     0.002 A 
ATOM      6  C6  I4B d   1      -1.147   0.182   0.530  0.00  0.00     0.003 A 
ENDROOT
BRANCH   1   7
ATOM      7  C1' I4B d   1      -0.187   0.516  -1.765  0.00  0.00     0.060 C 
BRANCH   7   8
ATOM      8  C2' I4B d   1      -0.671   1.952  -1.754  0.00  0.00    -0.013 C 
ATOM      9  C4' I4B d   1       0.478   2.915  -1.897  0.00  0.00     0.013 C 
ATOM     10  C3' I4B d   1      -1.657   2.116  -2.872  0.00  0.00     0.013 C 
ENDBRANCH   7   8
ENDBRANCH   1   7
TORSDOF 2
ENDMDL
