MODEL 1
REMARK minimizedAffinity -3.74436259
REMARK minimizedRMSD -1
REMARK  2 active torsions:
REMARK  status: ('A' for Active; 'I' for Inactive)
REMARK    1  A    between atoms: C2'_3  and  C1'_4 
REMARK    2  A    between atoms: C1'_4  and  C1_5 
ROOT
ATOM      1  C1  I4B d   1      -0.109  -0.122  -0.630  0.00  0.00    -0.075 A 
ATOM      2  C2  I4B d   1      -1.071  -0.179   0.347  0.00  0.00     0.003 A 
ATOM      3  C3  I4B d   1      -0.716  -0.510   1.678  0.00  0.00     0.002 A 
ATOM      4  C4  I4B d   1       0.595  -0.825   1.973  0.00  0.00    -0.004 A 
ATOM      5  C5  I4B d   1       1.572  -0.744   0.985  0.00  0.00     0.002 A 
ATOM      6  C6  I4B d   1       1.221  -0.379  -0.322  0.00  0.00     0.003 A 
ENDROOT
BRANCH   1   7
ATOM      7  C1' I4B d   1      -0.524   0.199  -2.031  0.00  0.00     0.060 C 
BRANCH   7   8
ATOM      8  C2' I4B d   1      -1.178   1.565  -2.023  0.00  0.00    -0.013 C 
ATOM      9  C4' I4B d   1      -0.348   2.572  -2.775  0.00  0.00     0.013 C 
ATOM     10  C3' I4B d   1      -2.543   1.428  -2.629  0.00  0.00     0.013 C 
ENDBRANCH   7   8
ENDBRANCH   1   7
TORSDOF 2
ENDMDL
