MODEL 1
REMARK minimizedAffinity -4.54636335
REMARK minimizedRMSD -1
REMARK  2 active torsions:
REMARK  status: ('A' for Active; 'I' for Inactive)
REMARK    1  A    between atoms: C2'_3  and  C1'_4 
REMARK    2  A    between atoms: C1'_4  and  C1_5 
ROOT
ATOM      1  C1  I4B d   1       0.891  -0.571   0.230  0.00  0.00    -0.075 A 
ATOM      2  C2  I4B d   1       0.093  -0.138   1.259  0.00  0.00     0.003 A 
ATOM      3  C3  I4B d   1       0.482  -0.355   2.603  0.00  0.00     0.002 A 
ATOM      4  C4  I4B d   1       1.644  -1.049   2.871  0.00  0.00    -0.004 A 
ATOM      5  C5  I4B d   1       2.464  -1.467   1.826  0.00  0.00     0.002 A 
ATOM      6  C6  I4B d   1       2.092  -1.216   0.498  0.00  0.00     0.003 A 
ENDROOT
BRANCH   1   7
ATOM      7  C1' I4B d   1       0.434  -0.354  -1.177  0.00  0.00     0.060 C 
BRANCH   7   8
ATOM      8  C2' I4B d   1      -0.081   1.067  -1.287  0.00  0.00    -0.013 C 
ATOM      9  C4' I4B d   1       0.796   1.897  -2.187  0.00  0.00     0.013 C 
ATOM     10  C3' I4B d   1      -1.488   1.011  -1.804  0.00  0.00     0.013 C 
ENDBRANCH   7   8
ENDBRANCH   1   7
TORSDOF 2
ENDMDL
