MODEL 1
REMARK minimizedAffinity -2.70657039
REMARK minimizedRMSD -1
REMARK  2 active torsions:
REMARK  status: ('A' for Active; 'I' for Inactive)
REMARK    1  A    between atoms: C2'_3  and  C1'_4 
REMARK    2  A    between atoms: C1'_4  and  C1_5 
ROOT
ATOM      1  C1  I4B d   1      -0.311   0.788  -1.378  0.00  0.00    -0.075 A 
ATOM      2  C2  I4B d   1       0.677   1.741  -1.354  0.00  0.00     0.003 A 
ATOM      3  C3  I4B d   1       0.451   3.016  -1.927  0.00  0.00     0.002 A 
ATOM      4  C4  I4B d   1      -0.750   3.277  -2.554  0.00  0.00    -0.004 A 
ATOM      5  C5  I4B d   1      -1.759   2.317  -2.557  0.00  0.00     0.002 A 
ATOM      6  C6  I4B d   1      -1.543   1.069  -1.954  0.00  0.00     0.003 A 
ENDROOT
BRANCH   1   7
ATOM      7  C1' I4B d   1      -0.027  -0.559  -0.793  0.00  0.00     0.060 C 
BRANCH   7   8
ATOM      8  C2' I4B d   1      -0.902  -0.730   0.432  0.00  0.00    -0.013 C 
ATOM      9  C4' I4B d   1      -0.877   0.504   1.296  0.00  0.00     0.013 C 
ATOM     10  C3' I4B d   1      -2.294  -1.037  -0.033  0.00  0.00     0.013 C 
ENDBRANCH   7   8
ENDBRANCH   1   7
TORSDOF 2
ENDMDL
