MODEL 1
REMARK minimizedAffinity -0.00492916023
REMARK minimizedRMSD -1
REMARK  2 active torsions:
REMARK  status: ('A' for Active; 'I' for Inactive)
REMARK    1  A    between atoms: C2'_3  and  C1'_4 
REMARK    2  A    between atoms: C1'_4  and  C1_5 
ROOT
ATOM      1  C1  I4B d   1      -0.440  -0.069  -0.473  0.00  0.00    -0.075 A 
ATOM      2  C2  I4B d   1       0.703  -0.766  -0.168  0.00  0.00     0.003 A 
ATOM      3  C3  I4B d   1       0.934  -1.212   1.156  0.00  0.00     0.002 A 
ATOM      4  C4  I4B d   1       0.027  -0.898   2.147  0.00  0.00    -0.004 A 
ATOM      5  C5  I4B d   1      -1.142  -0.211   1.832  0.00  0.00     0.002 A 
ATOM      6  C6  I4B d   1      -1.383   0.195   0.512  0.00  0.00     0.003 A 
ENDROOT
BRANCH   1   7
ATOM      7  C1' I4B d   1      -0.636   0.415  -1.874  0.00  0.00     0.060 C 
BRANCH   7   8
ATOM      8  C2' I4B d   1      -0.910   1.904  -1.819  0.00  0.00    -0.013 C 
ATOM      9  C4' I4B d   1       0.129   2.679  -2.585  0.00  0.00     0.013 C 
ATOM     10  C3' I4B d   1      -2.282   2.143  -2.375  0.00  0.00     0.013 C 
ENDBRANCH   7   8
ENDBRANCH   1   7
TORSDOF 2
ENDMDL
