MODEL 1
REMARK minimizedAffinity -5.10725927
REMARK minimizedRMSD -1
REMARK  2 active torsions:
REMARK  status: ('A' for Active; 'I' for Inactive)
REMARK    1  A    between atoms: C2'_3  and  C1'_4 
REMARK    2  A    between atoms: C1'_4  and  C1_5 
ROOT
ATOM      1  C1  I4B d   1       0.748  -0.821   0.316  0.00  0.00    -0.075 A 
ATOM      2  C2  I4B d   1       0.935  -0.626  -1.029  0.00  0.00     0.003 A 
ATOM      3  C3  I4B d   1      -0.074  -0.007  -1.807  0.00  0.00     0.002 A 
ATOM      4  C4  I4B d   1      -1.266   0.352  -1.211  0.00  0.00    -0.004 A 
ATOM      5  C5  I4B d   1      -1.445   0.174   0.158  0.00  0.00     0.002 A 
ATOM      6  C6  I4B d   1      -0.427  -0.405   0.929  0.00  0.00     0.003 A 
ENDROOT
BRANCH   1   7
ATOM      7  C1' I4B d   1       1.821  -1.507   1.101  0.00  0.00     0.060 C 
BRANCH   7   8
ATOM      8  C2' I4B d   1       1.214  -1.985   2.404  0.00  0.00    -0.013 C 
ATOM      9  C4' I4B d   1       1.321  -3.481   2.540  0.00  0.00     0.013 C 
ATOM     10  C3' I4B d   1       1.921  -1.287   3.527  0.00  0.00     0.013 C 
ENDBRANCH   7   8
ENDBRANCH   1   7
TORSDOF 2
ENDMDL
