MODEL 1
REMARK minimizedAffinity -1.33584225
REMARK minimizedRMSD -1
REMARK  2 active torsions:
REMARK  status: ('A' for Active; 'I' for Inactive)
REMARK    1  A    between atoms: C2'_3  and  C1'_4 
REMARK    2  A    between atoms: C1'_4  and  C1_5 
ROOT
ATOM      1  C1  I4B d   1       0.342  -1.491   0.596  0.00  0.00    -0.075 A 
ATOM      2  C2  I4B d   1       1.553  -1.123   0.066  0.00  0.00     0.003 A 
ATOM      3  C3  I4B d   1       2.710  -1.095   0.882  0.00  0.00     0.002 A 
ATOM      4  C4  I4B d   1       2.601  -1.391   2.226  0.00  0.00    -0.004 A 
ATOM      5  C5  I4B d   1       1.376  -1.786   2.757  0.00  0.00     0.002 A 
ATOM      6  C6  I4B d   1       0.242  -1.849   1.934  0.00  0.00     0.003 A 
ENDROOT
BRANCH   1   7
ATOM      7  C1' I4B d   1      -0.865  -1.478  -0.287  0.00  0.00     0.060 C 
BRANCH   7   8
ATOM      8  C2' I4B d   1      -1.628  -0.197  -0.017  0.00  0.00    -0.013 C 
ATOM      9  C4' I4B d   1      -2.786  -0.439   0.915  0.00  0.00     0.013 C 
ATOM     10  C3' I4B d   1      -0.668   0.800   0.560  0.00  0.00     0.013 C 
ENDBRANCH   7   8
ENDBRANCH   1   7
TORSDOF 2
ENDMDL
