MODEL 1
REMARK minimizedAffinity -2.66114926
REMARK minimizedRMSD -1
REMARK  2 active torsions:
REMARK  status: ('A' for Active; 'I' for Inactive)
REMARK    1  A    between atoms: C2'_3  and  C1'_4 
REMARK    2  A    between atoms: C1'_4  and  C1_5 
ROOT
ATOM      1  C1  I4B d   1      -0.944   1.198  -2.315  0.00  0.00    -0.075 A 
ATOM      2  C2  I4B d   1      -0.743   1.426  -3.654  0.00  0.00     0.003 A 
ATOM      3  C3  I4B d   1      -1.058   2.686  -4.218  0.00  0.00     0.002 A 
ATOM      4  C4  I4B d   1      -1.615   3.666  -3.422  0.00  0.00    -0.004 A 
ATOM      5  C5  I4B d   1      -1.797   3.441  -2.060  0.00  0.00     0.002 A 
ATOM      6  C6  I4B d   1      -1.447   2.203  -1.501  0.00  0.00     0.003 A 
ENDROOT
BRANCH   1   7
ATOM      7  C1' I4B d   1      -0.630  -0.156  -1.760  0.00  0.00     0.060 C 
BRANCH   7   8
ATOM      8  C2' I4B d   1       0.284   0.030  -0.566  0.00  0.00    -0.013 C 
ATOM      9  C4' I4B d   1      -0.424  -0.304   0.720  0.00  0.00     0.013 C 
ATOM     10  C3' I4B d   1       1.487  -0.843  -0.765  0.00  0.00     0.013 C 
ENDBRANCH   7   8
ENDBRANCH   1   7
TORSDOF 2
ENDMDL
