MODEL 1
REMARK minimizedAffinity -4.22125483
REMARK minimizedRMSD -1
REMARK  2 active torsions:
REMARK  status: ('A' for Active; 'I' for Inactive)
REMARK    1  A    between atoms: C2'_3  and  C1'_4 
REMARK    2  A    between atoms: C1'_4  and  C1_5 
ROOT
ATOM      1  C1  I4B d   1       0.420  -0.516  -0.079  0.00  0.00    -0.075 A 
ATOM      2  C2  I4B d   1       1.717  -0.263   0.294  0.00  0.00     0.003 A 
ATOM      3  C3  I4B d   1       2.113  -0.415   1.645  0.00  0.00     0.002 A 
ATOM      4  C4  I4B d   1       1.175  -0.771   2.592  0.00  0.00    -0.004 A 
ATOM      5  C5  I4B d   1      -0.134  -1.050   2.209  0.00  0.00     0.002 A 
ATOM      6  C6  I4B d   1      -0.511  -0.934   0.863  0.00  0.00     0.003 A 
ENDROOT
BRANCH   1   7
ATOM      7  C1' I4B d   1       0.029  -0.313  -1.508  0.00  0.00     0.060 C 
BRANCH   7   8
ATOM      8  C2' I4B d   1      -0.730   0.995  -1.603  0.00  0.00    -0.013 C 
ATOM      9  C4' I4B d   1       0.146   2.096  -2.139  0.00  0.00     0.013 C 
ATOM     10  C3' I4B d   1      -1.924   0.775  -2.483  0.00  0.00     0.013 C 
ENDBRANCH   7   8
ENDBRANCH   1   7
TORSDOF 2
ENDMDL
