MODEL 1
REMARK minimizedAffinity -5.36815214
REMARK minimizedRMSD -1
REMARK  2 active torsions:
REMARK  status: ('A' for Active; 'I' for Inactive)
REMARK    1  A    between atoms: C2'_3  and  C1'_4 
REMARK    2  A    between atoms: C1'_4  and  C1_5 
ROOT
ATOM      1  C1  I4B d   1       0.030   0.236   0.226  0.00  0.00    -0.075 A 
ATOM      2  C2  I4B d   1       1.047   0.857   0.906  0.00  0.00     0.003 A 
ATOM      3  C3  I4B d   1       2.207   0.131   1.272  0.00  0.00     0.002 A 
ATOM      4  C4  I4B d   1       2.284  -1.216   0.985  0.00  0.00    -0.004 A 
ATOM      5  C5  I4B d   1       1.262  -1.839   0.276  0.00  0.00     0.002 A 
ATOM      6  C6  I4B d   1       0.132  -1.106  -0.118  0.00  0.00     0.003 A 
ENDROOT
BRANCH   1   7
ATOM      7  C1' I4B d   1      -1.195   1.024  -0.117  0.00  0.00     0.060 C 
BRANCH   7   8
ATOM      8  C2' I4B d   1      -2.368   0.405   0.615  0.00  0.00    -0.013 C 
ATOM      9  C4' I4B d   1      -2.648   1.128   1.906  0.00  0.00     0.013 C 
ATOM     10  C3' I4B d   1      -3.557   0.446  -0.298  0.00  0.00     0.013 C 
ENDBRANCH   7   8
ENDBRANCH   1   7
TORSDOF 2
ENDMDL
