MODEL 1
REMARK minimizedAffinity -1.88266492
REMARK minimizedRMSD -1
REMARK  2 active torsions:
REMARK  status: ('A' for Active; 'I' for Inactive)
REMARK    1  A    between atoms: C2'_3  and  C1'_4 
REMARK    2  A    between atoms: C1'_4  and  C1_5 
ROOT
ATOM      1  C1  I4B d   1      -1.053   0.472  -0.240  0.00  0.00    -0.075 A 
ATOM      2  C2  I4B d   1      -1.317  -0.857  -0.458  0.00  0.00     0.003 A 
ATOM      3  C3  I4B d   1      -0.265  -1.805  -0.438  0.00  0.00     0.002 A 
ATOM      4  C4  I4B d   1       1.033  -1.377  -0.250  0.00  0.00    -0.004 A 
ATOM      5  C5  I4B d   1       1.296  -0.032  -0.006  0.00  0.00     0.002 A 
ATOM      6  C6  I4B d   1       0.245   0.897   0.011  0.00  0.00     0.003 A 
ENDROOT
BRANCH   1   7
ATOM      7  C1' I4B d   1      -2.183   1.451  -0.300  0.00  0.00     0.060 C 
BRANCH   7   8
ATOM      8  C2' I4B d   1      -3.053   1.234   0.921  0.00  0.00    -0.013 C 
ATOM      9  C4' I4B d   1      -3.010   2.426   1.840  0.00  0.00     0.013 C 
ATOM     10  C3' I4B d   1      -4.451   0.963   0.451  0.00  0.00     0.013 C 
ENDBRANCH   7   8
ENDBRANCH   1   7
TORSDOF 2
ENDMDL
