MODEL 1
REMARK minimizedAffinity -4.67964792
REMARK minimizedRMSD -1
REMARK  0 active torsions:
REMARK  status: ('A' for Active; 'I' for Inactive)
ROOT
ATOM      1  N1  IND d   1      -0.549   0.873  -0.195  0.00  0.00    -0.196 N 
ATOM      2  C2  IND d   1      -0.773  -0.322   0.429  0.00  0.00     0.054 A 
ATOM      3  C3  IND d   1       0.215  -1.198   0.136  0.00  0.00    -0.031 A 
ATOM      4  C4  IND d   1       2.348  -0.849  -1.261  0.00  0.00     0.051 A 
ATOM      5  C5  IND d   1       2.974   0.065  -2.062  0.00  0.00    -0.031 A 
ATOM      6  C6  IND d   1       2.448   1.322  -2.283  0.00  0.00     0.015 A 
ATOM      7  C7  IND d   1       1.277   1.717  -1.701  0.00  0.00    -0.016 A 
ATOM      8  C8  IND d   1       0.636   0.789  -0.893  0.00  0.00    -0.047 A 
ATOM      9  C9  IND d   1       1.143  -0.503  -0.699  0.00  0.00    -0.096 A 
ATOM     10  HN1 IND d   1      -1.062   1.562  -0.158  0.00  0.00     0.298 HD
ENDROOT
TORSDOF 0
ENDMDL
