MODEL 1
REMARK minimizedAffinity -5.12147665
REMARK minimizedRMSD -1
REMARK  0 active torsions:
REMARK  status: ('A' for Active; 'I' for Inactive)
ROOT
ATOM      1  N1  IND d   1      -0.721   0.672  -0.242  0.00  0.00    -0.196 N 
ATOM      2  C2  IND d   1      -1.146  -0.379   0.522  0.00  0.00     0.054 A 
ATOM      3  C3  IND d   1      -0.223  -1.366   0.519  0.00  0.00    -0.031 A 
ATOM      4  C4  IND d   1       2.101  -1.429  -0.586  0.00  0.00     0.051 A 
ATOM      5  C5  IND d   1       2.918  -0.716  -1.419  0.00  0.00    -0.031 A 
ATOM      6  C6  IND d   1       2.557   0.522  -1.910  0.00  0.00     0.015 A 
ATOM      7  C7  IND d   1       1.365   1.101  -1.575  0.00  0.00    -0.016 A 
ATOM      8  C8  IND d   1       0.531   0.377  -0.736  0.00  0.00    -0.047 A 
ATOM      9  C9  IND d   1       0.873  -0.899  -0.268  0.00  0.00    -0.096 A 
ATOM     10  HN1 IND d   1      -1.162   1.396  -0.390  0.00  0.00     0.298 HD
ENDROOT
TORSDOF 0
ENDMDL
