MODEL 1
REMARK minimizedAffinity -4.41188717
REMARK minimizedRMSD -1
REMARK  0 active torsions:
REMARK  status: ('A' for Active; 'I' for Inactive)
ROOT
ATOM      1  N1  IND d   1      -1.019   1.482  -0.246  0.00  0.00    -0.196 N 
ATOM      2  C2  IND d   1      -1.172   0.494   0.687  0.00  0.00     0.054 A 
ATOM      3  C3  IND d   1      -0.148  -0.386   0.612  0.00  0.00    -0.031 A 
ATOM      4  C4  IND d   1       1.938  -0.343  -0.896  0.00  0.00     0.051 A 
ATOM      5  C5  IND d   1       2.503   0.343  -1.935  0.00  0.00    -0.031 A 
ATOM      6  C6  IND d   1       1.911   1.468  -2.473  0.00  0.00     0.015 A 
ATOM      7  C7  IND d   1       0.734   1.957  -1.982  0.00  0.00    -0.016 A 
ATOM      8  C8  IND d   1       0.154   1.259  -0.932  0.00  0.00    -0.047 A 
ATOM      9  C9  IND d   1       0.728   0.093  -0.410  0.00  0.00    -0.096 A 
ATOM     10  HN1 IND d   1      -1.565   2.132  -0.381  0.00  0.00     0.298 HD
ENDROOT
TORSDOF 0
ENDMDL
