MODEL 1
REMARK minimizedAffinity -3.84962559
REMARK minimizedRMSD -1
REMARK  0 active torsions:
REMARK  status: ('A' for Active; 'I' for Inactive)
ROOT
ATOM      1  N1  IND d   1       1.946   0.749  -1.713  0.00  0.00    -0.196 N 
ATOM      2  C2  IND d   1       2.907  -0.213  -1.863  0.00  0.00     0.054 A 
ATOM      3  C3  IND d   1       2.582  -1.317  -1.154  0.00  0.00    -0.031 A 
ATOM      4  C4  IND d   1       0.473  -1.803   0.241  0.00  0.00     0.051 A 
ATOM      5  C5  IND d   1      -0.671  -1.216   0.705  0.00  0.00    -0.031 A 
ATOM      6  C6  IND d   1      -1.009   0.081   0.377  0.00  0.00     0.015 A 
ATOM      7  C7  IND d   1      -0.218   0.839  -0.439  0.00  0.00    -0.016 A 
ATOM      8  C8  IND d   1       0.948   0.249  -0.906  0.00  0.00    -0.047 A 
ATOM      9  C9  IND d   1       1.318  -1.052  -0.542  0.00  0.00    -0.096 A 
ATOM     10  HN1 IND d   1       1.963   1.534  -2.064  0.00  0.00     0.298 HD
ENDROOT
TORSDOF 0
ENDMDL
