MODEL 1
REMARK minimizedAffinity -3.30186391
REMARK minimizedRMSD -1
REMARK  0 active torsions:
REMARK  status: ('A' for Active; 'I' for Inactive)
ROOT
ATOM      1  N1  IND d   1       2.408   0.637  -1.505  0.00  0.00    -0.196 N 
ATOM      2  C2  IND d   1       3.212  -0.460  -1.642  0.00  0.00     0.054 A 
ATOM      3  C3  IND d   1       2.639  -1.539  -1.062  0.00  0.00    -0.031 A 
ATOM      4  C4  IND d   1       0.341  -1.755   0.078  0.00  0.00     0.051 A 
ATOM      5  C5  IND d   1      -0.738  -1.017   0.477  0.00  0.00    -0.031 A 
ATOM      6  C6  IND d   1      -0.826   0.338   0.228  0.00  0.00     0.015 A 
ATOM      7  C7  IND d   1       0.161   1.005  -0.442  0.00  0.00    -0.016 A 
ATOM      8  C8  IND d   1       1.260   0.259  -0.842  0.00  0.00    -0.047 A 
ATOM      9  C9  IND d   1       1.375  -1.107  -0.555  0.00  0.00    -0.096 A 
ATOM     10  HN1 IND d   1       2.588   1.429  -1.785  0.00  0.00     0.298 HD
ENDROOT
TORSDOF 0
ENDMDL
