MODEL 1
REMARK minimizedAffinity -4.57880735
REMARK minimizedRMSD -1
REMARK  0 active torsions:
REMARK  status: ('A' for Active; 'I' for Inactive)
ROOT
ATOM      1  N1  IND d   1      -0.541   0.953  -0.336  0.00  0.00    -0.196 N 
ATOM      2  C2  IND d   1      -0.993   0.405   0.831  0.00  0.00     0.054 A 
ATOM      3  C3  IND d   1      -0.075  -0.449   1.337  0.00  0.00    -0.031 A 
ATOM      4  C4  IND d   1       2.279  -1.022   0.468  0.00  0.00     0.051 A 
ATOM      5  C5  IND d   1       3.123  -0.799  -0.583  0.00  0.00    -0.031 A 
ATOM      6  C6  IND d   1       2.783   0.038  -1.626  0.00  0.00     0.015 A 
ATOM      7  C7  IND d   1       1.586   0.695  -1.651  0.00  0.00    -0.016 A 
ATOM      8  C8  IND d   1       0.723   0.466  -0.588  0.00  0.00    -0.047 A 
ATOM      9  C9  IND d   1       1.045  -0.415   0.452  0.00  0.00    -0.096 A 
ATOM     10  HN1 IND d   1      -0.973   1.508  -0.831  0.00  0.00     0.298 HD
ENDROOT
TORSDOF 0
ENDMDL
