MODEL 1
REMARK minimizedAffinity -1.33029866
REMARK minimizedRMSD -1
REMARK  0 active torsions:
REMARK  status: ('A' for Active; 'I' for Inactive)
ROOT
ATOM      1  N1  IND d   1      -0.695  -0.634  -0.014  0.00  0.00    -0.196 N 
ATOM      2  C2  IND d   1      -0.648   0.010   1.191  0.00  0.00     0.054 A 
ATOM      3  C3  IND d   1       0.627   0.336   1.500  0.00  0.00    -0.031 A 
ATOM      4  C4  IND d   1       2.779   0.001   0.127  0.00  0.00     0.051 A 
ATOM      5  C5  IND d   1       3.246  -0.572  -1.022  0.00  0.00    -0.031 A 
ATOM      6  C6  IND d   1       2.405  -1.207  -1.913  0.00  0.00     0.015 A 
ATOM      7  C7  IND d   1       1.059  -1.281  -1.693  0.00  0.00    -0.016 A 
ATOM      8  C8  IND d   1       0.583  -0.706  -0.524  0.00  0.00    -0.047 A 
ATOM      9  C9  IND d   1       1.437  -0.098   0.405  0.00  0.00    -0.096 A 
ATOM     10  HN1 IND d   1      -1.404  -0.943  -0.391  0.00  0.00     0.298 HD
ENDROOT
TORSDOF 0
ENDMDL
