MODEL 1
REMARK minimizedAffinity -3.4179492
REMARK minimizedRMSD -1
REMARK  0 active torsions:
REMARK  status: ('A' for Active; 'I' for Inactive)
ROOT
ATOM      1  N1  IND d   1       2.177   0.168  -0.371  0.00  0.00    -0.196 N 
ATOM      2  C2  IND d   1       2.476  -1.087  -0.822  0.00  0.00     0.054 A 
ATOM      3  C3  IND d   1       1.383  -1.881  -0.763  0.00  0.00    -0.031 A 
ATOM      4  C4  IND d   1      -1.024  -1.300  -0.058  0.00  0.00     0.051 A 
ATOM      5  C5  IND d   1      -1.779  -0.288   0.466  0.00  0.00    -0.031 A 
ATOM      6  C6  IND d   1      -1.243   0.953   0.741  0.00  0.00     0.015 A 
ATOM      7  C7  IND d   1       0.070   1.234   0.491  0.00  0.00    -0.016 A 
ATOM      8  C8  IND d   1       0.841   0.207  -0.035  0.00  0.00    -0.047 A 
ATOM      9  C9  IND d   1       0.313  -1.068  -0.277  0.00  0.00    -0.096 A 
ATOM     10  HN1 IND d   1       2.730   0.824  -0.307  0.00  0.00     0.298 HD
ENDROOT
TORSDOF 0
ENDMDL
