MODEL 1
REMARK minimizedAffinity -1.18397927
REMARK minimizedRMSD -1
REMARK  0 active torsions:
REMARK  status: ('A' for Active; 'I' for Inactive)
ROOT
ATOM      1  N1  IND d   1       0.600   2.247  -2.168  0.00  0.00    -0.196 N 
ATOM      2  C2  IND d   1      -0.286   2.312  -1.129  0.00  0.00     0.054 A 
ATOM      3  C3  IND d   1      -0.262   1.162  -0.418  0.00  0.00    -0.031 A 
ATOM      4  C4  IND d   1       1.226  -0.917  -0.720  0.00  0.00     0.051 A 
ATOM      5  C5  IND d   1       2.164  -1.458  -1.553  0.00  0.00    -0.031 A 
ATOM      6  C6  IND d   1       2.641  -0.777  -2.655  0.00  0.00     0.015 A 
ATOM      7  C7  IND d   1       2.203   0.481  -2.959  0.00  0.00    -0.016 A 
ATOM      8  C8  IND d   1       1.245   1.031  -2.119  0.00  0.00    -0.047 A 
ATOM      9  C9  IND d   1       0.726   0.328  -1.024  0.00  0.00    -0.096 A 
ATOM     10  HN1 IND d   1       0.733   2.863  -2.753  0.00  0.00     0.298 HD
ENDROOT
TORSDOF 0
ENDMDL
