MODEL 1
REMARK minimizedAffinity -2.38571811
REMARK minimizedRMSD -1
REMARK  0 active torsions:
REMARK  status: ('A' for Active; 'I' for Inactive)
ROOT
ATOM      1  N1  IND d   1      -0.598   0.793  -0.133  0.00  0.00    -0.196 N 
ATOM      2  C2  IND d   1      -0.551  -0.458   0.416  0.00  0.00     0.054 A 
ATOM      3  C3  IND d   1       0.254  -1.262  -0.313  0.00  0.00    -0.031 A 
ATOM      4  C4  IND d   1       1.676  -0.708  -2.387  0.00  0.00     0.051 A 
ATOM      5  C5  IND d   1       1.934   0.294  -3.279  0.00  0.00    -0.031 A 
ATOM      6  C6  IND d   1       1.352   1.540  -3.165  0.00  0.00     0.015 A 
ATOM      7  C7  IND d   1       0.495   1.835  -2.142  0.00  0.00    -0.016 A 
ATOM      8  C8  IND d   1       0.225   0.817  -1.238  0.00  0.00    -0.047 A 
ATOM      9  C9  IND d   1       0.779  -0.462  -1.374  0.00  0.00    -0.096 A 
ATOM     10  HN1 IND d   1      -1.062   1.454   0.162  0.00  0.00     0.298 HD
ENDROOT
TORSDOF 0
ENDMDL
