MODEL 1
REMARK minimizedAffinity -5.4531126
REMARK minimizedRMSD -1
REMARK  0 active torsions:
REMARK  status: ('A' for Active; 'I' for Inactive)
ROOT
ATOM      1  N1  IND d   1      -0.331   0.826  -0.307  0.00  0.00    -0.196 N 
ATOM      2  C2  IND d   1      -0.589  -0.361   0.319  0.00  0.00     0.054 A 
ATOM      3  C3  IND d   1       0.369  -1.268   0.022  0.00  0.00    -0.031 A 
ATOM      4  C4  IND d   1       2.503  -0.988  -1.391  0.00  0.00     0.051 A 
ATOM      5  C5  IND d   1       3.152  -0.095  -2.197  0.00  0.00    -0.031 A 
ATOM      6  C6  IND d   1       2.665   1.177  -2.416  0.00  0.00     0.015 A 
ATOM      7  C7  IND d   1       1.511   1.609  -1.826  0.00  0.00    -0.016 A 
ATOM      8  C8  IND d   1       0.845   0.703  -1.013  0.00  0.00    -0.047 A 
ATOM      9  C9  IND d   1       1.313  -0.603  -0.821  0.00  0.00    -0.096 A 
ATOM     10  HN1 IND d   1      -0.822   1.531  -0.268  0.00  0.00     0.298 HD
ENDROOT
TORSDOF 0
ENDMDL
