MODEL 1
REMARK minimizedAffinity -5.66000462
REMARK minimizedRMSD -1
REMARK  0 active torsions:
REMARK  status: ('A' for Active; 'I' for Inactive)
ROOT
ATOM      1  N1  IND d   1      -0.142   0.730  -0.284  0.00  0.00    -0.196 N 
ATOM      2  C2  IND d   1      -0.307  -0.425   0.430  0.00  0.00     0.054 A 
ATOM      3  C3  IND d   1       0.737  -1.258   0.223  0.00  0.00    -0.031 A 
ATOM      4  C4  IND d   1       2.873  -0.891  -1.166  0.00  0.00     0.051 A 
ATOM      5  C5  IND d   1       3.460  -0.006  -2.027  0.00  0.00    -0.031 A 
ATOM      6  C6  IND d   1       2.864   1.194  -2.355  0.00  0.00     0.015 A 
ATOM      7  C7  IND d   1       1.661   1.562  -1.824  0.00  0.00    -0.016 A 
ATOM      8  C8  IND d   1       1.059   0.663  -0.955  0.00  0.00    -0.047 A 
ATOM      9  C9  IND d   1       1.638  -0.576  -0.651  0.00  0.00    -0.096 A 
ATOM     10  HN1 IND d   1      -0.696   1.387  -0.310  0.00  0.00     0.298 HD
ENDROOT
TORSDOF 0
ENDMDL
