MODEL 1
REMARK minimizedAffinity -2.8764019
REMARK minimizedRMSD -1
REMARK  0 active torsions:
REMARK  status: ('A' for Active; 'I' for Inactive)
ROOT
ATOM      1  N1  IND d   1       2.242  -1.680  -0.767  0.00  0.00    -0.196 N 
ATOM      2  C2  IND d   1       3.154  -0.760  -1.203  0.00  0.00     0.054 A 
ATOM      3  C3  IND d   1       2.626   0.484  -1.157  0.00  0.00    -0.031 A 
ATOM      4  C4  IND d   1       0.322   1.252  -0.305  0.00  0.00     0.051 A 
ATOM      5  C5  IND d   1      -0.871   0.771   0.158  0.00  0.00    -0.031 A 
ATOM      6  C6  IND d   1      -1.091  -0.579   0.342  0.00  0.00     0.015 A 
ATOM      7  C7  IND d   1      -0.117  -1.501   0.080  0.00  0.00    -0.016 A 
ATOM      8  C8  IND d   1       1.093  -1.017  -0.397  0.00  0.00    -0.047 A 
ATOM      9  C9  IND d   1       1.307   0.349  -0.626  0.00  0.00    -0.096 A 
ATOM     10  HN1 IND d   1       2.365  -2.530  -0.731  0.00  0.00     0.298 HD
ENDROOT
TORSDOF 0
ENDMDL
