MODEL 1
REMARK minimizedAffinity -3.80794644
REMARK minimizedRMSD -1
REMARK  0 active torsions:
REMARK  status: ('A' for Active; 'I' for Inactive)
ROOT
ATOM      1  N1  IND d   1      -0.532   1.618  -0.931  0.00  0.00    -0.196 N 
ATOM      2  C2  IND d   1      -1.363   1.171   0.058  0.00  0.00     0.054 A 
ATOM      3  C3  IND d   1      -0.985  -0.060   0.470  0.00  0.00    -0.031 A 
ATOM      4  C4  IND d   1       1.027  -1.485  -0.269  0.00  0.00     0.051 A 
ATOM      5  C5  IND d   1       2.052  -1.514  -1.172  0.00  0.00    -0.031 A 
ATOM      6  C6  IND d   1       2.275  -0.479  -2.057  0.00  0.00     0.015 A 
ATOM      7  C7  IND d   1       1.483   0.634  -2.064  0.00  0.00    -0.016 A 
ATOM      8  C8  IND d   1       0.437   0.665  -1.153  0.00  0.00    -0.047 A 
ATOM      9  C9  IND d   1       0.181  -0.402  -0.282  0.00  0.00    -0.096 A 
ATOM     10  HN1 IND d   1      -0.603   2.369  -1.344  0.00  0.00     0.298 HD
ENDROOT
TORSDOF 0
ENDMDL
