MODEL 1
REMARK minimizedAffinity -6.03711033
REMARK minimizedRMSD -1
REMARK  0 active torsions:
REMARK  status: ('A' for Active; 'I' for Inactive)
ROOT
ATOM      1  N1  IND d   1      -0.526   1.557  -1.895  0.00  0.00    -0.196 N 
ATOM      2  C2  IND d   1      -1.263   1.117  -0.831  0.00  0.00     0.054 A 
ATOM      3  C3  IND d   1      -0.539   0.258  -0.080  0.00  0.00    -0.031 A 
ATOM      4  C4  IND d   1       1.910  -0.490  -0.353  0.00  0.00     0.051 A 
ATOM      5  C5  IND d   1       2.981  -0.384  -1.195  0.00  0.00    -0.031 A 
ATOM      6  C6  IND d   1       2.938   0.392  -2.335  0.00  0.00     0.015 A 
ATOM      7  C7  IND d   1       1.821   1.103  -2.671  0.00  0.00    -0.016 A 
ATOM      8  C8  IND d   1       0.729   0.993  -1.822  0.00  0.00    -0.047 A 
ATOM      9  C9  IND d   1       0.752   0.173  -0.686  0.00  0.00    -0.096 A 
ATOM     10  HN1 IND d   1      -0.800   2.096  -2.506  0.00  0.00     0.298 HD
ENDROOT
TORSDOF 0
ENDMDL
