MODEL 1
REMARK minimizedAffinity -0.375305653
REMARK minimizedRMSD -1
REMARK  0 active torsions:
REMARK  status: ('A' for Active; 'I' for Inactive)
ROOT
ATOM      1  N1  IND d   1      -0.486   1.487  -0.722  0.00  0.00    -0.196 N 
ATOM      2  C2  IND d   1      -1.541   1.554   0.145  0.00  0.00     0.054 A 
ATOM      3  C3  IND d   1      -1.636   0.410   0.859  0.00  0.00    -0.031 A 
ATOM      4  C4  IND d   1      -0.107  -1.661   0.841  0.00  0.00     0.051 A 
ATOM      5  C5  IND d   1       0.965  -2.203   0.189  0.00  0.00    -0.031 A 
ATOM      6  C6  IND d   1       1.624  -1.527  -0.818  0.00  0.00     0.015 A 
ATOM      7  C7  IND d   1       1.239  -0.275  -1.205  0.00  0.00    -0.016 A 
ATOM      8  C8  IND d   1       0.147   0.275  -0.550  0.00  0.00    -0.047 A 
ATOM      9  C9  IND d   1      -0.552  -0.422   0.443  0.00  0.00    -0.096 A 
ATOM     10  HN1 IND d   1      -0.257   2.099  -1.281  0.00  0.00     0.298 HD
ENDROOT
TORSDOF 0
ENDMDL
