MODEL 1
REMARK minimizedAffinity -3.96753955
REMARK minimizedRMSD -1
REMARK  0 active torsions:
REMARK  status: ('A' for Active; 'I' for Inactive)
ROOT
ATOM      1  N1  IND d   1      -0.211  -0.027   0.283  0.00  0.00    -0.196 N 
ATOM      2  C2  IND d   1      -0.452  -1.299   0.722  0.00  0.00     0.054 A 
ATOM      3  C3  IND d   1       0.497  -2.144   0.261  0.00  0.00    -0.031 A 
ATOM      4  C4  IND d   1       2.593  -1.638  -1.146  0.00  0.00     0.051 A 
ATOM      5  C5  IND d   1       3.220  -0.627  -1.818  0.00  0.00    -0.031 A 
ATOM      6  C6  IND d   1       2.728   0.662  -1.823  0.00  0.00     0.015 A 
ATOM      7  C7  IND d   1       1.590   0.992  -1.142  0.00  0.00    -0.016 A 
ATOM      8  C8  IND d   1       0.946  -0.033  -0.464  0.00  0.00    -0.047 A 
ATOM      9  C9  IND d   1       1.418  -1.352  -0.491  0.00  0.00    -0.096 A 
ATOM     10  HN1 IND d   1      -0.701   0.661   0.446  0.00  0.00     0.298 HD
ENDROOT
TORSDOF 0
ENDMDL
