MODEL 1
REMARK minimizedAffinity 5.91682577
REMARK minimizedRMSD -1
REMARK  1 active torsions:
REMARK  status: ('A' for Active; 'I' for Inactive)
REMARK    1  A    between atoms: C3_4  and  O_7 
ROOT
ATOM      1  C   UNL d   1       0.219   1.149   0.409  0.00  0.00    -0.033 A 
ATOM      2  C1  UNL d   1      -1.092   1.209  -0.069  0.00  0.00     0.039 A 
ATOM      3  C2  UNL d   1      -2.069   1.898   0.652  0.00  0.00    -0.080 A 
ATOM      4  C3  UNL d   1      -1.723   2.523   1.847  0.00  0.00     0.150 A 
ATOM      5  C4  UNL d   1      -0.419   2.470   2.327  0.00  0.00    -0.007 A 
ATOM      6  C5  UNL d   1       0.555   1.781   1.607  0.00  0.00     0.039 A 
ENDROOT
BRANCH   4   7
ATOM      7  O   UNL d   1      -2.644   3.203   2.587  0.00  0.00    -0.526 OA
ATOM      8  H5  UNL d   1      -3.507   3.130   2.148  0.00  0.00     0.418 HD
ENDBRANCH   4   7
TORSDOF 1
ENDMDL
