MODEL 1
REMARK minimizedAffinity 4.27148151
REMARK minimizedRMSD -1
REMARK  1 active torsions:
REMARK  status: ('A' for Active; 'I' for Inactive)
REMARK    1  A    between atoms: C3_4  and  O_7 
ROOT
ATOM      1  C   UNL d   1       0.740   2.513   3.129  0.00  0.00    -0.033 A 
ATOM      2  C1  UNL d   1       1.561   3.370   2.393  0.00  0.00     0.039 A 
ATOM      3  C2  UNL d   1       1.272   3.638   1.053  0.00  0.00    -0.080 A 
ATOM      4  C3  UNL d   1       0.160   3.044   0.463  0.00  0.00     0.150 A 
ATOM      5  C4  UNL d   1      -0.665   2.193   1.191  0.00  0.00    -0.007 A 
ATOM      6  C5  UNL d   1      -0.374   1.926   2.528  0.00  0.00     0.039 A 
ENDROOT
BRANCH   4   7
ATOM      7  O   UNL d   1      -0.160   3.271  -0.843  0.00  0.00    -0.526 OA
ATOM      8  H5  UNL d   1       0.514   3.856  -1.228  0.00  0.00     0.418 HD
ENDBRANCH   4   7
TORSDOF 1
ENDMDL
