MODEL 1
REMARK minimizedAffinity 2.30362272
REMARK minimizedRMSD -1
REMARK  1 active torsions:
REMARK  status: ('A' for Active; 'I' for Inactive)
REMARK    1  A    between atoms: C3_4  and  O_7 
ROOT
ATOM      1  C   UNL d   1       0.778  -0.620  -1.486  0.00  0.00    -0.033 A 
ATOM      2  C1  UNL d   1       0.144  -1.770  -1.963  0.00  0.00     0.039 A 
ATOM      3  C2  UNL d   1      -1.250  -1.837  -1.998  0.00  0.00    -0.080 A 
ATOM      4  C3  UNL d   1      -1.998  -0.749  -1.556  0.00  0.00     0.150 A 
ATOM      5  C4  UNL d   1      -1.373   0.401  -1.083  0.00  0.00    -0.007 A 
ATOM      6  C5  UNL d   1       0.019   0.465  -1.048  0.00  0.00     0.039 A 
ENDROOT
BRANCH   4   7
ATOM      7  O   UNL d   1      -3.361  -0.769  -1.567  0.00  0.00    -0.526 OA
ATOM      8  H5  UNL d   1      -3.653  -1.638  -1.891  0.00  0.00     0.418 HD
ENDBRANCH   4   7
TORSDOF 1
ENDMDL
