MODEL 1
REMARK minimizedAffinity 0.521209896
REMARK minimizedRMSD -1
REMARK  1 active torsions:
REMARK  status: ('A' for Active; 'I' for Inactive)
REMARK    1  A    between atoms: C3_4  and  O_7 
ROOT
ATOM      1  C   UNL d   1       0.913   2.877   3.070  0.00  0.00    -0.033 A 
ATOM      2  C1  UNL d   1       1.626   3.789   2.289  0.00  0.00     0.039 A 
ATOM      3  C2  UNL d   1       1.200   4.084   0.993  0.00  0.00    -0.080 A 
ATOM      4  C3  UNL d   1       0.060   3.462   0.490  0.00  0.00     0.150 A 
ATOM      5  C4  UNL d   1      -0.657   2.555   1.264  0.00  0.00    -0.007 A 
ATOM      6  C5  UNL d   1      -0.229   2.261   2.558  0.00  0.00     0.039 A 
ENDROOT
BRANCH   4   7
ATOM      7  O   UNL d   1      -0.392   3.714  -0.771  0.00  0.00    -0.526 OA
ATOM      8  H5  UNL d   1       0.219   4.337  -1.198  0.00  0.00     0.418 HD
ENDBRANCH   4   7
TORSDOF 1
ENDMDL
