MODEL 1
REMARK minimizedAffinity 1.85698295
REMARK minimizedRMSD -1
REMARK  1 active torsions:
REMARK  status: ('A' for Active; 'I' for Inactive)
REMARK    1  A    between atoms: C3_4  and  O_7 
ROOT
ATOM      1  C   UNL d   1      -5.992  -0.323   4.382  0.00  0.00    -0.033 A 
ATOM      2  C1  UNL d   1      -5.988  -1.257   3.344  0.00  0.00     0.039 A 
ATOM      3  C2  UNL d   1      -5.986  -2.623   3.632  0.00  0.00    -0.080 A 
ATOM      4  C3  UNL d   1      -5.990  -3.041   4.960  0.00  0.00     0.150 A 
ATOM      5  C4  UNL d   1      -5.998  -2.116   5.999  0.00  0.00    -0.007 A 
ATOM      6  C5  UNL d   1      -5.999  -0.753   5.710  0.00  0.00     0.039 A 
ENDROOT
BRANCH   4   7
ATOM      7  O   UNL d   1      -5.984  -4.364   5.290  0.00  0.00    -0.526 OA
ATOM      8  H5  UNL d   1      -5.949  -4.886   4.471  0.00  0.00     0.418 HD
ENDBRANCH   4   7
TORSDOF 1
ENDMDL
