MODEL 1
REMARK minimizedAffinity -2.75503469
REMARK minimizedRMSD -1
REMARK  1 active torsions:
REMARK  status: ('A' for Active; 'I' for Inactive)
REMARK    1  A    between atoms: C3_4  and  O_7 
ROOT
ATOM      1  C   UNL d   1      -5.946  -4.049   4.793  0.00  0.00    -0.033 A 
ATOM      2  C1  UNL d   1      -5.978  -3.354   3.582  0.00  0.00     0.039 A 
ATOM      3  C2  UNL d   1      -5.994  -1.958   3.577  0.00  0.00    -0.080 A 
ATOM      4  C3  UNL d   1      -5.978  -1.270   4.787  0.00  0.00     0.150 A 
ATOM      5  C4  UNL d   1      -5.943  -1.955   5.996  0.00  0.00    -0.007 A 
ATOM      6  C5  UNL d   1      -5.927  -3.350   6.000  0.00  0.00     0.039 A 
ENDROOT
BRANCH   4   7
ATOM      7  O   UNL d   1      -5.998   0.093   4.832  0.00  0.00    -0.526 OA
ATOM      8  H5  UNL d   1      -6.051   0.430   3.922  0.00  0.00     0.418 HD
ENDBRANCH   4   7
TORSDOF 1
ENDMDL
