MODEL 1
REMARK minimizedAffinity 8.77438641
REMARK minimizedRMSD -1
REMARK  2 active torsions:
REMARK  status: ('A' for Active; 'I' for Inactive)
REMARK    1  A    between atoms: C2'_3  and  C1'_4 
REMARK    2  A    between atoms: C1'_4  and  C1_5 
ROOT
ATOM      1  C1  I4B d   1       1.110   1.041   1.924  0.00  0.00    -0.075 A 
ATOM      2  C2  I4B d   1       0.259   0.166   1.296  0.00  0.00     0.003 A 
ATOM      3  C3  I4B d   1      -0.272   0.480   0.021  0.00  0.00     0.002 A 
ATOM      4  C4  I4B d   1       0.032   1.693  -0.562  0.00  0.00    -0.004 A 
ATOM      5  C5  I4B d   1       0.914   2.568   0.066  0.00  0.00     0.002 A 
ATOM      6  C6  I4B d   1       1.466   2.236   1.311  0.00  0.00     0.003 A 
ENDROOT
BRANCH   1   7
ATOM      7  C1' I4B d   1       1.627   0.693   3.284  0.00  0.00     0.060 C 
BRANCH   7   8
ATOM      8  C2' I4B d   1       0.601   1.147   4.303  0.00  0.00    -0.013 C 
ATOM      9  C4' I4B d   1      -0.757   0.569   4.005  0.00  0.00     0.013 C 
ATOM     10  C3' I4B d   1       1.081   0.729   5.661  0.00  0.00     0.013 C 
ENDBRANCH   7   8
ENDBRANCH   1   7
TORSDOF 2
ENDMDL
