MODEL 1
REMARK minimizedAffinity 0.339429349
REMARK minimizedRMSD -1
REMARK  2 active torsions:
REMARK  status: ('A' for Active; 'I' for Inactive)
REMARK    1  A    between atoms: C2'_3  and  C1'_4 
REMARK    2  A    between atoms: C1'_4  and  C1_5 
ROOT
ATOM      1  C1  I4B d   1      -1.023   5.995  -3.479  0.00  0.00    -0.075 A 
ATOM      2  C2  I4B d   1      -1.983   5.999  -4.460  0.00  0.00     0.003 A 
ATOM      3  C3  I4B d   1      -3.356   5.981  -4.115  0.00  0.00     0.002 A 
ATOM      4  C4  I4B d   1      -3.722   5.908  -2.787  0.00  0.00    -0.004 A 
ATOM      5  C5  I4B d   1      -2.748   5.927  -1.792  0.00  0.00     0.002 A 
ATOM      6  C6  I4B d   1      -1.390   5.983  -2.139  0.00  0.00     0.003 A 
ENDROOT
BRANCH   1   7
ATOM      7  C1' I4B d   1       0.418   5.981  -3.879  0.00  0.00     0.060 C 
BRANCH   7   8
ATOM      8  C2' I4B d   1       0.492   5.603  -5.345  0.00  0.00    -0.013 C 
ATOM      9  C4' I4B d   1       1.815   6.000  -5.944  0.00  0.00     0.013 C 
ATOM     10  C3' I4B d   1       0.269   4.124  -5.453  0.00  0.00     0.013 C 
ENDBRANCH   7   8
ENDBRANCH   1   7
TORSDOF 2
ENDMDL
