MODEL 1
REMARK minimizedAffinity 1.9696753
REMARK minimizedRMSD -1
REMARK  2 active torsions:
REMARK  status: ('A' for Active; 'I' for Inactive)
REMARK    1  A    between atoms: C2'_3  and  C1'_4 
REMARK    2  A    between atoms: C1'_4  and  C1_5 
ROOT
ATOM      1  C1  I4B d   1      -1.792   5.924  -4.710  0.00  0.00    -0.075 A 
ATOM      2  C2  I4B d   1      -1.031   5.857  -5.851  0.00  0.00     0.003 A 
ATOM      3  C3  I4B d   1       0.382   5.822  -5.764  0.00  0.00     0.002 A 
ATOM      4  C4  I4B d   1       0.989   5.907  -4.528  0.00  0.00    -0.004 A 
ATOM      5  C5  I4B d   1       0.216   5.952  -3.371  0.00  0.00     0.002 A 
ATOM      6  C6  I4B d   1      -1.184   5.948  -3.462  0.00  0.00     0.003 A 
ENDROOT
BRANCH   1   7
ATOM      7  C1' I4B d   1      -3.281   5.992  -4.840  0.00  0.00     0.060 C 
BRANCH   7   8
ATOM      8  C2' I4B d   1      -3.885   5.511  -3.537  0.00  0.00    -0.013 C 
ATOM      9  C4' I4B d   1      -3.091   5.999  -2.354  0.00  0.00     0.013 C 
ATOM     10  C3' I4B d   1      -5.302   5.999  -3.476  0.00  0.00     0.013 C 
ENDBRANCH   7   8
ENDBRANCH   1   7
TORSDOF 2
ENDMDL
