MODEL 1
REMARK minimizedAffinity 8.19073391
REMARK minimizedRMSD -1
REMARK  2 active torsions:
REMARK  status: ('A' for Active; 'I' for Inactive)
REMARK    1  A    between atoms: C2'_3  and  C1'_4 
REMARK    2  A    between atoms: C1'_4  and  C1_5 
ROOT
ATOM      1  C1  I4B d   1      -1.260   5.970  -3.349  0.00  0.00    -0.075 A 
ATOM      2  C2  I4B d   1       0.099   6.000  -3.156  0.00  0.00     0.003 A 
ATOM      3  C3  I4B d   1       0.977   5.948  -4.266  0.00  0.00     0.002 A 
ATOM      4  C4  I4B d   1       0.459   5.817  -5.538  0.00  0.00    -0.004 A 
ATOM      5  C5  I4B d   1      -0.919   5.810  -5.733  0.00  0.00     0.002 A 
ATOM      6  C6  I4B d   1      -1.785   5.900  -4.633  0.00  0.00     0.003 A 
ENDROOT
BRANCH   1   7
ATOM      7  C1' I4B d   1      -2.158   5.993  -2.153  0.00  0.00     0.060 C 
BRANCH   7   8
ATOM      8  C2' I4B d   1      -1.296   5.829  -0.918  0.00  0.00    -0.013 C 
ATOM      9  C4' I4B d   1      -2.106   5.998   0.339  0.00  0.00     0.013 C 
ATOM     10  C3' I4B d   1      -0.660   4.472  -0.975  0.00  0.00     0.013 C 
ENDBRANCH   7   8
ENDBRANCH   1   7
TORSDOF 2
ENDMDL
