MODEL 1
REMARK minimizedAffinity 7.18241453
REMARK minimizedRMSD -1
REMARK  2 active torsions:
REMARK  status: ('A' for Active; 'I' for Inactive)
REMARK    1  A    between atoms: C2'_3  and  C1'_4 
REMARK    2  A    between atoms: C1'_4  and  C1_5 
ROOT
ATOM      1  C1  I4B d   1      -1.816   5.949  -2.519  0.00  0.00    -0.075 A 
ATOM      2  C2  I4B d   1      -2.295   5.891  -1.234  0.00  0.00     0.003 A 
ATOM      3  C3  I4B d   1      -3.690   5.873  -0.993  0.00  0.00     0.002 A 
ATOM      4  C4  I4B d   1      -4.565   5.964  -2.057  0.00  0.00    -0.004 A 
ATOM      5  C5  I4B d   1      -4.077   5.999  -3.361  0.00  0.00     0.002 A 
ATOM      6  C6  I4B d   1      -2.694   5.979  -3.594  0.00  0.00     0.003 A 
ENDROOT
BRANCH   1   7
ATOM      7  C1' I4B d   1      -0.337   6.000  -2.735  0.00  0.00     0.060 C 
BRANCH   7   8
ATOM      8  C2' I4B d   1      -0.036   5.340  -4.065  0.00  0.00    -0.013 C 
ATOM      9  C4' I4B d   1       1.138   5.994  -4.745  0.00  0.00     0.013 C 
ATOM     10  C3' I4B d   1       0.226   3.886  -3.812  0.00  0.00     0.013 C 
ENDBRANCH   7   8
ENDBRANCH   1   7
TORSDOF 2
ENDMDL
