MODEL 1
REMARK minimizedAffinity 0.724268317
REMARK minimizedRMSD -1
REMARK  2 active torsions:
REMARK  status: ('A' for Active; 'I' for Inactive)
REMARK    1  A    between atoms: C2'_3  and  C1'_4 
REMARK    2  A    between atoms: C1'_4  and  C1_5 
ROOT
ATOM      1  C1  I4B d   1      -0.520   5.422  -3.861  0.00  0.00    -0.075 A 
ATOM      2  C2  I4B d   1       0.724   6.000  -3.884  0.00  0.00     0.003 A 
ATOM      3  C3  I4B d   1       1.614   5.734  -4.953  0.00  0.00     0.002 A 
ATOM      4  C4  I4B d   1       1.240   4.849  -5.944  0.00  0.00    -0.004 A 
ATOM      5  C5  I4B d   1      -0.031   4.281  -5.930  0.00  0.00     0.002 A 
ATOM      6  C6  I4B d   1      -0.922   4.579  -4.889  0.00  0.00     0.003 A 
ENDROOT
BRANCH   1   7
ATOM      7  C1' I4B d   1      -1.423   5.699  -2.700  0.00  0.00     0.060 C 
BRANCH   7   8
ATOM      8  C2' I4B d   1      -2.844   5.399  -3.131  0.00  0.00    -0.013 C 
ATOM      9  C4' I4B d   1      -3.840   5.939  -2.139  0.00  0.00     0.013 C 
ATOM     10  C3' I4B d   1      -3.052   6.000  -4.489  0.00  0.00     0.013 C 
ENDBRANCH   7   8
ENDBRANCH   1   7
TORSDOF 2
ENDMDL
