MODEL 1
REMARK minimizedAffinity -2.15622258
REMARK minimizedRMSD -1
REMARK  2 active torsions:
REMARK  status: ('A' for Active; 'I' for Inactive)
REMARK    1  A    between atoms: C2'_3  and  C1'_4 
REMARK    2  A    between atoms: C1'_4  and  C1_5 
ROOT
ATOM      1  C1  I4B d   1       1.113   0.695   2.383  0.00  0.00    -0.075 A 
ATOM      2  C2  I4B d   1       2.131   0.357   3.239  0.00  0.00     0.003 A 
ATOM      3  C3  I4B d   1       3.472   0.672   2.911  0.00  0.00     0.002 A 
ATOM      4  C4  I4B d   1       3.752   1.275   1.702  0.00  0.00    -0.004 A 
ATOM      5  C5  I4B d   1       2.717   1.638   0.846  0.00  0.00     0.002 A 
ATOM      6  C6  I4B d   1       1.387   1.357   1.193  0.00  0.00     0.003 A 
ENDROOT
BRANCH   1   7
ATOM      7  C1' I4B d   1      -0.289   0.319   2.745  0.00  0.00     0.060 C 
BRANCH   7   8
ATOM      8  C2' I4B d   1      -1.206   1.434   2.286  0.00  0.00    -0.013 C 
ATOM      9  C4' I4B d   1      -1.746   1.163   0.907  0.00  0.00     0.013 C 
ATOM     10  C3' I4B d   1      -2.315   1.563   3.287  0.00  0.00     0.013 C 
ENDBRANCH   7   8
ENDBRANCH   1   7
TORSDOF 2
ENDMDL
