MODEL 1
REMARK minimizedAffinity 9.6641407
REMARK minimizedRMSD -1
REMARK  2 active torsions:
REMARK  status: ('A' for Active; 'I' for Inactive)
REMARK    1  A    between atoms: C2'_3  and  C1'_4 
REMARK    2  A    between atoms: C1'_4  and  C1_5 
ROOT
ATOM      1  C1  I4B d   1      -0.193  -1.909  -3.985  0.00  0.00    -0.075 A 
ATOM      2  C2  I4B d   1       0.854  -2.115  -3.122  0.00  0.00     0.003 A 
ATOM      3  C3  I4B d   1       2.086  -1.446  -3.324  0.00  0.00     0.002 A 
ATOM      4  C4  I4B d   1       2.241  -0.625  -4.422  0.00  0.00    -0.004 A 
ATOM      5  C5  I4B d   1       1.170  -0.400  -5.283  0.00  0.00     0.002 A 
ATOM      6  C6  I4B d   1      -0.059  -1.036  -5.056  0.00  0.00     0.003 A 
ENDROOT
BRANCH   1   7
ATOM      7  C1' I4B d   1      -1.469  -2.658  -3.760  0.00  0.00     0.060 C 
BRANCH   7   8
ATOM      8  C2' I4B d   1      -2.597  -1.648  -3.695  0.00  0.00    -0.013 C 
ATOM      9  C4' I4B d   1      -3.344  -1.579  -5.001  0.00  0.00     0.013 C 
ATOM     10  C3' I4B d   1      -3.507  -2.044  -2.570  0.00  0.00     0.013 C 
ENDBRANCH   7   8
ENDBRANCH   1   7
TORSDOF 2
ENDMDL
