MODEL 1
REMARK minimizedAffinity -1.39698768
REMARK minimizedRMSD -1
REMARK  2 active torsions:
REMARK  status: ('A' for Active; 'I' for Inactive)
REMARK    1  A    between atoms: C2'_3  and  C1'_4 
REMARK    2  A    between atoms: C1'_4  and  C1_5 
ROOT
ATOM      1  C1  I4B d   1      -0.917   5.933  -3.565  0.00  0.00    -0.075 A 
ATOM      2  C2  I4B d   1      -1.222   5.907  -2.227  0.00  0.00     0.003 A 
ATOM      3  C3  I4B d   1      -2.574   5.902  -1.805  0.00  0.00     0.002 A 
ATOM      4  C4  I4B d   1      -3.580   5.974  -2.746  0.00  0.00    -0.004 A 
ATOM      5  C5  I4B d   1      -3.269   5.977  -4.103  0.00  0.00     0.002 A 
ATOM      6  C6  I4B d   1      -1.929   5.944  -4.516  0.00  0.00     0.003 A 
ENDROOT
BRANCH   1   7
ATOM      7  C1' I4B d   1       0.521   5.971  -3.975  0.00  0.00     0.060 C 
BRANCH   7   8
ATOM      8  C2' I4B d   1       0.575   5.989  -5.489  0.00  0.00    -0.013 C 
ATOM      9  C4' I4B d   1       1.997   5.972  -5.985  0.00  0.00     0.013 C 
ATOM     10  C3' I4B d   1      -0.189   4.801  -5.994  0.00  0.00     0.013 C 
ENDBRANCH   7   8
ENDBRANCH   1   7
TORSDOF 2
ENDMDL
