MODEL 1
REMARK minimizedAffinity 11.6458836
REMARK minimizedRMSD -1
REMARK  2 active torsions:
REMARK  status: ('A' for Active; 'I' for Inactive)
REMARK    1  A    between atoms: C2'_3  and  C1'_4 
REMARK    2  A    between atoms: C1'_4  and  C1_5 
ROOT
ATOM      1  C1  I4B d   1      -2.820  -1.504  -2.934  0.00  0.00    -0.075 A 
ATOM      2  C2  I4B d   1      -3.672  -2.578  -2.880  0.00  0.00     0.003 A 
ATOM      3  C3  I4B d   1      -4.466  -2.802  -1.729  0.00  0.00     0.002 A 
ATOM      4  C4  I4B d   1      -4.339  -1.961  -0.642  0.00  0.00    -0.004 A 
ATOM      5  C5  I4B d   1      -3.491  -0.859  -0.707  0.00  0.00     0.002 A 
ATOM      6  C6  I4B d   1      -2.735  -0.622  -1.864  0.00  0.00     0.003 A 
ENDROOT
BRANCH   1   7
ATOM      7  C1' I4B d   1      -1.972  -1.316  -4.152  0.00  0.00     0.060 C 
BRANCH   7   8
ATOM      8  C2' I4B d   1      -0.849  -0.364  -3.797  0.00  0.00    -0.013 C 
ATOM      9  C4' I4B d   1       0.241  -1.068  -3.032  0.00  0.00     0.013 C 
ATOM     10  C3' I4B d   1      -0.323   0.227  -5.071  0.00  0.00     0.013 C 
ENDBRANCH   7   8
ENDBRANCH   1   7
TORSDOF 2
ENDMDL
