MODEL 1
REMARK minimizedAffinity 7.28457165
REMARK minimizedRMSD -1
REMARK  2 active torsions:
REMARK  status: ('A' for Active; 'I' for Inactive)
REMARK    1  A    between atoms: C2'_3  and  C1'_4 
REMARK    2  A    between atoms: C1'_4  and  C1_5 
ROOT
ATOM      1  C1  I4B d   1      -2.451   5.970  -3.307  0.00  0.00    -0.075 A 
ATOM      2  C2  I4B d   1      -1.121   5.982  -3.644  0.00  0.00     0.003 A 
ATOM      3  C3  I4B d   1      -0.730   5.993  -5.005  0.00  0.00     0.002 A 
ATOM      4  C4  I4B d   1      -1.696   5.942  -5.990  0.00  0.00    -0.004 A 
ATOM      5  C5  I4B d   1      -3.045   5.954  -5.646  0.00  0.00     0.002 A 
ATOM      6  C6  I4B d   1      -3.426   5.980  -4.297  0.00  0.00     0.003 A 
ENDROOT
BRANCH   1   7
ATOM      7  C1' I4B d   1      -2.828   5.925  -1.860  0.00  0.00     0.060 C 
BRANCH   7   8
ATOM      8  C2' I4B d   1      -1.553   5.998  -1.044  0.00  0.00    -0.013 C 
ATOM      9  C4' I4B d   1      -1.851   5.999   0.433  0.00  0.00     0.013 C 
ATOM     10  C3' I4B d   1      -0.693   4.830  -1.422  0.00  0.00     0.013 C 
ENDBRANCH   7   8
ENDBRANCH   1   7
TORSDOF 2
ENDMDL
