MODEL 1
REMARK minimizedAffinity -4.56188965
REMARK minimizedRMSD -1
REMARK  1 active torsions:
REMARK  status: ('A' for Active; 'I' for Inactive)
REMARK    1  A    between atoms: N_2  and  C1_3 
ROOT
ATOM      1  C1  UNL d   1      -0.105  -0.179   0.325  0.00  0.00     0.143 A 
ATOM      2  C2  UNL d   1      -0.793  -0.463   1.510  0.00  0.00    -0.057 A 
ATOM      3  C3  UNL d   1      -0.212  -1.240   2.519  0.00  0.00     0.033 A 
ATOM      4  C4  UNL d   1       1.061  -1.773   2.349  0.00  0.00    -0.042 A 
ATOM      5  C5  UNL d   1       1.754  -1.526   1.169  0.00  0.00     0.033 A 
ATOM      6  C6  UNL d   1       1.171  -0.743   0.167  0.00  0.00    -0.057 A 
ENDROOT
BRANCH   1   7
ATOM      7  N   UNL d   1      -0.666   0.504  -0.756  0.00  0.00    -0.732 N 
ATOM      8  C   UNL d   1      -1.484   1.679  -0.542  0.00  0.00     0.284 C 
ATOM      9  H3  UNL d   1      -0.024   0.583  -1.542  0.00  0.00     0.395 HD
ENDBRANCH   1   7
TORSDOF 1
ENDMDL
