MODEL 1
REMARK minimizedAffinity -1.79274487
REMARK minimizedRMSD -1
REMARK  1 active torsions:
REMARK  status: ('A' for Active; 'I' for Inactive)
REMARK    1  A    between atoms: N_2  and  C1_3 
ROOT
ATOM      1  C1  UNL d   1      -0.029   0.140  -0.277  0.00  0.00     0.143 A 
ATOM      2  C2  UNL d   1       0.860  -0.130  -1.323  0.00  0.00    -0.057 A 
ATOM      3  C3  UNL d   1       1.939  -1.005  -1.152  0.00  0.00     0.033 A 
ATOM      4  C4  UNL d   1       2.166  -1.606   0.082  0.00  0.00    -0.042 A 
ATOM      5  C5  UNL d   1       1.310  -1.334   1.143  0.00  0.00     0.033 A 
ATOM      6  C6  UNL d   1       0.230  -0.464   0.964  0.00  0.00    -0.057 A 
ENDROOT
BRANCH   1   7
ATOM      7  N   UNL d   1      -1.063   1.076  -0.356  0.00  0.00    -0.732 N 
ATOM      8  C   UNL d   1      -1.787   1.271  -1.594  0.00  0.00     0.284 C 
ATOM      9  H3  UNL d   1      -1.651   1.077   0.474  0.00  0.00     0.395 HD
ENDBRANCH   1   7
TORSDOF 1
ENDMDL
