MODEL 1
REMARK minimizedAffinity -0.850925922
REMARK minimizedRMSD -1
REMARK  1 active torsions:
REMARK  status: ('A' for Active; 'I' for Inactive)
REMARK    1  A    between atoms: N_2  and  C1_3 
ROOT
ATOM      1  C1  UNL d   1      -0.791   1.106  -1.005  0.00  0.00     0.143 A 
ATOM      2  C2  UNL d   1      -0.712   0.813   0.360  0.00  0.00    -0.057 A 
ATOM      3  C3  UNL d   1       0.321   0.018   0.874  0.00  0.00     0.033 A 
ATOM      4  C4  UNL d   1       1.279  -0.523   0.023  0.00  0.00    -0.042 A 
ATOM      5  C5  UNL d   1       1.206  -0.265  -1.341  0.00  0.00     0.033 A 
ATOM      6  C6  UNL d   1       0.177   0.535  -1.847  0.00  0.00    -0.057 A 
ENDROOT
BRANCH   1   7
ATOM      7  N   UNL d   1      -1.847   1.808  -1.590  0.00  0.00    -0.732 N 
ATOM      8  C   UNL d   1      -1.608   2.723  -2.686  0.00  0.00     0.284 C 
ATOM      9  H3  UNL d   1      -2.680   1.234  -1.703  0.00  0.00     0.395 HD
ENDBRANCH   1   7
TORSDOF 1
ENDMDL
