MODEL 1
REMARK minimizedAffinity -3.07860732
REMARK minimizedRMSD -1
REMARK  1 active torsions:
REMARK  status: ('A' for Active; 'I' for Inactive)
REMARK    1  A    between atoms: N_2  and  C1_3 
ROOT
ATOM      1  C1  UNL d   1      -0.249   0.555   0.104  0.00  0.00     0.143 A 
ATOM      2  C2  UNL d   1       0.938   0.290  -0.588  0.00  0.00    -0.057 A 
ATOM      3  C3  UNL d   1       1.846  -0.672  -0.129  0.00  0.00     0.033 A 
ATOM      4  C4  UNL d   1       1.596  -1.368   1.049  0.00  0.00    -0.042 A 
ATOM      5  C5  UNL d   1       0.434  -1.103   1.766  0.00  0.00     0.033 A 
ATOM      6  C6  UNL d   1      -0.472  -0.146   1.299  0.00  0.00    -0.057 A 
ENDROOT
BRANCH   1   7
ATOM      7  N   UNL d   1      -1.144   1.569  -0.247  0.00  0.00    -0.732 N 
ATOM      8  C   UNL d   1      -1.759   1.588  -1.557  0.00  0.00     0.284 C 
ATOM      9  H3  UNL d   1      -1.777   1.809   0.513  0.00  0.00     0.395 HD
ENDBRANCH   1   7
TORSDOF 1
ENDMDL
