MODEL 1
REMARK minimizedAffinity -2.32556319
REMARK minimizedRMSD -1
REMARK  1 active torsions:
REMARK  status: ('A' for Active; 'I' for Inactive)
REMARK    1  A    between atoms: N_2  and  C1_3 
ROOT
ATOM      1  C1  UNL d   1      -1.328   1.625  -1.477  0.00  0.00     0.143 A 
ATOM      2  C2  UNL d   1      -0.303   0.682  -1.608  0.00  0.00    -0.057 A 
ATOM      3  C3  UNL d   1       0.152  -0.054  -0.507  0.00  0.00     0.033 A 
ATOM      4  C4  UNL d   1      -0.393   0.162   0.755  0.00  0.00    -0.042 A 
ATOM      5  C5  UNL d   1      -1.395   1.112   0.913  0.00  0.00     0.033 A 
ATOM      6  C6  UNL d   1      -1.850   1.839  -0.191  0.00  0.00    -0.057 A 
ENDROOT
BRANCH   1   7
ATOM      7  N   UNL d   1      -1.756   2.458  -2.513  0.00  0.00    -0.732 N 
ATOM      8  C   UNL d   1      -2.969   2.161  -3.245  0.00  0.00     0.284 C 
ATOM      9  H3  UNL d   1      -1.633   3.444  -2.295  0.00  0.00     0.395 HD
ENDBRANCH   1   7
TORSDOF 1
ENDMDL
