MODEL 1
REMARK minimizedAffinity 0.0363877751
REMARK minimizedRMSD -1
REMARK  1 active torsions:
REMARK  status: ('A' for Active; 'I' for Inactive)
REMARK    1  A    between atoms: N_2  and  C1_3 
ROOT
ATOM      1  C1  UNL d   1      -0.604   1.124  -0.565  0.00  0.00     0.143 A 
ATOM      2  C2  UNL d   1      -0.844  -0.004   0.227  0.00  0.00    -0.057 A 
ATOM      3  C3  UNL d   1       0.198  -0.856   0.613  0.00  0.00     0.033 A 
ATOM      4  C4  UNL d   1       1.499  -0.610   0.188  0.00  0.00    -0.042 A 
ATOM      5  C5  UNL d   1       1.758   0.491  -0.621  0.00  0.00     0.033 A 
ATOM      6  C6  UNL d   1       0.714   1.342  -0.998  0.00  0.00    -0.057 A 
ENDROOT
BRANCH   1   7
ATOM      7  N   UNL d   1      -1.611   1.954  -1.063  0.00  0.00    -0.732 N 
ATOM      8  C   UNL d   1      -1.945   1.944  -2.471  0.00  0.00     0.284 C 
ATOM      9  H3  UNL d   1      -2.418   1.999  -0.445  0.00  0.00     0.395 HD
ENDBRANCH   1   7
TORSDOF 1
ENDMDL
