MODEL 1
REMARK minimizedAffinity -3.11358309
REMARK minimizedRMSD -1
REMARK  1 active torsions:
REMARK  status: ('A' for Active; 'I' for Inactive)
REMARK    1  A    between atoms: N_2  and  C1_3 
ROOT
ATOM      1  C1  UNL d   1       0.110  -0.738   1.680  0.00  0.00     0.143 A 
ATOM      2  C2  UNL d   1      -0.246   0.263   0.769  0.00  0.00    -0.057 A 
ATOM      3  C3  UNL d   1       0.610   0.632  -0.275  0.00  0.00     0.033 A 
ATOM      4  C4  UNL d   1       1.855   0.025  -0.410  0.00  0.00    -0.042 A 
ATOM      5  C5  UNL d   1       2.240  -0.954   0.499  0.00  0.00     0.033 A 
ATOM      6  C6  UNL d   1       1.377  -1.323   1.536  0.00  0.00    -0.057 A 
ENDROOT
BRANCH   1   7
ATOM      7  N   UNL d   1      -0.656  -1.081   2.797  0.00  0.00    -0.732 N 
ATOM      8  C   UNL d   1      -0.056  -1.773   3.917  0.00  0.00     0.284 C 
ATOM      9  H3  UNL d   1      -1.306  -0.344   3.064  0.00  0.00     0.395 HD
ENDBRANCH   1   7
TORSDOF 1
ENDMDL
