MODEL 1
REMARK minimizedAffinity -3.65456319
REMARK minimizedRMSD -1
REMARK  1 active torsions:
REMARK  status: ('A' for Active; 'I' for Inactive)
REMARK    1  A    between atoms: N_2  and  C1_3 
ROOT
ATOM      1  C1  UNL d   1       0.457  -0.177   0.895  0.00  0.00     0.143 A 
ATOM      2  C2  UNL d   1       1.610  -0.937   1.118  0.00  0.00    -0.057 A 
ATOM      3  C3  UNL d   1       1.696  -1.826   2.196  0.00  0.00     0.033 A 
ATOM      4  C4  UNL d   1       0.637  -1.950   3.090  0.00  0.00    -0.042 A 
ATOM      5  C5  UNL d   1      -0.510  -1.186   2.902  0.00  0.00     0.033 A 
ATOM      6  C6  UNL d   1      -0.592  -0.305   1.819  0.00  0.00    -0.057 A 
ENDROOT
BRANCH   1   7
ATOM      7  N   UNL d   1       0.347   0.796  -0.102  0.00  0.00    -0.732 N 
ATOM      8  C   UNL d   1      -0.952   1.234  -0.565  0.00  0.00     0.284 C 
ATOM      9  H3  UNL d   1       1.023   1.548   0.014  0.00  0.00     0.395 HD
ENDBRANCH   1   7
TORSDOF 1
ENDMDL
