MODEL 1
REMARK minimizedAffinity -1.23180115
REMARK minimizedRMSD -1
REMARK  1 active torsions:
REMARK  status: ('A' for Active; 'I' for Inactive)
REMARK    1  A    between atoms: N_2  and  C1_3 
ROOT
ATOM      1  C1  UNL d   1      -1.109   0.944  -1.142  0.00  0.00     0.143 A 
ATOM      2  C2  UNL d   1      -0.387   1.649  -0.174  0.00  0.00    -0.057 A 
ATOM      3  C3  UNL d   1       0.886   1.230   0.232  0.00  0.00     0.033 A 
ATOM      4  C4  UNL d   1       1.449   0.077  -0.305  0.00  0.00    -0.042 A 
ATOM      5  C5  UNL d   1       0.739  -0.654  -1.251  0.00  0.00     0.033 A 
ATOM      6  C6  UNL d   1      -0.529  -0.227  -1.657  0.00  0.00    -0.057 A 
ENDROOT
BRANCH   1   7
ATOM      7  N   UNL d   1      -2.419   1.254  -1.516  0.00  0.00    -0.732 N 
ATOM      8  C   UNL d   1      -2.698   1.835  -2.812  0.00  0.00     0.284 C 
ATOM      9  H3  UNL d   1      -3.084   0.540  -1.228  0.00  0.00     0.395 HD
ENDBRANCH   1   7
TORSDOF 1
ENDMDL
