MODEL 1
REMARK minimizedAffinity 10.298852
REMARK minimizedRMSD -1
REMARK  1 active torsions:
REMARK  status: ('A' for Active; 'I' for Inactive)
REMARK    1  A    between atoms: N_2  and  C1_3 
ROOT
ATOM      1  C1  UNL d   1      -1.777   2.368  -1.869  0.00  0.00     0.143 A 
ATOM      2  C2  UNL d   1      -2.972   1.653  -1.995  0.00  0.00    -0.057 A 
ATOM      3  C3  UNL d   1      -3.437   0.829  -0.962  0.00  0.00     0.033 A 
ATOM      4  C4  UNL d   1      -2.697   0.683   0.206  0.00  0.00    -0.042 A 
ATOM      5  C5  UNL d   1      -1.493   1.365   0.343  0.00  0.00     0.033 A 
ATOM      6  C6  UNL d   1      -1.038   2.192  -0.689  0.00  0.00    -0.057 A 
ENDROOT
BRANCH   1   7
ATOM      7  N   UNL d   1      -1.212   3.126  -2.898  0.00  0.00    -0.732 N 
ATOM      8  C   UNL d   1       0.213   3.084  -3.148  0.00  0.00     0.284 C 
ATOM      9  H3  UNL d   1      -1.782   3.123  -3.740  0.00  0.00     0.395 HD
ENDBRANCH   1   7
TORSDOF 1
ENDMDL
