MODEL 1
REMARK minimizedAffinity 12.917964
REMARK minimizedRMSD -1
REMARK  0 active torsions:
REMARK  status: ('A' for Active; 'I' for Inactive)
ROOT
ATOM      1  C   UNL d   1      -1.072   1.868   1.377  0.00  0.00    -0.002 A 
ATOM      2  C1  UNL d   1      -0.455   0.736   0.864  0.00  0.00     0.010 A 
ATOM      3  C2  UNL d   1       0.304   0.809  -0.306  0.00  0.00     0.041 A 
ATOM      4  C3  UNL d   1       0.435   2.052  -0.957  0.00  0.00    -0.075 A 
ATOM      5  S   UNL d   1       1.316   2.381  -2.402  0.00  0.00     0.015 SA
ATOM      6  C4  UNL d   1       0.894   4.032  -2.372  0.00  0.00     0.022 A 
ATOM      7  C5  UNL d   1       0.100   4.342  -1.293  0.00  0.00     0.026 A 
ATOM      8  C6  UNL d   1      -0.177   3.206  -0.459  0.00  0.00    -0.082 A 
ATOM      9  C7  UNL d   1      -0.941   3.099   0.728  0.00  0.00     0.045 A 
ENDROOT
TORSDOF 0
ENDMDL
