MODEL 1
REMARK minimizedAffinity -0.289652407
REMARK minimizedRMSD -1
REMARK  0 active torsions:
REMARK  status: ('A' for Active; 'I' for Inactive)
ROOT
ATOM      1  C   UNL d   1      -2.983   1.732   1.838  0.00  0.00    -0.002 A 
ATOM      2  C1  UNL d   1      -1.738   1.541   2.419  0.00  0.00     0.010 A 
ATOM      3  C2  UNL d   1      -0.605   2.164   1.893  0.00  0.00     0.041 A 
ATOM      4  C3  UNL d   1      -0.746   2.993   0.763  0.00  0.00    -0.075 A 
ATOM      5  S   UNL d   1       0.501   3.860  -0.053  0.00  0.00     0.015 SA
ATOM      6  C4  UNL d   1      -0.590   4.506  -1.192  0.00  0.00     0.022 A 
ATOM      7  C5  UNL d   1      -1.878   4.081  -0.970  0.00  0.00     0.026 A 
ATOM      8  C6  UNL d   1      -1.990   3.203   0.160  0.00  0.00    -0.082 A 
ATOM      9  C7  UNL d   1      -3.119   2.556   0.717  0.00  0.00     0.045 A 
ENDROOT
TORSDOF 0
ENDMDL
