MODEL 1
REMARK minimizedAffinity 5.52275324
REMARK minimizedRMSD -1
REMARK  0 active torsions:
REMARK  status: ('A' for Active; 'I' for Inactive)
ROOT
ATOM      1  C   UNL d   1       0.647   5.281  -0.946  0.00  0.00    -0.002 A 
ATOM      2  C1  UNL d   1       0.523   4.285  -1.903  0.00  0.00     0.010 A 
ATOM      3  C2  UNL d   1       0.073   3.011  -1.549  0.00  0.00     0.041 A 
ATOM      4  C3  UNL d   1      -0.254   2.754  -0.203  0.00  0.00    -0.075 A 
ATOM      5  S   UNL d   1      -0.825   1.269   0.462  0.00  0.00     0.015 SA
ATOM      6  C4  UNL d   1      -0.918   1.923   2.033  0.00  0.00     0.022 A 
ATOM      7  C5  UNL d   1      -0.526   3.240   2.068  0.00  0.00     0.026 A 
ATOM      8  C6  UNL d   1      -0.137   3.741   0.779  0.00  0.00    -0.082 A 
ATOM      9  C7  UNL d   1       0.322   5.022   0.389  0.00  0.00     0.045 A 
ENDROOT
TORSDOF 0
ENDMDL
