MODEL 1
REMARK minimizedAffinity 6.39792919
REMARK minimizedRMSD -1
REMARK  0 active torsions:
REMARK  status: ('A' for Active; 'I' for Inactive)
ROOT
ATOM      1  C   UNL d   1       3.768  -1.879   0.018  0.00  0.00    -0.002 A 
ATOM      2  C1  UNL d   1       4.887  -2.610  -0.355  0.00  0.00     0.010 A 
ATOM      3  C2  UNL d   1       4.752  -3.898  -0.879  0.00  0.00     0.041 A 
ATOM      4  C3  UNL d   1       3.461  -4.443  -1.024  0.00  0.00    -0.075 A 
ATOM      5  S   UNL d   1       3.054  -5.999  -1.643  0.00  0.00     0.015 SA
ATOM      6  C4  UNL d   1       1.385  -5.731  -1.428  0.00  0.00     0.022 A 
ATOM      7  C5  UNL d   1       1.127  -4.489  -0.897  0.00  0.00     0.026 A 
ATOM      8  C6  UNL d   1       2.319  -3.726  -0.656  0.00  0.00    -0.082 A 
ATOM      9  C7  UNL d   1       2.489  -2.424  -0.128  0.00  0.00     0.045 A 
ENDROOT
TORSDOF 0
ENDMDL
