MODEL 1
REMARK minimizedAffinity 10.1097994
REMARK minimizedRMSD -1
REMARK  0 active torsions:
REMARK  status: ('A' for Active; 'I' for Inactive)
ROOT
ATOM      1  C   UNL d   1      -1.740   0.484   2.115  0.00  0.00    -0.002 A 
ATOM      2  C1  UNL d   1      -0.535   0.477   2.802  0.00  0.00     0.010 A 
ATOM      3  C2  UNL d   1       0.417   1.474   2.577  0.00  0.00     0.041 A 
ATOM      4  C3  UNL d   1       0.133   2.489   1.642  0.00  0.00    -0.075 A 
ATOM      5  S   UNL d   1       1.147   3.812   1.205  0.00  0.00     0.015 SA
ATOM      6  C4  UNL d   1       0.004   4.419   0.096  0.00  0.00     0.022 A 
ATOM      7  C5  UNL d   1      -1.130   3.643   0.048  0.00  0.00     0.026 A 
ATOM      8  C6  UNL d   1      -1.075   2.518   0.939  0.00  0.00    -0.082 A 
ATOM      9  C7  UNL d   1      -2.018   1.493   1.188  0.00  0.00     0.045 A 
ENDROOT
TORSDOF 0
ENDMDL
