MODEL 1
REMARK minimizedAffinity 3.06080747
REMARK minimizedRMSD -1
REMARK  0 active torsions:
REMARK  status: ('A' for Active; 'I' for Inactive)
ROOT
ATOM      1  C   UNL d   1      -0.849   3.870   1.454  0.00  0.00    -0.002 A 
ATOM      2  C1  UNL d   1      -1.110   2.588   1.918  0.00  0.00     0.010 A 
ATOM      3  C2  UNL d   1      -0.664   1.472   1.208  0.00  0.00     0.041 A 
ATOM      4  C3  UNL d   1       0.057   1.667   0.013  0.00  0.00    -0.075 A 
ATOM      5  S   UNL d   1       0.702   0.448  -1.022  0.00  0.00     0.015 SA
ATOM      6  C4  UNL d   1       1.340   1.601  -2.104  0.00  0.00     0.022 A 
ATOM      7  C5  UNL d   1       1.076   2.888  -1.700  0.00  0.00     0.026 A 
ATOM      8  C6  UNL d   1       0.333   2.948  -0.473  0.00  0.00    -0.082 A 
ATOM      9  C7  UNL d   1      -0.134   4.059   0.269  0.00  0.00     0.045 A 
ENDROOT
TORSDOF 0
ENDMDL
