MODEL 1
REMARK minimizedAffinity 0.975678265
REMARK minimizedRMSD -1
REMARK  0 active torsions:
REMARK  status: ('A' for Active; 'I' for Inactive)
ROOT
ATOM      1  C   UNL d   1      -1.703   3.323   1.765  0.00  0.00    -0.002 A 
ATOM      2  C1  UNL d   1      -1.658   1.936   1.757  0.00  0.00     0.010 A 
ATOM      3  C2  UNL d   1      -1.081   1.250   0.686  0.00  0.00     0.041 A 
ATOM      4  C3  UNL d   1      -0.543   1.989  -0.386  0.00  0.00    -0.075 A 
ATOM      5  S   UNL d   1       0.215   1.363  -1.803  0.00  0.00     0.015 SA
ATOM      6  C4  UNL d   1       0.497   2.923  -2.431  0.00  0.00     0.022 A 
ATOM      7  C5  UNL d   1       0.031   3.908  -1.593  0.00  0.00     0.026 A 
ATOM      8  C6  UNL d   1      -0.575   3.386  -0.400  0.00  0.00    -0.082 A 
ATOM      9  C7  UNL d   1      -1.169   4.052   0.699  0.00  0.00     0.045 A 
ENDROOT
TORSDOF 0
ENDMDL
