MODEL 1
REMARK minimizedAffinity 7.19639158
REMARK minimizedRMSD -1
REMARK  0 active torsions:
REMARK  status: ('A' for Active; 'I' for Inactive)
ROOT
ATOM      1  C   UNL d   1      -1.120   2.910   0.136  0.00  0.00    -0.002 A 
ATOM      2  C1  UNL d   1      -0.556   2.482   1.329  0.00  0.00     0.010 A 
ATOM      3  C2  UNL d   1       0.217   1.320   1.373  0.00  0.00     0.041 A 
ATOM      4  C3  UNL d   1       0.417   0.589   0.186  0.00  0.00    -0.075 A 
ATOM      5  S   UNL d   1       1.327  -0.863   0.000  0.00  0.00     0.015 SA
ATOM      6  C4  UNL d   1       0.989  -0.950  -1.668  0.00  0.00     0.022 A 
ATOM      7  C5  UNL d   1       0.202   0.096  -2.090  0.00  0.00     0.026 A 
ATOM      8  C6  UNL d   1      -0.141   1.000  -1.028  0.00  0.00    -0.082 A 
ATOM      9  C7  UNL d   1      -0.920   2.182  -1.040  0.00  0.00     0.045 A 
ENDROOT
TORSDOF 0
ENDMDL
