MODEL 1
REMARK minimizedAffinity 3.30077815
REMARK minimizedRMSD -1
REMARK  0 active torsions:
REMARK  status: ('A' for Active; 'I' for Inactive)
ROOT
ATOM      1  C   UNL d   1      -1.791   3.162   1.543  0.00  0.00    -0.002 A 
ATOM      2  C1  UNL d   1      -1.586   1.871   2.010  0.00  0.00     0.010 A 
ATOM      3  C2  UNL d   1      -0.773   0.981   1.306  0.00  0.00     0.041 A 
ATOM      4  C3  UNL d   1      -0.161   1.415   0.113  0.00  0.00    -0.075 A 
ATOM      5  S   UNL d   1       0.876   0.500  -0.915  0.00  0.00     0.015 SA
ATOM      6  C4  UNL d   1       1.073   1.801  -1.999  0.00  0.00     0.022 A 
ATOM      7  C5  UNL d   1       0.371   2.914  -1.601  0.00  0.00     0.026 A 
ATOM      8  C6  UNL d   1      -0.351   2.710  -0.377  0.00  0.00    -0.082 A 
ATOM      9  C7  UNL d   1      -1.182   3.589   0.360  0.00  0.00     0.045 A 
ENDROOT
TORSDOF 0
ENDMDL
