MODEL 1
REMARK minimizedAffinity 12.4636993
REMARK minimizedRMSD -1
REMARK  0 active torsions:
REMARK  status: ('A' for Active; 'I' for Inactive)
ROOT
ATOM      1  C   UNL d   1       0.049   1.268   1.521  0.00  0.00    -0.002 A 
ATOM      2  C1  UNL d   1      -1.286   1.638   1.585  0.00  0.00     0.010 A 
ATOM      3  C2  UNL d   1      -2.221   0.819   2.220  0.00  0.00     0.041 A 
ATOM      4  C3  UNL d   1      -1.786  -0.391   2.798  0.00  0.00    -0.075 A 
ATOM      5  S   UNL d   1      -2.752  -1.552   3.628  0.00  0.00     0.015 SA
ATOM      6  C4  UNL d   1      -1.414  -2.568   3.918  0.00  0.00     0.022 A 
ATOM      7  C5  UNL d   1      -0.251  -2.049   3.401  0.00  0.00     0.026 A 
ATOM      8  C6  UNL d   1      -0.446  -0.785   2.747  0.00  0.00    -0.082 A 
ATOM      9  C7  UNL d   1       0.477   0.067   2.095  0.00  0.00     0.045 A 
ENDROOT
TORSDOF 0
ENDMDL
