MODEL 1
REMARK minimizedAffinity 3.19365287
REMARK minimizedRMSD -1
REMARK  0 active torsions:
REMARK  status: ('A' for Active; 'I' for Inactive)
ROOT
ATOM      1  C   UNL d   1      -1.598   3.461   0.833  0.00  0.00    -0.002 A 
ATOM      2  C1  UNL d   1      -1.546   2.307   1.603  0.00  0.00     0.010 A 
ATOM      3  C2  UNL d   1      -0.715   1.246   1.237  0.00  0.00     0.041 A 
ATOM      4  C3  UNL d   1       0.071   1.366   0.074  0.00  0.00    -0.075 A 
ATOM      5  S   UNL d   1       1.163   0.196  -0.567  0.00  0.00     0.015 SA
ATOM      6  C4  UNL d   1       1.586   1.200  -1.878  0.00  0.00     0.022 A 
ATOM      7  C5  UNL d   1       0.921   2.402  -1.843  0.00  0.00     0.026 A 
ATOM      8  C6  UNL d   1       0.037   2.518  -0.717  0.00  0.00    -0.082 A 
ATOM      9  C7  UNL d   1      -0.816   3.576  -0.320  0.00  0.00     0.045 A 
ENDROOT
TORSDOF 0
ENDMDL
