MODEL 1
REMARK minimizedAffinity 12.2355795
REMARK minimizedRMSD -1
REMARK  0 active torsions:
REMARK  status: ('A' for Active; 'I' for Inactive)
ROOT
ATOM      1  C   UNL d   1      -1.584   1.528   2.406  0.00  0.00    -0.002 A 
ATOM      2  C1  UNL d   1      -0.814   0.375   2.348  0.00  0.00     0.010 A 
ATOM      3  C2  UNL d   1       0.015   0.128   1.252  0.00  0.00     0.041 A 
ATOM      4  C3  UNL d   1       0.059   1.070   0.205  0.00  0.00    -0.075 A 
ATOM      5  S   UNL d   1       1.001   0.979  -1.236  0.00  0.00     0.015 SA
ATOM      6  C4  UNL d   1       0.404   2.469  -1.809  0.00  0.00     0.022 A 
ATOM      7  C5  UNL d   1      -0.493   3.035  -0.935  0.00  0.00     0.026 A 
ATOM      8  C6  UNL d   1      -0.707   2.239   0.240  0.00  0.00    -0.082 A 
ATOM      9  C7  UNL d   1      -1.538   2.460   1.365  0.00  0.00     0.045 A 
ENDROOT
TORSDOF 0
ENDMDL
