MODEL 1
REMARK minimizedAffinity 14.0531588
REMARK minimizedRMSD -1
REMARK  0 active torsions:
REMARK  status: ('A' for Active; 'I' for Inactive)
ROOT
ATOM      1  C   UNL d   1      -1.933  -1.096  -2.623  0.00  0.00    -0.002 A 
ATOM      2  C1  UNL d   1      -0.749  -1.378  -3.288  0.00  0.00     0.010 A 
ATOM      3  C2  UNL d   1       0.319  -0.479  -3.250  0.00  0.00     0.041 A 
ATOM      4  C3  UNL d   1       0.176   0.719  -2.522  0.00  0.00    -0.075 A 
ATOM      5  S   UNL d   1       1.350   1.967  -2.333  0.00  0.00     0.015 SA
ATOM      6  C4  UNL d   1       0.307   2.904  -1.364  0.00  0.00     0.022 A 
ATOM      7  C5  UNL d   1      -0.912   2.294  -1.179  0.00  0.00     0.026 A 
ATOM      8  C6  UNL d   1      -1.007   1.024  -1.843  0.00  0.00    -0.082 A 
ATOM      9  C7  UNL d   1      -2.072   0.093  -1.902  0.00  0.00     0.045 A 
ENDROOT
TORSDOF 0
ENDMDL
