MODEL 1
REMARK minimizedAffinity 0.103101321
REMARK minimizedRMSD -1
REMARK  0 active torsions:
REMARK  status: ('A' for Active; 'I' for Inactive)
ROOT
ATOM      1  C1  BNZ d   1       0.924   1.545  -0.420  0.00  0.00     0.000 A 
ATOM      2  C2  BNZ d   1       2.091   2.241  -0.247  0.00  0.00     0.000 A 
ATOM      3  C3  BNZ d   1       2.950   1.926   0.768  0.00  0.00     0.000 A 
ATOM      4  C4  BNZ d   1       2.623   0.943   1.632  0.00  0.00     0.000 A 
ATOM      5  C5  BNZ d   1       1.446   0.239   1.477  0.00  0.00     0.000 A 
ATOM      6  C6  BNZ d   1       0.602   0.533   0.431  0.00  0.00     0.000 A 
ENDROOT
TORSDOF 0
ENDMDL
