MODEL 1
REMARK minimizedAffinity 8.94266605
REMARK minimizedRMSD -1
REMARK  0 active torsions:
REMARK  status: ('A' for Active; 'I' for Inactive)
ROOT
ATOM      1  C1  BNZ d   1       0.120  -2.185   1.611  0.00  0.00     0.000 A 
ATOM      2  C2  BNZ d   1      -1.232  -2.381   1.514  0.00  0.00     0.000 A 
ATOM      3  C3  BNZ d   1      -1.798  -2.786   0.338  0.00  0.00     0.000 A 
ATOM      4  C4  BNZ d   1      -1.018  -2.956  -0.749  0.00  0.00     0.000 A 
ATOM      5  C5  BNZ d   1       0.345  -2.753  -0.670  0.00  0.00     0.000 A 
ATOM      6  C6  BNZ d   1       0.916  -2.383   0.525  0.00  0.00     0.000 A 
ENDROOT
TORSDOF 0
ENDMDL
