MODEL 1
REMARK minimizedAffinity 1.31021202
REMARK minimizedRMSD -1
REMARK  0 active torsions:
REMARK  status: ('A' for Active; 'I' for Inactive)
ROOT
ATOM      1  C1  BNZ d   1       2.931   2.212  -0.195  0.00  0.00     0.000 A 
ATOM      2  C2  BNZ d   1       3.445   1.128   0.465  0.00  0.00     0.000 A 
ATOM      3  C3  BNZ d   1       2.664   0.383   1.303  0.00  0.00     0.000 A 
ATOM      4  C4  BNZ d   1       1.382   0.746   1.512  0.00  0.00     0.000 A 
ATOM      5  C5  BNZ d   1       0.851   1.842   0.861  0.00  0.00     0.000 A 
ATOM      6  C6  BNZ d   1       1.630   2.567  -0.012  0.00  0.00     0.000 A 
ENDROOT
TORSDOF 0
ENDMDL
