MODEL 1
REMARK minimizedAffinity 0.965832114
REMARK minimizedRMSD -1
REMARK  0 active torsions:
REMARK  status: ('A' for Active; 'I' for Inactive)
ROOT
ATOM      1  C1  BNZ d   1      -1.416  -1.814  -0.134  0.00  0.00     0.000 A 
ATOM      2  C2  BNZ d   1      -2.259  -1.653  -1.202  0.00  0.00     0.000 A 
ATOM      3  C3  BNZ d   1      -1.820  -1.872  -2.478  0.00  0.00     0.000 A 
ATOM      4  C4  BNZ d   1      -0.532  -2.213  -2.688  0.00  0.00     0.000 A 
ATOM      5  C5  BNZ d   1       0.331  -2.370  -1.622  0.00  0.00     0.000 A 
ATOM      6  C6  BNZ d   1      -0.123  -2.186  -0.336  0.00  0.00     0.000 A 
ENDROOT
TORSDOF 0
ENDMDL
