MODEL 1
REMARK minimizedAffinity -1.02995694
REMARK minimizedRMSD -1
REMARK  0 active torsions:
REMARK  status: ('A' for Active; 'I' for Inactive)
ROOT
ATOM      1  C1  BNZ d   1       1.007   4.348  -0.652  0.00  0.00     0.000 A 
ATOM      2  C2  BNZ d   1       1.982   3.414  -0.424  0.00  0.00     0.000 A 
ATOM      3  C3  BNZ d   1       1.685   2.226   0.185  0.00  0.00     0.000 A 
ATOM      4  C4  BNZ d   1       0.424   1.991   0.600  0.00  0.00     0.000 A 
ATOM      5  C5  BNZ d   1      -0.569   2.927   0.386  0.00  0.00     0.000 A 
ATOM      6  C6  BNZ d   1      -0.274   4.104  -0.262  0.00  0.00     0.000 A 
ENDROOT
TORSDOF 0
ENDMDL
