MODEL 1
REMARK minimizedAffinity 1.98220909
REMARK minimizedRMSD -1
REMARK  0 active torsions:
REMARK  status: ('A' for Active; 'I' for Inactive)
ROOT
ATOM      1  C1  BNZ d   1       0.411  -2.788   2.807  0.00  0.00     0.000 A 
ATOM      2  C2  BNZ d   1       0.208  -2.119   1.629  0.00  0.00     0.000 A 
ATOM      3  C3  BNZ d   1       0.999  -1.060   1.280  0.00  0.00     0.000 A 
ATOM      4  C4  BNZ d   1       1.966  -0.648   2.126  0.00  0.00     0.000 A 
ATOM      5  C5  BNZ d   1       2.177  -1.306   3.321  0.00  0.00     0.000 A 
ATOM      6  C6  BNZ d   1       1.404  -2.395   3.651  0.00  0.00     0.000 A 
ENDROOT
TORSDOF 0
ENDMDL
