MODEL 1
REMARK minimizedAffinity -4.4778986
REMARK minimizedRMSD -1
REMARK  0 active torsions:
REMARK  status: ('A' for Active; 'I' for Inactive)
ROOT
ATOM      1  C1  BNZ d   1       2.022   0.972   4.121  0.00  0.00     0.000 A 
ATOM      2  C2  BNZ d   1       1.560  -0.094   4.846  0.00  0.00     0.000 A 
ATOM      3  C3  BNZ d   1       1.160  -1.244   4.224  0.00  0.00     0.000 A 
ATOM      4  C4  BNZ d   1       1.183  -1.312   2.877  0.00  0.00     0.000 A 
ATOM      5  C5  BNZ d   1       1.637  -0.242   2.131  0.00  0.00     0.000 A 
ATOM      6  C6  BNZ d   1       2.076   0.899   2.763  0.00  0.00     0.000 A 
ENDROOT
TORSDOF 0
ENDMDL
