MODEL 1
REMARK minimizedAffinity -0.671099842
REMARK minimizedRMSD -1
REMARK  1 active torsions:
REMARK  status: ('A' for Active; 'I' for Inactive)
REMARK    1  A    between atoms: N_2  and  C1_3 
ROOT
ATOM      1  C1  UNL d   1       3.354   4.628  -4.525  0.00  0.00     0.143 A 
ATOM      2  C2  UNL d   1       4.293   3.591  -4.499  0.00  0.00    -0.057 A 
ATOM      3  C3  UNL d   1       5.576   3.760  -5.033  0.00  0.00     0.033 A 
ATOM      4  C4  UNL d   1       5.935   4.964  -5.630  0.00  0.00    -0.042 A 
ATOM      5  C5  UNL d   1       5.010   6.000  -5.689  0.00  0.00     0.033 A 
ATOM      6  C6  UNL d   1       3.732   5.827  -5.148  0.00  0.00    -0.057 A 
ENDROOT
BRANCH   1   7
ATOM      7  N   UNL d   1       2.031   4.490  -4.099  0.00  0.00    -0.732 N 
ATOM      8  C   UNL d   1       1.695   3.589  -3.017  0.00  0.00     0.284 C 
ATOM      9  H3  UNL d   1       1.538   5.379  -4.068  0.00  0.00     0.395 HD
ENDBRANCH   1   7
TORSDOF 1
ENDMDL
