MODEL 1
REMARK minimizedAffinity 1.08879375
REMARK minimizedRMSD -1
REMARK  1 active torsions:
REMARK  status: ('A' for Active; 'I' for Inactive)
REMARK    1  A    between atoms: N_2  and  C1_3 
ROOT
ATOM      1  C1  UNL d   1      -1.865  -4.267  -1.036  0.00  0.00     0.143 A 
ATOM      2  C2  UNL d   1      -0.699  -4.535  -0.311  0.00  0.00    -0.057 A 
ATOM      3  C3  UNL d   1      -0.036  -3.526   0.398  0.00  0.00     0.033 A 
ATOM      4  C4  UNL d   1      -0.514  -2.219   0.369  0.00  0.00    -0.042 A 
ATOM      5  C5  UNL d   1      -1.657  -1.925  -0.365  0.00  0.00     0.033 A 
ATOM      6  C6  UNL d   1      -2.318  -2.939  -1.066  0.00  0.00    -0.057 A 
ENDROOT
BRANCH   1   7
ATOM      7  N   UNL d   1      -2.514  -5.207  -1.841  0.00  0.00    -0.732 N 
ATOM      8  C   UNL d   1      -1.811  -5.861  -2.924  0.00  0.00     0.284 C 
ATOM      9  H3  UNL d   1      -3.119  -5.825  -1.305  0.00  0.00     0.395 HD
ENDBRANCH   1   7
TORSDOF 1
ENDMDL
