MODEL 1
REMARK minimizedAffinity -1.18939674
REMARK minimizedRMSD -1
REMARK  1 active torsions:
REMARK  status: ('A' for Active; 'I' for Inactive)
REMARK    1  A    between atoms: N_2  and  C1_3 
ROOT
ATOM      1  C1  UNL d   1      -5.382   0.552   5.201  0.00  0.00     0.143 A 
ATOM      2  C2  UNL d   1      -4.823   1.646   5.869  0.00  0.00    -0.057 A 
ATOM      3  C3  UNL d   1      -4.129   2.644   5.174  0.00  0.00     0.033 A 
ATOM      4  C4  UNL d   1      -3.956   2.549   3.797  0.00  0.00    -0.042 A 
ATOM      5  C5  UNL d   1      -4.482   1.457   3.115  0.00  0.00     0.033 A 
ATOM      6  C6  UNL d   1      -5.180   0.468   3.814  0.00  0.00    -0.057 A 
ENDROOT
BRANCH   1   7
ATOM      7  N   UNL d   1      -5.998  -0.522   5.847  0.00  0.00    -0.732 N 
ATOM      8  C   UNL d   1      -6.000  -1.840   5.249  0.00  0.00     0.284 C 
ATOM      9  H3  UNL d   1      -5.828  -0.521   6.850  0.00  0.00     0.395 HD
ENDBRANCH   1   7
TORSDOF 1
ENDMDL
