MODEL 1
REMARK minimizedAffinity 8.31603813
REMARK minimizedRMSD -1
REMARK  1 active torsions:
REMARK  status: ('A' for Active; 'I' for Inactive)
REMARK    1  A    between atoms: N_2  and  C1_3 
ROOT
ATOM      1  C1  UNL d   1      -0.783   2.170   2.665  0.00  0.00     0.143 A 
ATOM      2  C2  UNL d   1      -0.075   0.975   2.835  0.00  0.00    -0.057 A 
ATOM      3  C3  UNL d   1       1.126   0.740   2.155  0.00  0.00     0.033 A 
ATOM      4  C4  UNL d   1       1.627   1.687   1.268  0.00  0.00    -0.042 A 
ATOM      5  C5  UNL d   1       0.927   2.871   1.064  0.00  0.00     0.033 A 
ATOM      6  C6  UNL d   1      -0.268   3.103   1.751  0.00  0.00    -0.057 A 
ENDROOT
BRANCH   1   7
ATOM      7  N   UNL d   1      -2.033   2.421   3.236  0.00  0.00    -0.732 N 
ATOM      8  C   UNL d   1      -3.138   1.511   3.024  0.00  0.00     0.284 C 
ATOM      9  H3  UNL d   1      -1.961   2.772   4.189  0.00  0.00     0.395 HD
ENDBRANCH   1   7
TORSDOF 1
ENDMDL
