MODEL 1
REMARK minimizedAffinity -0.0471234508
REMARK minimizedRMSD -1
REMARK  1 active torsions:
REMARK  status: ('A' for Active; 'I' for Inactive)
REMARK    1  A    between atoms: N_2  and  C1_3 
ROOT
ATOM      1  C1  UNL d   1       1.140   0.648   1.585  0.00  0.00     0.143 A 
ATOM      2  C2  UNL d   1       0.256  -0.314   2.087  0.00  0.00    -0.057 A 
ATOM      3  C3  UNL d   1       0.154  -1.582   1.502  0.00  0.00     0.033 A 
ATOM      4  C4  UNL d   1       0.915  -1.901   0.382  0.00  0.00    -0.042 A 
ATOM      5  C5  UNL d   1       1.782  -0.952  -0.149  0.00  0.00     0.033 A 
ATOM      6  C6  UNL d   1       1.884   0.310   0.444  0.00  0.00    -0.057 A 
ENDROOT
BRANCH   1   7
ATOM      7  N   UNL d   1       1.216   1.959   2.062  0.00  0.00    -0.732 N 
ATOM      8  C   UNL d   1       0.154   2.904   1.791  0.00  0.00     0.284 C 
ATOM      9  H3  UNL d   1       1.583   2.007   3.009  0.00  0.00     0.395 HD
ENDBRANCH   1   7
TORSDOF 1
ENDMDL
