MODEL 1
REMARK minimizedAffinity 8.95222092
REMARK minimizedRMSD -1
REMARK  1 active torsions:
REMARK  status: ('A' for Active; 'I' for Inactive)
REMARK    1  A    between atoms: N_2  and  C1_3 
ROOT
ATOM      1  C1  UNL d   1      -3.201  -5.389  -3.398  0.00  0.00     0.143 A 
ATOM      2  C2  UNL d   1      -4.415  -6.000  -3.730  0.00  0.00    -0.057 A 
ATOM      3  C3  UNL d   1      -5.639  -5.445  -3.336  0.00  0.00     0.033 A 
ATOM      4  C4  UNL d   1      -5.669  -4.281  -2.576  0.00  0.00    -0.042 A 
ATOM      5  C5  UNL d   1      -4.473  -3.670  -2.212  0.00  0.00     0.033 A 
ATOM      6  C6  UNL d   1      -3.255  -4.225  -2.614  0.00  0.00    -0.057 A 
ENDROOT
BRANCH   1   7
ATOM      7  N   UNL d   1      -1.949  -5.944  -3.675  0.00  0.00    -0.732 N 
ATOM      8  C   UNL d   1      -1.004  -5.246  -4.519  0.00  0.00     0.284 C 
ATOM      9  H3  UNL d   1      -1.531  -6.386  -2.860  0.00  0.00     0.395 HD
ENDBRANCH   1   7
TORSDOF 1
ENDMDL
