MODEL 1
REMARK minimizedAffinity 2.97266507
REMARK minimizedRMSD -1
REMARK  1 active torsions:
REMARK  status: ('A' for Active; 'I' for Inactive)
REMARK    1  A    between atoms: N_2  and  C1_3 
ROOT
ATOM      1  C1  UNL d   1       2.281   1.025  -1.069  0.00  0.00     0.143 A 
ATOM      2  C2  UNL d   1       1.946  -0.333  -1.051  0.00  0.00    -0.057 A 
ATOM      3  C3  UNL d   1       0.954  -0.848  -1.895  0.00  0.00     0.033 A 
ATOM      4  C4  UNL d   1       0.257  -0.004  -2.754  0.00  0.00    -0.042 A 
ATOM      5  C5  UNL d   1       0.557   1.354  -2.771  0.00  0.00     0.033 A 
ATOM      6  C6  UNL d   1       1.553   1.860  -1.931  0.00  0.00    -0.057 A 
ENDROOT
BRANCH   1   7
ATOM      7  N   UNL d   1       3.189   1.613  -0.186  0.00  0.00    -0.732 N 
ATOM      8  C   UNL d   1       2.729   2.497   0.864  0.00  0.00     0.284 C 
ATOM      9  H3  UNL d   1       3.922   0.970   0.105  0.00  0.00     0.395 HD
ENDBRANCH   1   7
TORSDOF 1
ENDMDL
