MODEL 1
REMARK minimizedAffinity 3.98849416
REMARK minimizedRMSD -1
REMARK  1 active torsions:
REMARK  status: ('A' for Active; 'I' for Inactive)
REMARK    1  A    between atoms: N_2  and  C1_3 
ROOT
ATOM      1  C1  UNL d   1       2.275   1.132  -0.227  0.00  0.00     0.143 A 
ATOM      2  C2  UNL d   1       2.099   2.313  -0.956  0.00  0.00    -0.057 A 
ATOM      3  C3  UNL d   1       1.622   3.479  -0.346  0.00  0.00     0.033 A 
ATOM      4  C4  UNL d   1       1.283   3.477   1.003  0.00  0.00    -0.042 A 
ATOM      5  C5  UNL d   1       1.426   2.308   1.742  0.00  0.00     0.033 A 
ATOM      6  C6  UNL d   1       1.909   1.148   1.128  0.00  0.00    -0.057 A 
ENDROOT
BRANCH   1   7
ATOM      7  N   UNL d   1       2.651  -0.086  -0.797  0.00  0.00    -0.732 N 
ATOM      8  C   UNL d   1       1.656  -0.981  -1.348  0.00  0.00     0.284 C 
ATOM      9  H3  UNL d   1       3.496  -0.007  -1.359  0.00  0.00     0.395 HD
ENDBRANCH   1   7
TORSDOF 1
ENDMDL
