MODEL 1
REMARK minimizedAffinity 7.6735878
REMARK minimizedRMSD -1
REMARK  1 active torsions:
REMARK  status: ('A' for Active; 'I' for Inactive)
REMARK    1  A    between atoms: N_2  and  C1_3 
ROOT
ATOM      1  C1  UNL d   1       1.827   1.402  -0.386  0.00  0.00     0.143 A 
ATOM      2  C2  UNL d   1       1.965   0.050  -0.057  0.00  0.00    -0.057 A 
ATOM      3  C3  UNL d   1       1.401  -0.953  -0.854  0.00  0.00     0.033 A 
ATOM      4  C4  UNL d   1       0.661  -0.619  -1.983  0.00  0.00    -0.042 A 
ATOM      5  C5  UNL d   1       0.489   0.720  -2.316  0.00  0.00     0.033 A 
ATOM      6  C6  UNL d   1       1.061   1.717  -1.520  0.00  0.00    -0.057 A 
ENDROOT
BRANCH   1   7
ATOM      7  N   UNL d   1       2.280   2.450   0.419  0.00  0.00    -0.732 N 
ATOM      8  C   UNL d   1       1.342   3.295   1.126  0.00  0.00     0.284 C 
ATOM      9  H3  UNL d   1       3.101   2.194   0.963  0.00  0.00     0.395 HD
ENDBRANCH   1   7
TORSDOF 1
ENDMDL
