MODEL 1
REMARK minimizedAffinity 2.11888433
REMARK minimizedRMSD -1
REMARK  1 active torsions:
REMARK  status: ('A' for Active; 'I' for Inactive)
REMARK    1  A    between atoms: N_2  and  C1_3 
ROOT
ATOM      1  C1  UNL d   1       1.364   0.530   1.053  0.00  0.00     0.143 A 
ATOM      2  C2  UNL d   1       2.011   1.590   1.697  0.00  0.00    -0.057 A 
ATOM      3  C3  UNL d   1       1.299   2.509   2.478  0.00  0.00     0.033 A 
ATOM      4  C4  UNL d   1      -0.082   2.399   2.606  0.00  0.00    -0.042 A 
ATOM      5  C5  UNL d   1      -0.749   1.368   1.955  0.00  0.00     0.033 A 
ATOM      6  C6  UNL d   1      -0.032   0.450   1.181  0.00  0.00    -0.057 A 
ENDROOT
BRANCH   1   7
ATOM      7  N   UNL d   1       2.002  -0.358   0.183  0.00  0.00    -0.732 N 
ATOM      8  C   UNL d   1       2.186  -0.018  -1.212  0.00  0.00     0.284 C 
ATOM      9  H3  UNL d   1       2.806  -0.810   0.611  0.00  0.00     0.395 HD
ENDBRANCH   1   7
TORSDOF 1
ENDMDL
