MODEL 1
REMARK minimizedAffinity 2.72869277
REMARK minimizedRMSD -1
REMARK  1 active torsions:
REMARK  status: ('A' for Active; 'I' for Inactive)
REMARK    1  A    between atoms: N_2  and  C1_3 
ROOT
ATOM      1  C1  UNL d   1       0.640   0.224  -0.803  0.00  0.00     0.143 A 
ATOM      2  C2  UNL d   1       1.141  -0.740  -1.685  0.00  0.00    -0.057 A 
ATOM      3  C3  UNL d   1       1.080  -0.557  -3.072  0.00  0.00     0.033 A 
ATOM      4  C4  UNL d   1       0.487   0.584  -3.603  0.00  0.00    -0.042 A 
ATOM      5  C5  UNL d   1      -0.040   1.543  -2.746  0.00  0.00     0.033 A 
ATOM      6  C6  UNL d   1       0.031   1.358  -1.362  0.00  0.00    -0.057 A 
ENDROOT
BRANCH   1   7
ATOM      7  N   UNL d   1       0.583   0.055   0.582  0.00  0.00    -0.732 N 
ATOM      8  C   UNL d   1       0.947   1.137   1.472  0.00  0.00     0.284 C 
ATOM      9  H3  UNL d   1      -0.239  -0.466   0.877  0.00  0.00     0.395 HD
ENDBRANCH   1   7
TORSDOF 1
ENDMDL
