MODEL 1
REMARK minimizedAffinity 6.41769743
REMARK minimizedRMSD -1
REMARK  1 active torsions:
REMARK  status: ('A' for Active; 'I' for Inactive)
REMARK    1  A    between atoms: N_2  and  C1_3 
ROOT
ATOM      1  C1  UNL d   1      -0.060  -0.137  -2.800  0.00  0.00     0.143 A 
ATOM      2  C2  UNL d   1       0.249   1.166  -3.204  0.00  0.00    -0.057 A 
ATOM      3  C3  UNL d   1       1.247   1.908  -2.561  0.00  0.00     0.033 A 
ATOM      4  C4  UNL d   1       1.936   1.368  -1.480  0.00  0.00    -0.042 A 
ATOM      5  C5  UNL d   1       1.628   0.084  -1.045  0.00  0.00     0.033 A 
ATOM      6  C6  UNL d   1       0.635  -0.654  -1.696  0.00  0.00    -0.057 A 
ENDROOT
BRANCH   1   7
ATOM      7  N   UNL d   1      -1.109  -0.889  -3.335  0.00  0.00    -0.732 N 
ATOM      8  C   UNL d   1      -1.952  -1.694  -2.477  0.00  0.00     0.284 C 
ATOM      9  H3  UNL d   1      -1.614  -0.389  -4.063  0.00  0.00     0.395 HD
ENDBRANCH   1   7
TORSDOF 1
ENDMDL
