MODEL 1
REMARK minimizedAffinity 1.67570984
REMARK minimizedRMSD -1
REMARK  1 active torsions:
REMARK  status: ('A' for Active; 'I' for Inactive)
REMARK    1  A    between atoms: N_2  and  C1_3 
ROOT
ATOM      1  C1  UNL d   1       2.166   0.879   0.772  0.00  0.00     0.143 A 
ATOM      2  C2  UNL d   1       0.768   0.828   0.782  0.00  0.00    -0.057 A 
ATOM      3  C3  UNL d   1       0.031   1.328   1.863  0.00  0.00     0.033 A 
ATOM      4  C4  UNL d   1       0.683   1.864   2.968  0.00  0.00    -0.042 A 
ATOM      5  C5  UNL d   1       2.072   1.903   2.990  0.00  0.00     0.033 A 
ATOM      6  C6  UNL d   1       2.802   1.408   1.906  0.00  0.00    -0.057 A 
ENDROOT
BRANCH   1   7
ATOM      7  N   UNL d   1       2.957   0.309  -0.228  0.00  0.00    -0.732 N 
ATOM      8  C   UNL d   1       2.351  -0.265  -1.411  0.00  0.00     0.284 C 
ATOM      9  H3  UNL d   1       3.799   0.851  -0.413  0.00  0.00     0.395 HD
ENDBRANCH   1   7
TORSDOF 1
ENDMDL
