MODEL 1
REMARK minimizedAffinity 3.44368505
REMARK minimizedRMSD -1
REMARK  0 active torsions:
REMARK  status: ('A' for Active; 'I' for Inactive)
ROOT
ATOM      1  C   UNL d   1      -1.873   4.882  -1.733  0.00  0.00     0.078 C 
ATOM      2  C1  UNL d   1      -0.836   4.248  -0.854  0.00  0.00    -0.077 A 
ATOM      3  C2  UNL d   1       0.520   4.277  -1.202  0.00  0.00    -0.001 A 
ATOM      4  C3  UNL d   1       1.473   3.675  -0.380  0.00  0.00     0.003 A 
ATOM      5  C4  UNL d   1       1.081   3.039   0.796  0.00  0.00    -0.005 A 
ATOM      6  C5  UNL d   1      -0.266   3.003   1.150  0.00  0.00     0.003 A 
ATOM      7  C6  UNL d   1      -1.221   3.604   0.329  0.00  0.00    -0.001 A 
ENDROOT
TORSDOF 0
ENDMDL
