MODEL 1
REMARK minimizedAffinity 0.526163459
REMARK minimizedRMSD -1
REMARK  0 active torsions:
REMARK  status: ('A' for Active; 'I' for Inactive)
ROOT
ATOM      1  C   UNL d   1      -1.684  -3.637  -3.210  0.00  0.00     0.078 C 
ATOM      2  C1  UNL d   1      -0.667  -3.205  -2.196  0.00  0.00    -0.077 A 
ATOM      3  C2  UNL d   1      -0.546  -1.861  -1.823  0.00  0.00    -0.001 A 
ATOM      4  C3  UNL d   1       0.412  -1.473  -0.885  0.00  0.00     0.003 A 
ATOM      5  C4  UNL d   1       1.258  -2.422  -0.314  0.00  0.00    -0.005 A 
ATOM      6  C5  UNL d   1       1.147  -3.761  -0.681  0.00  0.00     0.003 A 
ATOM      7  C6  UNL d   1       0.189  -4.152  -1.619  0.00  0.00    -0.001 A 
ENDROOT
TORSDOF 0
ENDMDL
