MODEL 1
REMARK minimizedAffinity 0.394782186
REMARK minimizedRMSD -1
REMARK  0 active torsions:
REMARK  status: ('A' for Active; 'I' for Inactive)
ROOT
ATOM      1  C   UNL d   1      -2.489   4.883  -2.204  0.00  0.00     0.078 C 
ATOM      2  C1  UNL d   1      -1.304   4.412  -1.415  0.00  0.00    -0.077 A 
ATOM      3  C2  UNL d   1      -0.015   4.875  -1.705  0.00  0.00    -0.001 A 
ATOM      4  C3  UNL d   1       1.080   4.421  -0.968  0.00  0.00     0.003 A 
ATOM      5  C4  UNL d   1       0.897   3.501   0.063  0.00  0.00    -0.005 A 
ATOM      6  C5  UNL d   1      -0.382   3.034   0.358  0.00  0.00     0.003 A 
ATOM      7  C6  UNL d   1      -1.478   3.487  -0.378  0.00  0.00    -0.001 A 
ENDROOT
TORSDOF 0
ENDMDL
