MODEL 1
REMARK minimizedAffinity 9.48209286
REMARK minimizedRMSD -1
REMARK  0 active torsions:
REMARK  status: ('A' for Active; 'I' for Inactive)
ROOT
ATOM      1  C   UNL d   1      -0.333   3.602  -1.002  0.00  0.00     0.078 C 
ATOM      2  C1  UNL d   1       0.292   3.684   0.359  0.00  0.00    -0.077 A 
ATOM      3  C2  UNL d   1       1.188   4.711   0.680  0.00  0.00    -0.001 A 
ATOM      4  C3  UNL d   1       1.769   4.770   1.948  0.00  0.00     0.003 A 
ATOM      5  C4  UNL d   1       1.463   3.803   2.904  0.00  0.00    -0.005 A 
ATOM      6  C5  UNL d   1       0.575   2.776   2.592  0.00  0.00     0.003 A 
ATOM      7  C6  UNL d   1      -0.008   2.716   1.325  0.00  0.00    -0.001 A 
ENDROOT
TORSDOF 0
ENDMDL
