MODEL 1
REMARK minimizedAffinity 1.29565215
REMARK minimizedRMSD -1
REMARK  0 active torsions:
REMARK  status: ('A' for Active; 'I' for Inactive)
ROOT
ATOM      1  C   UNL d   1      -0.041   3.753   0.221  0.00  0.00     0.078 C 
ATOM      2  C1  UNL d   1      -0.002   2.839   1.409  0.00  0.00    -0.077 A 
ATOM      3  C2  UNL d   1       1.216   2.433   1.968  0.00  0.00    -0.001 A 
ATOM      4  C3  UNL d   1       1.237   1.574   3.068  0.00  0.00     0.003 A 
ATOM      5  C4  UNL d   1       0.043   1.113   3.618  0.00  0.00    -0.005 A 
ATOM      6  C5  UNL d   1      -1.174   1.509   3.068  0.00  0.00     0.003 A 
ATOM      7  C6  UNL d   1      -1.197   2.368   1.968  0.00  0.00    -0.001 A 
ENDROOT
TORSDOF 0
ENDMDL
