MODEL 1
REMARK minimizedAffinity 0.957772434
REMARK minimizedRMSD -1
REMARK  0 active torsions:
REMARK  status: ('A' for Active; 'I' for Inactive)
ROOT
ATOM      1  C   UNL d   1       0.016   2.681   1.631  0.00  0.00     0.078 C 
ATOM      2  C1  UNL d   1      -0.285   3.536   0.436  0.00  0.00    -0.077 A 
ATOM      3  C2  UNL d   1      -0.346   2.984  -0.849  0.00  0.00    -0.001 A 
ATOM      4  C3  UNL d   1      -0.618   3.793  -1.953  0.00  0.00     0.003 A 
ATOM      5  C4  UNL d   1      -0.829   5.160  -1.784  0.00  0.00    -0.005 A 
ATOM      6  C5  UNL d   1      -0.768   5.719  -0.509  0.00  0.00     0.003 A 
ATOM      7  C6  UNL d   1      -0.497   4.911   0.597  0.00  0.00    -0.001 A 
ENDROOT
TORSDOF 0
ENDMDL
