MODEL 1
REMARK minimizedAffinity 5.1941061
REMARK minimizedRMSD -1
REMARK  0 active torsions:
REMARK  status: ('A' for Active; 'I' for Inactive)
ROOT
ATOM      1  C   UNL d   1       3.808  -5.999  -2.761  0.00  0.00     0.078 C 
ATOM      2  C1  UNL d   1       4.428  -4.939  -1.900  0.00  0.00    -0.077 A 
ATOM      3  C2  UNL d   1       4.058  -3.595  -2.033  0.00  0.00    -0.001 A 
ATOM      4  C3  UNL d   1       4.651  -2.617  -1.232  0.00  0.00     0.003 A 
ATOM      5  C4  UNL d   1       5.618  -2.973  -0.294  0.00  0.00    -0.005 A 
ATOM      6  C5  UNL d   1       5.994  -4.308  -0.156  0.00  0.00     0.003 A 
ATOM      7  C6  UNL d   1       5.402  -5.287  -0.956  0.00  0.00    -0.001 A 
ENDROOT
TORSDOF 0
ENDMDL
