MODEL 1
REMARK minimizedAffinity -2.0745995
REMARK minimizedRMSD -1
REMARK  0 active torsions:
REMARK  status: ('A' for Active; 'I' for Inactive)
ROOT
ATOM      1  C1  DEN d   1       1.143   0.481  -3.422  0.00  0.00     0.130 A 
ATOM      2  C2  DEN d   1       1.101   1.928  -3.618  0.00  0.00    -0.031 A 
ATOM      3  C3  DEN d   1       0.698   2.549  -2.340  0.00  0.00     0.027 A 
ATOM      4  C4  DEN d   1       0.142   1.419  -0.090  0.00  0.00     0.027 A 
ATOM      5  C5  DEN d   1       0.028   0.210   0.561  0.00  0.00    -0.003 A 
ATOM      6  C6  DEN d   1       0.242  -0.984  -0.074  0.00  0.00     0.001 A 
ATOM      7  C7  DEN d   1       0.626  -0.995  -1.388  0.00  0.00     0.017 A 
ATOM      8  C8  DEN d   1       0.737   0.219  -2.053  0.00  0.00    -0.094 A 
ATOM      9  C9  DEN d   1       0.528   1.417  -1.391  0.00  0.00    -0.072 A 
ENDROOT
TORSDOF 0
ENDMDL
