MODEL 1
REMARK minimizedAffinity -2.96504569
REMARK minimizedRMSD -1
REMARK  0 active torsions:
REMARK  status: ('A' for Active; 'I' for Inactive)
ROOT
ATOM      1  C1  DEN d   1      -2.345  -1.254   2.574  0.00  0.00     0.130 A 
ATOM      2  C2  DEN d   1      -2.866   0.102   2.429  0.00  0.00    -0.031 A 
ATOM      3  C3  DEN d   1      -2.024   0.812   1.445  0.00  0.00     0.027 A 
ATOM      4  C4  DEN d   1       0.023  -0.054   0.137  0.00  0.00     0.027 A 
ATOM      5  C5  DEN d   1       0.849  -1.137  -0.066  0.00  0.00    -0.003 A 
ATOM      6  C6  DEN d   1       0.691  -2.314   0.616  0.00  0.00     0.001 A 
ATOM      7  C7  DEN d   1      -0.345  -2.452   1.502  0.00  0.00     0.017 A 
ATOM      8  C8  DEN d   1      -1.178  -1.362   1.717  0.00  0.00    -0.094 A 
ATOM      9  C9  DEN d   1      -1.009  -0.184   1.009  0.00  0.00    -0.072 A 
ENDROOT
TORSDOF 0
ENDMDL
