MODEL 1
REMARK minimizedAffinity -2.4878304
REMARK minimizedRMSD -1
REMARK  0 active torsions:
REMARK  status: ('A' for Active; 'I' for Inactive)
ROOT
ATOM      1  C1  DEN d   1      -2.080   0.971   1.922  0.00  0.00     0.130 A 
ATOM      2  C2  DEN d   1      -2.700   0.172   2.975  0.00  0.00    -0.031 A 
ATOM      3  C3  DEN d   1      -2.136  -1.191   2.906  0.00  0.00     0.027 A 
ATOM      4  C4  DEN d   1      -0.368  -2.135   1.283  0.00  0.00     0.027 A 
ATOM      5  C5  DEN d   1       0.442  -1.839   0.209  0.00  0.00    -0.003 A 
ATOM      6  C6  DEN d   1       0.443  -0.605  -0.386  0.00  0.00     0.001 A 
ATOM      7  C7  DEN d   1      -0.349   0.392   0.118  0.00  0.00     0.017 A 
ATOM      8  C8  DEN d   1      -1.174   0.099   1.196  0.00  0.00    -0.094 A 
ATOM      9  C9  DEN d   1      -1.151  -1.151   1.792  0.00  0.00    -0.072 A 
ENDROOT
TORSDOF 0
ENDMDL
