MODEL 1
REMARK minimizedAffinity -2.76970673
REMARK minimizedRMSD -1
REMARK  0 active torsions:
REMARK  status: ('A' for Active; 'I' for Inactive)
ROOT
ATOM      1  C1  DEN d   1      -2.207   0.948   1.694  0.00  0.00     0.130 A 
ATOM      2  C2  DEN d   1      -2.966  -0.015   2.488  0.00  0.00    -0.031 A 
ATOM      3  C3  DEN d   1      -2.267  -1.314   2.420  0.00  0.00     0.027 A 
ATOM      4  C4  DEN d   1      -0.093  -1.924   1.173  0.00  0.00     0.027 A 
ATOM      5  C5  DEN d   1       0.904  -1.442   0.354  0.00  0.00    -0.003 A 
ATOM      6  C6  DEN d   1       0.916  -0.150  -0.099  0.00  0.00     0.001 A 
ATOM      7  C7  DEN d   1      -0.065   0.719   0.300  0.00  0.00     0.017 A 
ATOM      8  C8  DEN d   1      -1.078   0.238   1.120  0.00  0.00    -0.094 A 
ATOM      9  C9  DEN d   1      -1.066  -1.068   1.578  0.00  0.00    -0.072 A 
ENDROOT
TORSDOF 0
ENDMDL
