MODEL 1
REMARK minimizedAffinity -2.63344169
REMARK minimizedRMSD -1
REMARK  0 active torsions:
REMARK  status: ('A' for Active; 'I' for Inactive)
ROOT
ATOM      1  C1  DEN d   1      -2.053   0.904   1.416  0.00  0.00     0.130 A 
ATOM      2  C2  DEN d   1      -2.955   0.333   2.413  0.00  0.00    -0.031 A 
ATOM      3  C3  DEN d   1      -2.505  -1.044   2.700  0.00  0.00     0.027 A 
ATOM      4  C4  DEN d   1      -0.507  -2.338   1.708  0.00  0.00     0.027 A 
ATOM      5  C5  DEN d   1       0.542  -2.273   0.817  0.00  0.00    -0.003 A 
ATOM      6  C6  DEN d   1       0.777  -1.166   0.045  0.00  0.00     0.001 A 
ATOM      7  C7  DEN d   1      -0.022  -0.061   0.182  0.00  0.00     0.017 A 
ATOM      8  C8  DEN d   1      -1.085  -0.122   1.073  0.00  0.00    -0.094 A 
ATOM      9  C9  DEN d   1      -1.299  -1.245   1.853  0.00  0.00    -0.072 A 
ENDROOT
TORSDOF 0
ENDMDL
