MODEL 1
REMARK minimizedAffinity 7.347404
REMARK minimizedRMSD -1
REMARK  0 active torsions:
REMARK  status: ('A' for Active; 'I' for Inactive)
ROOT
ATOM      1  C1  DEN d   1       4.028   1.870  -0.091  0.00  0.00     0.130 A 
ATOM      2  C2  DEN d   1       3.720   1.456  -1.457  0.00  0.00    -0.031 A 
ATOM      3  C3  DEN d   1       3.835   2.642  -2.330  0.00  0.00     0.027 A 
ATOM      4  C4  DEN d   1       4.461   5.064  -1.703  0.00  0.00     0.027 A 
ATOM      5  C5  DEN d   1       4.797   5.903  -0.664  0.00  0.00    -0.003 A 
ATOM      6  C6  DEN d   1       4.866   5.468   0.633  0.00  0.00     0.001 A 
ATOM      7  C7  DEN d   1       4.640   4.148   0.919  0.00  0.00     0.017 A 
ATOM      8  C8  DEN d   1       4.293   3.297  -0.122  0.00  0.00    -0.094 A 
ATOM      9  C9  DEN d   1       4.241   3.753  -1.428  0.00  0.00    -0.072 A 
ENDROOT
TORSDOF 0
ENDMDL
