MODEL 1
REMARK minimizedAffinity -1.71370018
REMARK minimizedRMSD -1
REMARK  0 active torsions:
REMARK  status: ('A' for Active; 'I' for Inactive)
ROOT
ATOM      1  C1  DEN d   1       1.129   0.947  -3.372  0.00  0.00     0.130 A 
ATOM      2  C2  DEN d   1       0.928   2.307  -3.864  0.00  0.00    -0.031 A 
ATOM      3  C3  DEN d   1       0.395   3.120  -2.752  0.00  0.00     0.027 A 
ATOM      4  C4  DEN d   1      -0.132   2.409  -0.330  0.00  0.00     0.027 A 
ATOM      5  C5  DEN d   1      -0.136   1.353   0.555  0.00  0.00    -0.003 A 
ATOM      6  C6  DEN d   1       0.247   0.091   0.186  0.00  0.00     0.001 A 
ATOM      7  C7  DEN d   1       0.692  -0.139  -1.089  0.00  0.00     0.017 A 
ATOM      8  C8  DEN d   1       0.691   0.919  -1.988  0.00  0.00    -0.094 A 
ATOM      9  C9  DEN d   1       0.313   2.191  -1.593  0.00  0.00    -0.072 A 
ENDROOT
TORSDOF 0
ENDMDL
