MODEL 1
REMARK minimizedAffinity -2.84733987
REMARK minimizedRMSD -1
REMARK  0 active torsions:
REMARK  status: ('A' for Active; 'I' for Inactive)
ROOT
ATOM      1  C1  DEN d   1      -2.608   1.095   1.264  0.00  0.00     0.130 A 
ATOM      2  C2  DEN d   1      -1.865   1.950   0.342  0.00  0.00    -0.031 A 
ATOM      3  C3  DEN d   1      -0.639   1.232  -0.060  0.00  0.00     0.027 A 
ATOM      4  C4  DEN d   1       0.175  -1.111   0.648  0.00  0.00     0.027 A 
ATOM      5  C5  DEN d   1      -0.113  -2.212   1.424  0.00  0.00    -0.003 A 
ATOM      6  C6  DEN d   1      -1.226  -2.274   2.220  0.00  0.00     0.001 A 
ATOM      7  C7  DEN d   1      -2.116  -1.233   2.225  0.00  0.00     0.017 A 
ATOM      8  C8  DEN d   1      -1.829  -0.116   1.450  0.00  0.00    -0.094 A 
ATOM      9  C9  DEN d   1      -0.705  -0.078   0.643  0.00  0.00    -0.072 A 
ENDROOT
TORSDOF 0
ENDMDL
