MODEL 1
REMARK minimizedAffinity -4.28974771
REMARK minimizedRMSD -1
REMARK  0 active torsions:
REMARK  status: ('A' for Active; 'I' for Inactive)
ROOT
ATOM      1  C1  DEN d   1       0.967  -0.761  -0.191  0.00  0.00     0.130 A 
ATOM      2  C2  DEN d   1       0.938   0.619  -0.668  0.00  0.00    -0.031 A 
ATOM      3  C3  DEN d   1      -0.197   1.304  -0.016  0.00  0.00     0.027 A 
ATOM      4  C4  DEN d   1      -1.900   0.367   1.680  0.00  0.00     0.027 A 
ATOM      5  C5  DEN d   1      -2.287  -0.755   2.379  0.00  0.00    -0.003 A 
ATOM      6  C6  DEN d   1      -1.643  -1.956   2.245  0.00  0.00     0.001 A 
ATOM      7  C7  DEN d   1      -0.548  -2.053   1.427  0.00  0.00     0.017 A 
ATOM      8  C8  DEN d   1      -0.157  -0.928   0.714  0.00  0.00    -0.094 A 
ATOM      9  C9  DEN d   1      -0.813   0.281   0.872  0.00  0.00    -0.072 A 
ENDROOT
TORSDOF 0
ENDMDL
