MODEL 1
REMARK minimizedAffinity -1.7844609
REMARK minimizedRMSD -1
REMARK  0 active torsions:
REMARK  status: ('A' for Active; 'I' for Inactive)
ROOT
ATOM      1  C1  DEN d   1       1.281   0.993  -0.049  0.00  0.00     0.130 A 
ATOM      2  C2  DEN d   1      -0.071   0.439  -0.068  0.00  0.00    -0.031 A 
ATOM      3  C3  DEN d   1      -0.667   0.738  -1.386  0.00  0.00     0.027 A 
ATOM      4  C4  DEN d   1       0.367   1.993  -3.388  0.00  0.00     0.027 A 
ATOM      5  C5  DEN d   1       1.485   2.658  -3.840  0.00  0.00    -0.003 A 
ATOM      6  C6  DEN d   1       2.592   2.843  -3.054  0.00  0.00     0.001 A 
ATOM      7  C7  DEN d   1       2.622   2.317  -1.790  0.00  0.00     0.017 A 
ATOM      8  C8  DEN d   1       1.495   1.652  -1.324  0.00  0.00    -0.094 A 
ATOM      9  C9  DEN d   1       0.391   1.465  -2.138  0.00  0.00    -0.072 A 
ENDROOT
TORSDOF 0
ENDMDL
