MODEL 1
REMARK minimizedAffinity -2.52687383
REMARK minimizedRMSD -1
REMARK  0 active torsions:
REMARK  status: ('A' for Active; 'I' for Inactive)
ROOT
ATOM      1  C1  DEN d   1       0.065  -1.354  -0.928  0.00  0.00     0.130 A 
ATOM      2  C2  DEN d   1       0.617  -1.234   0.419  0.00  0.00    -0.031 A 
ATOM      3  C3  DEN d   1       1.197   0.117   0.556  0.00  0.00     0.027 A 
ATOM      4  C4  DEN d   1       1.288   2.027  -1.176  0.00  0.00     0.027 A 
ATOM      5  C5  DEN d   1       0.960   2.391  -2.463  0.00  0.00    -0.003 A 
ATOM      6  C6  DEN d   1       0.347   1.529  -3.332  0.00  0.00     0.001 A 
ATOM      7  C7  DEN d   1       0.001   0.272  -2.911  0.00  0.00     0.017 A 
ATOM      8  C8  DEN d   1       0.334  -0.105  -1.617  0.00  0.00    -0.094 A 
ATOM      9  C9  DEN d   1       0.944   0.785  -0.749  0.00  0.00    -0.072 A 
ENDROOT
TORSDOF 0
ENDMDL
