MODEL 1
REMARK minimizedAffinity 8.59980583
REMARK minimizedRMSD -1
REMARK  0 active torsions:
REMARK  status: ('A' for Active; 'I' for Inactive)
ROOT
ATOM      1  C2' OXE d   1       5.523  -3.504   1.089  0.00  0.00     0.078 C 
ATOM      2  C1' OXE d   1       5.152  -0.920   0.058  0.00  0.00     0.078 C 
ATOM      3  C1  OXE d   1       3.932  -1.670   0.531  0.00  0.00    -0.078 A 
ATOM      4  C2  OXE d   1       4.117  -2.952   0.990  0.00  0.00    -0.078 A 
ATOM      5  C3  OXE d   1       3.033  -3.668   1.489  0.00  0.00     0.003 A 
ATOM      6  C4  OXE d   1       1.735  -3.154   1.385  0.00  0.00    -0.002 A 
ATOM      7  C5  OXE d   1       1.520  -1.866   0.883  0.00  0.00    -0.002 A 
ATOM      8  C6  OXE d   1       2.610  -1.096   0.492  0.00  0.00     0.003 A 
ENDROOT
TORSDOF 0
ENDMDL
