MODEL 1
REMARK minimizedAffinity 7.4491086
REMARK minimizedRMSD -1
REMARK  0 active torsions:
REMARK  status: ('A' for Active; 'I' for Inactive)
ROOT
ATOM      1  C2' OXE d   1      -0.810  -2.201   3.472  0.00  0.00     0.078 C 
ATOM      2  C1' OXE d   1       0.881  -0.070   4.163  0.00  0.00     0.078 C 
ATOM      3  C1  OXE d   1       1.105  -0.742   2.832  0.00  0.00    -0.078 A 
ATOM      4  C2  OXE d   1       0.303  -1.814   2.522  0.00  0.00    -0.078 A 
ATOM      5  C3  OXE d   1       0.431  -2.435   1.283  0.00  0.00     0.003 A 
ATOM      6  C4  OXE d   1       1.470  -2.077   0.414  0.00  0.00    -0.002 A 
ATOM      7  C5  OXE d   1       2.323  -1.014   0.728  0.00  0.00    -0.002 A 
ATOM      8  C6  OXE d   1       2.128  -0.310   1.911  0.00  0.00     0.003 A 
ENDROOT
TORSDOF 0
ENDMDL
