MODEL 1
REMARK minimizedAffinity 0.0233432911
REMARK minimizedRMSD -1
REMARK  0 active torsions:
REMARK  status: ('A' for Active; 'I' for Inactive)
ROOT
ATOM      1  C2' OXE d   1       1.283  -3.888   0.901  0.00  0.00     0.078 C 
ATOM      2  C1' OXE d   1       3.283  -2.542   2.339  0.00  0.00     0.078 C 
ATOM      3  C1  OXE d   1       1.859  -2.076   2.510  0.00  0.00    -0.078 A 
ATOM      4  C2  OXE d   1       0.893  -2.710   1.767  0.00  0.00    -0.078 A 
ATOM      5  C3  OXE d   1      -0.444  -2.356   1.928  0.00  0.00     0.003 A 
ATOM      6  C4  OXE d   1      -0.795  -1.259   2.724  0.00  0.00    -0.002 A 
ATOM      7  C5  OXE d   1       0.178  -0.573   3.458  0.00  0.00    -0.002 A 
ATOM      8  C6  OXE d   1       1.502  -0.995   3.396  0.00  0.00     0.003 A 
ENDROOT
TORSDOF 0
ENDMDL
