MODEL 1
REMARK minimizedAffinity 11.120018
REMARK minimizedRMSD -1
REMARK  0 active torsions:
REMARK  status: ('A' for Active; 'I' for Inactive)
ROOT
ATOM      1  C2' OXE d   1       1.234  -4.087   1.114  0.00  0.00     0.078 C 
ATOM      2  C1' OXE d   1       2.266  -1.538   0.554  0.00  0.00     0.078 C 
ATOM      3  C1  OXE d   1       1.203  -1.648   1.618  0.00  0.00    -0.078 A 
ATOM      4  C2  OXE d   1       0.670  -2.893   1.852  0.00  0.00    -0.078 A 
ATOM      5  C3  OXE d   1      -0.274  -3.060   2.861  0.00  0.00     0.003 A 
ATOM      6  C4  OXE d   1      -0.798  -1.948   3.532  0.00  0.00    -0.002 A 
ATOM      7  C5  OXE d   1      -0.298  -0.666   3.281  0.00  0.00    -0.002 A 
ATOM      8  C6  OXE d   1       0.731  -0.505   2.359  0.00  0.00     0.003 A 
ENDROOT
TORSDOF 0
ENDMDL
