MODEL 1
REMARK minimizedAffinity 8.15379047
REMARK minimizedRMSD -1
REMARK  0 active torsions:
REMARK  status: ('A' for Active; 'I' for Inactive)
ROOT
ATOM      1  C2' OXE d   1       3.170  -5.213   0.679  0.00  0.00     0.078 C 
ATOM      2  C1' OXE d   1       3.893  -4.188   3.190  0.00  0.00     0.078 C 
ATOM      3  C1  OXE d   1       2.963  -3.364   2.336  0.00  0.00    -0.078 A 
ATOM      4  C2  OXE d   1       2.651  -3.851   1.089  0.00  0.00    -0.078 A 
ATOM      5  C3  OXE d   1       1.754  -3.158   0.282  0.00  0.00     0.003 A 
ATOM      6  C4  OXE d   1       1.287  -1.894   0.665  0.00  0.00    -0.002 A 
ATOM      7  C5  OXE d   1       1.623  -1.362   1.914  0.00  0.00    -0.002 A 
ATOM      8  C6  OXE d   1       2.424  -2.101   2.777  0.00  0.00     0.003 A 
ENDROOT
TORSDOF 0
ENDMDL
