MODEL 1
REMARK minimizedAffinity 5.40025187
REMARK minimizedRMSD -1
REMARK  0 active torsions:
REMARK  status: ('A' for Active; 'I' for Inactive)
ROOT
ATOM      1  C2' OXE d   1       6.000  -1.268   1.575  0.00  0.00     0.078 C 
ATOM      2  C1' OXE d   1       5.967  -0.295  -1.059  0.00  0.00     0.078 C 
ATOM      3  C1  OXE d   1       5.971   0.712   0.064  0.00  0.00    -0.078 A 
ATOM      4  C2  OXE d   1       5.940   0.227   1.349  0.00  0.00    -0.078 A 
ATOM      5  C3  OXE d   1       5.998   1.113   2.422  0.00  0.00     0.003 A 
ATOM      6  C4  OXE d   1       5.932   2.494   2.204  0.00  0.00    -0.002 A 
ATOM      7  C5  OXE d   1       5.923   3.009   0.904  0.00  0.00    -0.002 A 
ATOM      8  C6  OXE d   1       5.985   2.134  -0.176  0.00  0.00     0.003 A 
ENDROOT
TORSDOF 0
ENDMDL
