MODEL 1
REMARK minimizedAffinity 1.08928144
REMARK minimizedRMSD -1
REMARK  0 active torsions:
REMARK  status: ('A' for Active; 'I' for Inactive)
ROOT
ATOM      1  C   UNL d   1      -2.419   2.355  -5.616  0.00  0.00     0.124 A 
ATOM      2  C1  UNL d   1      -3.761   2.654  -5.807  0.00  0.00     0.062 A 
ATOM      3  C2  UNL d   1      -4.710   1.636  -5.813  0.00  0.00     0.162 A 
ATOM      4  C3  UNL d   1      -4.321   0.309  -5.628  0.00  0.00    -0.034 A 
ATOM      5  C4  UNL d   1      -2.969   0.017  -5.438  0.00  0.00     0.162 A 
ATOM      6  C5  UNL d   1      -2.024   1.038  -5.432  0.00  0.00     0.062 A 
ATOM      7  F   UNL d   1      -0.728   0.748  -5.248  0.00  0.00    -0.097 F 
ATOM      8  F1  UNL d   1      -2.560  -1.248  -5.257  0.00  0.00    -0.096 F 
ATOM      9  I   UNL d   1      -5.737  -1.215  -5.638  0.00  0.00    -0.060 I 
ATOM     10  F2  UNL d   1      -6.000   1.954  -6.000  0.00  0.00    -0.096 F 
ATOM     11  F3  UNL d   1      -4.144   3.926  -5.985  0.00  0.00    -0.097 F 
ATOM     12  F4  UNL d   1      -1.507   3.337  -5.611  0.00  0.00    -0.092 F 
ENDROOT
TORSDOF 0
ENDMDL
