MODEL 1
REMARK minimizedAffinity 8.22139072
REMARK minimizedRMSD -1
REMARK  0 active torsions:
REMARK  status: ('A' for Active; 'I' for Inactive)
ROOT
ATOM      1  C   UNL d   1       1.930   0.929  -1.586  0.00  0.00     0.124 A 
ATOM      2  C1  UNL d   1       1.226   0.104  -2.452  0.00  0.00     0.062 A 
ATOM      3  C2  UNL d   1       0.237  -0.744  -1.962  0.00  0.00     0.162 A 
ATOM      4  C3  UNL d   1      -0.055  -0.770  -0.598  0.00  0.00    -0.034 A 
ATOM      5  C4  UNL d   1       0.658   0.062   0.267  0.00  0.00     0.162 A 
ATOM      6  C5  UNL d   1       1.646   0.907  -0.228  0.00  0.00     0.062 A 
ATOM      7  F   UNL d   1       2.325   1.703   0.610  0.00  0.00    -0.097 F 
ATOM      8  F1  UNL d   1       0.403   0.061   1.583  0.00  0.00    -0.096 F 
ATOM      9  I   UNL d   1      -1.533  -2.037   0.138  0.00  0.00    -0.060 I 
ATOM     10  F2  UNL d   1      -0.428  -1.530  -2.822  0.00  0.00    -0.096 F 
ATOM     11  F3  UNL d   1       1.499   0.123  -3.765  0.00  0.00    -0.097 F 
ATOM     12  F4  UNL d   1       2.882   1.743  -2.060  0.00  0.00    -0.092 F 
ENDROOT
TORSDOF 0
ENDMDL
