MODEL 1
REMARK minimizedAffinity 14.3964329
REMARK minimizedRMSD -1
REMARK  0 active torsions:
REMARK  status: ('A' for Active; 'I' for Inactive)
ROOT
ATOM      1  C   UNL d   1      -3.262   3.176  -5.909  0.00  0.00     0.124 A 
ATOM      2  C1  UNL d   1      -4.504   2.557  -5.944  0.00  0.00     0.062 A 
ATOM      3  C2  UNL d   1      -4.595   1.169  -5.964  0.00  0.00     0.162 A 
ATOM      4  C3  UNL d   1      -3.439   0.388  -5.949  0.00  0.00    -0.034 A 
ATOM      5  C4  UNL d   1      -2.193   1.017  -5.915  0.00  0.00     0.162 A 
ATOM      6  C5  UNL d   1      -2.108   2.405  -5.894  0.00  0.00     0.062 A 
ATOM      7  F   UNL d   1      -0.907   3.001  -5.861  0.00  0.00    -0.097 F 
ATOM      8  F1  UNL d   1      -1.062   0.296  -5.899  0.00  0.00    -0.096 F 
ATOM      9  I   UNL d   1      -3.570  -1.689  -5.979  0.00  0.00    -0.060 I 
ATOM     10  F2  UNL d   1      -5.808   0.598  -5.998  0.00  0.00    -0.096 F 
ATOM     11  F3  UNL d   1      -5.621   3.300  -5.959  0.00  0.00    -0.097 F 
ATOM     12  F4  UNL d   1      -3.178   4.512  -5.891  0.00  0.00    -0.092 F 
ENDROOT
TORSDOF 0
ENDMDL
