MODEL 1
REMARK minimizedAffinity 13.3609467
REMARK minimizedRMSD -1
REMARK  0 active torsions:
REMARK  status: ('A' for Active; 'I' for Inactive)
ROOT
ATOM      1  C   UNL d   1      -2.186   1.186  -5.983  0.00  0.00     0.124 A 
ATOM      2  C1  UNL d   1      -1.982   2.559  -5.986  0.00  0.00     0.062 A 
ATOM      3  C2  UNL d   1      -3.069   3.428  -5.991  0.00  0.00     0.162 A 
ATOM      4  C3  UNL d   1      -4.371   2.926  -5.991  0.00  0.00    -0.034 A 
ATOM      5  C4  UNL d   1      -4.568   1.544  -5.989  0.00  0.00     0.162 A 
ATOM      6  C5  UNL d   1      -3.478   0.680  -5.984  0.00  0.00     0.062 A 
ATOM      7  F   UNL d   1      -3.676  -0.646  -5.981  0.00  0.00    -0.097 F 
ATOM      8  F1  UNL d   1      -5.806   1.028  -5.990  0.00  0.00    -0.096 F 
ATOM      9  I   UNL d   1      -6.000   4.222  -5.999  0.00  0.00    -0.060 I 
ATOM     10  F2  UNL d   1      -2.843   4.750  -5.994  0.00  0.00    -0.096 F 
ATOM     11  F3  UNL d   1      -0.734   3.050  -5.985  0.00  0.00    -0.097 F 
ATOM     12  F4  UNL d   1      -1.138   0.352  -5.979  0.00  0.00    -0.092 F 
ENDROOT
TORSDOF 0
ENDMDL
