MODEL 1
REMARK minimizedAffinity 6.95227385
REMARK minimizedRMSD -1
REMARK  0 active torsions:
REMARK  status: ('A' for Active; 'I' for Inactive)
ROOT
ATOM      1  C   UNL d   1      -2.396   2.740  -5.550  0.00  0.00     0.124 A 
ATOM      2  C1  UNL d   1      -2.003   1.411  -5.633  0.00  0.00     0.062 A 
ATOM      3  C2  UNL d   1      -2.958   0.405  -5.744  0.00  0.00     0.162 A 
ATOM      4  C3  UNL d   1      -4.316   0.723  -5.774  0.00  0.00    -0.034 A 
ATOM      5  C4  UNL d   1      -4.703   2.062  -5.689  0.00  0.00     0.162 A 
ATOM      6  C5  UNL d   1      -3.745   3.064  -5.578  0.00  0.00     0.062 A 
ATOM      7  F   UNL d   1      -4.126   4.347  -5.498  0.00  0.00    -0.097 F 
ATOM      8  F1  UNL d   1      -6.000   2.403  -5.714  0.00  0.00    -0.096 F 
ATOM      9  I   UNL d   1      -5.747  -0.779  -5.939  0.00  0.00    -0.060 I 
ATOM     10  F2  UNL d   1      -2.551  -0.871  -5.822  0.00  0.00    -0.096 F 
ATOM     11  F3  UNL d   1      -0.700   1.095  -5.606  0.00  0.00    -0.097 F 
ATOM     12  F4  UNL d   1      -1.474   3.706  -5.443  0.00  0.00    -0.092 F 
ENDROOT
TORSDOF 0
ENDMDL
