MODEL 1
REMARK minimizedAffinity 3.67417455
REMARK minimizedRMSD -1
REMARK  0 active torsions:
REMARK  status: ('A' for Active; 'I' for Inactive)
ROOT
ATOM      1  C   UNL d   1      -3.397   3.671  -5.925  0.00  0.00     0.124 A 
ATOM      2  C1  UNL d   1      -4.652   3.078  -5.949  0.00  0.00     0.062 A 
ATOM      3  C2  UNL d   1      -4.771   1.692  -5.971  0.00  0.00     0.162 A 
ATOM      4  C3  UNL d   1      -3.631   0.887  -5.967  0.00  0.00    -0.034 A 
ATOM      5  C4  UNL d   1      -2.373   1.491  -5.943  0.00  0.00     0.162 A 
ATOM      6  C5  UNL d   1      -2.259   2.877  -5.922  0.00  0.00     0.062 A 
ATOM      7  F   UNL d   1      -1.046   3.448  -5.898  0.00  0.00    -0.097 F 
ATOM      8  F1  UNL d   1      -1.256   0.747  -5.939  0.00  0.00    -0.096 F 
ATOM      9  I   UNL d   1      -3.805  -1.186  -5.999  0.00  0.00    -0.060 I 
ATOM     10  F2  UNL d   1      -5.996   1.146  -5.994  0.00  0.00    -0.096 F 
ATOM     11  F3  UNL d   1      -5.753   3.843  -5.953  0.00  0.00    -0.097 F 
ATOM     12  F4  UNL d   1      -3.285   5.005  -5.905  0.00  0.00    -0.092 F 
ENDROOT
TORSDOF 0
ENDMDL
