MODEL 1
REMARK minimizedAffinity 11.8617277
REMARK minimizedRMSD -1
REMARK  0 active torsions:
REMARK  status: ('A' for Active; 'I' for Inactive)
ROOT
ATOM      1  C   UNL d   1      -0.848  -1.117  -1.090  0.00  0.00     0.124 A 
ATOM      2  C1  UNL d   1      -0.443  -0.717   0.176  0.00  0.00     0.062 A 
ATOM      3  C2  UNL d   1       0.826  -0.176   0.366  0.00  0.00     0.162 A 
ATOM      4  C3  UNL d   1       1.698  -0.031  -0.713  0.00  0.00    -0.034 A 
ATOM      5  C4  UNL d   1       1.283  -0.437  -1.983  0.00  0.00     0.162 A 
ATOM      6  C5  UNL d   1       0.014  -0.976  -2.168  0.00  0.00     0.062 A 
ATOM      7  F   UNL d   1      -0.376  -1.362  -3.391  0.00  0.00    -0.097 F 
ATOM      8  F1  UNL d   1       2.096  -0.312  -3.042  0.00  0.00    -0.096 F 
ATOM      9  I   UNL d   1       3.595   0.777  -0.433  0.00  0.00    -0.060 I 
ATOM     10  F2  UNL d   1       1.191   0.202   1.600  0.00  0.00    -0.096 F 
ATOM     11  F3  UNL d   1      -1.274  -0.852   1.219  0.00  0.00    -0.097 F 
ATOM     12  F4  UNL d   1      -2.069  -1.638  -1.270  0.00  0.00    -0.092 F 
ENDROOT
TORSDOF 0
ENDMDL
