MODEL 1
REMARK minimizedAffinity 3.08899474
REMARK minimizedRMSD -1
REMARK  0 active torsions:
REMARK  status: ('A' for Active; 'I' for Inactive)
ROOT
ATOM      1  C   UNL d   1      -2.406   2.146  -5.628  0.00  0.00     0.124 A 
ATOM      2  C1  UNL d   1      -2.040   0.808  -5.585  0.00  0.00     0.062 A 
ATOM      3  C2  UNL d   1      -3.009  -0.186  -5.682  0.00  0.00     0.162 A 
ATOM      4  C3  UNL d   1      -4.355   0.154  -5.824  0.00  0.00    -0.034 A 
ATOM      5  C4  UNL d   1      -4.715   1.502  -5.865  0.00  0.00     0.162 A 
ATOM      6  C5  UNL d   1      -3.743   2.492  -5.767  0.00  0.00     0.062 A 
ATOM      7  F   UNL d   1      -4.098   3.784  -5.809  0.00  0.00    -0.097 F 
ATOM      8  F1  UNL d   1      -6.000   1.864  -6.000  0.00  0.00    -0.096 F 
ATOM      9  I   UNL d   1      -5.807  -1.330  -5.969  0.00  0.00    -0.060 I 
ATOM     10  F2  UNL d   1      -2.627  -1.471  -5.638  0.00  0.00    -0.096 F 
ATOM     11  F3  UNL d   1      -0.749   0.472  -5.449  0.00  0.00    -0.097 F 
ATOM     12  F4  UNL d   1      -1.472   3.101  -5.533  0.00  0.00    -0.092 F 
ENDROOT
TORSDOF 0
ENDMDL
