MODEL 1
REMARK minimizedAffinity 1.92292643
REMARK minimizedRMSD -1
REMARK  0 active torsions:
REMARK  status: ('A' for Active; 'I' for Inactive)
ROOT
ATOM      1  C   UNL d   1      -2.853   4.325  -5.998  0.00  0.00     0.124 A 
ATOM      2  C1  UNL d   1      -4.208   4.025  -5.998  0.00  0.00     0.062 A 
ATOM      3  C2  UNL d   1      -4.632   2.700  -5.998  0.00  0.00     0.162 A 
ATOM      4  C3  UNL d   1      -3.699   1.663  -5.998  0.00  0.00    -0.034 A 
ATOM      5  C4  UNL d   1      -2.337   1.972  -5.999  0.00  0.00     0.162 A 
ATOM      6  C5  UNL d   1      -1.919   3.298  -5.999  0.00  0.00     0.062 A 
ATOM      7  F   UNL d   1      -0.609   3.586  -5.999  0.00  0.00    -0.097 F 
ATOM      8  F1  UNL d   1      -1.414   0.999  -5.998  0.00  0.00    -0.096 F 
ATOM      9  I   UNL d   1      -4.329  -0.321  -5.998  0.00  0.00    -0.060 I 
ATOM     10  F2  UNL d   1      -5.948   2.440  -5.998  0.00  0.00    -0.096 F 
ATOM     11  F3  UNL d   1      -5.112   5.016  -5.999  0.00  0.00    -0.097 F 
ATOM     12  F4  UNL d   1      -2.448   5.602  -5.999  0.00  0.00    -0.092 F 
ENDROOT
TORSDOF 0
ENDMDL
