MODEL 1
REMARK minimizedAffinity 5.02014685
REMARK minimizedRMSD -1
REMARK  0 active torsions:
REMARK  status: ('A' for Active; 'I' for Inactive)
ROOT
ATOM      1  C   UNL d   1      -2.276   1.986  -5.970  0.00  0.00     0.124 A 
ATOM      2  C1  UNL d   1      -2.008   0.624  -5.980  0.00  0.00     0.062 A 
ATOM      3  C2  UNL d   1      -3.054  -0.295  -5.988  0.00  0.00     0.162 A 
ATOM      4  C3  UNL d   1      -4.377   0.145  -5.987  0.00  0.00    -0.034 A 
ATOM      5  C4  UNL d   1      -4.639   1.517  -5.976  0.00  0.00     0.162 A 
ATOM      6  C5  UNL d   1      -3.590   2.431  -5.968  0.00  0.00     0.062 A 
ATOM      7  F   UNL d   1      -3.850   3.746  -5.957  0.00  0.00    -0.097 F 
ATOM      8  F1  UNL d   1      -5.899   1.974  -5.975  0.00  0.00    -0.096 F 
ATOM      9  I   UNL d   1      -5.944  -1.225  -6.000  0.00  0.00    -0.060 I 
ATOM     10  F2  UNL d   1      -2.766  -1.605  -5.998  0.00  0.00    -0.096 F 
ATOM     11  F3  UNL d   1      -0.739   0.191  -5.981  0.00  0.00    -0.097 F 
ATOM     12  F4  UNL d   1      -1.268   2.868  -5.961  0.00  0.00    -0.092 F 
ENDROOT
TORSDOF 0
ENDMDL
