MODEL 1
REMARK minimizedAffinity 15.1579733
REMARK minimizedRMSD -1
REMARK  0 active torsions:
REMARK  status: ('A' for Active; 'I' for Inactive)
ROOT
ATOM      1  C   UNL d   1       1.719   0.330  -1.837  0.00  0.00     0.124 A 
ATOM      2  C1  UNL d   1       1.274   0.635  -0.558  0.00  0.00     0.062 A 
ATOM      3  C2  UNL d   1       0.079   0.099  -0.086  0.00  0.00     0.162 A 
ATOM      4  C3  UNL d   1      -0.679  -0.749  -0.893  0.00  0.00    -0.034 A 
ATOM      5  C4  UNL d   1      -0.226  -1.051  -2.178  0.00  0.00     0.162 A 
ATOM      6  C5  UNL d   1       0.969  -0.512  -2.646  0.00  0.00     0.062 A 
ATOM      7  F   UNL d   1       1.397  -0.808  -3.882  0.00  0.00    -0.097 F 
ATOM      8  F1  UNL d   1      -0.930  -1.863  -2.981  0.00  0.00    -0.096 F 
ATOM      9  I   UNL d   1      -2.466  -1.553  -0.191  0.00  0.00    -0.060 I 
ATOM     10  F2  UNL d   1      -0.326   0.411   1.154  0.00  0.00    -0.096 F 
ATOM     11  F3  UNL d   1       1.996   1.450   0.225  0.00  0.00    -0.097 F 
ATOM     12  F4  UNL d   1       2.868   0.848  -2.289  0.00  0.00    -0.092 F 
ENDROOT
TORSDOF 0
ENDMDL
