MODEL 1
REMARK minimizedAffinity 14.4960299
REMARK minimizedRMSD -1
REMARK  0 active torsions:
REMARK  status: ('A' for Active; 'I' for Inactive)
ROOT
ATOM      1  C   UNL d   1       2.502   1.752  -0.764  0.00  0.00     0.124 A 
ATOM      2  C1  UNL d   1       2.125   0.749  -1.645  0.00  0.00     0.062 A 
ATOM      3  C2  UNL d   1       1.207  -0.220  -1.252  0.00  0.00     0.162 A 
ATOM      4  C3  UNL d   1       0.659  -0.191   0.031  0.00  0.00    -0.034 A 
ATOM      5  C4  UNL d   1       1.045   0.821   0.913  0.00  0.00     0.162 A 
ATOM      6  C5  UNL d   1       1.962   1.787   0.514  0.00  0.00     0.062 A 
ATOM      7  F   UNL d   1       2.326   2.755   1.368  0.00  0.00    -0.097 F 
ATOM      8  F1  UNL d   1       0.537   0.879   2.153  0.00  0.00    -0.096 F 
ATOM      9  I   UNL d   1      -0.714  -1.638   0.624  0.00  0.00    -0.060 I 
ATOM     10  F2  UNL d   1       0.860  -1.178  -2.125  0.00  0.00    -0.096 F 
ATOM     11  F3  UNL d   1       2.646   0.713  -2.880  0.00  0.00    -0.097 F 
ATOM     12  F4  UNL d   1       3.387   2.683  -1.145  0.00  0.00    -0.092 F 
ENDROOT
TORSDOF 0
ENDMDL
