MODEL 1
REMARK minimizedAffinity 12.1368065
REMARK minimizedRMSD -1
REMARK  0 active torsions:
REMARK  status: ('A' for Active; 'I' for Inactive)
ROOT
ATOM      1  C   UNL d   1       0.447  -0.700  -0.946  0.00  0.00     0.124 A 
ATOM      2  C1  UNL d   1       1.372   0.211  -1.437  0.00  0.00     0.062 A 
ATOM      3  C2  UNL d   1       1.981   1.122  -0.578  0.00  0.00     0.162 A 
ATOM      4  C3  UNL d   1       1.667   1.127   0.781  0.00  0.00    -0.034 A 
ATOM      5  C4  UNL d   1       0.735   0.208   1.267  0.00  0.00     0.162 A 
ATOM      6  C5  UNL d   1       0.130  -0.701   0.405  0.00  0.00     0.062 A 
ATOM      7  F   UNL d   1      -0.764  -1.580   0.881  0.00  0.00    -0.097 F 
ATOM      8  F1  UNL d   1       0.410   0.185   2.568  0.00  0.00    -0.096 F 
ATOM      9  I   UNL d   1       2.574   2.488   2.068  0.00  0.00    -0.060 I 
ATOM     10  F2  UNL d   1       2.871   1.991  -1.080  0.00  0.00    -0.096 F 
ATOM     11  F3  UNL d   1       1.681   0.214  -2.742  0.00  0.00    -0.097 F 
ATOM     12  F4  UNL d   1      -0.137  -1.575  -1.774  0.00  0.00    -0.092 F 
ENDROOT
TORSDOF 0
ENDMDL
