MODEL 1
REMARK minimizedAffinity 12.7195787
REMARK minimizedRMSD -1
REMARK  0 active torsions:
REMARK  status: ('A' for Active; 'I' for Inactive)
ROOT
ATOM      1  C   UNL d   1       1.553   0.421  -2.322  0.00  0.00     0.124 A 
ATOM      2  C1  UNL d   1       0.650  -0.426  -2.950  0.00  0.00     0.062 A 
ATOM      3  C2  UNL d   1      -0.256  -1.167  -2.197  0.00  0.00     0.162 A 
ATOM      4  C3  UNL d   1      -0.264  -1.064  -0.806  0.00  0.00    -0.034 A 
ATOM      5  C4  UNL d   1       0.647  -0.211  -0.181  0.00  0.00     0.162 A 
ATOM      6  C5  UNL d   1       1.551   0.527  -0.938  0.00  0.00     0.062 A 
ATOM      7  F   UNL d   1       2.423   1.344  -0.329  0.00  0.00    -0.097 F 
ATOM      8  F1  UNL d   1       0.667  -0.088   1.155  0.00  0.00    -0.096 F 
ATOM      9  I   UNL d   1      -1.617  -2.170   0.324  0.00  0.00    -0.060 I 
ATOM     10  F2  UNL d   1      -1.117  -1.976  -2.831  0.00  0.00    -0.096 F 
ATOM     11  F3  UNL d   1       0.651  -0.531  -4.287  0.00  0.00    -0.097 F 
ATOM     12  F4  UNL d   1       2.424   1.132  -3.049  0.00  0.00    -0.092 F 
ENDROOT
TORSDOF 0
ENDMDL
