MODEL 1
REMARK minimizedAffinity 9.15333843
REMARK minimizedRMSD -1
REMARK  0 active torsions:
REMARK  status: ('A' for Active; 'I' for Inactive)
ROOT
ATOM      1  C   UNL d   1      -1.679   3.821  -5.818  0.00  0.00     0.124 A 
ATOM      2  C1  UNL d   1      -2.878   4.520  -5.822  0.00  0.00     0.062 A 
ATOM      3  C2  UNL d   1      -4.088   3.834  -5.873  0.00  0.00     0.162 A 
ATOM      4  C3  UNL d   1      -4.105   2.440  -5.920  0.00  0.00    -0.034 A 
ATOM      5  C4  UNL d   1      -2.895   1.744  -5.917  0.00  0.00     0.162 A 
ATOM      6  C5  UNL d   1      -1.689   2.434  -5.865  0.00  0.00     0.062 A 
ATOM      7  F   UNL d   1      -0.531   1.757  -5.862  0.00  0.00    -0.097 F 
ATOM      8  F1  UNL d   1      -2.876   0.403  -5.961  0.00  0.00    -0.096 F 
ATOM      9  I   UNL d   1      -5.913   1.410  -5.997  0.00  0.00    -0.060 I 
ATOM     10  F2  UNL d   1      -5.231   4.535  -5.876  0.00  0.00    -0.096 F 
ATOM     11  F3  UNL d   1      -2.871   5.860  -5.777  0.00  0.00    -0.097 F 
ATOM     12  F4  UNL d   1      -0.516   4.483  -5.769  0.00  0.00    -0.092 F 
ENDROOT
TORSDOF 0
ENDMDL
