MODEL 1
REMARK minimizedAffinity 7.7818141
REMARK minimizedRMSD -1
REMARK  0 active torsions:
REMARK  status: ('A' for Active; 'I' for Inactive)
ROOT
ATOM      1  C   UNL d   1       1.568  -2.289  -2.846  0.00  0.00     0.124 A 
ATOM      2  C1  UNL d   1       2.583  -2.211  -1.902  0.00  0.00     0.062 A 
ATOM      3  C2  UNL d   1       2.919  -0.985  -1.336  0.00  0.00     0.162 A 
ATOM      4  C3  UNL d   1       2.238   0.174  -1.711  0.00  0.00    -0.034 A 
ATOM      5  C4  UNL d   1       1.220   0.087  -2.661  0.00  0.00     0.162 A 
ATOM      6  C5  UNL d   1       0.888  -1.140  -3.225  0.00  0.00     0.062 A 
ATOM      7  F   UNL d   1      -0.093  -1.214  -4.136  0.00  0.00    -0.097 F 
ATOM      8  F1  UNL d   1       0.545   1.181  -3.045  0.00  0.00    -0.096 F 
ATOM      9  I   UNL d   1       2.738   2.009  -0.866  0.00  0.00    -0.060 I 
ATOM     10  F2  UNL d   1       3.904  -0.938  -0.426  0.00  0.00    -0.096 F 
ATOM     11  F3  UNL d   1       3.243  -3.319  -1.536  0.00  0.00    -0.097 F 
ATOM     12  F4  UNL d   1       1.248  -3.470  -3.390  0.00  0.00    -0.092 F 
ENDROOT
TORSDOF 0
ENDMDL
