MODEL 1
REMARK minimizedAffinity -1.89917409
REMARK minimizedRMSD -1
REMARK  0 active torsions:
REMARK  status: ('A' for Active; 'I' for Inactive)
ROOT
ATOM      1  C   UNL d   1      -0.416  -0.430   2.240  0.00  0.00     0.023 A 
ATOM      2  C1  UNL d   1      -1.473  -0.117   1.386  0.00  0.00     0.003 A 
ATOM      3  C2  UNL d   1      -1.275  -0.106   0.003  0.00  0.00     0.048 A 
ATOM      4  C3  UNL d   1      -0.019  -0.412  -0.518  0.00  0.00     0.023 A 
ATOM      5  C4  UNL d   1       1.042  -0.727   0.333  0.00  0.00     0.048 A 
ATOM      6  C5  UNL d   1       0.840  -0.735   1.715  0.00  0.00     0.003 A 
ATOM      7  I   UNL d   1       0.278  -0.398  -2.575  0.00  0.00    -0.146 I 
ENDROOT
TORSDOF 0
ENDMDL
