MODEL 1
REMARK minimizedAffinity -2.98540926
REMARK minimizedRMSD -1
REMARK  0 active torsions:
REMARK  status: ('A' for Active; 'I' for Inactive)
ROOT
ATOM      1  C   UNL d   1      -1.552   0.243   1.547  0.00  0.00     0.023 A 
ATOM      2  C1  UNL d   1      -0.272  -0.306   1.477  0.00  0.00     0.003 A 
ATOM      3  C2  UNL d   1       0.392  -0.379   0.250  0.00  0.00     0.048 A 
ATOM      4  C3  UNL d   1      -0.229   0.101  -0.902  0.00  0.00     0.023 A 
ATOM      5  C4  UNL d   1      -1.510   0.652  -0.836  0.00  0.00     0.048 A 
ATOM      6  C5  UNL d   1      -2.170   0.722   0.392  0.00  0.00     0.003 A 
ATOM      7  I   UNL d   1       0.757  -0.006  -2.728  0.00  0.00    -0.146 I 
ENDROOT
TORSDOF 0
ENDMDL
