MODEL 1
REMARK minimizedAffinity -2.73571706
REMARK minimizedRMSD -1
REMARK  0 active torsions:
REMARK  status: ('A' for Active; 'I' for Inactive)
ROOT
ATOM      1  C   UNL d   1      -1.326   0.129   0.875  0.00  0.00     0.023 A 
ATOM      2  C1  UNL d   1      -1.186   1.344   0.203  0.00  0.00     0.003 A 
ATOM      3  C2  UNL d   1      -0.466   1.404  -0.992  0.00  0.00     0.048 A 
ATOM      4  C3  UNL d   1       0.110   0.245  -1.510  0.00  0.00     0.023 A 
ATOM      5  C4  UNL d   1      -0.028  -0.973  -0.842  0.00  0.00     0.048 A 
ATOM      6  C5  UNL d   1      -0.748  -1.028   0.353  0.00  0.00     0.003 A 
ATOM      7  I   UNL d   1       1.182   0.331  -3.289  0.00  0.00    -0.146 I 
ENDROOT
TORSDOF 0
ENDMDL
