MODEL 1
REMARK minimizedAffinity 3.48432374
REMARK minimizedRMSD -1
REMARK  0 active torsions:
REMARK  status: ('A' for Active; 'I' for Inactive)
ROOT
ATOM      1  C   UNL d   1      -1.427  -0.341   1.063  0.00  0.00     0.023 A 
ATOM      2  C1  UNL d   1      -1.827  -0.854  -0.171  0.00  0.00     0.003 A 
ATOM      3  C2  UNL d   1      -1.039  -0.643  -1.304  0.00  0.00     0.048 A 
ATOM      4  C3  UNL d   1       0.148   0.081  -1.196  0.00  0.00     0.023 A 
ATOM      5  C4  UNL d   1       0.553   0.595   0.037  0.00  0.00     0.048 A 
ATOM      6  C5  UNL d   1      -0.239   0.382   1.167  0.00  0.00     0.003 A 
ATOM      7  I   UNL d   1       1.322   0.396  -2.882  0.00  0.00    -0.146 I 
ENDROOT
TORSDOF 0
ENDMDL
