MODEL 1
REMARK minimizedAffinity -1.61312723
REMARK minimizedRMSD -1
REMARK  0 active torsions:
REMARK  status: ('A' for Active; 'I' for Inactive)
ROOT
ATOM      1  C   UNL d   1       1.318   0.785  -4.021  0.00  0.00     0.023 A 
ATOM      2  C1  UNL d   1       0.964   1.801  -3.135  0.00  0.00     0.003 A 
ATOM      3  C2  UNL d   1       0.369   1.487  -1.911  0.00  0.00     0.048 A 
ATOM      4  C3  UNL d   1       0.133   0.153  -1.580  0.00  0.00     0.023 A 
ATOM      5  C4  UNL d   1       0.487  -0.868  -2.463  0.00  0.00     0.048 A 
ATOM      6  C5  UNL d   1       1.080  -0.548  -3.686  0.00  0.00     0.003 A 
ATOM      7  I   UNL d   1      -0.752  -0.318   0.241  0.00  0.00    -0.146 I 
ENDROOT
TORSDOF 0
ENDMDL
