MODEL 1
REMARK minimizedAffinity -2.10363626
REMARK minimizedRMSD -1
REMARK  0 active torsions:
REMARK  status: ('A' for Active; 'I' for Inactive)
ROOT
ATOM      1  C   UNL d   1      -0.577   0.185   3.345  0.00  0.00     0.023 A 
ATOM      2  C1  UNL d   1       0.677  -0.361   3.070  0.00  0.00     0.003 A 
ATOM      3  C2  UNL d   1       1.057  -0.610   1.749  0.00  0.00     0.048 A 
ATOM      4  C3  UNL d   1       0.178  -0.309   0.709  0.00  0.00     0.023 A 
ATOM      5  C4  UNL d   1      -1.077   0.238   0.980  0.00  0.00     0.048 A 
ATOM      6  C5  UNL d   1      -1.453   0.484   2.302  0.00  0.00     0.003 A 
ATOM      7  I   UNL d   1       0.741  -0.678  -1.257  0.00  0.00    -0.146 I 
ENDROOT
TORSDOF 0
ENDMDL
