MODEL 1
REMARK minimizedAffinity 0.36811462
REMARK minimizedRMSD -1
REMARK  1 active torsions:
REMARK  status: ('A' for Active; 'I' for Inactive)
REMARK    1  A    between atoms: C1_2  and  C2_3 
ROOT
ATOM      1  C2  UNL d   1       1.671  -4.244   4.482  0.00  0.00    -0.081 A 
ATOM      2  C3  UNL d   1       0.815  -3.136   4.470  0.00  0.00     0.006 A 
ATOM      3  C4  UNL d   1       1.124  -2.010   3.704  0.00  0.00     0.002 A 
ATOM      4  C5  UNL d   1       2.289  -1.976   2.931  0.00  0.00    -0.080 A 
ATOM      5  C6  UNL d   1       2.618  -0.785   2.080  0.00  0.00     0.076 C 
ATOM      6  C7  UNL d   1       3.153  -3.076   2.956  0.00  0.00     0.002 A 
ATOM      7  C8  UNL d   1       2.845  -4.202   3.722  0.00  0.00     0.006 A 
ENDROOT
BRANCH   1   8
ATOM      8  C1  UNL d   1       1.307  -5.485   5.256  0.00  0.00     0.054 C 
ATOM      9  C   UNL d   1      -0.009  -5.308   6.000  0.00  0.00     0.018 C 
ENDBRANCH   1   8
TORSDOF 1
ENDMDL
