MODEL 1
REMARK minimizedAffinity 9.05329704
REMARK minimizedRMSD -1
REMARK  1 active torsions:
REMARK  status: ('A' for Active; 'I' for Inactive)
REMARK    1  A    between atoms: C1_2  and  C2_3 
ROOT
ATOM      1  C2  UNL d   1      -2.663  -0.471  -2.482  0.00  0.00    -0.081 A 
ATOM      2  C3  UNL d   1      -1.991  -0.672  -1.270  0.00  0.00     0.006 A 
ATOM      3  C4  UNL d   1      -1.896   0.361  -0.334  0.00  0.00     0.002 A 
ATOM      4  C5  UNL d   1      -2.477   1.607  -0.590  0.00  0.00    -0.080 A 
ATOM      5  C6  UNL d   1      -2.408   2.714   0.420  0.00  0.00     0.076 C 
ATOM      6  C7  UNL d   1      -3.134   1.813  -1.808  0.00  0.00     0.002 A 
ATOM      7  C8  UNL d   1      -3.229   0.781  -2.745  0.00  0.00     0.006 A 
ENDROOT
BRANCH   1   8
ATOM      8  C1  UNL d   1      -2.824  -1.602  -3.466  0.00  0.00     0.054 C 
ATOM      9  C   UNL d   1      -3.581  -2.769  -2.848  0.00  0.00     0.018 C 
ENDBRANCH   1   8
TORSDOF 1
ENDMDL
