MODEL 1
REMARK minimizedAffinity 2.24032211
REMARK minimizedRMSD -1
REMARK  1 active torsions:
REMARK  status: ('A' for Active; 'I' for Inactive)
REMARK    1  A    between atoms: C1_2  and  C2_3 
ROOT
ATOM      1  C2  UNL d   1       1.495  -3.519   3.820  0.00  0.00    -0.081 A 
ATOM      2  C3  UNL d   1       0.793  -2.318   3.978  0.00  0.00     0.006 A 
ATOM      3  C4  UNL d   1       1.209  -1.161   3.315  0.00  0.00     0.002 A 
ATOM      4  C5  UNL d   1       2.329  -1.188   2.477  0.00  0.00    -0.080 A 
ATOM      5  C6  UNL d   1       2.769   0.040   1.735  0.00  0.00     0.076 C 
ATOM      6  C7  UNL d   1       3.042  -2.383   2.333  0.00  0.00     0.002 A 
ATOM      7  C8  UNL d   1       2.626  -3.540   2.997  0.00  0.00     0.006 A 
ENDROOT
BRANCH   1   8
ATOM      8  C1  UNL d   1       1.011  -4.783   4.483  0.00  0.00     0.054 C 
ATOM      9  C   UNL d   1       1.053  -4.664   6.000  0.00  0.00     0.018 C 
ENDBRANCH   1   8
TORSDOF 1
ENDMDL
