MODEL 1
REMARK minimizedAffinity 7.78715467
REMARK minimizedRMSD -1
REMARK  1 active torsions:
REMARK  status: ('A' for Active; 'I' for Inactive)
REMARK    1  A    between atoms: C1_2  and  C2_3 
ROOT
ATOM      1  C2  UNL d   1       1.818  -2.646   3.637  0.00  0.00    -0.081 A 
ATOM      2  C3  UNL d   1       1.648  -1.917   4.821  0.00  0.00     0.006 A 
ATOM      3  C4  UNL d   1       1.546  -0.524   4.787  0.00  0.00     0.002 A 
ATOM      4  C5  UNL d   1       1.606   0.162   3.570  0.00  0.00    -0.080 A 
ATOM      5  C6  UNL d   1       1.468   1.655   3.517  0.00  0.00     0.076 C 
ATOM      6  C7  UNL d   1       1.794  -0.564   2.389  0.00  0.00     0.002 A 
ATOM      7  C8  UNL d   1       1.896  -1.956   2.422  0.00  0.00     0.006 A 
ENDROOT
BRANCH   1   8
ATOM      8  C1  UNL d   1       1.863  -4.152   3.664  0.00  0.00     0.054 C 
ATOM      9  C   UNL d   1       2.439  -4.712   2.371  0.00  0.00     0.018 C 
ENDBRANCH   1   8
TORSDOF 1
ENDMDL
