MODEL 1
REMARK minimizedAffinity 2.61987543
REMARK minimizedRMSD -1
REMARK  1 active torsions:
REMARK  status: ('A' for Active; 'I' for Inactive)
REMARK    1  A    between atoms: C1_2  and  C2_3 
ROOT
ATOM      1  C2  UNL d   1       2.226  -4.420   4.753  0.00  0.00    -0.081 A 
ATOM      2  C3  UNL d   1       3.281  -3.508   4.881  0.00  0.00     0.006 A 
ATOM      3  C4  UNL d   1       3.298  -2.335   4.123  0.00  0.00     0.002 A 
ATOM      4  C5  UNL d   1       2.259  -2.050   3.232  0.00  0.00    -0.080 A 
ATOM      5  C6  UNL d   1       2.250  -0.779   2.435  0.00  0.00     0.076 C 
ATOM      6  C7  UNL d   1       1.213  -2.969   3.091  0.00  0.00     0.002 A 
ATOM      7  C8  UNL d   1       1.195  -4.142   3.847  0.00  0.00     0.006 A 
ENDROOT
BRANCH   1   8
ATOM      8  C1  UNL d   1       2.171  -5.655   5.615  0.00  0.00     0.054 C 
ATOM      9  C   UNL d   1       0.739  -5.998   6.000  0.00  0.00     0.018 C 
ENDBRANCH   1   8
TORSDOF 1
ENDMDL
