MODEL 1
REMARK minimizedAffinity 15.8150711
REMARK minimizedRMSD -1
REMARK  1 active torsions:
REMARK  status: ('A' for Active; 'I' for Inactive)
REMARK    1  A    between atoms: C1_2  and  C2_3 
ROOT
ATOM      1  C2  UNL d   1      -3.592   1.587  -2.830  0.00  0.00    -0.081 A 
ATOM      2  C3  UNL d   1      -3.101   2.345  -1.760  0.00  0.00     0.006 A 
ATOM      3  C4  UNL d   1      -3.871   3.370  -1.206  0.00  0.00     0.002 A 
ATOM      4  C5  UNL d   1      -5.146   3.650  -1.707  0.00  0.00    -0.080 A 
ATOM      5  C6  UNL d   1      -5.995   4.728  -1.102  0.00  0.00     0.076 C 
ATOM      6  C7  UNL d   1      -5.630   2.905  -2.788  0.00  0.00     0.002 A 
ATOM      7  C8  UNL d   1      -4.861   1.880  -3.342  0.00  0.00     0.006 A 
ENDROOT
BRANCH   1   8
ATOM      8  C1  UNL d   1      -2.791   0.438  -3.387  0.00  0.00     0.054 C 
ATOM      9  C   UNL d   1      -3.380  -0.901  -2.969  0.00  0.00     0.018 C 
ENDBRANCH   1   8
TORSDOF 1
ENDMDL
