MODEL 1
REMARK minimizedAffinity 19.0812988
REMARK minimizedRMSD -1
REMARK  1 active torsions:
REMARK  status: ('A' for Active; 'I' for Inactive)
REMARK    1  A    between atoms: C1_2  and  C2_3 
ROOT
ATOM      1  C2  UNL d   1       2.216   0.168   2.289  0.00  0.00    -0.081 A 
ATOM      2  C3  UNL d   1       2.323  -0.345   3.588  0.00  0.00     0.006 A 
ATOM      3  C4  UNL d   1       1.961  -1.666   3.860  0.00  0.00     0.002 A 
ATOM      4  C5  UNL d   1       1.494  -2.499   2.837  0.00  0.00    -0.080 A 
ATOM      5  C6  UNL d   1       1.131  -3.928   3.109  0.00  0.00     0.076 C 
ATOM      6  C7  UNL d   1       1.371  -1.982   1.543  0.00  0.00     0.002 A 
ATOM      7  C8  UNL d   1       1.732  -0.660   1.271  0.00  0.00     0.006 A 
ENDROOT
BRANCH   1   8
ATOM      8  C1  UNL d   1       2.667   1.573   1.980  0.00  0.00     0.054 C 
ATOM      9  C   UNL d   1       3.273   1.666   0.587  0.00  0.00     0.018 C 
ENDBRANCH   1   8
TORSDOF 1
ENDMDL
