MODEL 1
REMARK minimizedAffinity 0.933132112
REMARK minimizedRMSD -1
REMARK  1 active torsions:
REMARK  status: ('A' for Active; 'I' for Inactive)
REMARK    1  A    between atoms: N_2  and  C1_3 
ROOT
ATOM      1  C1  UNL d   1       3.120   5.817   4.792  0.00  0.00     0.143 A 
ATOM      2  C2  UNL d   1       4.505   5.984   4.700  0.00  0.00    -0.057 A 
ATOM      3  C3  UNL d   1       5.174   5.842   3.478  0.00  0.00     0.033 A 
ATOM      4  C4  UNL d   1       4.469   5.500   2.328  0.00  0.00    -0.042 A 
ATOM      5  C5  UNL d   1       3.095   5.304   2.401  0.00  0.00     0.033 A 
ATOM      6  C6  UNL d   1       2.432   5.454   3.623  0.00  0.00    -0.057 A 
ENDROOT
BRANCH   1   7
ATOM      7  N   UNL d   1       2.411   5.848   5.996  0.00  0.00    -0.732 N 
ATOM      8  C   UNL d   1       0.969   5.973   5.999  0.00  0.00     0.284 C 
ATOM      9  H3  UNL d   1       2.772   5.184   6.677  0.00  0.00     0.395 HD
ENDBRANCH   1   7
TORSDOF 1
ENDMDL
