MODEL 1
REMARK minimizedAffinity 2.832932
REMARK minimizedRMSD -1
REMARK  1 active torsions:
REMARK  status: ('A' for Active; 'I' for Inactive)
REMARK    1  A    between atoms: N_2  and  C1_3 
ROOT
ATOM      1  C1  UNL d   1      -0.642  -2.099   2.707  0.00  0.00     0.143 A 
ATOM      2  C2  UNL d   1       0.460  -2.960   2.690  0.00  0.00    -0.057 A 
ATOM      3  C3  UNL d   1       1.473  -2.824   1.733  0.00  0.00     0.033 A 
ATOM      4  C4  UNL d   1       1.387  -1.839   0.755  0.00  0.00    -0.042 A 
ATOM      5  C5  UNL d   1       0.288  -0.988   0.737  0.00  0.00     0.033 A 
ATOM      6  C6  UNL d   1      -0.717  -1.124   1.700  0.00  0.00    -0.057 A 
ENDROOT
BRANCH   1   7
ATOM      7  N   UNL d   1      -1.730  -2.244   3.571  0.00  0.00    -0.732 N 
ATOM      8  C   UNL d   1      -2.027  -3.526   4.173  0.00  0.00     0.284 C 
ATOM      9  H3  UNL d   1      -1.831  -1.454   4.205  0.00  0.00     0.395 HD
ENDBRANCH   1   7
TORSDOF 1
ENDMDL
