MODEL 1
REMARK minimizedAffinity -0.918140173
REMARK minimizedRMSD -1
REMARK  1 active torsions:
REMARK  status: ('A' for Active; 'I' for Inactive)
REMARK    1  A    between atoms: N_2  and  C1_3 
ROOT
ATOM      1  C1  UNL d   1      -0.032  -1.946   2.077  0.00  0.00     0.143 A 
ATOM      2  C2  UNL d   1      -1.002  -2.482   2.932  0.00  0.00    -0.057 A 
ATOM      3  C3  UNL d   1      -0.976  -3.831   3.305  0.00  0.00     0.033 A 
ATOM      4  C4  UNL d   1       0.007  -4.678   2.806  0.00  0.00    -0.042 A 
ATOM      5  C5  UNL d   1       0.967  -4.173   1.935  0.00  0.00     0.033 A 
ATOM      6  C6  UNL d   1       0.940  -2.824   1.571  0.00  0.00    -0.057 A 
ENDROOT
BRANCH   1   7
ATOM      7  N   UNL d   1      -0.061  -0.637   1.591  0.00  0.00    -0.732 N 
ATOM      8  C   UNL d   1      -1.292  -0.063   1.092  0.00  0.00     0.284 C 
ATOM      9  H3  UNL d   1       0.495  -0.000   2.158  0.00  0.00     0.395 HD
ENDBRANCH   1   7
TORSDOF 1
ENDMDL
