MODEL 1
REMARK minimizedAffinity -2.54130054
REMARK minimizedRMSD -1
REMARK  1 active torsions:
REMARK  status: ('A' for Active; 'I' for Inactive)
REMARK    1  A    between atoms: N_2  and  C1_3 
ROOT
ATOM      1  C1  UNL d   1       0.299  -2.049   1.804  0.00  0.00     0.143 A 
ATOM      2  C2  UNL d   1       0.089  -1.129   0.772  0.00  0.00    -0.057 A 
ATOM      3  C3  UNL d   1      -1.053  -0.320   0.742  0.00  0.00     0.033 A 
ATOM      4  C4  UNL d   1      -2.023  -0.438   1.732  0.00  0.00    -0.042 A 
ATOM      5  C5  UNL d   1      -1.847  -1.364   2.754  0.00  0.00     0.033 A 
ATOM      6  C6  UNL d   1      -0.701  -2.165   2.782  0.00  0.00    -0.057 A 
ENDROOT
BRANCH   1   7
ATOM      7  N   UNL d   1       1.366  -2.951   1.837  0.00  0.00    -0.732 N 
ATOM      8  C   UNL d   1       1.140  -4.350   2.128  0.00  0.00     0.284 C 
ATOM      9  H3  UNL d   1       2.038  -2.785   1.091  0.00  0.00     0.395 HD
ENDBRANCH   1   7
TORSDOF 1
ENDMDL
