MODEL 1
REMARK minimizedAffinity -3.29684949
REMARK minimizedRMSD -1
REMARK  1 active torsions:
REMARK  status: ('A' for Active; 'I' for Inactive)
REMARK    1  A    between atoms: N_2  and  C1_3 
ROOT
ATOM      1  C1  UNL d   1       0.547  -2.745   1.533  0.00  0.00     0.143 A 
ATOM      2  C2  UNL d   1      -0.747  -2.908   2.038  0.00  0.00    -0.057 A 
ATOM      3  C3  UNL d   1      -1.045  -3.917   2.961  0.00  0.00     0.033 A 
ATOM      4  C4  UNL d   1      -0.056  -4.803   3.375  0.00  0.00    -0.042 A 
ATOM      5  C5  UNL d   1       1.232  -4.676   2.868  0.00  0.00     0.033 A 
ATOM      6  C6  UNL d   1       1.525  -3.662   1.951  0.00  0.00    -0.057 A 
ENDROOT
BRANCH   1   7
ATOM      7  N   UNL d   1       0.884  -1.823   0.539  0.00  0.00    -0.732 N 
ATOM      8  C   UNL d   1      -0.114  -0.928  -0.005  0.00  0.00     0.284 C 
ATOM      9  H3  UNL d   1       1.788  -1.387   0.705  0.00  0.00     0.395 HD
ENDBRANCH   1   7
TORSDOF 1
ENDMDL
