MODEL 1
REMARK minimizedAffinity 3.6912694
REMARK minimizedRMSD -1
REMARK  1 active torsions:
REMARK  status: ('A' for Active; 'I' for Inactive)
REMARK    1  A    between atoms: N_2  and  C1_3 
ROOT
ATOM      1  C1  UNL d   1      -4.633   1.689  -4.297  0.00  0.00     0.143 A 
ATOM      2  C2  UNL d   1      -5.660   0.812  -3.932  0.00  0.00    -0.057 A 
ATOM      3  C3  UNL d   1      -5.818  -0.426  -4.566  0.00  0.00     0.033 A 
ATOM      4  C4  UNL d   1      -4.965  -0.799  -5.600  0.00  0.00    -0.042 A 
ATOM      5  C5  UNL d   1      -3.953   0.068  -5.997  0.00  0.00     0.033 A 
ATOM      6  C6  UNL d   1      -3.797   1.300  -5.356  0.00  0.00    -0.057 A 
ENDROOT
BRANCH   1   7
ATOM      7  N   UNL d   1      -4.485   2.975  -3.773  0.00  0.00    -0.732 N 
ATOM      8  C   UNL d   1      -3.288   3.342  -3.046  0.00  0.00     0.284 C 
ATOM      9  H3  UNL d   1      -4.823   3.695  -4.408  0.00  0.00     0.395 HD
ENDBRANCH   1   7
TORSDOF 1
ENDMDL
