MODEL 1
REMARK minimizedAffinity -2.1767869
REMARK minimizedRMSD -1
REMARK  1 active torsions:
REMARK  status: ('A' for Active; 'I' for Inactive)
REMARK    1  A    between atoms: N_2  and  C1_3 
ROOT
ATOM      1  C1  UNL d   1       0.904   3.054  -3.259  0.00  0.00     0.143 A 
ATOM      2  C2  UNL d   1       2.074   3.516  -2.647  0.00  0.00    -0.057 A 
ATOM      3  C3  UNL d   1       3.282   2.819  -2.770  0.00  0.00     0.033 A 
ATOM      4  C4  UNL d   1       3.335   1.628  -3.487  0.00  0.00    -0.042 A 
ATOM      5  C5  UNL d   1       2.179   1.137  -4.083  0.00  0.00     0.033 A 
ATOM      6  C6  UNL d   1       0.977   1.841  -3.962  0.00  0.00    -0.057 A 
ENDROOT
BRANCH   1   7
ATOM      7  N   UNL d   1      -0.349   3.649  -3.092  0.00  0.00    -0.732 N 
ATOM      8  C   UNL d   1      -1.449   2.902  -2.520  0.00  0.00     0.284 C 
ATOM      9  H3  UNL d   1      -0.282   4.609  -2.762  0.00  0.00     0.395 HD
ENDBRANCH   1   7
TORSDOF 1
ENDMDL
