MODEL 1
REMARK minimizedAffinity -1.33857858
REMARK minimizedRMSD -1
REMARK  1 active torsions:
REMARK  status: ('A' for Active; 'I' for Inactive)
REMARK    1  A    between atoms: N_2  and  C1_3 
ROOT
ATOM      1  C1  UNL d   1      -0.624   0.933  -0.877  0.00  0.00     0.143 A 
ATOM      2  C2  UNL d   1      -1.541  -0.077  -1.187  0.00  0.00    -0.057 A 
ATOM      3  C3  UNL d   1      -1.867  -1.072  -0.257  0.00  0.00     0.033 A 
ATOM      4  C4  UNL d   1      -1.258  -1.090   0.993  0.00  0.00    -0.042 A 
ATOM      5  C5  UNL d   1      -0.325  -0.111   1.314  0.00  0.00     0.033 A 
ATOM      6  C6  UNL d   1      -0.008   0.884   0.384  0.00  0.00    -0.057 A 
ENDROOT
BRANCH   1   7
ATOM      7  N   UNL d   1      -0.184   1.893  -1.793  0.00  0.00    -0.732 N 
ATOM      8  C   UNL d   1      -1.126   2.581  -2.649  0.00  0.00     0.284 C 
ATOM      9  H3  UNL d   1       0.543   2.492  -1.408  0.00  0.00     0.395 HD
ENDBRANCH   1   7
TORSDOF 1
ENDMDL
