MODEL 1
REMARK minimizedAffinity 1.71296036
REMARK minimizedRMSD -1
REMARK  1 active torsions:
REMARK  status: ('A' for Active; 'I' for Inactive)
REMARK    1  A    between atoms: N_2  and  C1_3 
ROOT
ATOM      1  C1  UNL d   1      -1.057  -1.433   2.165  0.00  0.00     0.143 A 
ATOM      2  C2  UNL d   1      -2.350  -1.106   1.742  0.00  0.00    -0.057 A 
ATOM      3  C3  UNL d   1      -2.575  -0.056   0.843  0.00  0.00     0.033 A 
ATOM      4  C4  UNL d   1      -1.511   0.705   0.372  0.00  0.00    -0.042 A 
ATOM      5  C5  UNL d   1      -0.220   0.414   0.799  0.00  0.00     0.033 A 
ATOM      6  C6  UNL d   1      -0.000  -0.640   1.692  0.00  0.00    -0.057 A 
ENDROOT
BRANCH   1   7
ATOM      7  N   UNL d   1      -0.777  -2.401   3.133  0.00  0.00    -0.732 N 
ATOM      8  C   UNL d   1      -1.755  -3.414   3.466  0.00  0.00     0.284 C 
ATOM      9  H3  UNL d   1       0.177  -2.749   3.070  0.00  0.00     0.395 HD
ENDBRANCH   1   7
TORSDOF 1
ENDMDL
