MODEL 1
REMARK minimizedAffinity -1.05448461
REMARK minimizedRMSD -1
REMARK  1 active torsions:
REMARK  status: ('A' for Active; 'I' for Inactive)
REMARK    1  A    between atoms: N_2  and  C1_3 
ROOT
ATOM      1  C1  UNL d   1       0.058   1.020  -1.197  0.00  0.00     0.143 A 
ATOM      2  C2  UNL d   1       1.385   0.799  -1.578  0.00  0.00    -0.057 A 
ATOM      3  C3  UNL d   1       2.046   1.672  -2.451  0.00  0.00     0.033 A 
ATOM      4  C4  UNL d   1       1.379   2.771  -2.982  0.00  0.00    -0.042 A 
ATOM      5  C5  UNL d   1       0.051   2.997  -2.637  0.00  0.00     0.033 A 
ATOM      6  C6  UNL d   1      -0.601   2.125  -1.760  0.00  0.00    -0.057 A 
ENDROOT
BRANCH   1   7
ATOM      7  N   UNL d   1      -0.684   0.135  -0.412  0.00  0.00    -0.732 N 
ATOM      8  C   UNL d   1      -0.302  -1.257  -0.308  0.00  0.00     0.284 C 
ATOM      9  H3  UNL d   1      -0.980   0.551   0.468  0.00  0.00     0.395 HD
ENDBRANCH   1   7
TORSDOF 1
ENDMDL
