MODEL 1
REMARK minimizedAffinity 2.60490799
REMARK minimizedRMSD -1
REMARK  0 active torsions:
REMARK  status: ('A' for Active; 'I' for Inactive)
ROOT
ATOM      1  C1  BNZ d   1      -0.319   1.458   0.202  0.00  0.00     0.000 A 
ATOM      2  C2  BNZ d   1       0.152   1.577  -1.078  0.00  0.00     0.000 A 
ATOM      3  C3  BNZ d   1       0.602   0.483  -1.763  0.00  0.00     0.000 A 
ATOM      4  C4  BNZ d   1       0.618  -0.720  -1.154  0.00  0.00     0.000 A 
ATOM      5  C5  BNZ d   1       0.155  -0.854   0.140  0.00  0.00     0.000 A 
ATOM      6  C6  BNZ d   1      -0.334   0.242   0.812  0.00  0.00     0.000 A 
ENDROOT
TORSDOF 0
ENDMDL
