MODEL 1
REMARK minimizedAffinity -2.8274982
REMARK minimizedRMSD -1
REMARK  0 active torsions:
REMARK  status: ('A' for Active; 'I' for Inactive)
ROOT
ATOM      1  C1  BNZ d   1       0.023  -1.227  -0.317  0.00  0.00     0.000 A 
ATOM      2  C2  BNZ d   1       0.443  -0.358  -1.289  0.00  0.00     0.000 A 
ATOM      3  C3  BNZ d   1       0.092   0.963  -1.246  0.00  0.00     0.000 A 
ATOM      4  C4  BNZ d   1      -0.710   1.404  -0.255  0.00  0.00     0.000 A 
ATOM      5  C5  BNZ d   1      -1.149   0.538   0.726  0.00  0.00     0.000 A 
ATOM      6  C6  BNZ d   1      -0.762  -0.782   0.701  0.00  0.00     0.000 A 
ENDROOT
TORSDOF 0
ENDMDL
