MODEL 1
REMARK minimizedAffinity 0.0213685092
REMARK minimizedRMSD -1
REMARK  0 active torsions:
REMARK  status: ('A' for Active; 'I' for Inactive)
ROOT
ATOM      1  C1  BNZ d   1       1.306   0.490  -2.288  0.00  0.00     0.000 A 
ATOM      2  C2  BNZ d   1       0.044   0.275  -1.805  0.00  0.00     0.000 A 
ATOM      3  C3  BNZ d   1      -0.299   0.671  -0.542  0.00  0.00     0.000 A 
ATOM      4  C4  BNZ d   1       0.631   1.244   0.249  0.00  0.00     0.000 A 
ATOM      5  C5  BNZ d   1       1.911   1.459  -0.221  0.00  0.00     0.000 A 
ATOM      6  C6  BNZ d   1       2.242   1.095  -1.506  0.00  0.00     0.000 A 
ENDROOT
TORSDOF 0
ENDMDL
