MODEL 1
REMARK minimizedAffinity 1.18831992
REMARK minimizedRMSD -1
REMARK  0 active torsions:
REMARK  status: ('A' for Active; 'I' for Inactive)
ROOT
ATOM      1  C1  BNZ d   1       3.054   3.644   1.555  0.00  0.00     0.000 A 
ATOM      2  C2  BNZ d   1       4.032   3.441   0.618  0.00  0.00     0.000 A 
ATOM      3  C3  BNZ d   1       3.875   2.508  -0.367  0.00  0.00     0.000 A 
ATOM      4  C4  BNZ d   1       2.758   1.751  -0.391  0.00  0.00     0.000 A 
ATOM      5  C5  BNZ d   1       1.767   1.937   0.552  0.00  0.00     0.000 A 
ATOM      6  C6  BNZ d   1       1.913   2.905   1.519  0.00  0.00     0.000 A 
ENDROOT
TORSDOF 0
ENDMDL
