MODEL 1
REMARK minimizedAffinity 1.16232681
REMARK minimizedRMSD -1
REMARK  0 active torsions:
REMARK  status: ('A' for Active; 'I' for Inactive)
ROOT
ATOM      1  C1  BNZ d   1      -1.391  -1.372   0.351  0.00  0.00     0.000 A 
ATOM      2  C2  BNZ d   1      -1.000  -0.075   0.150  0.00  0.00     0.000 A 
ATOM      3  C3  BNZ d   1      -0.898   0.796   1.198  0.00  0.00     0.000 A 
ATOM      4  C4  BNZ d   1      -1.225   0.381   2.439  0.00  0.00     0.000 A 
ATOM      5  C5  BNZ d   1      -1.630  -0.921   2.657  0.00  0.00     0.000 A 
ATOM      6  C6  BNZ d   1      -1.694  -1.806   1.605  0.00  0.00     0.000 A 
ENDROOT
TORSDOF 0
ENDMDL
