MODEL 1
REMARK minimizedAffinity 2.04217577
REMARK minimizedRMSD -1
REMARK  0 active torsions:
REMARK  status: ('A' for Active; 'I' for Inactive)
ROOT
ATOM      1  C1  BNZ d   1      -0.585   0.250  -1.214  0.00  0.00     0.000 A 
ATOM      2  C2  BNZ d   1       0.477   0.085  -2.062  0.00  0.00     0.000 A 
ATOM      3  C3  BNZ d   1       1.706   0.596  -1.753  0.00  0.00     0.000 A 
ATOM      4  C4  BNZ d   1       1.863   1.305  -0.617  0.00  0.00     0.000 A 
ATOM      5  C5  BNZ d   1       0.799   1.489   0.244  0.00  0.00     0.000 A 
ATOM      6  C6  BNZ d   1      -0.427   0.940  -0.051  0.00  0.00     0.000 A 
ENDROOT
TORSDOF 0
ENDMDL
