MODEL 1
REMARK minimizedAffinity -0.508609235
REMARK minimizedRMSD -1
REMARK  0 active torsions:
REMARK  status: ('A' for Active; 'I' for Inactive)
ROOT
ATOM      1  C1  BNZ d   1      -1.304  -0.701   1.569  0.00  0.00     0.000 A 
ATOM      2  C2  BNZ d   1      -1.474  -2.055   1.678  0.00  0.00     0.000 A 
ATOM      3  C3  BNZ d   1      -1.007  -2.900   0.710  0.00  0.00     0.000 A 
ATOM      4  C4  BNZ d   1      -0.407  -2.388  -0.383  0.00  0.00     0.000 A 
ATOM      5  C5  BNZ d   1      -0.235  -1.024  -0.513  0.00  0.00     0.000 A 
ATOM      6  C6  BNZ d   1      -0.672  -0.179   0.482  0.00  0.00     0.000 A 
ENDROOT
TORSDOF 0
ENDMDL
