MODEL 1
REMARK minimizedAffinity -4.896667
REMARK minimizedRMSD -1
REMARK  0 active torsions:
REMARK  status: ('A' for Active; 'I' for Inactive)
ROOT
ATOM      1  C1  BNZ d   1      -1.030  -0.110   1.115  0.00  0.00     0.000 A 
ATOM      2  C2  BNZ d   1      -0.913  -1.473   1.048  0.00  0.00     0.000 A 
ATOM      3  C3  BNZ d   1      -0.180  -2.064   0.057  0.00  0.00     0.000 A 
ATOM      4  C4  BNZ d   1       0.399  -1.296  -0.888  0.00  0.00     0.000 A 
ATOM      5  C5  BNZ d   1       0.282   0.079  -0.839  0.00  0.00     0.000 A 
ATOM      6  C6  BNZ d   1      -0.423   0.673   0.182  0.00  0.00     0.000 A 
ENDROOT
TORSDOF 0
ENDMDL
