MODEL 1
REMARK minimizedAffinity -3.05118871
REMARK minimizedRMSD -1
REMARK  0 active torsions:
REMARK  status: ('A' for Active; 'I' for Inactive)
ROOT
ATOM      1  C1  BNZ d   1       6.000  -1.652   4.858  0.00  0.00     0.000 A 
ATOM      2  C2  BNZ d   1       5.258  -1.812   5.997  0.00  0.00     0.000 A 
ATOM      3  C3  BNZ d   1       4.141  -2.601   6.000  0.00  0.00     0.000 A 
ATOM      4  C4  BNZ d   1       3.747  -3.196   4.856  0.00  0.00     0.000 A 
ATOM      5  C5  BNZ d   1       4.479  -3.036   3.696  0.00  0.00     0.000 A 
ATOM      6  C6  BNZ d   1       5.624  -2.272   3.706  0.00  0.00     0.000 A 
ENDROOT
TORSDOF 0
ENDMDL
