MODEL 1
REMARK minimizedAffinity -3.58503056
REMARK minimizedRMSD -1
REMARK  0 active torsions:
REMARK  status: ('A' for Active; 'I' for Inactive)
ROOT
ATOM      1  C1  BNZ d   1      -1.694  -0.269   0.394  0.00  0.00     0.000 A 
ATOM      2  C2  BNZ d   1      -1.353  -1.508   0.867  0.00  0.00     0.000 A 
ATOM      3  C3  BNZ d   1      -0.126  -2.047   0.597  0.00  0.00     0.000 A 
ATOM      4  C4  BNZ d   1       0.742  -1.365  -0.178  0.00  0.00     0.000 A 
ATOM      5  C5  BNZ d   1       0.409  -0.119  -0.671  0.00  0.00     0.000 A 
ATOM      6  C6  BNZ d   1      -0.812   0.437  -0.364  0.00  0.00     0.000 A 
ENDROOT
TORSDOF 0
ENDMDL
