MODEL 1
REMARK minimizedAffinity -4.96962452
REMARK minimizedRMSD -1
REMARK  0 active torsions:
REMARK  status: ('A' for Active; 'I' for Inactive)
ROOT
ATOM      1  C1  BNZ d   1      -0.190  -0.177   0.048  0.00  0.00     0.000 A 
ATOM      2  C2  BNZ d   1       0.468  -0.988  -0.838  0.00  0.00     0.000 A 
ATOM      3  C3  BNZ d   1       0.366  -2.348  -0.750  0.00  0.00     0.000 A 
ATOM      4  C4  BNZ d   1      -0.359  -2.896   0.246  0.00  0.00     0.000 A 
ATOM      5  C5  BNZ d   1      -1.020  -2.092   1.153  0.00  0.00     0.000 A 
ATOM      6  C6  BNZ d   1      -0.948  -0.722   1.038  0.00  0.00     0.000 A 
ENDROOT
TORSDOF 0
ENDMDL
