MODEL 1
REMARK minimizedAffinity 1.45060492
REMARK minimizedRMSD -1
REMARK  0 active torsions:
REMARK  status: ('A' for Active; 'I' for Inactive)
ROOT
ATOM      1  C1  BNZ d   1       3.975  -1.918   6.000  0.00  0.00     0.000 A 
ATOM      2  C2  BNZ d   1       3.984  -3.273   5.799  0.00  0.00     0.000 A 
ATOM      3  C3  BNZ d   1       5.008  -3.873   5.121  0.00  0.00     0.000 A 
ATOM      4  C4  BNZ d   1       6.000  -3.115   4.611  0.00  0.00     0.000 A 
ATOM      5  C5  BNZ d   1       6.000  -1.747   4.796  0.00  0.00     0.000 A 
ATOM      6  C6  BNZ d   1       4.988  -1.150   5.513  0.00  0.00     0.000 A 
ENDROOT
TORSDOF 0
ENDMDL
