MODEL 1
REMARK minimizedAffinity -4.43618298
REMARK minimizedRMSD -1
REMARK  0 active torsions:
REMARK  status: ('A' for Active; 'I' for Inactive)
ROOT
ATOM      1  C1  BNZ d   1      -0.046  -4.219  -0.389  0.00  0.00     0.000 A 
ATOM      2  C2  BNZ d   1       0.148  -3.549   0.789  0.00  0.00     0.000 A 
ATOM      3  C3  BNZ d   1       0.086  -2.185   0.838  0.00  0.00     0.000 A 
ATOM      4  C4  BNZ d   1      -0.132  -1.490  -0.298  0.00  0.00     0.000 A 
ATOM      5  C5  BNZ d   1      -0.320  -2.151  -1.496  0.00  0.00     0.000 A 
ATOM      6  C6  BNZ d   1      -0.295  -3.526  -1.534  0.00  0.00     0.000 A 
ENDROOT
TORSDOF 0
ENDMDL
