MODEL 1
REMARK minimizedAffinity -3.94129467
REMARK minimizedRMSD -1
REMARK  0 active torsions:
REMARK  status: ('A' for Active; 'I' for Inactive)
ROOT
ATOM      1  C1  BNZ d   1       0.870  -1.678  -0.444  0.00  0.00     0.000 A 
ATOM      2  C2  BNZ d   1      -0.305  -0.984  -0.338  0.00  0.00     0.000 A 
ATOM      3  C3  BNZ d   1      -1.428  -1.579   0.165  0.00  0.00     0.000 A 
ATOM      4  C4  BNZ d   1      -1.384  -2.879   0.525  0.00  0.00     0.000 A 
ATOM      5  C5  BNZ d   1      -0.209  -3.595   0.415  0.00  0.00     0.000 A 
ATOM      6  C6  BNZ d   1       0.929  -2.981  -0.055  0.00  0.00     0.000 A 
ENDROOT
TORSDOF 0
ENDMDL
