MODEL 1
REMARK minimizedAffinity -5.21263933
REMARK minimizedRMSD -1
REMARK  1 active torsions:
REMARK  status: ('A' for Active; 'I' for Inactive)
REMARK    1  A    between atoms: N_2  and  C1_3 
ROOT
ATOM      1  C1  UNL d   1      -0.441  -0.145  -0.029  0.00  0.00     0.143 A 
ATOM      2  C2  UNL d   1      -1.586  -0.041   0.769  0.00  0.00    -0.057 A 
ATOM      3  C3  UNL d   1      -1.524  -0.234   2.155  0.00  0.00     0.033 A 
ATOM      4  C4  UNL d   1      -0.319  -0.563   2.764  0.00  0.00    -0.042 A 
ATOM      5  C5  UNL d   1       0.827  -0.697   1.988  0.00  0.00     0.033 A 
ATOM      6  C6  UNL d   1       0.761  -0.496   0.605  0.00  0.00    -0.057 A 
ENDROOT
BRANCH   1   7
ATOM      7  N   UNL d   1      -0.455  -0.061  -1.424  0.00  0.00    -0.732 N 
ATOM      8  C   UNL d   1      -0.959   1.122  -2.086  0.00  0.00     0.284 C 
ATOM      9  H3  UNL d   1       0.387  -0.446  -1.844  0.00  0.00     0.395 HD
ENDBRANCH   1   7
TORSDOF 1
ENDMDL
