MODEL 1
REMARK minimizedAffinity -5.81976604
REMARK minimizedRMSD -1
REMARK  1 active torsions:
REMARK  status: ('A' for Active; 'I' for Inactive)
REMARK    1  A    between atoms: N_2  and  C1_3 
ROOT
ATOM      1  C1  UNL d   1       1.186  -0.903   0.021  0.00  0.00     0.143 A 
ATOM      2  C2  UNL d   1       0.670  -0.542   1.270  0.00  0.00    -0.057 A 
ATOM      3  C3  UNL d   1       1.334  -0.881   2.455  0.00  0.00     0.033 A 
ATOM      4  C4  UNL d   1       2.515  -1.615   2.413  0.00  0.00    -0.042 A 
ATOM      5  C5  UNL d   1       3.033  -2.007   1.183  0.00  0.00     0.033 A 
ATOM      6  C6  UNL d   1       2.369  -1.659   0.003  0.00  0.00    -0.057 A 
ENDROOT
BRANCH   1   7
ATOM      7  N   UNL d   1       0.523  -0.680  -1.188  0.00  0.00    -0.732 N 
ATOM      8  C   UNL d   1      -0.769  -0.027  -1.211  0.00  0.00     0.284 C 
ATOM      9  H3  UNL d   1       1.154  -0.380  -1.928  0.00  0.00     0.395 HD
ENDBRANCH   1   7
TORSDOF 1
ENDMDL
