MODEL 1
REMARK minimizedAffinity -4.73990011
REMARK minimizedRMSD -1
REMARK  1 active torsions:
REMARK  status: ('A' for Active; 'I' for Inactive)
REMARK    1  A    between atoms: N_2  and  C1_3 
ROOT
ATOM      1  C1  UNL d   1       0.806  -0.241   0.105  0.00  0.00     0.143 A 
ATOM      2  C2  UNL d   1       0.675  -0.234   1.497  0.00  0.00    -0.057 A 
ATOM      3  C3  UNL d   1       1.504  -1.020   2.308  0.00  0.00     0.033 A 
ATOM      4  C4  UNL d   1       2.462  -1.850   1.736  0.00  0.00    -0.042 A 
ATOM      5  C5  UNL d   1       2.592  -1.892   0.352  0.00  0.00     0.033 A 
ATOM      6  C6  UNL d   1       1.766  -1.100  -0.451  0.00  0.00    -0.057 A 
ENDROOT
BRANCH   1   7
ATOM      7  N   UNL d   1      -0.053   0.442  -0.760  0.00  0.00    -0.732 N 
ATOM      8  C   UNL d   1      -1.388  -0.053  -1.017  0.00  0.00     0.284 C 
ATOM      9  H3  UNL d   1       0.001   1.452  -0.644  0.00  0.00     0.395 HD
ENDBRANCH   1   7
TORSDOF 1
ENDMDL
