MODEL 1
REMARK minimizedAffinity -4.06365347
REMARK minimizedRMSD -1
REMARK  1 active torsions:
REMARK  status: ('A' for Active; 'I' for Inactive)
REMARK    1  A    between atoms: N_2  and  C1_3 
ROOT
ATOM      1  C1  UNL d   1      -2.397   2.434  -1.933  0.00  0.00     0.143 A 
ATOM      2  C2  UNL d   1      -2.201   1.150  -1.414  0.00  0.00    -0.057 A 
ATOM      3  C3  UNL d   1      -1.054   0.410  -1.723  0.00  0.00     0.033 A 
ATOM      4  C4  UNL d   1      -0.092   0.931  -2.582  0.00  0.00    -0.042 A 
ATOM      5  C5  UNL d   1      -0.278   2.196  -3.130  0.00  0.00     0.033 A 
ATOM      6  C6  UNL d   1      -1.423   2.933  -2.813  0.00  0.00    -0.057 A 
ENDROOT
BRANCH   1   7
ATOM      7  N   UNL d   1      -3.563   3.181  -1.743  0.00  0.00    -0.732 N 
ATOM      8  C   UNL d   1      -4.856   2.630  -2.090  0.00  0.00     0.284 C 
ATOM      9  H3  UNL d   1      -3.553   3.699  -0.867  0.00  0.00     0.395 HD
ENDBRANCH   1   7
TORSDOF 1
ENDMDL
