MODEL 1
REMARK minimizedAffinity -4.18570757
REMARK minimizedRMSD -1
REMARK  1 active torsions:
REMARK  status: ('A' for Active; 'I' for Inactive)
REMARK    1  A    between atoms: N_2  and  C1_3 
ROOT
ATOM      1  C1  UNL d   1      -0.250   0.155  -0.093  0.00  0.00     0.143 A 
ATOM      2  C2  UNL d   1      -1.034  -0.097   1.038  0.00  0.00    -0.057 A 
ATOM      3  C3  UNL d   1      -0.450  -0.386   2.277  0.00  0.00     0.033 A 
ATOM      4  C4  UNL d   1       0.934  -0.456   2.401  0.00  0.00    -0.042 A 
ATOM      5  C5  UNL d   1       1.733  -0.233   1.285  0.00  0.00     0.033 A 
ATOM      6  C6  UNL d   1       1.143   0.061   0.051  0.00  0.00    -0.057 A 
ENDROOT
BRANCH   1   7
ATOM      7  N   UNL d   1      -0.772   0.351  -1.374  0.00  0.00    -0.732 N 
ATOM      8  C   UNL d   1      -0.407   1.517  -2.149  0.00  0.00     0.284 C 
ATOM      9  H3  UNL d   1      -0.812  -0.511  -1.913  0.00  0.00     0.395 HD
ENDBRANCH   1   7
TORSDOF 1
ENDMDL
