MODEL 1
REMARK minimizedAffinity -3.45649529
REMARK minimizedRMSD -1
REMARK  1 active torsions:
REMARK  status: ('A' for Active; 'I' for Inactive)
REMARK    1  A    between atoms: N_2  and  C1_3 
ROOT
ATOM      1  C1  UNL d   1      -1.758  -0.437  -0.875  0.00  0.00     0.143 A 
ATOM      2  C2  UNL d   1      -2.313  -0.705   0.380  0.00  0.00    -0.057 A 
ATOM      3  C3  UNL d   1      -1.503  -0.955   1.494  0.00  0.00     0.033 A 
ATOM      4  C4  UNL d   1      -0.118  -0.970   1.365  0.00  0.00    -0.042 A 
ATOM      5  C5  UNL d   1       0.455  -0.731   0.121  0.00  0.00     0.033 A 
ATOM      6  C6  UNL d   1      -0.360  -0.475  -0.986  0.00  0.00    -0.057 A 
ENDROOT
BRANCH   1   7
ATOM      7  N   UNL d   1      -2.512  -0.278  -2.041  0.00  0.00    -0.732 N 
ATOM      8  C   UNL d   1      -3.311   0.911  -2.246  0.00  0.00     0.284 C 
ATOM      9  H3  UNL d   1      -2.014  -0.592  -2.871  0.00  0.00     0.395 HD
ENDBRANCH   1   7
TORSDOF 1
ENDMDL
