MODEL 1
REMARK minimizedAffinity -2.19320297
REMARK minimizedRMSD -1
REMARK  0 active torsions:
REMARK  status: ('A' for Active; 'I' for Inactive)
ROOT
ATOM      1  C1  BNZ d   1       3.000  -1.114  -0.713  0.00  0.00     0.000 A 
ATOM      2  C2  BNZ d   1       3.802  -0.008  -0.619  0.00  0.00     0.000 A 
ATOM      3  C3  BNZ d   1       3.270   1.222  -0.352  0.00  0.00     0.000 A 
ATOM      4  C4  BNZ d   1       1.935   1.352  -0.218  0.00  0.00     0.000 A 
ATOM      5  C5  BNZ d   1       1.111   0.248  -0.319  0.00  0.00     0.000 A 
ATOM      6  C6  BNZ d   1       1.654  -0.995  -0.550  0.00  0.00     0.000 A 
ENDROOT
TORSDOF 0
ENDMDL
