MODEL 1
REMARK minimizedAffinity -4.88093567
REMARK minimizedRMSD -1
REMARK  0 active torsions:
REMARK  status: ('A' for Active; 'I' for Inactive)
ROOT
ATOM      1  C1  BNZ d   1       1.745   1.291   0.465  0.00  0.00     0.000 A 
ATOM      2  C2  BNZ d   1       3.083   1.028   0.349  0.00  0.00     0.000 A 
ATOM      3  C3  BNZ d   1       3.570  -0.232   0.564  0.00  0.00     0.000 A 
ATOM      4  C4  BNZ d   1       2.724  -1.215   0.934  0.00  0.00     0.000 A 
ATOM      5  C5  BNZ d   1       1.373  -0.963   1.064  0.00  0.00     0.000 A 
ATOM      6  C6  BNZ d   1       0.882   0.297   0.809  0.00  0.00     0.000 A 
ENDROOT
TORSDOF 0
ENDMDL
