MODEL 1
REMARK minimizedAffinity -3.07009196
REMARK minimizedRMSD -1
REMARK  0 active torsions:
REMARK  status: ('A' for Active; 'I' for Inactive)
ROOT
ATOM      1  C1  BNZ d   1       1.645   0.112   0.425  0.00  0.00     0.000 A 
ATOM      2  C2  BNZ d   1       0.410  -0.353   0.058  0.00  0.00     0.000 A 
ATOM      3  C3  BNZ d   1      -0.469   0.449  -0.615  0.00  0.00     0.000 A 
ATOM      4  C4  BNZ d   1      -0.128   1.726  -0.884  0.00  0.00     0.000 A 
ATOM      5  C5  BNZ d   1       1.110   2.212  -0.513  0.00  0.00     0.000 A 
ATOM      6  C6  BNZ d   1       2.007   1.390   0.129  0.00  0.00     0.000 A 
ENDROOT
TORSDOF 0
ENDMDL
