MODEL 1
REMARK minimizedAffinity -4.66590786
REMARK minimizedRMSD -1
REMARK  0 active torsions:
REMARK  status: ('A' for Active; 'I' for Inactive)
ROOT
ATOM      1  C1  BNZ d   1       2.332   0.183  -0.107  0.00  0.00     0.000 A 
ATOM      2  C2  BNZ d   1       1.032   0.602  -0.204  0.00  0.00     0.000 A 
ATOM      3  C3  BNZ d   1       0.012  -0.302  -0.315  0.00  0.00     0.000 A 
ATOM      4  C4  BNZ d   1       0.296  -1.619  -0.371  0.00  0.00     0.000 A 
ATOM      5  C5  BNZ d   1       1.603  -2.056  -0.284  0.00  0.00     0.000 A 
ATOM      6  C6  BNZ d   1       2.624  -1.146  -0.133  0.00  0.00     0.000 A 
ENDROOT
TORSDOF 0
ENDMDL
