MODEL 1
REMARK minimizedAffinity 5.43439341
REMARK minimizedRMSD -1
REMARK  0 active torsions:
REMARK  status: ('A' for Active; 'I' for Inactive)
ROOT
ATOM      1  C   UNL d   1       0.889   0.020   0.123  0.00  0.00     0.023 A 
ATOM      2  C1  UNL d   1       0.223  -1.184  -0.105  0.00  0.00     0.003 A 
ATOM      3  C2  UNL d   1      -1.155  -1.188  -0.331  0.00  0.00     0.048 A 
ATOM      4  C3  UNL d   1      -1.860   0.015  -0.330  0.00  0.00     0.023 A 
ATOM      5  C4  UNL d   1      -1.197   1.222  -0.104  0.00  0.00     0.048 A 
ATOM      6  C5  UNL d   1       0.180   1.222   0.123  0.00  0.00     0.003 A 
ATOM      7  I   UNL d   1      -3.911   0.010  -0.667  0.00  0.00    -0.146 I 
ENDROOT
TORSDOF 0
ENDMDL
