MODEL 1
REMARK minimizedAffinity 2.61257434
REMARK minimizedRMSD -1
REMARK  0 active torsions:
REMARK  status: ('A' for Active; 'I' for Inactive)
ROOT
ATOM      1  C   UNL d   1       1.263  -2.482  -1.266  0.00  0.00     0.023 A 
ATOM      2  C1  UNL d   1       2.296  -1.807  -0.616  0.00  0.00     0.003 A 
ATOM      3  C2  UNL d   1       2.048  -0.580   0.003  0.00  0.00     0.048 A 
ATOM      4  C3  UNL d   1       0.765  -0.035  -0.030  0.00  0.00     0.023 A 
ATOM      5  C4  UNL d   1      -0.272  -0.708  -0.678  0.00  0.00     0.048 A 
ATOM      6  C5  UNL d   1      -0.019  -1.933  -1.297  0.00  0.00     0.003 A 
ATOM      7  I   UNL d   1       0.395   1.791   0.892  0.00  0.00    -0.146 I 
ENDROOT
TORSDOF 0
ENDMDL
