MODEL 1
REMARK minimizedAffinity 10.3418951
REMARK minimizedRMSD -1
REMARK  0 active torsions:
REMARK  status: ('A' for Active; 'I' for Inactive)
ROOT
ATOM      1  C   UNL d   1      -5.140   0.727   1.066  0.00  0.00     0.023 A 
ATOM      2  C1  UNL d   1      -5.161   0.084  -0.171  0.00  0.00     0.003 A 
ATOM      3  C2  UNL d   1      -3.992  -0.481  -0.686  0.00  0.00     0.048 A 
ATOM      4  C3  UNL d   1      -2.806  -0.399   0.042  0.00  0.00     0.023 A 
ATOM      5  C4  UNL d   1      -2.780   0.243   1.281  0.00  0.00     0.048 A 
ATOM      6  C5  UNL d   1      -3.951   0.807   1.791  0.00  0.00     0.003 A 
ATOM      7  I   UNL d   1      -1.065  -1.239  -0.722  0.00  0.00    -0.146 I 
ENDROOT
TORSDOF 0
ENDMDL
