MODEL 1
REMARK minimizedAffinity 5.91167164
REMARK minimizedRMSD -1
REMARK  0 active torsions:
REMARK  status: ('A' for Active; 'I' for Inactive)
ROOT
ATOM      1  C   UNL d   1      -0.012  -2.491  -0.582  0.00  0.00     0.023 A 
ATOM      2  C1  UNL d   1       1.274  -3.028  -0.659  0.00  0.00     0.003 A 
ATOM      3  C2  UNL d   1       2.381  -2.181  -0.743  0.00  0.00     0.048 A 
ATOM      4  C3  UNL d   1       2.196  -0.799  -0.749  0.00  0.00     0.023 A 
ATOM      5  C4  UNL d   1       0.912  -0.258  -0.672  0.00  0.00     0.048 A 
ATOM      6  C5  UNL d   1      -0.192  -1.108  -0.589  0.00  0.00     0.003 A 
ATOM      7  I   UNL d   1       3.843   0.463  -0.874  0.00  0.00    -0.146 I 
ENDROOT
TORSDOF 0
ENDMDL
