MODEL 1
REMARK minimizedAffinity 3.82028913
REMARK minimizedRMSD -1
REMARK  0 active torsions:
REMARK  status: ('A' for Active; 'I' for Inactive)
ROOT
ATOM      1  C   UNL d   1       4.025   0.431  -0.646  0.00  0.00     0.023 A 
ATOM      2  C1  UNL d   1       2.939   1.058  -0.034  0.00  0.00     0.003 A 
ATOM      3  C2  UNL d   1       1.737   0.369   0.134  0.00  0.00     0.048 A 
ATOM      4  C3  UNL d   1       1.627  -0.948  -0.311  0.00  0.00     0.023 A 
ATOM      5  C4  UNL d   1       2.711  -1.580  -0.923  0.00  0.00     0.048 A 
ATOM      6  C5  UNL d   1       3.910  -0.887  -1.090  0.00  0.00     0.003 A 
ATOM      7  I   UNL d   1      -0.162  -1.977  -0.060  0.00  0.00    -0.146 I 
ENDROOT
TORSDOF 0
ENDMDL
