MODEL 1
REMARK minimizedAffinity 5.69719934
REMARK minimizedRMSD -1
REMARK  0 active torsions:
REMARK  status: ('A' for Active; 'I' for Inactive)
ROOT
ATOM      1  C   UNL d   1       4.464  -0.401  -1.868  0.00  0.00     0.023 A 
ATOM      2  C1  UNL d   1       3.575   0.347  -1.097  0.00  0.00     0.003 A 
ATOM      3  C2  UNL d   1       2.329  -0.183  -0.754  0.00  0.00     0.048 A 
ATOM      4  C3  UNL d   1       1.980  -1.463  -1.185  0.00  0.00     0.023 A 
ATOM      5  C4  UNL d   1       2.867  -2.215  -1.956  0.00  0.00     0.048 A 
ATOM      6  C5  UNL d   1       4.111  -1.681  -2.297  0.00  0.00     0.003 A 
ATOM      7  I   UNL d   1       0.127  -2.254  -0.675  0.00  0.00    -0.146 I 
ENDROOT
TORSDOF 0
ENDMDL
