MODEL 1
REMARK minimizedAffinity 0.585572064
REMARK minimizedRMSD -1
REMARK  0 active torsions:
REMARK  status: ('A' for Active; 'I' for Inactive)
ROOT
ATOM      1  C   UNL d   1       1.238  -2.245  -0.488  0.00  0.00     0.023 A 
ATOM      2  C1  UNL d   1       2.257  -1.422  -0.010  0.00  0.00     0.003 A 
ATOM      3  C2  UNL d   1       2.008  -0.070   0.234  0.00  0.00     0.048 A 
ATOM      4  C3  UNL d   1       0.736   0.452  -0.000  0.00  0.00     0.023 A 
ATOM      5  C4  UNL d   1      -0.288  -0.369  -0.478  0.00  0.00     0.048 A 
ATOM      6  C5  UNL d   1      -0.033  -1.720  -0.722  0.00  0.00     0.003 A 
ATOM      7  I   UNL d   1       0.362   2.464   0.363  0.00  0.00    -0.146 I 
ENDROOT
TORSDOF 0
ENDMDL
