MODEL 1
REMARK minimizedAffinity 10.5125237
REMARK minimizedRMSD -1
REMARK  0 active torsions:
REMARK  status: ('A' for Active; 'I' for Inactive)
ROOT
ATOM      1  C   UNL d   1       0.797   1.298   4.247  0.00  0.00     0.023 A 
ATOM      2  C1  UNL d   1       0.064   0.472   3.394  0.00  0.00     0.003 A 
ATOM      3  C2  UNL d   1       0.135  -0.916   3.533  0.00  0.00     0.048 A 
ATOM      4  C3  UNL d   1       0.939  -1.471   4.528  0.00  0.00     0.023 A 
ATOM      5  C4  UNL d   1       1.673  -0.648   5.384  0.00  0.00     0.048 A 
ATOM      6  C5  UNL d   1       1.600   0.738   5.241  0.00  0.00     0.003 A 
ATOM      7  I   UNL d   1       1.045  -3.536   4.737  0.00  0.00    -0.146 I 
ENDROOT
TORSDOF 0
ENDMDL
