MODEL 1
REMARK minimizedAffinity 11.6886139
REMARK minimizedRMSD -1
REMARK  0 active torsions:
REMARK  status: ('A' for Active; 'I' for Inactive)
ROOT
ATOM      1  C   UNL d   1       1.705  -0.041   2.281  0.00  0.00     0.023 A 
ATOM      2  C1  UNL d   1       1.744  -1.434   2.239  0.00  0.00     0.003 A 
ATOM      3  C2  UNL d   1       1.764  -2.097   1.010  0.00  0.00     0.048 A 
ATOM      4  C3  UNL d   1       1.746  -1.360  -0.173  0.00  0.00     0.023 A 
ATOM      5  C4  UNL d   1       1.708   0.035  -0.136  0.00  0.00     0.048 A 
ATOM      6  C5  UNL d   1       1.687   0.693   1.095  0.00  0.00     0.003 A 
ATOM      7  I   UNL d   1       1.775  -2.344  -2.004  0.00  0.00    -0.146 I 
ENDROOT
TORSDOF 0
ENDMDL
