MODEL 1
REMARK minimizedAffinity 15.7299728
REMARK minimizedRMSD -1
REMARK  0 active torsions:
REMARK  status: ('A' for Active; 'I' for Inactive)
ROOT
ATOM      1  C   UNL d   1       2.613   1.510   0.283  0.00  0.00     0.077 C 
ATOM      2  C1  UNL d   1       2.258   0.368  -0.623  0.00  0.00    -0.074 A 
ATOM      3  C2  UNL d   1       1.792   0.598  -1.921  0.00  0.00    -0.005 A 
ATOM      4  C3  UNL d   1       1.475  -0.474  -2.755  0.00  0.00     0.006 A 
ATOM      5  C4  UNL d   1       1.621  -1.785  -2.300  0.00  0.00    -0.005 A 
ATOM      6  C5  UNL d   1       2.087  -2.035  -1.005  0.00  0.00    -0.074 A 
ATOM      7  C6  UNL d   1       2.260  -3.438  -0.504  0.00  0.00     0.077 C 
ATOM      8  C7  UNL d   1       2.410  -0.952  -0.176  0.00  0.00    -0.001 A 
ENDROOT
TORSDOF 0
ENDMDL
