MODEL 1
REMARK minimizedAffinity 10.8600512
REMARK minimizedRMSD -1
REMARK  0 active torsions:
REMARK  status: ('A' for Active; 'I' for Inactive)
ROOT
ATOM      1  C   UNL d   1      -0.030   3.071   6.000  0.00  0.00     0.077 C 
ATOM      2  C1  UNL d   1       0.053   2.252   4.746  0.00  0.00    -0.074 A 
ATOM      3  C2  UNL d   1       1.230   1.577   4.405  0.00  0.00    -0.005 A 
ATOM      4  C3  UNL d   1       1.289   0.811   3.241  0.00  0.00     0.006 A 
ATOM      5  C4  UNL d   1       0.174   0.713   2.407  0.00  0.00    -0.005 A 
ATOM      6  C5  UNL d   1      -1.011   1.380   2.732  0.00  0.00    -0.074 A 
ATOM      7  C6  UNL d   1      -2.221   1.277   1.853  0.00  0.00     0.077 C 
ATOM      8  C7  UNL d   1      -1.065   2.142   3.908  0.00  0.00    -0.001 A 
ENDROOT
TORSDOF 0
ENDMDL
