MODEL 1
REMARK minimizedAffinity 11.4057083
REMARK minimizedRMSD -1
REMARK  0 active torsions:
REMARK  status: ('A' for Active; 'I' for Inactive)
ROOT
ATOM      1  C   UNL d   1      -5.912  -1.935  -5.992  0.00  0.00     0.077 C 
ATOM      2  C1  UNL d   1      -5.208  -3.193  -5.580  0.00  0.00    -0.074 A 
ATOM      3  C2  UNL d   1      -5.669  -4.445  -6.000  0.00  0.00    -0.005 A 
ATOM      4  C3  UNL d   1      -4.999  -5.607  -5.616  0.00  0.00     0.006 A 
ATOM      5  C4  UNL d   1      -3.862  -5.528  -4.809  0.00  0.00    -0.005 A 
ATOM      6  C5  UNL d   1      -3.386  -4.285  -4.381  0.00  0.00    -0.074 A 
ATOM      7  C6  UNL d   1      -2.161  -4.182  -3.522  0.00  0.00     0.077 C 
ATOM      8  C7  UNL d   1      -4.061  -3.122  -4.777  0.00  0.00    -0.001 A 
ENDROOT
TORSDOF 0
ENDMDL
