MODEL 1
REMARK minimizedAffinity 7.87267637
REMARK minimizedRMSD -1
REMARK  0 active torsions:
REMARK  status: ('A' for Active; 'I' for Inactive)
ROOT
ATOM      1  C   UNL d   1       3.700   1.139   0.094  0.00  0.00     0.077 C 
ATOM      2  C1  UNL d   1       2.682   0.587  -0.860  0.00  0.00    -0.074 A 
ATOM      3  C2  UNL d   1       1.362   0.366  -0.453  0.00  0.00    -0.005 A 
ATOM      4  C3  UNL d   1       0.424  -0.139  -1.354  0.00  0.00     0.006 A 
ATOM      5  C4  UNL d   1       0.796  -0.427  -2.668  0.00  0.00    -0.005 A 
ATOM      6  C5  UNL d   1       2.111  -0.211  -3.093  0.00  0.00    -0.074 A 
ATOM      7  C6  UNL d   1       2.524  -0.506  -4.504  0.00  0.00     0.077 C 
ATOM      8  C7  UNL d   1       3.046   0.303  -2.184  0.00  0.00    -0.001 A 
ENDROOT
TORSDOF 0
ENDMDL
