MODEL 1
REMARK minimizedAffinity 3.11944699
REMARK minimizedRMSD -1
REMARK  0 active torsions:
REMARK  status: ('A' for Active; 'I' for Inactive)
ROOT
ATOM      1  C   UNL d   1      -3.011  -3.350  -5.643  0.00  0.00     0.077 C 
ATOM      2  C1  UNL d   1      -2.105  -3.949  -4.610  0.00  0.00    -0.074 A 
ATOM      3  C2  UNL d   1      -0.715  -3.913  -4.764  0.00  0.00    -0.005 A 
ATOM      4  C3  UNL d   1       0.116  -4.466  -3.790  0.00  0.00     0.006 A 
ATOM      5  C4  UNL d   1      -0.434  -5.060  -2.653  0.00  0.00    -0.005 A 
ATOM      6  C5  UNL d   1      -1.821  -5.105  -2.481  0.00  0.00    -0.074 A 
ATOM      7  C6  UNL d   1      -2.427  -5.731  -1.260  0.00  0.00     0.077 C 
ATOM      8  C7  UNL d   1      -2.649  -4.540  -3.461  0.00  0.00    -0.001 A 
ENDROOT
TORSDOF 0
ENDMDL
