MODEL 1
REMARK minimizedAffinity 6.26258135
REMARK minimizedRMSD -1
REMARK  0 active torsions:
REMARK  status: ('A' for Active; 'I' for Inactive)
ROOT
ATOM      1  C   UNL d   1       1.821  -0.130  -2.437  0.00  0.00     0.077 C 
ATOM      2  C1  UNL d   1       1.767  -1.580  -2.055  0.00  0.00    -0.074 A 
ATOM      3  C2  UNL d   1       2.700  -2.124  -1.166  0.00  0.00    -0.005 A 
ATOM      4  C3  UNL d   1       2.631  -3.471  -0.813  0.00  0.00     0.006 A 
ATOM      5  C4  UNL d   1       1.631  -4.287  -1.343  0.00  0.00    -0.005 A 
ATOM      6  C5  UNL d   1       0.689  -3.760  -2.232  0.00  0.00    -0.074 A 
ATOM      7  C6  UNL d   1      -0.399  -4.620  -2.803  0.00  0.00     0.077 C 
ATOM      8  C7  UNL d   1       0.760  -2.404  -2.577  0.00  0.00    -0.001 A 
ENDROOT
TORSDOF 0
ENDMDL
