MODEL 1
REMARK minimizedAffinity 14.3760996
REMARK minimizedRMSD -1
REMARK  0 active torsions:
REMARK  status: ('A' for Active; 'I' for Inactive)
ROOT
ATOM      1  C   UNL d   1      -6.000  -2.566   1.924  0.00  0.00     0.077 C 
ATOM      2  C1  UNL d   1      -5.013  -1.848   2.796  0.00  0.00    -0.074 A 
ATOM      3  C2  UNL d   1      -4.703  -2.324   4.074  0.00  0.00    -0.005 A 
ATOM      4  C3  UNL d   1      -3.776  -1.650   4.869  0.00  0.00     0.006 A 
ATOM      5  C4  UNL d   1      -3.150  -0.496   4.395  0.00  0.00    -0.005 A 
ATOM      6  C5  UNL d   1      -3.447  -0.007   3.119  0.00  0.00    -0.074 A 
ATOM      7  C6  UNL d   1      -2.776   1.227   2.591  0.00  0.00     0.077 C 
ATOM      8  C7  UNL d   1      -4.374  -0.693   2.323  0.00  0.00    -0.001 A 
ENDROOT
TORSDOF 0
ENDMDL
