MODEL 1
REMARK minimizedAffinity 8.01838303
REMARK minimizedRMSD -1
REMARK  0 active torsions:
REMARK  status: ('A' for Active; 'I' for Inactive)
ROOT
ATOM      1  C   UNL d   1       3.119   1.546  -0.579  0.00  0.00     0.077 C 
ATOM      2  C1  UNL d   1       2.638   0.281  -1.224  0.00  0.00    -0.074 A 
ATOM      3  C2  UNL d   1       1.893   0.316  -2.408  0.00  0.00    -0.005 A 
ATOM      4  C3  UNL d   1       1.460  -0.869  -3.002  0.00  0.00     0.006 A 
ATOM      5  C4  UNL d   1       1.767  -2.100  -2.420  0.00  0.00    -0.005 A 
ATOM      6  C5  UNL d   1       2.511  -2.155  -1.237  0.00  0.00    -0.074 A 
ATOM      7  C6  UNL d   1       2.857  -3.469  -0.604  0.00  0.00     0.077 C 
ATOM      8  C7  UNL d   1       2.948  -0.960  -0.650  0.00  0.00    -0.001 A 
ENDROOT
TORSDOF 0
ENDMDL
