MODEL 1
REMARK minimizedAffinity 16.4100494
REMARK minimizedRMSD -1
REMARK  0 active torsions:
REMARK  status: ('A' for Active; 'I' for Inactive)
ROOT
ATOM      1  C   UNL d   1      -0.818  -3.057  -3.022  0.00  0.00     0.077 C 
ATOM      2  C1  UNL d   1       0.301  -2.058  -3.024  0.00  0.00    -0.074 A 
ATOM      3  C2  UNL d   1       0.649  -1.365  -1.860  0.00  0.00    -0.005 A 
ATOM      4  C3  UNL d   1       1.697  -0.446  -1.876  0.00  0.00     0.006 A 
ATOM      5  C4  UNL d   1       2.407  -0.209  -3.054  0.00  0.00    -0.005 A 
ATOM      6  C5  UNL d   1       2.074  -0.893  -4.227  0.00  0.00    -0.074 A 
ATOM      7  C6  UNL d   1       2.833  -0.658  -5.499  0.00  0.00     0.077 C 
ATOM      8  C7  UNL d   1       1.024  -1.821  -4.202  0.00  0.00    -0.001 A 
ENDROOT
TORSDOF 0
ENDMDL
