MODEL 1
REMARK minimizedAffinity 9.77061367
REMARK minimizedRMSD -1
REMARK  0 active torsions:
REMARK  status: ('A' for Active; 'I' for Inactive)
ROOT
ATOM      1  C   UNL d   1       2.476  -2.583  -0.601  0.00  0.00     0.077 C 
ATOM      2  C1  UNL d   1       2.375  -1.605  -1.733  0.00  0.00    -0.074 A 
ATOM      3  C2  UNL d   1       1.868  -0.318  -1.528  0.00  0.00    -0.005 A 
ATOM      4  C3  UNL d   1       1.789   0.584  -2.589  0.00  0.00     0.006 A 
ATOM      5  C4  UNL d   1       2.215   0.209  -3.864  0.00  0.00    -0.005 A 
ATOM      6  C5  UNL d   1       2.726  -1.073  -4.087  0.00  0.00    -0.074 A 
ATOM      7  C6  UNL d   1       3.198  -1.489  -5.449  0.00  0.00     0.077 C 
ATOM      8  C7  UNL d   1       2.809  -1.972  -3.015  0.00  0.00    -0.001 A 
ENDROOT
TORSDOF 0
ENDMDL
