MODEL 1
REMARK minimizedAffinity 14.8053541
REMARK minimizedRMSD -1
REMARK  0 active torsions:
REMARK  status: ('A' for Active; 'I' for Inactive)
ROOT
ATOM      1  C   UNL d   1      -3.811  -1.922   4.902  0.00  0.00     0.077 C 
ATOM      2  C1  UNL d   1      -3.737  -0.483   4.486  0.00  0.00    -0.074 A 
ATOM      3  C2  UNL d   1      -3.317  -0.127   3.200  0.00  0.00    -0.005 A 
ATOM      4  C3  UNL d   1      -3.263   1.215   2.824  0.00  0.00     0.006 A 
ATOM      5  C4  UNL d   1      -3.627   2.213   3.729  0.00  0.00    -0.005 A 
ATOM      6  C5  UNL d   1      -4.051   1.877   5.018  0.00  0.00    -0.074 A 
ATOM      7  C6  UNL d   1      -4.455   2.937   5.999  0.00  0.00     0.077 C 
ATOM      8  C7  UNL d   1      -4.109   0.526   5.386  0.00  0.00    -0.001 A 
ENDROOT
TORSDOF 0
ENDMDL
