MODEL 1
REMARK minimizedAffinity 5.80104446
REMARK minimizedRMSD -1
REMARK  0 active torsions:
REMARK  status: ('A' for Active; 'I' for Inactive)
ROOT
ATOM      1  C   UNL d   1       2.292  -0.398  -1.918  0.00  0.00     0.077 C 
ATOM      2  C1  UNL d   1       2.103  -1.597  -2.799  0.00  0.00    -0.074 A 
ATOM      3  C2  UNL d   1       2.828  -1.738  -3.987  0.00  0.00    -0.005 A 
ATOM      4  C3  UNL d   1       2.648  -2.863  -4.791  0.00  0.00     0.006 A 
ATOM      5  C4  UNL d   1       1.744  -3.858  -4.416  0.00  0.00    -0.005 A 
ATOM      6  C5  UNL d   1       1.012  -3.735  -3.231  0.00  0.00    -0.074 A 
ATOM      7  C6  UNL d   1       0.043  -4.799  -2.808  0.00  0.00     0.077 C 
ATOM      8  C7  UNL d   1       1.203  -2.604  -2.425  0.00  0.00    -0.001 A 
ENDROOT
TORSDOF 0
ENDMDL
