MODEL 1
REMARK minimizedAffinity 21.8638077
REMARK minimizedRMSD -1
REMARK  0 active torsions:
REMARK  status: ('A' for Active; 'I' for Inactive)
ROOT
ATOM      1  C   UNL d   1      -1.997   0.055  -2.332  0.00  0.00     0.077 C 
ATOM      2  C1  UNL d   1      -1.682  -1.409  -2.407  0.00  0.00    -0.074 A 
ATOM      3  C2  UNL d   1      -0.412  -1.889  -2.073  0.00  0.00    -0.005 A 
ATOM      4  C3  UNL d   1      -0.136  -3.255  -2.139  0.00  0.00     0.006 A 
ATOM      5  C4  UNL d   1      -1.126  -4.153  -2.538  0.00  0.00    -0.005 A 
ATOM      6  C5  UNL d   1      -2.403  -3.692  -2.874  0.00  0.00    -0.074 A 
ATOM      7  C6  UNL d   1      -3.482  -4.645  -3.296  0.00  0.00     0.077 C 
ATOM      8  C7  UNL d   1      -2.674  -2.319  -2.800  0.00  0.00    -0.001 A 
ENDROOT
TORSDOF 0
ENDMDL
