MODEL 1
REMARK minimizedAffinity -4.04962015
REMARK minimizedRMSD -1
REMARK  0 active torsions:
REMARK  status: ('A' for Active; 'I' for Inactive)
ROOT
ATOM      1  C   UNL d   1       3.034  -4.886  -0.451  0.00  0.00     0.077 C 
ATOM      2  C1  UNL d   1       2.677  -3.622  -1.175  0.00  0.00    -0.074 A 
ATOM      3  C2  UNL d   1       2.233  -2.495  -0.477  0.00  0.00    -0.005 A 
ATOM      4  C3  UNL d   1       1.913  -1.323  -1.163  0.00  0.00     0.006 A 
ATOM      5  C4  UNL d   1       2.034  -1.267  -2.552  0.00  0.00    -0.005 A 
ATOM      6  C5  UNL d   1       2.477  -2.384  -3.267  0.00  0.00    -0.074 A 
ATOM      7  C6  UNL d   1       2.622  -2.337  -4.759  0.00  0.00     0.077 C 
ATOM      8  C7  UNL d   1       2.803  -3.555  -2.570  0.00  0.00    -0.001 A 
ENDROOT
TORSDOF 0
ENDMDL
