MODEL 1
REMARK minimizedAffinity 16.8931427
REMARK minimizedRMSD -1
REMARK  0 active torsions:
REMARK  status: ('A' for Active; 'I' for Inactive)
ROOT
ATOM      1  C   UNL d   1       0.970   1.254   5.893  0.00  0.00     0.077 C 
ATOM      2  C1  UNL d   1       0.125   1.185   4.656  0.00  0.00    -0.074 A 
ATOM      3  C2  UNL d   1       0.708   1.003   3.397  0.00  0.00    -0.005 A 
ATOM      4  C3  UNL d   1      -0.090   0.932   2.256  0.00  0.00     0.006 A 
ATOM      5  C4  UNL d   1      -1.477   1.042   2.361  0.00  0.00    -0.005 A 
ATOM      6  C5  UNL d   1      -2.078   1.224   3.611  0.00  0.00    -0.074 A 
ATOM      7  C6  UNL d   1      -3.568   1.335   3.742  0.00  0.00     0.077 C 
ATOM      8  C7  UNL d   1      -1.269   1.288   4.754  0.00  0.00    -0.001 A 
ENDROOT
TORSDOF 0
ENDMDL
