MODEL 1
REMARK minimizedAffinity 13.7141409
REMARK minimizedRMSD -1
REMARK  0 active torsions:
REMARK  status: ('A' for Active; 'I' for Inactive)
ROOT
ATOM      1  C   UNL d   1       1.215   1.432   5.147  0.00  0.00     0.077 C 
ATOM      2  C1  UNL d   1       0.113   1.125   4.177  0.00  0.00    -0.074 A 
ATOM      3  C2  UNL d   1       0.367   0.410   3.003  0.00  0.00    -0.005 A 
ATOM      4  C3  UNL d   1      -0.670   0.123   2.115  0.00  0.00     0.006 A 
ATOM      5  C4  UNL d   1      -1.970   0.547   2.393  0.00  0.00    -0.005 A 
ATOM      6  C5  UNL d   1      -2.243   1.263   3.563  0.00  0.00    -0.074 A 
ATOM      7  C6  UNL d   1      -3.636   1.718   3.882  0.00  0.00     0.077 C 
ATOM      8  C7  UNL d   1      -1.197   1.541   4.453  0.00  0.00    -0.001 A 
ENDROOT
TORSDOF 0
ENDMDL
