MODEL 1
REMARK minimizedAffinity 10.4435081
REMARK minimizedRMSD -1
REMARK  0 active torsions:
REMARK  status: ('A' for Active; 'I' for Inactive)
ROOT
ATOM      1  C   UNL d   1      -0.157  -2.269  -2.623  0.00  0.00     0.077 C 
ATOM      2  C1  UNL d   1      -1.363  -3.157  -2.693  0.00  0.00    -0.074 A 
ATOM      3  C2  UNL d   1      -2.277  -3.046  -3.745  0.00  0.00    -0.005 A 
ATOM      4  C3  UNL d   1      -3.389  -3.886  -3.802  0.00  0.00     0.006 A 
ATOM      5  C4  UNL d   1      -3.599  -4.843  -2.809  0.00  0.00    -0.005 A 
ATOM      6  C5  UNL d   1      -2.695  -4.969  -1.749  0.00  0.00    -0.074 A 
ATOM      7  C6  UNL d   1      -2.900  -5.999  -0.678  0.00  0.00     0.077 C 
ATOM      8  C7  UNL d   1      -1.576  -4.126  -1.703  0.00  0.00    -0.001 A 
ENDROOT
TORSDOF 0
ENDMDL
