MODEL 1
REMARK minimizedAffinity 12.0286627
REMARK minimizedRMSD -1
REMARK  2 active torsions:
REMARK  status: ('A' for Active; 'I' for Inactive)
REMARK    1  A    between atoms: C1_2  and  C2_3 
REMARK    2  A    between atoms: C2_3  and  C3_4 
ROOT
ATOM      1  C3  UNL d   1       1.562  -5.487  -1.471  0.00  0.00    -0.075 A 
ATOM      2  C4  UNL d   1       0.162  -5.504  -1.556  0.00  0.00     0.002 A 
ATOM      3  C5  UNL d   1      -0.614  -5.752  -0.423  0.00  0.00     0.002 A 
ATOM      4  C6  UNL d   1      -0.002  -5.995   0.804  0.00  0.00    -0.004 A 
ATOM      5  C7  UNL d   1       1.388  -5.997   0.897  0.00  0.00     0.002 A 
ATOM      6  C8  UNL d   1       2.167  -5.745  -0.234  0.00  0.00     0.002 A 
ENDROOT
BRANCH   1   7
ATOM      7  C2  UNL d   1       2.406  -5.190  -2.687  0.00  0.00     0.056 C 
BRANCH   7   8
ATOM      8  C1  UNL d   1       3.707  -5.998  -2.755  0.00  0.00     0.007 C 
ATOM      9  C   UNL d   1       4.393  -5.918  -4.112  0.00  0.00     0.009 C 
ENDBRANCH   7   8
ENDBRANCH   1   7
TORSDOF 2
ENDMDL
