MODEL 1
REMARK minimizedAffinity 8.32155132
REMARK minimizedRMSD -1
REMARK  2 active torsions:
REMARK  status: ('A' for Active; 'I' for Inactive)
REMARK    1  A    between atoms: C1_2  and  C2_3 
REMARK    2  A    between atoms: C2_3  and  C3_4 
ROOT
ATOM      1  C3  UNL d   1       1.249  -1.500   3.475  0.00  0.00    -0.075 A 
ATOM      2  C4  UNL d   1       2.269  -2.221   2.837  0.00  0.00     0.002 A 
ATOM      3  C5  UNL d   1       2.754  -1.812   1.594  0.00  0.00     0.002 A 
ATOM      4  C6  UNL d   1       2.219  -0.687   0.969  0.00  0.00    -0.004 A 
ATOM      5  C7  UNL d   1       1.194   0.026   1.587  0.00  0.00     0.002 A 
ATOM      6  C8  UNL d   1       0.711  -0.378   2.833  0.00  0.00     0.002 A 
ENDROOT
BRANCH   1   7
ATOM      7  C2  UNL d   1       0.741  -1.920   4.834  0.00  0.00     0.056 C 
BRANCH   7   8
ATOM      8  C1  UNL d   1       1.369  -1.149   6.000  0.00  0.00     0.007 C 
ATOM      9  C   UNL d   1       1.019   0.333   5.997  0.00  0.00     0.009 C 
ENDBRANCH   7   8
ENDBRANCH   1   7
TORSDOF 2
ENDMDL
