MODEL 1
REMARK minimizedAffinity 7.49170923
REMARK minimizedRMSD -1
REMARK  2 active torsions:
REMARK  status: ('A' for Active; 'I' for Inactive)
REMARK    1  A    between atoms: C1_2  and  C2_3 
REMARK    2  A    between atoms: C2_3  and  C3_4 
ROOT
ATOM      1  C3  UNL d   1      -3.790   3.951   1.703  0.00  0.00    -0.075 A 
ATOM      2  C4  UNL d   1      -3.365   3.219   0.584  0.00  0.00     0.002 A 
ATOM      3  C5  UNL d   1      -2.045   2.782   0.483  0.00  0.00     0.002 A 
ATOM      4  C6  UNL d   1      -1.130   3.079   1.491  0.00  0.00    -0.004 A 
ATOM      5  C7  UNL d   1      -1.536   3.819   2.599  0.00  0.00     0.002 A 
ATOM      6  C8  UNL d   1      -2.858   4.254   2.705  0.00  0.00     0.002 A 
ENDROOT
BRANCH   1   7
ATOM      7  C2  UNL d   1      -5.225   4.402   1.833  0.00  0.00     0.056 C 
BRANCH   7   8
ATOM      8  C1  UNL d   1      -5.997   4.412   0.509  0.00  0.00     0.007 C 
ATOM      9  C   UNL d   1      -5.693   5.628  -0.355  0.00  0.00     0.009 C 
ENDBRANCH   7   8
ENDBRANCH   1   7
TORSDOF 2
ENDMDL
