MODEL 1
REMARK minimizedAffinity 11.1074009
REMARK minimizedRMSD -1
REMARK  2 active torsions:
REMARK  status: ('A' for Active; 'I' for Inactive)
REMARK    1  A    between atoms: C1_2  and  C2_3 
REMARK    2  A    between atoms: C2_3  and  C3_4 
ROOT
ATOM      1  C3  UNL d   1      -4.860  -3.127  -4.941  0.00  0.00    -0.075 A 
ATOM      2  C4  UNL d   1      -5.963  -3.649  -5.631  0.00  0.00     0.002 A 
ATOM      3  C5  UNL d   1      -6.000  -4.996  -5.993  0.00  0.00     0.002 A 
ATOM      4  C6  UNL d   1      -4.932  -5.834  -5.680  0.00  0.00    -0.004 A 
ATOM      5  C7  UNL d   1      -3.823  -5.322  -5.009  0.00  0.00     0.002 A 
ATOM      6  C8  UNL d   1      -3.786  -3.976  -4.641  0.00  0.00     0.002 A 
ENDROOT
BRANCH   1   7
ATOM      7  C2  UNL d   1      -4.827  -1.677  -4.520  0.00  0.00     0.056 C 
BRANCH   7   8
ATOM      8  C1  UNL d   1      -4.097  -1.428  -3.196  0.00  0.00     0.007 C 
ATOM      9  C   UNL d   1      -3.589   0.000  -3.050  0.00  0.00     0.009 C 
ENDBRANCH   7   8
ENDBRANCH   1   7
TORSDOF 2
ENDMDL
