MODEL 1
REMARK minimizedAffinity 5.39929485
REMARK minimizedRMSD -1
REMARK  2 active torsions:
REMARK  status: ('A' for Active; 'I' for Inactive)
REMARK    1  A    between atoms: C1_2  and  C2_3 
REMARK    2  A    between atoms: C2_3  and  C3_4 
ROOT
ATOM      1  C3  UNL d   1       0.784  -2.578   3.750  0.00  0.00    -0.075 A 
ATOM      2  C4  UNL d   1       1.601  -3.168   2.774  0.00  0.00     0.002 A 
ATOM      3  C5  UNL d   1       2.144  -2.398   1.745  0.00  0.00     0.002 A 
ATOM      4  C6  UNL d   1       1.869  -1.035   1.671  0.00  0.00    -0.004 A 
ATOM      5  C7  UNL d   1       1.045  -0.441   2.625  0.00  0.00     0.002 A 
ATOM      6  C8  UNL d   1       0.505  -1.208   3.659  0.00  0.00     0.002 A 
ENDROOT
BRANCH   1   7
ATOM      7  C2  UNL d   1       0.218  -3.400   4.883  0.00  0.00     0.056 C 
BRANCH   7   8
ATOM      8  C1  UNL d   1       1.205  -4.413   5.473  0.00  0.00     0.007 C 
ATOM      9  C   UNL d   1       0.543  -5.714   5.905  0.00  0.00     0.009 C 
ENDBRANCH   7   8
ENDBRANCH   1   7
TORSDOF 2
ENDMDL
