MODEL 1
REMARK minimizedAffinity 1.18507588
REMARK minimizedRMSD -1
REMARK  2 active torsions:
REMARK  status: ('A' for Active; 'I' for Inactive)
REMARK    1  A    between atoms: C1_2  and  C2_3 
REMARK    2  A    between atoms: C2_3  and  C3_4 
ROOT
ATOM      1  C3  UNL d   1       3.989   4.567  -3.516  0.00  0.00    -0.075 A 
ATOM      2  C4  UNL d   1       4.013   4.621  -4.917  0.00  0.00     0.002 A 
ATOM      3  C5  UNL d   1       5.016   5.327  -5.581  0.00  0.00     0.002 A 
ATOM      4  C6  UNL d   1       5.999   5.995  -4.856  0.00  0.00    -0.004 A 
ATOM      5  C7  UNL d   1       5.976   5.962  -3.463  0.00  0.00     0.002 A 
ATOM      6  C8  UNL d   1       4.976   5.252  -2.795  0.00  0.00     0.002 A 
ENDROOT
BRANCH   1   7
ATOM      7  C2  UNL d   1       2.923   3.780  -2.791  0.00  0.00     0.056 C 
BRANCH   7   8
ATOM      8  C1  UNL d   1       2.612   4.300  -1.383  0.00  0.00     0.007 C 
ATOM      9  C   UNL d   1       1.121   4.450  -1.114  0.00  0.00     0.009 C 
ENDBRANCH   7   8
ENDBRANCH   1   7
TORSDOF 2
ENDMDL
