MODEL 1
REMARK minimizedAffinity 4.69164419
REMARK minimizedRMSD -1
REMARK  2 active torsions:
REMARK  status: ('A' for Active; 'I' for Inactive)
REMARK    1  A    between atoms: C1_2  and  C2_3 
REMARK    2  A    between atoms: C2_3  and  C3_4 
ROOT
ATOM      1  C3  UNL d   1       2.573  -0.815   2.031  0.00  0.00    -0.075 A 
ATOM      2  C4  UNL d   1       2.054   0.457   2.314  0.00  0.00     0.002 A 
ATOM      3  C5  UNL d   1       2.336   1.539   1.480  0.00  0.00     0.002 A 
ATOM      4  C6  UNL d   1       3.147   1.366   0.360  0.00  0.00    -0.004 A 
ATOM      5  C7  UNL d   1       3.681   0.111   0.078  0.00  0.00     0.002 A 
ATOM      6  C8  UNL d   1       3.397  -0.975   0.909  0.00  0.00     0.002 A 
ENDROOT
BRANCH   1   7
ATOM      7  C2  UNL d   1       2.248  -1.996   2.913  0.00  0.00     0.056 C 
BRANCH   7   8
ATOM      8  C1  UNL d   1       0.905  -1.879   3.642  0.00  0.00     0.007 C 
ATOM      9  C   UNL d   1       1.043  -1.401   5.082  0.00  0.00     0.009 C 
ENDBRANCH   7   8
ENDBRANCH   1   7
TORSDOF 2
ENDMDL
