MODEL 1
REMARK minimizedAffinity 4.61108208
REMARK minimizedRMSD -1
REMARK  0 active torsions:
REMARK  status: ('A' for Active; 'I' for Inactive)
ROOT
ATOM      1  C   UNL d   1       5.378  -1.251   4.560  0.00  0.00    -0.002 A 
ATOM      2  C1  UNL d   1       5.934  -0.436   5.536  0.00  0.00     0.010 A 
ATOM      3  C2  UNL d   1       5.998   0.947   5.355  0.00  0.00     0.041 A 
ATOM      4  C3  UNL d   1       5.488   1.503   4.165  0.00  0.00    -0.075 A 
ATOM      5  S   UNL d   1       5.458   3.169   3.726  0.00  0.00     0.015 SA
ATOM      6  C4  UNL d   1       4.706   2.839   2.233  0.00  0.00     0.022 A 
ATOM      7  C5  UNL d   1       4.476   1.495   2.057  0.00  0.00     0.026 A 
ATOM      8  C6  UNL d   1       4.922   0.703   3.168  0.00  0.00    -0.082 A 
ATOM      9  C7  UNL d   1       4.872  -0.696   3.382  0.00  0.00     0.045 A 
ENDROOT
TORSDOF 0
ENDMDL
