MODEL 1
REMARK minimizedAffinity -1.99497473
REMARK minimizedRMSD -1
REMARK  0 active torsions:
REMARK  status: ('A' for Active; 'I' for Inactive)
ROOT
ATOM      1  C   UNL d   1       5.385  -0.934   5.247  0.00  0.00    -0.002 A 
ATOM      2  C1  UNL d   1       5.196  -0.989   3.873  0.00  0.00     0.010 A 
ATOM      3  C2  UNL d   1       5.271   0.170   3.099  0.00  0.00     0.041 A 
ATOM      4  C3  UNL d   1       5.543   1.398   3.734  0.00  0.00    -0.075 A 
ATOM      5  S   UNL d   1       5.681   2.946   2.989  0.00  0.00     0.015 SA
ATOM      6  C4  UNL d   1       5.994   3.717   4.476  0.00  0.00     0.022 A 
ATOM      7  C5  UNL d   1       5.997   2.830   5.526  0.00  0.00     0.026 A 
ATOM      8  C6  UNL d   1       5.737   1.479   5.116  0.00  0.00    -0.082 A 
ATOM      9  C7  UNL d   1       5.654   0.286   5.874  0.00  0.00     0.045 A 
ENDROOT
TORSDOF 0
ENDMDL
