MODEL 1
REMARK minimizedAffinity -2.10047793
REMARK minimizedRMSD -1
REMARK  0 active torsions:
REMARK  status: ('A' for Active; 'I' for Inactive)
ROOT
ATOM      1  C   UNL d   1       5.986  -0.593   4.538  0.00  0.00    -0.002 A 
ATOM      2  C1  UNL d   1       5.981   0.099   5.741  0.00  0.00     0.010 A 
ATOM      3  C2  UNL d   1       5.983   1.495   5.758  0.00  0.00     0.041 A 
ATOM      4  C3  UNL d   1       5.989   2.191   4.533  0.00  0.00    -0.075 A 
ATOM      5  S   UNL d   1       5.992   3.901   4.309  0.00  0.00     0.015 SA
ATOM      6  C4  UNL d   1       5.999   3.753   2.611  0.00  0.00     0.022 A 
ATOM      7  C5  UNL d   1       6.000   2.439   2.208  0.00  0.00     0.026 A 
ATOM      8  C6  UNL d   1       5.993   1.517   3.309  0.00  0.00    -0.082 A 
ATOM      9  C7  UNL d   1       5.992   0.101   3.325  0.00  0.00     0.045 A 
ENDROOT
TORSDOF 0
ENDMDL
