MODEL 1
REMARK minimizedAffinity -2.14805388
REMARK minimizedRMSD -1
REMARK  0 active torsions:
REMARK  status: ('A' for Active; 'I' for Inactive)
ROOT
ATOM      1  C   UNL d   1       5.928   3.740   3.846  0.00  0.00    -0.002 A 
ATOM      2  C1  UNL d   1       5.974   3.780   5.232  0.00  0.00     0.010 A 
ATOM      3  C2  UNL d   1       5.998   2.598   5.976  0.00  0.00     0.041 A 
ATOM      4  C3  UNL d   1       5.976   1.364   5.297  0.00  0.00    -0.075 A 
ATOM      5  S   UNL d   1       5.999  -0.210   6.000  0.00  0.00     0.015 SA
ATOM      6  C4  UNL d   1       5.949  -0.972   4.476  0.00  0.00     0.022 A 
ATOM      7  C5  UNL d   1       5.915  -0.063   3.446  0.00  0.00     0.026 A 
ATOM      8  C6  UNL d   1       5.930   1.299   3.902  0.00  0.00    -0.082 A 
ATOM      9  C7  UNL d   1       5.906   2.514   3.176  0.00  0.00     0.045 A 
ENDROOT
TORSDOF 0
ENDMDL
