MODEL 1
REMARK minimizedAffinity 14.8566427
REMARK minimizedRMSD -1
REMARK  0 active torsions:
REMARK  status: ('A' for Active; 'I' for Inactive)
ROOT
ATOM      1  C   UNL d   1       5.671   4.781   3.742  0.00  0.00    -0.002 A 
ATOM      2  C1  UNL d   1       5.885   4.798   2.371  0.00  0.00     0.010 A 
ATOM      3  C2  UNL d   1       6.000   3.605   1.656  0.00  0.00     0.041 A 
ATOM      4  C3  UNL d   1       5.893   2.382   2.348  0.00  0.00    -0.075 A 
ATOM      5  S   UNL d   1       6.000   0.796   1.679  0.00  0.00     0.015 SA
ATOM      6  C4  UNL d   1       5.763   0.059   3.198  0.00  0.00     0.022 A 
ATOM      7  C5  UNL d   1       5.605   0.986   4.201  0.00  0.00     0.026 A 
ATOM      8  C6  UNL d   1       5.676   2.339   3.728  0.00  0.00    -0.082 A 
ATOM      9  C7  UNL d   1       5.565   3.567   4.425  0.00  0.00     0.045 A 
ENDROOT
TORSDOF 0
ENDMDL
