MODEL 1
REMARK minimizedAffinity -1.14741445
REMARK minimizedRMSD -1
REMARK  0 active torsions:
REMARK  status: ('A' for Active; 'I' for Inactive)
ROOT
ATOM      1  C   UNL d   1       5.982   0.574   3.260  0.00  0.00    -0.002 A 
ATOM      2  C1  UNL d   1       5.972   0.714   4.640  0.00  0.00     0.010 A 
ATOM      3  C2  UNL d   1       5.973   1.981   5.226  0.00  0.00     0.041 A 
ATOM      4  C3  UNL d   1       5.982   3.117   4.392  0.00  0.00    -0.075 A 
ATOM      5  S   UNL d   1       5.984   4.769   4.885  0.00  0.00     0.015 SA
ATOM      6  C4  UNL d   1       5.997   5.328   3.275  0.00  0.00     0.022 A 
ATOM      7  C5  UNL d   1       6.000   4.292   2.370  0.00  0.00     0.026 A 
ATOM      8  C6  UNL d   1       5.991   3.001   2.999  0.00  0.00    -0.082 A 
ATOM      9  C7  UNL d   1       5.991   1.702   2.436  0.00  0.00     0.045 A 
ENDROOT
TORSDOF 0
ENDMDL
