MODEL 1
REMARK minimizedAffinity -0.345182985
REMARK minimizedRMSD -1
REMARK  0 active torsions:
REMARK  status: ('A' for Active; 'I' for Inactive)
ROOT
ATOM      1  C   UNL d   1       5.999   3.318   3.273  0.00  0.00    -0.002 A 
ATOM      2  C1  UNL d   1       5.998   2.467   2.177  0.00  0.00     0.010 A 
ATOM      3  C2  UNL d   1       5.999   1.082   2.353  0.00  0.00     0.041 A 
ATOM      4  C3  UNL d   1       5.999   0.562   3.662  0.00  0.00    -0.075 A 
ATOM      5  S   UNL d   1       5.999  -1.101   4.120  0.00  0.00     0.015 SA
ATOM      6  C4  UNL d   1       5.999  -0.720   5.781  0.00  0.00     0.022 A 
ATOM      7  C5  UNL d   1       6.000   0.637   5.999  0.00  0.00     0.026 A 
ATOM      8  C6  UNL d   1       5.999   1.398   4.782  0.00  0.00    -0.082 A 
ATOM      9  C7  UNL d   1       5.999   2.798   4.570  0.00  0.00     0.045 A 
ENDROOT
TORSDOF 0
ENDMDL
