MODEL 1
REMARK minimizedAffinity -3.34215069
REMARK minimizedRMSD -1
REMARK  0 active torsions:
REMARK  status: ('A' for Active; 'I' for Inactive)
ROOT
ATOM      1  C   UNL d   1       5.999   2.995   3.608  0.00  0.00    -0.002 A 
ATOM      2  C1  UNL d   1       5.994   3.117   4.991  0.00  0.00     0.010 A 
ATOM      3  C2  UNL d   1       5.983   1.983   5.804  0.00  0.00     0.041 A 
ATOM      4  C3  UNL d   1       5.979   0.710   5.199  0.00  0.00    -0.075 A 
ATOM      5  S   UNL d   1       5.967  -0.819   5.995  0.00  0.00     0.015 SA
ATOM      6  C4  UNL d   1       5.970  -1.671   4.519  0.00  0.00     0.022 A 
ATOM      7  C5  UNL d   1       5.980  -0.825   3.435  0.00  0.00     0.026 A 
ATOM      8  C6  UNL d   1       5.986   0.561   3.809  0.00  0.00    -0.082 A 
ATOM      9  C7  UNL d   1       5.996   1.731   3.012  0.00  0.00     0.045 A 
ENDROOT
TORSDOF 0
ENDMDL
