MODEL 1
REMARK minimizedAffinity 0.625872493
REMARK minimizedRMSD -1
REMARK  0 active torsions:
REMARK  status: ('A' for Active; 'I' for Inactive)
ROOT
ATOM      1  C   UNL d   1       6.000  -2.573   4.793  0.00  0.00    -0.002 A 
ATOM      2  C1  UNL d   1       5.999  -1.798   5.945  0.00  0.00     0.010 A 
ATOM      3  C2  UNL d   1       6.000  -0.404   5.863  0.00  0.00     0.041 A 
ATOM      4  C3  UNL d   1       5.999   0.204   4.592  0.00  0.00    -0.075 A 
ATOM      5  S   UNL d   1       5.999   1.893   4.249  0.00  0.00     0.015 SA
ATOM      6  C4  UNL d   1       5.999   1.627   2.565  0.00  0.00     0.022 A 
ATOM      7  C5  UNL d   1       6.000   0.287   2.255  0.00  0.00     0.026 A 
ATOM      8  C6  UNL d   1       5.999  -0.555   3.418  0.00  0.00    -0.082 A 
ATOM      9  C7  UNL d   1       6.000  -1.966   3.535  0.00  0.00     0.045 A 
ENDROOT
TORSDOF 0
ENDMDL
