MODEL 1
REMARK minimizedAffinity 0.491668671
REMARK minimizedRMSD -1
REMARK  0 active torsions:
REMARK  status: ('A' for Active; 'I' for Inactive)
ROOT
ATOM      1  C   UNL d   1       5.987  -0.350   5.223  0.00  0.00    -0.002 A 
ATOM      2  C1  UNL d   1       5.990  -0.459   3.840  0.00  0.00     0.010 A 
ATOM      3  C2  UNL d   1       5.993   0.684   3.038  0.00  0.00     0.041 A 
ATOM      4  C3  UNL d   1       5.995   1.951   3.656  0.00  0.00    -0.075 A 
ATOM      5  S   UNL d   1       6.000   3.488   2.875  0.00  0.00     0.015 SA
ATOM      6  C4  UNL d   1       6.000   4.325   4.360  0.00  0.00     0.022 A 
ATOM      7  C5  UNL d   1       5.996   3.468   5.435  0.00  0.00     0.026 A 
ATOM      8  C6  UNL d   1       5.994   2.085   5.047  0.00  0.00    -0.082 A 
ATOM      9  C7  UNL d   1       5.990   0.908   5.833  0.00  0.00     0.045 A 
ENDROOT
TORSDOF 0
ENDMDL
