MODEL 1
REMARK minimizedAffinity -0.823168635
REMARK minimizedRMSD -1
REMARK  0 active torsions:
REMARK  status: ('A' for Active; 'I' for Inactive)
ROOT
ATOM      1  C   UNL d   1       0.927  -0.998   2.720  0.00  0.00     0.020 A 
ATOM      2  C1  UNL d   1       1.909  -0.270   2.049  0.00  0.00     0.020 A 
ATOM      3  C2  UNL d   1       1.605   0.366   0.843  0.00  0.00     0.034 A 
ATOM      4  C3  UNL d   1       0.316   0.275   0.305  0.00  0.00     0.017 A 
ATOM      5  C4  UNL d   1      -0.669  -0.456   0.979  0.00  0.00     0.017 A 
ATOM      6  C5  UNL d   1      -0.359  -1.090   2.186  0.00  0.00     0.034 A 
ATOM      7 Cl   UNL d   1      -2.281  -0.614   0.377  0.00  0.00    -0.070 Cl
ATOM      8 Cl1  UNL d   1       0.010   1.086  -1.190  0.00  0.00    -0.070 Cl
ENDROOT
TORSDOF 0
ENDMDL
