MODEL 1
REMARK minimizedAffinity -0.29055196
REMARK minimizedRMSD -1
REMARK  0 active torsions:
REMARK  status: ('A' for Active; 'I' for Inactive)
ROOT
ATOM      1  C   UNL d   1      -0.935   0.281  -0.791  0.00  0.00     0.020 A 
ATOM      2  C1  UNL d   1      -0.181  -0.056  -1.914  0.00  0.00     0.020 A 
ATOM      3  C2  UNL d   1       1.166  -0.399  -1.774  0.00  0.00     0.034 A 
ATOM      4  C3  UNL d   1       1.762  -0.406  -0.507  0.00  0.00     0.017 A 
ATOM      5  C4  UNL d   1       1.003  -0.069   0.619  0.00  0.00     0.017 A 
ATOM      6  C5  UNL d   1      -0.345   0.274   0.473  0.00  0.00     0.034 A 
ATOM      7 Cl   UNL d   1       1.669  -0.055   2.214  0.00  0.00    -0.070 Cl
ATOM      8 Cl1  UNL d   1       3.431  -0.841  -0.408  0.00  0.00    -0.070 Cl
ENDROOT
TORSDOF 0
ENDMDL
