MODEL 1
REMARK minimizedAffinity -3.59516001
REMARK minimizedRMSD -1
REMARK  0 active torsions:
REMARK  status: ('A' for Active; 'I' for Inactive)
ROOT
ATOM      1  C   UNL d   1      -0.975   0.650  -1.278  0.00  0.00     0.020 A 
ATOM      2  C1  UNL d   1      -1.682   0.839  -0.091  0.00  0.00     0.020 A 
ATOM      3  C2  UNL d   1      -1.163   0.362   1.115  0.00  0.00     0.034 A 
ATOM      4  C3  UNL d   1       0.067  -0.306   1.136  0.00  0.00     0.017 A 
ATOM      5  C4  UNL d   1       0.776  -0.494  -0.056  0.00  0.00     0.017 A 
ATOM      6  C5  UNL d   1       0.251  -0.015  -1.260  0.00  0.00     0.034 A 
ATOM      7 Cl   UNL d   1       2.300  -1.308  -0.110  0.00  0.00    -0.070 Cl
ATOM      8 Cl1  UNL d   1       0.650  -0.869   2.662  0.00  0.00    -0.070 Cl
ENDROOT
TORSDOF 0
ENDMDL
