MODEL 1
REMARK minimizedAffinity -2.60709786
REMARK minimizedRMSD -1
REMARK  0 active torsions:
REMARK  status: ('A' for Active; 'I' for Inactive)
ROOT
ATOM      1  C   UNL d   1       0.130   0.717  -0.321  0.00  0.00     0.020 A 
ATOM      2  C1  UNL d   1      -1.138   0.138  -0.326  0.00  0.00     0.020 A 
ATOM      3  C2  UNL d   1      -1.493  -0.776   0.669  0.00  0.00     0.034 A 
ATOM      4  C3  UNL d   1      -0.579  -1.113   1.673  0.00  0.00     0.017 A 
ATOM      5  C4  UNL d   1       0.694  -0.530   1.678  0.00  0.00     0.017 A 
ATOM      6  C5  UNL d   1       1.044   0.384   0.680  0.00  0.00     0.034 A 
ATOM      7 Cl   UNL d   1       1.876  -0.896   2.885  0.00  0.00    -0.070 Cl
ATOM      8 Cl1  UNL d   1      -1.085  -2.249   2.872  0.00  0.00    -0.070 Cl
ENDROOT
TORSDOF 0
ENDMDL
