MODEL 1
REMARK minimizedAffinity -1.28174925
REMARK minimizedRMSD -1
REMARK  0 active torsions:
REMARK  status: ('A' for Active; 'I' for Inactive)
ROOT
ATOM      1  C   UNL d   1       3.855   5.957   1.529  0.00  0.00     0.020 A 
ATOM      2  C1  UNL d   1       4.927   5.970   2.421  0.00  0.00     0.020 A 
ATOM      3  C2  UNL d   1       4.691   5.981   3.797  0.00  0.00     0.034 A 
ATOM      4  C3  UNL d   1       3.380   5.978   4.286  0.00  0.00     0.017 A 
ATOM      5  C4  UNL d   1       2.304   5.965   3.391  0.00  0.00     0.017 A 
ATOM      6  C5  UNL d   1       2.546   5.954   2.013  0.00  0.00     0.034 A 
ATOM      7 Cl   UNL d   1       0.658   5.961   3.919  0.00  0.00    -0.070 Cl
ATOM      8 Cl1  UNL d   1       3.161   5.991   6.000  0.00  0.00    -0.070 Cl
ENDROOT
TORSDOF 0
ENDMDL
