MODEL 1
REMARK minimizedAffinity -0.791166306
REMARK minimizedRMSD -1
REMARK  0 active torsions:
REMARK  status: ('A' for Active; 'I' for Inactive)
ROOT
ATOM      1  C   UNL d   1      -0.676   0.392  -2.172  0.00  0.00     0.020 A 
ATOM      2  C1  UNL d   1      -1.172   0.917  -0.979  0.00  0.00     0.020 A 
ATOM      3  C2  UNL d   1      -0.497   0.680   0.221  0.00  0.00     0.034 A 
ATOM      4  C3  UNL d   1       0.676  -0.082   0.230  0.00  0.00     0.017 A 
ATOM      5  C4  UNL d   1       1.173  -0.609  -0.968  0.00  0.00     0.017 A 
ATOM      6  C5  UNL d   1       0.493  -0.369  -2.166  0.00  0.00     0.034 A 
ATOM      7 Cl   UNL d   1       2.614  -1.560  -1.036  0.00  0.00    -0.070 Cl
ATOM      8 Cl1  UNL d   1       1.459  -0.334   1.750  0.00  0.00    -0.070 Cl
ENDROOT
TORSDOF 0
ENDMDL
