MODEL 1
REMARK minimizedAffinity -1.4437238
REMARK minimizedRMSD -1
REMARK  1 active torsions:
REMARK  status: ('A' for Active; 'I' for Inactive)
REMARK    1  A    between atoms: C1_2  and  C2_3 
ROOT
ATOM      1  C2  UNL d   1       0.826  -2.273  -0.812  0.00  0.00    -0.076 A 
ATOM      2  C3  UNL d   1       0.874  -1.753   0.493  0.00  0.00     0.004 A 
ATOM      3  C4  UNL d   1       0.247  -0.549   0.809  0.00  0.00    -0.003 A 
ATOM      4  C5  UNL d   1      -0.438   0.155  -0.176  0.00  0.00     0.000 A 
ATOM      5  C6  UNL d   1      -0.511  -0.356  -1.471  0.00  0.00     0.000 A 
ATOM      6  C7  UNL d   1       0.101  -1.577  -1.802  0.00  0.00    -0.073 A 
ATOM      7  C8  UNL d   1      -0.004  -2.077  -3.217  0.00  0.00     0.078 C 
ENDROOT
BRANCH   1   8
ATOM      8  C1  UNL d   1       1.547  -3.570  -1.101  0.00  0.00     0.053 C 
ATOM      9  C   UNL d   1       0.644  -4.785  -0.953  0.00  0.00     0.018 C 
ENDBRANCH   1   8
TORSDOF 1
ENDMDL
