MODEL 1
REMARK minimizedAffinity -3.26944304
REMARK minimizedRMSD -1
REMARK  1 active torsions:
REMARK  status: ('A' for Active; 'I' for Inactive)
REMARK    1  A    between atoms: C1_2  and  C2_3 
ROOT
ATOM      1  C2  UNL d   1       0.147   0.221  -0.372  0.00  0.00    -0.076 A 
ATOM      2  C3  UNL d   1      -0.276  -0.554   0.722  0.00  0.00     0.004 A 
ATOM      3  C4  UNL d   1      -1.161  -0.038   1.667  0.00  0.00    -0.003 A 
ATOM      4  C5  UNL d   1      -1.638   1.261   1.533  0.00  0.00     0.000 A 
ATOM      5  C6  UNL d   1      -1.243   2.038   0.445  0.00  0.00     0.000 A 
ATOM      6  C7  UNL d   1      -0.364   1.527  -0.526  0.00  0.00    -0.073 A 
ATOM      7  C8  UNL d   1       0.034   2.411  -1.676  0.00  0.00     0.078 C 
ENDROOT
BRANCH   1   8
ATOM      8  C1  UNL d   1       1.130  -0.383  -1.350  0.00  0.00     0.053 C 
ATOM      9  C   UNL d   1       0.746  -1.794  -1.766  0.00  0.00     0.018 C 
ENDBRANCH   1   8
TORSDOF 1
ENDMDL
