MODEL 1
REMARK minimizedAffinity -4.5985713
REMARK minimizedRMSD -1
REMARK  1 active torsions:
REMARK  status: ('A' for Active; 'I' for Inactive)
REMARK    1  A    between atoms: C1_2  and  C2_3 
ROOT
ATOM      1  C2  UNL d   1      -0.027   0.119   0.027  0.00  0.00    -0.076 A 
ATOM      2  C3  UNL d   1      -0.374  -0.723   1.098  0.00  0.00     0.004 A 
ATOM      3  C4  UNL d   1      -1.359  -0.353   2.011  0.00  0.00    -0.003 A 
ATOM      4  C5  UNL d   1      -2.015   0.865   1.868  0.00  0.00     0.000 A 
ATOM      5  C6  UNL d   1      -1.696   1.705   0.801  0.00  0.00     0.000 A 
ATOM      6  C7  UNL d   1      -0.716   1.340  -0.138  0.00  0.00    -0.073 A 
ATOM      7  C8  UNL d   1      -0.408   2.286  -1.265  0.00  0.00     0.078 C 
ENDROOT
BRANCH   1   8
ATOM      8  C1  UNL d   1       1.069  -0.323  -0.916  0.00  0.00     0.053 C 
ATOM      9  C   UNL d   1       1.014  -1.813  -1.217  0.00  0.00     0.018 C 
ENDBRANCH   1   8
TORSDOF 1
ENDMDL
