MODEL 1
REMARK minimizedAffinity -5.0520134
REMARK minimizedRMSD -1
REMARK  1 active torsions:
REMARK  status: ('A' for Active; 'I' for Inactive)
REMARK    1  A    between atoms: C1_2  and  C2_3 
ROOT
ATOM      1  C2  UNL d   1      -0.081  -0.269   0.289  0.00  0.00    -0.076 A 
ATOM      2  C3  UNL d   1      -0.121  -0.963   1.511  0.00  0.00     0.004 A 
ATOM      3  C4  UNL d   1      -1.008  -0.589   2.519  0.00  0.00    -0.003 A 
ATOM      4  C5  UNL d   1      -1.869   0.485   2.322  0.00  0.00     0.000 A 
ATOM      5  C6  UNL d   1      -1.855   1.173   1.109  0.00  0.00     0.000 A 
ATOM      6  C7  UNL d   1      -0.979   0.799   0.076  0.00  0.00    -0.073 A 
ATOM      7  C8  UNL d   1      -1.002   1.580  -1.209  0.00  0.00     0.078 C 
ENDROOT
BRANCH   1   8
ATOM      8  C1  UNL d   1       0.920  -0.703  -0.758  0.00  0.00     0.053 C 
ATOM      9  C   UNL d   1       0.668  -2.119  -1.254  0.00  0.00     0.018 C 
ENDBRANCH   1   8
TORSDOF 1
ENDMDL
