MODEL 1
REMARK minimizedAffinity -2.93669367
REMARK minimizedRMSD -1
REMARK  1 active torsions:
REMARK  status: ('A' for Active; 'I' for Inactive)
REMARK    1  A    between atoms: C1_2  and  C2_3 
ROOT
ATOM      1  C2  UNL d   1      -0.507   0.676   0.149  0.00  0.00    -0.076 A 
ATOM      2  C3  UNL d   1      -0.256  -0.621   0.629  0.00  0.00     0.004 A 
ATOM      3  C4  UNL d   1       0.610  -1.481  -0.046  0.00  0.00    -0.003 A 
ATOM      4  C5  UNL d   1       1.240  -1.056  -1.210  0.00  0.00     0.000 A 
ATOM      5  C6  UNL d   1       1.017   0.234  -1.690  0.00  0.00     0.000 A 
ATOM      6  C7  UNL d   1       0.159   1.118  -1.014  0.00  0.00    -0.073 A 
ATOM      7  C8  UNL d   1      -0.049   2.496  -1.580  0.00  0.00     0.078 C 
ENDROOT
BRANCH   1   8
ATOM      8  C1  UNL d   1      -1.476   1.554   0.908  0.00  0.00     0.053 C 
ATOM      9  C   UNL d   1      -0.972   1.915   2.296  0.00  0.00     0.018 C 
ENDBRANCH   1   8
TORSDOF 1
ENDMDL
