MODEL 1
REMARK minimizedAffinity -3.38707447
REMARK minimizedRMSD -1
REMARK  1 active torsions:
REMARK  status: ('A' for Active; 'I' for Inactive)
REMARK    1  A    between atoms: C1_2  and  C2_3 
ROOT
ATOM      1  C2  UNL d   1      -0.130   0.087   0.176  0.00  0.00    -0.076 A 
ATOM      2  C3  UNL d   1      -0.769  -0.511   1.276  0.00  0.00     0.004 A 
ATOM      3  C4  UNL d   1      -1.735   0.179   2.006  0.00  0.00    -0.003 A 
ATOM      4  C5  UNL d   1      -2.078   1.478   1.648  0.00  0.00     0.000 A 
ATOM      5  C6  UNL d   1      -1.467   2.080   0.549  0.00  0.00     0.000 A 
ATOM      6  C7  UNL d   1      -0.502   1.393  -0.208  0.00  0.00    -0.073 A 
ATOM      7  C8  UNL d   1       0.129   2.093  -1.380  0.00  0.00     0.078 C 
ENDROOT
BRANCH   1   8
ATOM      8  C1  UNL d   1       0.930  -0.701  -0.562  0.00  0.00     0.053 C 
ATOM      9  C   UNL d   1       0.393  -2.002  -1.138  0.00  0.00     0.018 C 
ENDBRANCH   1   8
TORSDOF 1
ENDMDL
