MODEL 1
REMARK minimizedAffinity -3.24991345
REMARK minimizedRMSD -1
REMARK  1 active torsions:
REMARK  status: ('A' for Active; 'I' for Inactive)
REMARK    1  A    between atoms: C1_2  and  C2_3 
ROOT
ATOM      1  C2  UNL d   1       0.239   0.302   0.290  0.00  0.00    -0.076 A 
ATOM      2  C3  UNL d   1      -0.200  -0.583   1.290  0.00  0.00     0.004 A 
ATOM      3  C4  UNL d   1      -1.090  -0.166   2.278  0.00  0.00    -0.003 A 
ATOM      4  C5  UNL d   1      -1.557   1.144   2.282  0.00  0.00     0.000 A 
ATOM      5  C6  UNL d   1      -1.146   2.031   1.287  0.00  0.00     0.000 A 
ATOM      6  C7  UNL d   1      -0.261   1.622   0.275  0.00  0.00    -0.073 A 
ATOM      7  C8  UNL d   1       0.154   2.622  -0.769  0.00  0.00     0.078 C 
ENDROOT
BRANCH   1   8
ATOM      8  C1  UNL d   1       1.227  -0.199  -0.739  0.00  0.00     0.053 C 
ATOM      9  C   UNL d   1       1.241  -1.716  -0.842  0.00  0.00     0.018 C 
ENDBRANCH   1   8
TORSDOF 1
ENDMDL
