MODEL 1
REMARK minimizedAffinity -3.76124263
REMARK minimizedRMSD -1
REMARK  1 active torsions:
REMARK  status: ('A' for Active; 'I' for Inactive)
REMARK    1  A    between atoms: C1_2  and  C2_3 
ROOT
ATOM      1  C2  UNL d   1      -0.041   0.234   0.076  0.00  0.00    -0.076 A 
ATOM      2  C3  UNL d   1      -0.919   1.044  -0.664  0.00  0.00     0.004 A 
ATOM      3  C4  UNL d   1      -1.960   1.730  -0.041  0.00  0.00    -0.003 A 
ATOM      4  C5  UNL d   1      -2.140   1.617   1.333  0.00  0.00     0.000 A 
ATOM      5  C6  UNL d   1      -1.267   0.832   2.086  0.00  0.00     0.000 A 
ATOM      6  C7  UNL d   1      -0.202   0.147   1.475  0.00  0.00    -0.073 A 
ATOM      7  C8  UNL d   1       0.705  -0.690   2.335  0.00  0.00     0.078 C 
ENDROOT
BRANCH   1   8
ATOM      8  C1  UNL d   1       1.053  -0.507  -0.658  0.00  0.00     0.053 C 
ATOM      9  C   UNL d   1       0.506  -1.480  -1.691  0.00  0.00     0.018 C 
ENDBRANCH   1   8
TORSDOF 1
ENDMDL
