MODEL 1
REMARK minimizedAffinity -5.21131134
REMARK minimizedRMSD -1
REMARK  1 active torsions:
REMARK  status: ('A' for Active; 'I' for Inactive)
REMARK    1  A    between atoms: C1_2  and  C2_3 
ROOT
ATOM      1  C2  UNL d   1       0.212   0.309   0.099  0.00  0.00    -0.076 A 
ATOM      2  C3  UNL d   1      -0.143   1.497  -0.563  0.00  0.00     0.004 A 
ATOM      3  C4  UNL d   1      -0.892   2.480   0.080  0.00  0.00    -0.003 A 
ATOM      4  C5  UNL d   1      -1.298   2.292   1.396  0.00  0.00     0.000 A 
ATOM      5  C6  UNL d   1      -0.941   1.127   2.074  0.00  0.00     0.000 A 
ATOM      6  C7  UNL d   1      -0.172   0.133   1.446  0.00  0.00    -0.073 A 
ATOM      7  C8  UNL d   1       0.180  -1.106   2.222  0.00  0.00     0.078 C 
ENDROOT
BRANCH   1   8
ATOM      8  C1  UNL d   1       1.002  -0.734  -0.659  0.00  0.00     0.053 C 
ATOM      9  C   UNL d   1       2.475  -0.375  -0.780  0.00  0.00     0.018 C 
ENDBRANCH   1   8
TORSDOF 1
ENDMDL
