MODEL 1
REMARK minimizedAffinity -0.419543982
REMARK minimizedRMSD -1
REMARK  1 active torsions:
REMARK  status: ('A' for Active; 'I' for Inactive)
REMARK    1  A    between atoms: C1_2  and  C2_3 
ROOT
ATOM      1  C2  UNL d   1      -0.988   0.596   0.444  0.00  0.00    -0.076 A 
ATOM      2  C3  UNL d   1      -0.693  -0.657   1.010  0.00  0.00     0.004 A 
ATOM      3  C4  UNL d   1       0.200  -1.531   0.393  0.00  0.00    -0.003 A 
ATOM      4  C5  UNL d   1       0.813  -1.166  -0.801  0.00  0.00     0.000 A 
ATOM      5  C6  UNL d   1       0.546   0.080  -1.367  0.00  0.00     0.000 A 
ATOM      6  C7  UNL d   1      -0.340   0.979  -0.749  0.00  0.00    -0.073 A 
ATOM      7  C8  UNL d   1      -0.596   2.307  -1.407  0.00  0.00     0.078 C 
ENDROOT
BRANCH   1   8
ATOM      8  C1  UNL d   1      -1.985   1.491   1.145  0.00  0.00     0.053 C 
ATOM      9  C   UNL d   1      -1.380   2.217   2.337  0.00  0.00     0.018 C 
ENDBRANCH   1   8
TORSDOF 1
ENDMDL
