MODEL 1
REMARK minimizedAffinity -3.63246179
REMARK minimizedRMSD -1
REMARK  0 active torsions:
REMARK  status: ('A' for Active; 'I' for Inactive)
ROOT
ATOM      1  O1  BZF d   1       3.783  -0.349  -5.972  0.00  0.00    -0.204 OA
ATOM      2  C2  BZF d   1       4.957   0.378  -5.999  0.00  0.00     0.174 A 
ATOM      3  C3  BZF d   1       6.000  -0.384  -5.609  0.00  0.00    -0.012 A 
ATOM      4  C3A BZF d   1       5.456  -1.692  -5.408  0.00  0.00    -0.107 A 
ATOM      5  C4  BZF d   1       5.999  -2.887  -5.031  0.00  0.00     0.055 A 
ATOM      6  C5  BZF d   1       5.182  -3.958  -4.858  0.00  0.00    -0.016 A 
ATOM      7  C6  BZF d   1       3.818  -3.870  -5.047  0.00  0.00     0.022 A 
ATOM      8  C7  BZF d   1       3.234  -2.707  -5.427  0.00  0.00     0.029 A 
ATOM      9  C7A BZF d   1       4.062  -1.631  -5.634  0.00  0.00     0.058 A 
ENDROOT
TORSDOF 0
ENDMDL
