MODEL 1
REMARK minimizedAffinity -1.27460325
REMARK minimizedRMSD -1
REMARK  0 active torsions:
REMARK  status: ('A' for Active; 'I' for Inactive)
ROOT
ATOM      1  O1  BZF d   1       5.273  -2.624  -5.852  0.00  0.00    -0.204 OA
ATOM      2  C2  BZF d   1       5.998  -2.008  -4.850  0.00  0.00     0.174 A 
ATOM      3  C3  BZF d   1       5.969  -2.741  -3.719  0.00  0.00    -0.012 A 
ATOM      4  C3A BZF d   1       5.252  -3.932  -4.060  0.00  0.00    -0.107 A 
ATOM      5  C4  BZF d   1       4.907  -5.053  -3.360  0.00  0.00     0.055 A 
ATOM      6  C5  BZF d   1       4.142  -5.999  -3.965  0.00  0.00    -0.016 A 
ATOM      7  C6  BZF d   1       3.701  -5.855  -5.264  0.00  0.00     0.022 A 
ATOM      8  C7  BZF d   1       4.021  -4.762  -6.000  0.00  0.00     0.029 A 
ATOM      9  C7A BZF d   1       4.822  -3.820  -5.402  0.00  0.00     0.058 A 
ENDROOT
TORSDOF 0
ENDMDL
