MODEL 1
REMARK minimizedAffinity -3.39914322
REMARK minimizedRMSD -1
REMARK  0 active torsions:
REMARK  status: ('A' for Active; 'I' for Inactive)
ROOT
ATOM      1  O1  BZF d   1       6.000  -2.761  -5.821  0.00  0.00    -0.204 OA
ATOM      2  C2  BZF d   1       5.024  -1.798  -5.986  0.00  0.00     0.174 A 
ATOM      3  C3  BZF d   1       3.821  -2.263  -5.591  0.00  0.00    -0.012 A 
ATOM      4  C3A BZF d   1       4.077  -3.569  -5.066  0.00  0.00    -0.107 A 
ATOM      5  C4  BZF d   1       3.282  -4.528  -4.506  0.00  0.00     0.055 A 
ATOM      6  C5  BZF d   1       3.831  -5.723  -4.163  0.00  0.00    -0.016 A 
ATOM      7  C6  BZF d   1       5.167  -5.995  -4.371  0.00  0.00     0.022 A 
ATOM      8  C7  BZF d   1       5.996  -5.073  -4.919  0.00  0.00     0.029 A 
ATOM      9  C7A BZF d   1       5.452  -3.853  -5.236  0.00  0.00     0.058 A 
ENDROOT
TORSDOF 0
ENDMDL
