MODEL 1
REMARK minimizedAffinity -3.21163964
REMARK minimizedRMSD -1
REMARK  0 active torsions:
REMARK  status: ('A' for Active; 'I' for Inactive)
ROOT
ATOM      1  O1  BZF d   1       4.453  -2.413  -6.000  0.00  0.00    -0.204 OA
ATOM      2  C2  BZF d   1       5.288  -1.572  -5.290  0.00  0.00     0.174 A 
ATOM      3  C3  BZF d   1       5.982  -2.260  -4.361  0.00  0.00    -0.012 A 
ATOM      4  C3A BZF d   1       5.623  -3.631  -4.561  0.00  0.00    -0.107 A 
ATOM      5  C4  BZF d   1       5.995  -4.797  -3.956  0.00  0.00     0.055 A 
ATOM      6  C5  BZF d   1       5.403  -5.958  -4.339  0.00  0.00    -0.016 A 
ATOM      7  C6  BZF d   1       4.432  -5.989  -5.319  0.00  0.00     0.022 A 
ATOM      8  C7  BZF d   1       4.034  -4.859  -5.952  0.00  0.00     0.029 A 
ATOM      9  C7A BZF d   1       4.654  -3.688  -5.589  0.00  0.00     0.058 A 
ENDROOT
TORSDOF 0
ENDMDL
