MODEL 1
REMARK minimizedAffinity -3.07738495
REMARK minimizedRMSD -1
REMARK  0 active torsions:
REMARK  status: ('A' for Active; 'I' for Inactive)
ROOT
ATOM      1  O1  BZF d   1       5.883  -2.452  -5.999  0.00  0.00    -0.204 OA
ATOM      2  C2  BZF d   1       5.370  -1.503  -5.135  0.00  0.00     0.174 A 
ATOM      3  C3  BZF d   1       4.736  -2.092  -4.101  0.00  0.00    -0.012 A 
ATOM      4  C3A BZF d   1       4.939  -3.496  -4.284  0.00  0.00    -0.107 A 
ATOM      5  C4  BZF d   1       4.563  -4.600  -3.573  0.00  0.00     0.055 A 
ATOM      6  C5  BZF d   1       4.859  -5.833  -4.062  0.00  0.00    -0.016 A 
ATOM      7  C6  BZF d   1       5.524  -5.998  -5.259  0.00  0.00     0.022 A 
ATOM      8  C7  BZF d   1       5.922  -4.933  -5.997  0.00  0.00     0.029 A 
ATOM      9  C7A BZF d   1       5.654  -3.686  -5.489  0.00  0.00     0.058 A 
ENDROOT
TORSDOF 0
ENDMDL
