MODEL 1
REMARK minimizedAffinity -1.67785609
REMARK minimizedRMSD -1
REMARK  0 active torsions:
REMARK  status: ('A' for Active; 'I' for Inactive)
ROOT
ATOM      1  O1  BZF d   1       2.830  -4.750  -5.453  0.00  0.00    -0.204 OA
ATOM      2  C2  BZF d   1       3.395  -6.000  -5.621  0.00  0.00     0.174 A 
ATOM      3  C3  BZF d   1       4.684  -6.000  -5.224  0.00  0.00    -0.012 A 
ATOM      4  C3A BZF d   1       4.914  -4.691  -4.693  0.00  0.00    -0.107 A 
ATOM      5  C4  BZF d   1       5.999  -4.084  -4.129  0.00  0.00     0.055 A 
ATOM      6  C5  BZF d   1       5.917  -2.773  -3.781  0.00  0.00    -0.016 A 
ATOM      7  C6  BZF d   1       4.768  -2.038  -3.989  0.00  0.00     0.022 A 
ATOM      8  C7  BZF d   1       3.664  -2.598  -4.540  0.00  0.00     0.029 A 
ATOM      9  C7A BZF d   1       3.733  -3.931  -4.862  0.00  0.00     0.058 A 
ENDROOT
TORSDOF 0
ENDMDL
