MODEL 1
REMARK minimizedAffinity -4.11188745
REMARK minimizedRMSD -1
REMARK  0 active torsions:
REMARK  status: ('A' for Active; 'I' for Inactive)
ROOT
ATOM      1  O1  BZF d   1       6.000  -2.248  -4.470  0.00  0.00    -0.204 OA
ATOM      2  C2  BZF d   1       5.085  -1.351  -4.986  0.00  0.00     0.174 A 
ATOM      3  C3  BZF d   1       3.984  -1.992  -5.429  0.00  0.00    -0.012 A 
ATOM      4  C3A BZF d   1       4.188  -3.367  -5.091  0.00  0.00    -0.107 A 
ATOM      5  C4  BZF d   1       3.438  -4.496  -5.257  0.00  0.00     0.055 A 
ATOM      6  C5  BZF d   1       3.956  -5.695  -4.881  0.00  0.00    -0.016 A 
ATOM      7  C6  BZF d   1       5.220  -5.801  -4.340  0.00  0.00     0.022 A 
ATOM      8  C7  BZF d   1       6.000  -4.709  -4.150  0.00  0.00     0.029 A 
ATOM      9  C7A BZF d   1       5.466  -3.492  -4.499  0.00  0.00     0.058 A 
ENDROOT
TORSDOF 0
ENDMDL
