MODEL 1
REMARK minimizedAffinity -1.4436413
REMARK minimizedRMSD -1
REMARK  0 active torsions:
REMARK  status: ('A' for Active; 'I' for Inactive)
ROOT
ATOM      1  O1  BZF d   1       3.687  -4.962  -5.998  0.00  0.00    -0.204 OA
ATOM      2  C2  BZF d   1       4.497  -6.000  -5.580  0.00  0.00     0.174 A 
ATOM      3  C3  BZF d   1       5.538  -5.533  -4.860  0.00  0.00    -0.012 A 
ATOM      4  C3A BZF d   1       5.317  -4.124  -4.749  0.00  0.00    -0.107 A 
ATOM      5  C4  BZF d   1       5.999  -3.113  -4.136  0.00  0.00     0.055 A 
ATOM      6  C5  BZF d   1       5.556  -1.836  -4.278  0.00  0.00    -0.016 A 
ATOM      7  C6  BZF d   1       4.439  -1.534  -5.029  0.00  0.00     0.022 A 
ATOM      8  C7  BZF d   1       3.726  -2.505  -5.651  0.00  0.00     0.029 A 
ATOM      9  C7A BZF d   1       4.153  -3.799  -5.483  0.00  0.00     0.058 A 
ENDROOT
TORSDOF 0
ENDMDL
