MODEL 1
REMARK minimizedAffinity -3.7077868
REMARK minimizedRMSD -1
REMARK  0 active torsions:
REMARK  status: ('A' for Active; 'I' for Inactive)
ROOT
ATOM      1  O1  BZF d   1       5.983  -1.172  -6.000  0.00  0.00    -0.204 OA
ATOM      2  C2  BZF d   1       4.986  -0.215  -6.000  0.00  0.00     0.174 A 
ATOM      3  C3  BZF d   1       3.777  -0.784  -5.817  0.00  0.00    -0.012 A 
ATOM      4  C3A BZF d   1       4.043  -2.173  -5.604  0.00  0.00    -0.107 A 
ATOM      5  C4  BZF d   1       3.247  -3.254  -5.351  0.00  0.00     0.055 A 
ATOM      6  C5  BZF d   1       3.813  -4.486  -5.267  0.00  0.00    -0.016 A 
ATOM      7  C6  BZF d   1       5.169  -4.675  -5.435  0.00  0.00     0.022 A 
ATOM      8  C7  BZF d   1       6.000  -3.634  -5.682  0.00  0.00     0.029 A 
ATOM      9  C7A BZF d   1       5.435  -2.383  -5.735  0.00  0.00     0.058 A 
ENDROOT
TORSDOF 0
ENDMDL
