MODEL 1
REMARK minimizedAffinity -3.77975678
REMARK minimizedRMSD -1
REMARK  0 active torsions:
REMARK  status: ('A' for Active; 'I' for Inactive)
ROOT
ATOM      1  O1  BZF d   1       3.739  -1.599  -5.280  0.00  0.00    -0.204 OA
ATOM      2  C2  BZF d   1       4.804  -0.869  -5.771  0.00  0.00     0.174 A 
ATOM      3  C3  BZF d   1       5.867  -1.668  -5.999  0.00  0.00    -0.012 A 
ATOM      4  C3A BZF d   1       5.409  -2.994  -5.716  0.00  0.00    -0.107 A 
ATOM      5  C4  BZF d   1       6.000  -4.223  -5.771  0.00  0.00     0.055 A 
ATOM      6  C5  BZF d   1       5.300  -5.312  -5.358  0.00  0.00    -0.016 A 
ATOM      7  C6  BZF d   1       4.010  -5.208  -4.879  0.00  0.00     0.022 A 
ATOM      8  C7  BZF d   1       3.380  -4.010  -4.810  0.00  0.00     0.029 A 
ATOM      9  C7A BZF d   1       4.073  -2.912  -5.258  0.00  0.00     0.058 A 
ENDROOT
TORSDOF 0
ENDMDL
