MODEL 1
REMARK minimizedAffinity -3.13954139
REMARK minimizedRMSD -1
REMARK  0 active torsions:
REMARK  status: ('A' for Active; 'I' for Inactive)
ROOT
ATOM      1  O1  BZF d   1       3.873  -0.731  -5.323  0.00  0.00    -0.204 OA
ATOM      2  C2  BZF d   1       4.979  -0.137  -5.900  0.00  0.00     0.174 A 
ATOM      3  C3  BZF d   1       6.000  -1.013  -5.991  0.00  0.00    -0.012 A 
ATOM      4  C3A BZF d   1       5.471  -2.257  -5.522  0.00  0.00    -0.107 A 
ATOM      5  C4  BZF d   1       5.997  -3.510  -5.387  0.00  0.00     0.055 A 
ATOM      6  C5  BZF d   1       5.238  -4.489  -4.828  0.00  0.00    -0.016 A 
ATOM      7  C6  BZF d   1       3.952  -4.249  -4.391  0.00  0.00     0.022 A 
ATOM      8  C7  BZF d   1       3.385  -3.024  -4.509  0.00  0.00     0.029 A 
ATOM      9  C7A BZF d   1       4.138  -2.041  -5.102  0.00  0.00     0.058 A 
ENDROOT
TORSDOF 0
ENDMDL
