MODEL 1
REMARK minimizedAffinity -1.62849677
REMARK minimizedRMSD -1
REMARK  0 active torsions:
REMARK  status: ('A' for Active; 'I' for Inactive)
ROOT
ATOM      1  O1  BZF d   1       5.912  -5.141  -5.656  0.00  0.00    -0.204 OA
ATOM      2  C2  BZF d   1       5.321  -5.953  -4.708  0.00  0.00     0.174 A 
ATOM      3  C3  BZF d   1       4.694  -5.215  -3.769  0.00  0.00    -0.012 A 
ATOM      4  C3A BZF d   1       4.829  -3.859  -4.205  0.00  0.00    -0.107 A 
ATOM      5  C4  BZF d   1       4.402  -2.664  -3.701  0.00  0.00     0.055 A 
ATOM      6  C5  BZF d   1       4.764  -1.515  -4.329  0.00  0.00    -0.016 A 
ATOM      7  C6  BZF d   1       5.555  -1.523  -5.460  0.00  0.00     0.022 A 
ATOM      8  C7  BZF d   1       5.998  -2.685  -6.000  0.00  0.00     0.029 A 
ATOM      9  C7A BZF d   1       5.607  -3.849  -5.386  0.00  0.00     0.058 A 
ENDROOT
TORSDOF 0
ENDMDL
