MODEL 1
REMARK minimizedAffinity 1.51607096
REMARK minimizedRMSD -1
REMARK  0 active torsions:
REMARK  status: ('A' for Active; 'I' for Inactive)
ROOT
ATOM      1  C   UNL d   1      -1.739   1.017   3.199  0.00  0.00     0.023 A 
ATOM      2  C1  UNL d   1      -0.711   1.821   2.706  0.00  0.00     0.003 A 
ATOM      3  C2  UNL d   1      -0.157   1.558   1.452  0.00  0.00     0.048 A 
ATOM      4  C3  UNL d   1      -0.636   0.490   0.694  0.00  0.00     0.023 A 
ATOM      5  C4  UNL d   1      -1.666  -0.317   1.182  0.00  0.00     0.048 A 
ATOM      6  C5  UNL d   1      -2.216  -0.051   2.438  0.00  0.00     0.003 A 
ATOM      7  I   UNL d   1       0.186   0.097  -1.174  0.00  0.00    -0.146 I 
ENDROOT
TORSDOF 0
ENDMDL
