MODEL 1
REMARK minimizedAffinity -2.80835533
REMARK minimizedRMSD -1
REMARK  0 active torsions:
REMARK  status: ('A' for Active; 'I' for Inactive)
ROOT
ATOM      1  C   UNL d   1      -0.418   0.803   2.266  0.00  0.00     0.023 A 
ATOM      2  C1  UNL d   1       0.862   0.399   1.887  0.00  0.00     0.003 A 
ATOM      3  C2  UNL d   1       1.114   0.018   0.568  0.00  0.00     0.048 A 
ATOM      4  C3  UNL d   1       0.080   0.044  -0.368  0.00  0.00     0.023 A 
ATOM      5  C4  UNL d   1      -1.202   0.448   0.006  0.00  0.00     0.048 A 
ATOM      6  C5  UNL d   1      -1.449   0.828   1.326  0.00  0.00     0.003 A 
ATOM      7  I   UNL d   1       0.452  -0.523  -2.333  0.00  0.00    -0.146 I 
ENDROOT
TORSDOF 0
ENDMDL
