MODEL 1
REMARK minimizedAffinity -2.76398587
REMARK minimizedRMSD -1
REMARK  0 active torsions:
REMARK  status: ('A' for Active; 'I' for Inactive)
ROOT
ATOM      1  C   UNL d   1       0.387   0.414  -5.645  0.00  0.00     0.023 A 
ATOM      2  C1  UNL d   1      -0.410  -0.517  -4.980  0.00  0.00     0.003 A 
ATOM      3  C2  UNL d   1      -0.360  -0.614  -3.588  0.00  0.00     0.048 A 
ATOM      4  C3  UNL d   1       0.490   0.224  -2.867  0.00  0.00     0.023 A 
ATOM      5  C4  UNL d   1       1.290   1.158  -3.528  0.00  0.00     0.048 A 
ATOM      6  C5  UNL d   1       1.236   1.251  -4.920  0.00  0.00     0.003 A 
ATOM      7  I   UNL d   1       0.568   0.082  -0.795  0.00  0.00    -0.146 I 
ENDROOT
TORSDOF 0
ENDMDL
