MODEL 1
REMARK minimizedAffinity -0.327891231
REMARK minimizedRMSD -1
REMARK  0 active torsions:
REMARK  status: ('A' for Active; 'I' for Inactive)
ROOT
ATOM      1  C   UNL d   1      -0.695   0.880   2.504  0.00  0.00     0.023 A 
ATOM      2  C1  UNL d   1      -1.802   0.673   1.681  0.00  0.00     0.003 A 
ATOM      3  C2  UNL d   1      -1.622   0.361   0.332  0.00  0.00     0.048 A 
ATOM      4  C3  UNL d   1      -0.332   0.256  -0.187  0.00  0.00     0.023 A 
ATOM      5  C4  UNL d   1       0.778   0.460   0.633  0.00  0.00     0.048 A 
ATOM      6  C5  UNL d   1       0.593   0.773   1.981  0.00  0.00     0.003 A 
ATOM      7  I   UNL d   1      -0.062  -0.209  -2.195  0.00  0.00    -0.146 I 
ENDROOT
TORSDOF 0
ENDMDL
