MODEL 1
REMARK minimizedAffinity -0.29745689
REMARK minimizedRMSD -1
REMARK  0 active torsions:
REMARK  status: ('A' for Active; 'I' for Inactive)
ROOT
ATOM      1  C   UNL d   1       0.955   0.956  -3.909  0.00  0.00     0.023 A 
ATOM      2  C1  UNL d   1       2.093   0.634  -3.169  0.00  0.00     0.003 A 
ATOM      3  C2  UNL d   1       1.998   0.433  -1.791  0.00  0.00     0.048 A 
ATOM      4  C3  UNL d   1       0.761   0.553  -1.159  0.00  0.00     0.023 A 
ATOM      5  C4  UNL d   1      -0.381   0.874  -1.895  0.00  0.00     0.048 A 
ATOM      6  C5  UNL d   1      -0.280   1.076  -3.273  0.00  0.00     0.003 A 
ATOM      7  I   UNL d   1       0.616   0.254   0.893  0.00  0.00    -0.146 I 
ENDROOT
TORSDOF 0
ENDMDL
