MODEL 1
REMARK minimizedAffinity -3.74453616
REMARK minimizedRMSD -1
REMARK  0 active torsions:
REMARK  status: ('A' for Active; 'I' for Inactive)
ROOT
ATOM      1  C   UNL d   1      -0.842   0.903   2.835  0.00  0.00     0.023 A 
ATOM      2  C1  UNL d   1      -1.599  -0.022   2.115  0.00  0.00     0.003 A 
ATOM      3  C2  UNL d   1      -1.240  -0.352   0.807  0.00  0.00     0.048 A 
ATOM      4  C3  UNL d   1      -0.123   0.246   0.224  0.00  0.00     0.023 A 
ATOM      5  C4  UNL d   1       0.637   1.171   0.941  0.00  0.00     0.048 A 
ATOM      6  C5  UNL d   1       0.274   1.499   2.248  0.00  0.00     0.003 A 
ATOM      7  I   UNL d   1       0.413  -0.244  -1.723  0.00  0.00    -0.146 I 
ENDROOT
TORSDOF 0
ENDMDL
