MODEL 1
REMARK minimizedAffinity 1.56164801
REMARK minimizedRMSD -1
REMARK  0 active torsions:
REMARK  status: ('A' for Active; 'I' for Inactive)
ROOT
ATOM      1  C   UNL d   1       1.737   1.067  -2.720  0.00  0.00     0.023 A 
ATOM      2  C1  UNL d   1       2.065   0.994  -4.074  0.00  0.00     0.003 A 
ATOM      3  C2  UNL d   1       1.135   0.502  -4.992  0.00  0.00     0.048 A 
ATOM      4  C3  UNL d   1      -0.120   0.085  -4.550  0.00  0.00     0.023 A 
ATOM      5  C4  UNL d   1      -0.452   0.157  -3.197  0.00  0.00     0.048 A 
ATOM      6  C5  UNL d   1       0.481   0.649  -2.282  0.00  0.00     0.003 A 
ATOM      7  I   UNL d   1      -1.505  -0.648  -5.916  0.00  0.00    -0.146 I 
ENDROOT
TORSDOF 0
ENDMDL
