MODEL 1
REMARK minimizedAffinity 0.779503286
REMARK minimizedRMSD -1
REMARK  0 active torsions:
REMARK  status: ('A' for Active; 'I' for Inactive)
ROOT
ATOM      1  C   UNL d   1      -2.019   0.896   1.582  0.00  0.00     0.023 A 
ATOM      2  C1  UNL d   1      -1.128   1.182   2.616  0.00  0.00     0.003 A 
ATOM      3  C2  UNL d   1       0.214   0.816   2.505  0.00  0.00     0.048 A 
ATOM      4  C3  UNL d   1       0.660   0.164   1.355  0.00  0.00     0.023 A 
ATOM      5  C4  UNL d   1      -0.228  -0.124   0.317  0.00  0.00     0.048 A 
ATOM      6  C5  UNL d   1      -1.569   0.243   0.434  0.00  0.00     0.003 A 
ATOM      7  I   UNL d   1       2.658  -0.383   1.187  0.00  0.00    -0.146 I 
ENDROOT
TORSDOF 0
ENDMDL
