MODEL 1
REMARK minimizedAffinity 4.9388299
REMARK minimizedRMSD -1
REMARK  0 active torsions:
REMARK  status: ('A' for Active; 'I' for Inactive)
ROOT
ATOM      1  N1  IND d   1       3.011   1.097  -0.661  0.00  0.00    -0.196 N 
ATOM      2  C2  IND d   1       3.744   1.470   0.432  0.00  0.00     0.054 A 
ATOM      3  C3  IND d   1       3.816   0.452   1.319  0.00  0.00    -0.031 A 
ATOM      4  C4  IND d   1       2.894  -1.945   1.138  0.00  0.00     0.051 A 
ATOM      5  C5  IND d   1       2.125  -2.745   0.341  0.00  0.00    -0.031 A 
ATOM      6  C6  IND d   1       1.603  -2.298  -0.855  0.00  0.00     0.015 A 
ATOM      7  C7  IND d   1       1.841  -1.031  -1.307  0.00  0.00    -0.016 A 
ATOM      8  C8  IND d   1       2.617  -0.213  -0.498  0.00  0.00    -0.047 A 
ATOM      9  C9  IND d   1       3.114  -0.648   0.737  0.00  0.00    -0.096 A 
ATOM     10  HN1 IND d   1       2.827   1.597  -1.336  0.00  0.00     0.298 HD
ENDROOT
TORSDOF 0
ENDMDL
