MODEL 1
REMARK minimizedAffinity -0.825823963
REMARK minimizedRMSD -1
REMARK  0 active torsions:
REMARK  status: ('A' for Active; 'I' for Inactive)
ROOT
ATOM      1  N1  IND d   1       2.583   1.085  -0.504  0.00  0.00    -0.196 N 
ATOM      2  C2  IND d   1       3.855   1.495  -0.790  0.00  0.00     0.054 A 
ATOM      3  C3  IND d   1       4.279   2.389   0.130  0.00  0.00    -0.031 A 
ATOM      4  C4  IND d   1       3.091   3.247   2.247  0.00  0.00     0.051 A 
ATOM      5  C5  IND d   1       1.899   3.187   2.912  0.00  0.00    -0.031 A 
ATOM      6  C6  IND d   1       0.853   2.406   2.465  0.00  0.00     0.015 A 
ATOM      7  C7  IND d   1       0.965   1.642   1.337  0.00  0.00    -0.016 A 
ATOM      8  C8  IND d   1       2.173   1.706   0.655  0.00  0.00    -0.047 A 
ATOM      9  C9  IND d   1       3.222   2.530   1.081  0.00  0.00    -0.096 A 
ATOM     10  HN1 IND d   1       2.117   0.531  -0.969  0.00  0.00     0.298 HD
ENDROOT
TORSDOF 0
ENDMDL
