MODEL 1
REMARK minimizedAffinity 11.3059978
REMARK minimizedRMSD -1
REMARK  0 active torsions:
REMARK  status: ('A' for Active; 'I' for Inactive)
ROOT
ATOM      1  N1  IND d   1       2.510   1.731  -0.268  0.00  0.00    -0.196 N 
ATOM      2  C2  IND d   1       3.752   2.266  -0.467  0.00  0.00     0.054 A 
ATOM      3  C3  IND d   1       4.186   2.880   0.657  0.00  0.00    -0.031 A 
ATOM      4  C4  IND d   1       3.065   3.040   2.969  0.00  0.00     0.051 A 
ATOM      5  C5  IND d   1       1.907   2.737   3.628  0.00  0.00    -0.031 A 
ATOM      6  C6  IND d   1       0.870   2.067   3.010  0.00  0.00     0.015 A 
ATOM      7  C7  IND d   1       0.959   1.663   1.708  0.00  0.00    -0.016 A 
ATOM      8  C8  IND d   1       2.131   1.976   1.033  0.00  0.00    -0.047 A 
ATOM      9  C9  IND d   1       3.169   2.693   1.642  0.00  0.00    -0.096 A 
ATOM     10  HN1 IND d   1       2.044   1.313  -0.857  0.00  0.00     0.298 HD
ENDROOT
TORSDOF 0
ENDMDL
