MODEL 1
REMARK minimizedAffinity 14.7679758
REMARK minimizedRMSD -1
REMARK  0 active torsions:
REMARK  status: ('A' for Active; 'I' for Inactive)
ROOT
ATOM      1  N1  IND d   1      -3.204  -4.899  -1.500  0.00  0.00    -0.196 N 
ATOM      2  C2  IND d   1      -1.901  -5.154  -1.176  0.00  0.00     0.054 A 
ATOM      3  C3  IND d   1      -1.236  -5.640  -2.248  0.00  0.00    -0.031 A 
ATOM      4  C4  IND d   1      -2.062  -6.000  -4.659  0.00  0.00     0.051 A 
ATOM      5  C5  IND d   1      -3.188  -5.944  -5.432  0.00  0.00    -0.031 A 
ATOM      6  C6  IND d   1      -4.401  -5.526  -4.924  0.00  0.00     0.015 A 
ATOM      7  C7  IND d   1      -4.531  -5.135  -3.621  0.00  0.00    -0.016 A 
ATOM      8  C8  IND d   1      -3.391  -5.197  -2.832  0.00  0.00    -0.047 A 
ATOM      9  C9  IND d   1      -2.167  -5.661  -3.331  0.00  0.00    -0.096 A 
ATOM     10  HN1 IND d   1      -3.806  -4.602  -0.962  0.00  0.00     0.298 HD
ENDROOT
TORSDOF 0
ENDMDL
