MODEL 1
REMARK minimizedAffinity 4.79599047
REMARK minimizedRMSD -1
REMARK  0 active torsions:
REMARK  status: ('A' for Active; 'I' for Inactive)
ROOT
ATOM      1  N1  IND d   1       0.955   1.692   0.715  0.00  0.00    -0.196 N 
ATOM      2  C2  IND d   1       0.067   1.592   1.749  0.00  0.00     0.054 A 
ATOM      3  C3  IND d   1       0.633   2.022   2.899  0.00  0.00    -0.031 A 
ATOM      4  C4  IND d   1       2.970   3.028   3.294  0.00  0.00     0.051 A 
ATOM      5  C5  IND d   1       4.152   3.289   2.660  0.00  0.00    -0.031 A 
ATOM      6  C6  IND d   1       4.332   3.027   1.317  0.00  0.00     0.015 A 
ATOM      7  C7  IND d   1       3.328   2.504   0.552  0.00  0.00    -0.016 A 
ATOM      8  C8  IND d   1       2.128   2.232   1.195  0.00  0.00    -0.047 A 
ATOM      9  C9  IND d   1       1.954   2.455   2.566  0.00  0.00    -0.096 A 
ATOM     10  HN1 IND d   1       0.806   1.457  -0.099  0.00  0.00     0.298 HD
ENDROOT
TORSDOF 0
ENDMDL
