MODEL 1
REMARK minimizedAffinity -0.565711558
REMARK minimizedRMSD -1
REMARK  0 active torsions:
REMARK  status: ('A' for Active; 'I' for Inactive)
ROOT
ATOM      1  N1  IND d   1       2.776   1.582  -0.627  0.00  0.00    -0.196 N 
ATOM      2  C2  IND d   1       4.022   1.238  -1.073  0.00  0.00     0.054 A 
ATOM      3  C3  IND d   1       4.126  -0.105  -1.189  0.00  0.00    -0.031 A 
ATOM      4  C4  IND d   1       2.345  -1.923  -0.801  0.00  0.00     0.051 A 
ATOM      5  C5  IND d   1       1.066  -2.099  -0.352  0.00  0.00    -0.031 A 
ATOM      6  C6  IND d   1       0.275  -1.036   0.033  0.00  0.00     0.015 A 
ATOM      7  C7  IND d   1       0.732   0.250  -0.027  0.00  0.00    -0.016 A 
ATOM      8  C8  IND d   1       2.032   0.433  -0.476  0.00  0.00    -0.047 A 
ATOM      9  C9  IND d   1       2.854  -0.646  -0.827  0.00  0.00    -0.096 A 
ATOM     10  HN1 IND d   1       2.503   2.382  -0.468  0.00  0.00     0.298 HD
ENDROOT
TORSDOF 0
ENDMDL
