MODEL 1
REMARK minimizedAffinity 10.4481745
REMARK minimizedRMSD -1
REMARK  0 active torsions:
REMARK  status: ('A' for Active; 'I' for Inactive)
ROOT
ATOM      1  N1  IND d   1      -0.748   1.226  -0.903  0.00  0.00    -0.196 N 
ATOM      2  C2  IND d   1       0.230   1.599  -0.023  0.00  0.00     0.054 A 
ATOM      3  C3  IND d   1       0.938   0.519   0.377  0.00  0.00    -0.031 A 
ATOM      4  C4  IND d   1       0.733  -1.938  -0.363  0.00  0.00     0.051 A 
ATOM      5  C5  IND d   1      -0.037  -2.774  -1.123  0.00  0.00    -0.031 A 
ATOM      6  C6  IND d   1      -1.102  -2.309  -1.866  0.00  0.00     0.015 A 
ATOM      7  C7  IND d   1      -1.433  -0.983  -1.885  0.00  0.00    -0.016 A 
ATOM      8  C8  IND d   1      -0.658  -0.133  -1.109  0.00  0.00    -0.047 A 
ATOM      9  C9  IND d   1       0.399  -0.605  -0.320  0.00  0.00    -0.096 A 
ATOM     10  HN1 IND d   1      -1.322   1.752  -1.267  0.00  0.00     0.298 HD
ENDROOT
TORSDOF 0
ENDMDL
