MODEL 1
REMARK minimizedAffinity -0.151077718
REMARK minimizedRMSD -1
REMARK  0 active torsions:
REMARK  status: ('A' for Active; 'I' for Inactive)
ROOT
ATOM      1  N1  IND d   1       3.007   1.394  -0.266  0.00  0.00    -0.196 N 
ATOM      2  C2  IND d   1       1.829   1.686   0.363  0.00  0.00     0.054 A 
ATOM      3  C3  IND d   1       1.045   0.587   0.428  0.00  0.00    -0.031 A 
ATOM      4  C4  IND d   1       1.537  -1.821  -0.341  0.00  0.00     0.051 A 
ATOM      5  C5  IND d   1       2.467  -2.571  -1.004  0.00  0.00    -0.031 A 
ATOM      6  C6  IND d   1       3.650  -2.027  -1.462  0.00  0.00     0.015 A 
ATOM      7  C7  IND d   1       3.953  -0.710  -1.263  0.00  0.00    -0.016 A 
ATOM      8  C8  IND d   1       3.008   0.056  -0.596  0.00  0.00    -0.047 A 
ATOM      9  C9  IND d   1       1.787  -0.480  -0.166  0.00  0.00    -0.096 A 
ATOM     10  HN1 IND d   1       3.641   1.951  -0.429  0.00  0.00     0.298 HD
ENDROOT
TORSDOF 0
ENDMDL
