MODEL 1
REMARK minimizedAffinity 2.62857914
REMARK minimizedRMSD -1
REMARK  0 active torsions:
REMARK  status: ('A' for Active; 'I' for Inactive)
ROOT
ATOM      1  N1  IND d   1      -0.625  -0.038  -0.675  0.00  0.00    -0.196 N 
ATOM      2  C2  IND d   1      -1.377  -1.177  -0.748  0.00  0.00     0.054 A 
ATOM      3  C3  IND d   1      -0.578  -2.264  -0.827  0.00  0.00    -0.031 A 
ATOM      4  C4  IND d   1       1.991  -2.415  -0.751  0.00  0.00     0.051 A 
ATOM      5  C5  IND d   1       3.115  -1.638  -0.727  0.00  0.00    -0.031 A 
ATOM      6  C6  IND d   1       3.049  -0.261  -0.681  0.00  0.00     0.015 A 
ATOM      7  C7  IND d   1       1.850   0.394  -0.645  0.00  0.00    -0.016 A 
ATOM      8  C8  IND d   1       0.707  -0.391  -0.677  0.00  0.00    -0.047 A 
ATOM      9  C9  IND d   1       0.767  -1.788  -0.766  0.00  0.00    -0.096 A 
ATOM     10  HN1 IND d   1      -0.932   0.765  -0.635  0.00  0.00     0.298 HD
ENDROOT
TORSDOF 0
ENDMDL
