MODEL 1
REMARK minimizedAffinity 6.83866739
REMARK minimizedRMSD -1
REMARK  0 active torsions:
REMARK  status: ('A' for Active; 'I' for Inactive)
ROOT
ATOM      1  N1  IND d   1      -1.274   1.015  -0.969  0.00  0.00    -0.196 N 
ATOM      2  C2  IND d   1      -0.448   1.924  -0.369  0.00  0.00     0.054 A 
ATOM      3  C3  IND d   1       0.675   1.318   0.077  0.00  0.00    -0.031 A 
ATOM      4  C4  IND d   1       1.412  -1.137  -0.160  0.00  0.00     0.051 A 
ATOM      5  C5  IND d   1       0.975  -2.355  -0.600  0.00  0.00    -0.031 A 
ATOM      6  C6  IND d   1      -0.257  -2.515  -1.201  0.00  0.00     0.015 A 
ATOM      7  C7  IND d   1      -1.097  -1.456  -1.394  0.00  0.00    -0.016 A 
ATOM      8  C8  IND d   1      -0.660  -0.218  -0.942  0.00  0.00    -0.047 A 
ATOM      9  C9  IND d   1       0.571  -0.058  -0.293  0.00  0.00    -0.096 A 
ATOM     10  HN1 IND d   1      -2.046   1.185  -1.307  0.00  0.00     0.298 HD
ENDROOT
TORSDOF 0
ENDMDL
