MODEL 1
REMARK minimizedAffinity 2.72651982
REMARK minimizedRMSD -1
REMARK  2 active torsions:
REMARK  status: ('A' for Active; 'I' for Inactive)
REMARK    1  A    between atoms: C1_2  and  C2_3 
REMARK    2  A    between atoms: C2_3  and  C3_4 
ROOT
ATOM      1  C3  UNL d   1       0.322   3.350  -0.647  0.00  0.00    -0.075 A 
ATOM      2  C4  UNL d   1       1.647   3.583  -0.249  0.00  0.00     0.002 A 
ATOM      3  C5  UNL d   1       2.081   3.206   1.022  0.00  0.00     0.002 A 
ATOM      4  C6  UNL d   1       1.196   2.604   1.914  0.00  0.00    -0.004 A 
ATOM      5  C7  UNL d   1      -0.127   2.383   1.535  0.00  0.00     0.002 A 
ATOM      6  C8  UNL d   1      -0.563   2.755   0.262  0.00  0.00     0.002 A 
ENDROOT
BRANCH   1   7
ATOM      7  C2  UNL d   1      -0.146   3.728  -2.032  0.00  0.00     0.056 C 
BRANCH   7   8
ATOM      8  C1  UNL d   1      -1.644   3.504  -2.267  0.00  0.00     0.007 C 
ATOM      9  C   UNL d   1      -2.287   4.589  -3.120  0.00  0.00     0.009 C 
ENDBRANCH   7   8
ENDBRANCH   1   7
TORSDOF 2
ENDMDL
