MODEL 1
REMARK minimizedAffinity 3.94429326
REMARK minimizedRMSD -1
REMARK  2 active torsions:
REMARK  status: ('A' for Active; 'I' for Inactive)
REMARK    1  A    between atoms: C1_2  and  C2_3 
REMARK    2  A    between atoms: C2_3  and  C3_4 
ROOT
ATOM      1  C3  UNL d   1       1.293  -4.272  -2.270  0.00  0.00    -0.075 A 
ATOM      2  C4  UNL d   1       2.402  -4.114  -3.114  0.00  0.00     0.002 A 
ATOM      3  C5  UNL d   1       2.239  -4.082  -4.499  0.00  0.00     0.002 A 
ATOM      4  C6  UNL d   1       0.970  -4.219  -5.057  0.00  0.00    -0.004 A 
ATOM      5  C7  UNL d   1      -0.137  -4.393  -4.229  0.00  0.00     0.002 A 
ATOM      6  C8  UNL d   1       0.023  -4.421  -2.843  0.00  0.00     0.002 A 
ENDROOT
BRANCH   1   7
ATOM      7  C2  UNL d   1       1.459  -4.277  -0.769  0.00  0.00     0.056 C 
BRANCH   7   8
ATOM      8  C1  UNL d   1       2.727  -3.570  -0.279  0.00  0.00     0.007 C 
ATOM      9  C   UNL d   1       2.636  -2.052  -0.356  0.00  0.00     0.009 C 
ENDBRANCH   7   8
ENDBRANCH   1   7
TORSDOF 2
ENDMDL
