MODEL 1
REMARK minimizedAffinity 7.16784096
REMARK minimizedRMSD -1
REMARK  2 active torsions:
REMARK  status: ('A' for Active; 'I' for Inactive)
REMARK    1  A    between atoms: C1_2  and  C2_3 
REMARK    2  A    between atoms: C2_3  and  C3_4 
ROOT
ATOM      1  C3  UNL d   1       2.290  -2.864  -0.547  0.00  0.00    -0.075 A 
ATOM      2  C4  UNL d   1       1.451  -3.208  -1.617  0.00  0.00     0.002 A 
ATOM      3  C5  UNL d   1       0.718  -4.395  -1.588  0.00  0.00     0.002 A 
ATOM      4  C6  UNL d   1       0.822  -5.256  -0.498  0.00  0.00    -0.004 A 
ATOM      5  C7  UNL d   1       1.665  -4.932   0.563  0.00  0.00     0.002 A 
ATOM      6  C8  UNL d   1       2.396  -3.743   0.539  0.00  0.00     0.002 A 
ENDROOT
BRANCH   1   7
ATOM      7  C2  UNL d   1       3.063  -1.567  -0.558  0.00  0.00     0.056 C 
BRANCH   7   8
ATOM      8  C1  UNL d   1       2.213  -0.336  -0.890  0.00  0.00     0.007 C 
ATOM      9  C   UNL d   1       1.680   0.376   0.346  0.00  0.00     0.009 C 
ENDBRANCH   7   8
ENDBRANCH   1   7
TORSDOF 2
ENDMDL
