MODEL 1
REMARK minimizedAffinity 13.1558361
REMARK minimizedRMSD -1
REMARK  2 active torsions:
REMARK  status: ('A' for Active; 'I' for Inactive)
REMARK    1  A    between atoms: C1_2  and  C2_3 
REMARK    2  A    between atoms: C2_3  and  C3_4 
ROOT
ATOM      1  C3  UNL d   1       2.198  -2.189  -0.690  0.00  0.00    -0.075 A 
ATOM      2  C4  UNL d   1       1.921  -2.402  -2.048  0.00  0.00     0.002 A 
ATOM      3  C5  UNL d   1       1.268  -3.562  -2.465  0.00  0.00     0.002 A 
ATOM      4  C6  UNL d   1       0.892  -4.527  -1.532  0.00  0.00    -0.004 A 
ATOM      5  C7  UNL d   1       1.177  -4.333  -0.182  0.00  0.00     0.002 A 
ATOM      6  C8  UNL d   1       1.827  -3.171   0.238  0.00  0.00     0.002 A 
ENDROOT
BRANCH   1   7
ATOM      7  C2  UNL d   1       2.878  -0.921  -0.230  0.00  0.00     0.056 C 
BRANCH   7   8
ATOM      8  C1  UNL d   1       3.713  -1.089   1.044  0.00  0.00     0.007 C 
ATOM      9  C   UNL d   1       3.428  -0.023   2.093  0.00  0.00     0.009 C 
ENDBRANCH   7   8
ENDBRANCH   1   7
TORSDOF 2
ENDMDL
