MODEL 1
REMARK minimizedAffinity 10.8350744
REMARK minimizedRMSD -1
REMARK  2 active torsions:
REMARK  status: ('A' for Active; 'I' for Inactive)
REMARK    1  A    between atoms: C1_2  and  C2_3 
REMARK    2  A    between atoms: C2_3  and  C3_4 
ROOT
ATOM      1  C3  UNL d   1       2.026  -1.500   3.645  0.00  0.00    -0.075 A 
ATOM      2  C4  UNL d   1       0.913  -0.938   4.287  0.00  0.00     0.002 A 
ATOM      3  C5  UNL d   1       0.411  -1.503   5.459  0.00  0.00     0.002 A 
ATOM      4  C6  UNL d   1       1.007  -2.641   5.999  0.00  0.00    -0.004 A 
ATOM      5  C7  UNL d   1       2.104  -3.217   5.361  0.00  0.00     0.002 A 
ATOM      6  C8  UNL d   1       2.611  -2.651   4.190  0.00  0.00     0.002 A 
ENDROOT
BRANCH   1   7
ATOM      7  C2  UNL d   1       2.593  -0.876   2.392  0.00  0.00     0.056 C 
BRANCH   7   8
ATOM      8  C1  UNL d   1       3.078  -1.893   1.354  0.00  0.00     0.007 C 
ATOM      9  C   UNL d   1       2.392  -1.746   0.003  0.00  0.00     0.009 C 
ENDBRANCH   7   8
ENDBRANCH   1   7
TORSDOF 2
ENDMDL
