MODEL 1
REMARK minimizedAffinity 10.376338
REMARK minimizedRMSD -1
REMARK  2 active torsions:
REMARK  status: ('A' for Active; 'I' for Inactive)
REMARK    1  A    between atoms: C1_2  and  C2_3 
REMARK    2  A    between atoms: C2_3  and  C3_4 
ROOT
ATOM      1  C3  UNL d   1       1.901  -2.070   3.711  0.00  0.00    -0.075 A 
ATOM      2  C4  UNL d   1       1.999  -2.862   4.865  0.00  0.00     0.002 A 
ATOM      3  C5  UNL d   1       1.248  -2.555   6.000  0.00  0.00     0.002 A 
ATOM      4  C6  UNL d   1       0.399  -1.451   6.000  0.00  0.00    -0.004 A 
ATOM      5  C7  UNL d   1       0.306  -0.648   4.865  0.00  0.00     0.002 A 
ATOM      6  C8  UNL d   1       1.053  -0.955   3.726  0.00  0.00     0.002 A 
ENDROOT
BRANCH   1   7
ATOM      7  C2  UNL d   1       2.689  -2.414   2.470  0.00  0.00     0.056 C 
BRANCH   7   8
ATOM      8  C1  UNL d   1       3.236  -1.194   1.721  0.00  0.00     0.007 C 
ATOM      9  C   UNL d   1       4.089  -1.563   0.514  0.00  0.00     0.009 C 
ENDBRANCH   7   8
ENDBRANCH   1   7
TORSDOF 2
ENDMDL
