MODEL 1
REMARK minimizedAffinity 11.0037174
REMARK minimizedRMSD -1
REMARK  2 active torsions:
REMARK  status: ('A' for Active; 'I' for Inactive)
REMARK    1  A    between atoms: C1_2  and  C2_3 
REMARK    2  A    between atoms: C2_3  and  C3_4 
ROOT
ATOM      1  C3  UNL d   1       3.228  -5.019  -1.292  0.00  0.00    -0.075 A 
ATOM      2  C4  UNL d   1       4.052  -6.000  -1.861  0.00  0.00     0.002 A 
ATOM      3  C5  UNL d   1       5.429  -5.985  -1.638  0.00  0.00     0.002 A 
ATOM      4  C6  UNL d   1       6.000  -4.985  -0.853  0.00  0.00    -0.004 A 
ATOM      5  C7  UNL d   1       5.193  -3.996  -0.297  0.00  0.00     0.002 A 
ATOM      6  C8  UNL d   1       3.814  -4.011  -0.515  0.00  0.00     0.002 A 
ENDROOT
BRANCH   1   7
ATOM      7  C2  UNL d   1       1.733  -5.047  -1.506  0.00  0.00     0.056 C 
BRANCH   7   8
ATOM      8  C1  UNL d   1       1.037  -3.713  -1.216  0.00  0.00     0.007 C 
ATOM      9  C   UNL d   1      -0.110  -3.414  -2.172  0.00  0.00     0.009 C 
ENDBRANCH   7   8
ENDBRANCH   1   7
TORSDOF 2
ENDMDL
