MODEL 1
REMARK minimizedAffinity -5.17523289
REMARK minimizedRMSD -1
REMARK  0 active torsions:
REMARK  status: ('A' for Active; 'I' for Inactive)
ROOT
ATOM      1  O1  BZF d   1       1.276  -1.081   0.280  0.00  0.00    -0.204 OA
ATOM      2  C2  BZF d   1       2.338  -1.168   1.160  0.00  0.00     0.174 A 
ATOM      3  C3  BZF d   1       2.003  -0.662   2.365  0.00  0.00    -0.012 A 
ATOM      4  C3A BZF d   1       0.618  -0.317   2.256  0.00  0.00    -0.107 A 
ATOM      5  C4  BZF d   1      -0.287   0.217   3.128  0.00  0.00     0.055 A 
ATOM      6  C5  BZF d   1      -1.541   0.499   2.687  0.00  0.00    -0.016 A 
ATOM      7  C6  BZF d   1      -1.921   0.266   1.381  0.00  0.00     0.022 A 
ATOM      8  C7  BZF d   1      -1.059  -0.266   0.481  0.00  0.00     0.029 A 
ATOM      9  C7A BZF d   1       0.199  -0.583   0.932  0.00  0.00     0.058 A 
ENDROOT
TORSDOF 0
ENDMDL
