MODEL 1
REMARK minimizedAffinity -0.444183707
REMARK minimizedRMSD -1
REMARK  0 active torsions:
REMARK  status: ('A' for Active; 'I' for Inactive)
ROOT
ATOM      1  O1  BZF d   1       1.704  -0.623   2.000  0.00  0.00    -0.204 OA
ATOM      2  C2  BZF d   1       1.560  -0.498   3.369  0.00  0.00     0.174 A 
ATOM      3  C3  BZF d   1       0.380   0.078   3.675  0.00  0.00    -0.012 A 
ATOM      4  C3A BZF d   1      -0.294   0.244   2.424  0.00  0.00    -0.107 A 
ATOM      5  C4  BZF d   1      -1.515   0.746   2.074  0.00  0.00     0.055 A 
ATOM      6  C5  BZF d   1      -1.841   0.834   0.758  0.00  0.00    -0.016 A 
ATOM      7  C6  BZF d   1      -0.970   0.433  -0.234  0.00  0.00     0.022 A 
ATOM      8  C7  BZF d   1       0.250  -0.077   0.064  0.00  0.00     0.029 A 
ATOM      9  C7A BZF d   1       0.570  -0.197   1.394  0.00  0.00     0.058 A 
ENDROOT
TORSDOF 0
ENDMDL
