MODEL 1
REMARK minimizedAffinity -0.732777476
REMARK minimizedRMSD -1
REMARK  0 active torsions:
REMARK  status: ('A' for Active; 'I' for Inactive)
ROOT
ATOM      1  O1  BZF d   1       0.245   0.327   3.074  0.00  0.00    -0.204 OA
ATOM      2  C2  BZF d   1      -0.926   0.818   3.617  0.00  0.00     0.174 A 
ATOM      3  C3  BZF d   1      -1.831   1.077   2.651  0.00  0.00    -0.012 A 
ATOM      4  C3A BZF d   1      -1.217   0.639   1.435  0.00  0.00    -0.107 A 
ATOM      5  C4  BZF d   1      -1.625   0.619   0.132  0.00  0.00     0.055 A 
ATOM      6  C5  BZF d   1      -0.759   0.195  -0.825  0.00  0.00    -0.016 A 
ATOM      7  C6  BZF d   1       0.523  -0.211  -0.516  0.00  0.00     0.022 A 
ATOM      8  C7  BZF d   1       0.972  -0.213   0.763  0.00  0.00     0.029 A 
ATOM      9  C7A BZF d   1       0.087   0.184   1.736  0.00  0.00     0.058 A 
ENDROOT
TORSDOF 0
ENDMDL
