MODEL 1
REMARK minimizedAffinity -5.41760492
REMARK minimizedRMSD -1
REMARK  0 active torsions:
REMARK  status: ('A' for Active; 'I' for Inactive)
ROOT
ATOM      1  O1  BZF d   1       0.726  -0.669   0.522  0.00  0.00    -0.204 OA
ATOM      2  C2  BZF d   1       0.037  -0.068  -0.514  0.00  0.00     0.174 A 
ATOM      3  C3  BZF d   1      -0.924   0.750  -0.038  0.00  0.00    -0.012 A 
ATOM      4  C3A BZF d   1      -0.770   0.725   1.384  0.00  0.00    -0.107 A 
ATOM      5  C4  BZF d   1      -1.420   1.348   2.411  0.00  0.00     0.055 A 
ATOM      6  C5  BZF d   1      -1.071   1.051   3.690  0.00  0.00    -0.016 A 
ATOM      7  C6  BZF d   1      -0.082   0.135   3.980  0.00  0.00     0.022 A 
ATOM      8  C7  BZF d   1       0.595  -0.504   2.995  0.00  0.00     0.029 A 
ATOM      9  C7A BZF d   1       0.268  -0.183   1.701  0.00  0.00     0.058 A 
ENDROOT
TORSDOF 0
ENDMDL
