MODEL 1
REMARK minimizedAffinity -0.736195564
REMARK minimizedRMSD -1
REMARK  0 active torsions:
REMARK  status: ('A' for Active; 'I' for Inactive)
ROOT
ATOM      1  O1  BZF d   1      -0.709   1.315  -3.307  0.00  0.00    -0.204 OA
ATOM      2  C2  BZF d   1       0.083   0.627  -4.207  0.00  0.00     0.174 A 
ATOM      3  C3  BZF d   1       0.928  -0.203  -3.563  0.00  0.00    -0.012 A 
ATOM      4  C3A BZF d   1       0.583  -0.092  -2.179  0.00  0.00    -0.107 A 
ATOM      5  C4  BZF d   1       1.056  -0.685  -1.043  0.00  0.00     0.055 A 
ATOM      6  C5  BZF d   1       0.553  -0.302   0.160  0.00  0.00    -0.016 A 
ATOM      7  C6  BZF d   1      -0.419   0.671   0.264  0.00  0.00     0.022 A 
ATOM      8  C7  BZF d   1      -0.924   1.283  -0.835  0.00  0.00     0.029 A 
ATOM      9  C7A BZF d   1      -0.440   0.876  -2.054  0.00  0.00     0.058 A 
ENDROOT
TORSDOF 0
ENDMDL
