MODEL 1
REMARK minimizedAffinity 1.71470487
REMARK minimizedRMSD -1
REMARK  1 active torsions:
REMARK  status: ('A' for Active; 'I' for Inactive)
REMARK    1  A    between atoms: C1_2  and  C2_3 
ROOT
ATOM      1  C2  UNL d   1       0.393   0.827  -0.938  0.00  0.00    -0.076 A 
ATOM      2  C3  UNL d   1       0.308   2.226  -0.837  0.00  0.00     0.004 A 
ATOM      3  C4  UNL d   1       1.136   3.052  -1.595  0.00  0.00    -0.003 A 
ATOM      4  C5  UNL d   1       2.062   2.491  -2.468  0.00  0.00     0.000 A 
ATOM      5  C6  UNL d   1       2.148   1.105  -2.595  0.00  0.00     0.000 A 
ATOM      6  C7  UNL d   1       1.309   0.259  -1.849  0.00  0.00    -0.073 A 
ATOM      7  C8  UNL d   1       1.449  -1.229  -2.021  0.00  0.00     0.078 C 
ENDROOT
BRANCH   1   8
ATOM      8  C1  UNL d   1      -0.512  -0.018  -0.070  0.00  0.00     0.053 C 
ATOM      9  C   UNL d   1      -0.480   0.404   1.390  0.00  0.00     0.018 C 
ENDBRANCH   1   8
TORSDOF 1
ENDMDL
