MODEL 1
REMARK minimizedAffinity 6.3147068
REMARK minimizedRMSD -1
REMARK  1 active torsions:
REMARK  status: ('A' for Active; 'I' for Inactive)
REMARK    1  A    between atoms: C1_2  and  C2_3 
ROOT
ATOM      1  C2  UNL d   1       2.529   4.617  -5.975  0.00  0.00    -0.076 A 
ATOM      2  C3  UNL d   1       3.192   5.857  -5.986  0.00  0.00     0.004 A 
ATOM      3  C4  UNL d   1       4.584   5.926  -5.982  0.00  0.00    -0.003 A 
ATOM      4  C5  UNL d   1       5.336   4.757  -5.968  0.00  0.00     0.000 A 
ATOM      5  C6  UNL d   1       4.695   3.518  -5.975  0.00  0.00     0.000 A 
ATOM      6  C7  UNL d   1       3.293   3.431  -5.995  0.00  0.00    -0.073 A 
ATOM      7  C8  UNL d   1       2.654   2.069  -5.996  0.00  0.00     0.078 C 
ENDROOT
BRANCH   1   8
ATOM      8  C1  UNL d   1       1.017   4.605  -5.952  0.00  0.00     0.053 C 
ATOM      9  C   UNL d   1       0.448   3.200  -5.827  0.00  0.00     0.018 C 
ENDBRANCH   1   8
TORSDOF 1
ENDMDL
