MODEL 1
REMARK minimizedAffinity 2.8401885
REMARK minimizedRMSD -1
REMARK  1 active torsions:
REMARK  status: ('A' for Active; 'I' for Inactive)
REMARK    1  A    between atoms: C1_2  and  C2_3 
ROOT
ATOM      1  C2  UNL d   1      -2.290   3.562  -5.905  0.00  0.00    -0.076 A 
ATOM      2  C3  UNL d   1      -3.695   3.591  -5.926  0.00  0.00     0.004 A 
ATOM      3  C4  UNL d   1      -4.388   4.799  -5.967  0.00  0.00    -0.003 A 
ATOM      4  C5  UNL d   1      -3.686   6.000  -5.989  0.00  0.00     0.000 A 
ATOM      5  C6  UNL d   1      -2.292   5.990  -5.987  0.00  0.00     0.000 A 
ATOM      6  C7  UNL d   1      -1.578   4.780  -5.962  0.00  0.00    -0.073 A 
ATOM      7  C8  UNL d   1      -0.075   4.829  -5.955  0.00  0.00     0.078 C 
ENDROOT
BRANCH   1   8
ATOM      8  C1  UNL d   1      -1.593   2.222  -5.833  0.00  0.00     0.053 C 
ATOM      9  C   UNL d   1      -0.082   2.344  -5.950  0.00  0.00     0.018 C 
ENDBRANCH   1   8
TORSDOF 1
ENDMDL
