MODEL 1
REMARK minimizedAffinity 0.321165562
REMARK minimizedRMSD -1
REMARK  1 active torsions:
REMARK  status: ('A' for Active; 'I' for Inactive)
REMARK    1  A    between atoms: C1_2  and  C2_3 
ROOT
ATOM      1  C2  UNL d   1      -1.777   3.581  -5.982  0.00  0.00    -0.076 A 
ATOM      2  C3  UNL d   1      -0.703   2.674  -5.969  0.00  0.00     0.004 A 
ATOM      3  C4  UNL d   1       0.616   3.124  -5.978  0.00  0.00    -0.003 A 
ATOM      4  C5  UNL d   1       0.883   4.488  -5.999  0.00  0.00     0.000 A 
ATOM      5  C6  UNL d   1      -0.169   5.402  -5.995  0.00  0.00     0.000 A 
ATOM      6  C7  UNL d   1      -1.505   4.966  -5.970  0.00  0.00    -0.073 A 
ATOM      7  C8  UNL d   1      -2.601   5.996  -5.972  0.00  0.00     0.078 C 
ENDROOT
BRANCH   1   8
ATOM      8  C1  UNL d   1      -3.186   3.035  -5.999  0.00  0.00     0.053 C 
ATOM      9  C   UNL d   1      -3.812   2.993  -4.613  0.00  0.00     0.018 C 
ENDBRANCH   1   8
TORSDOF 1
ENDMDL
