MODEL 1
REMARK minimizedAffinity -2.4357388
REMARK minimizedRMSD -1
REMARK  1 active torsions:
REMARK  status: ('A' for Active; 'I' for Inactive)
REMARK    1  A    between atoms: C1_2  and  C2_3 
ROOT
ATOM      1  C2  UNL d   1      -1.713   3.849  -5.982  0.00  0.00    -0.076 A 
ATOM      2  C3  UNL d   1      -0.455   3.223  -5.962  0.00  0.00     0.004 A 
ATOM      3  C4  UNL d   1       0.720   3.973  -5.970  0.00  0.00    -0.003 A 
ATOM      4  C5  UNL d   1       0.655   5.362  -5.997  0.00  0.00     0.000 A 
ATOM      5  C6  UNL d   1      -0.584   6.000  -5.999  0.00  0.00     0.000 A 
ATOM      6  C7  UNL d   1      -1.778   5.259  -5.975  0.00  0.00    -0.073 A 
ATOM      7  C8  UNL d   1      -3.088   5.999  -5.985  0.00  0.00     0.078 C 
ENDROOT
BRANCH   1   8
ATOM      8  C1  UNL d   1      -2.953   2.983  -6.000  0.00  0.00     0.053 C 
ATOM      9  C   UNL d   1      -4.233   3.796  -5.886  0.00  0.00     0.018 C 
ENDBRANCH   1   8
TORSDOF 1
ENDMDL
