MODEL 1
REMARK minimizedAffinity -3.34171247
REMARK minimizedRMSD -1
REMARK  1 active torsions:
REMARK  status: ('A' for Active; 'I' for Inactive)
REMARK    1  A    between atoms: C1_2  and  C2_3 
ROOT
ATOM      1  C2  UNL d   1      -1.552   3.603  -5.982  0.00  0.00    -0.076 A 
ATOM      2  C3  UNL d   1      -0.460   2.717  -5.990  0.00  0.00     0.004 A 
ATOM      3  C4  UNL d   1       0.850   3.194  -5.999  0.00  0.00    -0.003 A 
ATOM      4  C5  UNL d   1       1.089   4.563  -6.000  0.00  0.00     0.000 A 
ATOM      5  C6  UNL d   1       0.018   5.456  -5.974  0.00  0.00     0.000 A 
ATOM      6  C7  UNL d   1      -1.308   4.992  -5.948  0.00  0.00    -0.073 A 
ATOM      7  C8  UNL d   1      -2.425   6.000  -5.927  0.00  0.00     0.078 C 
ENDROOT
BRANCH   1   8
ATOM      8  C1  UNL d   1      -2.950   3.028  -5.999  0.00  0.00     0.053 C 
ATOM      9  C   UNL d   1      -3.912   3.808  -5.116  0.00  0.00     0.018 C 
ENDBRANCH   1   8
TORSDOF 1
ENDMDL
