MODEL 1
REMARK minimizedAffinity 2.75046945
REMARK minimizedRMSD -1
REMARK  1 active torsions:
REMARK  status: ('A' for Active; 'I' for Inactive)
REMARK    1  A    between atoms: C1_2  and  C2_3 
ROOT
ATOM      1  C2  UNL d   1      -0.811   3.564  -5.951  0.00  0.00    -0.076 A 
ATOM      2  C3  UNL d   1      -0.164   4.813  -5.940  0.00  0.00     0.004 A 
ATOM      3  C4  UNL d   1      -0.896   5.999  -5.921  0.00  0.00    -0.003 A 
ATOM      4  C5  UNL d   1      -2.286   5.956  -5.912  0.00  0.00     0.000 A 
ATOM      5  C6  UNL d   1      -2.943   4.727  -5.905  0.00  0.00     0.000 A 
ATOM      6  C7  UNL d   1      -2.220   3.521  -5.908  0.00  0.00    -0.073 A 
ATOM      7  C8  UNL d   1      -2.981   2.224  -5.906  0.00  0.00     0.078 C 
ENDROOT
BRANCH   1   8
ATOM      8  C1  UNL d   1       0.035   2.312  -6.000  0.00  0.00     0.053 C 
ATOM      9  C   UNL d   1       1.525   2.614  -5.998  0.00  0.00     0.018 C 
ENDBRANCH   1   8
TORSDOF 1
ENDMDL
