MODEL 1
REMARK minimizedAffinity -1.03082454
REMARK minimizedRMSD -1
REMARK  1 active torsions:
REMARK  status: ('A' for Active; 'I' for Inactive)
REMARK    1  A    between atoms: C1_2  and  C2_3 
ROOT
ATOM      1  C2  UNL d   1      -1.290   4.534  -5.791  0.00  0.00    -0.076 A 
ATOM      2  C3  UNL d   1       0.108   4.663  -5.864  0.00  0.00     0.004 A 
ATOM      3  C4  UNL d   1       0.928   3.541  -5.968  0.00  0.00    -0.003 A 
ATOM      4  C5  UNL d   1       0.363   2.270  -6.000  0.00  0.00     0.000 A 
ATOM      5  C6  UNL d   1      -1.023   2.124  -5.945  0.00  0.00     0.000 A 
ATOM      6  C7  UNL d   1      -1.865   3.246  -5.857  0.00  0.00    -0.073 A 
ATOM      7  C8  UNL d   1      -3.352   3.030  -5.796  0.00  0.00     0.078 C 
ENDROOT
BRANCH   1   8
ATOM      8  C1  UNL d   1      -2.127   5.785  -5.652  0.00  0.00     0.053 C 
ATOM      9  C   UNL d   1      -2.623   6.000  -4.231  0.00  0.00     0.018 C 
ENDBRANCH   1   8
TORSDOF 1
ENDMDL
