MODEL 1
REMARK minimizedAffinity -1.28320289
REMARK minimizedRMSD -1
REMARK  1 active torsions:
REMARK  status: ('A' for Active; 'I' for Inactive)
REMARK    1  A    between atoms: C1_2  and  C2_3 
ROOT
ATOM      1  C2  UNL d   1      -1.312   4.727  -5.994  0.00  0.00    -0.076 A 
ATOM      2  C3  UNL d   1       0.067   5.001  -5.999  0.00  0.00     0.004 A 
ATOM      3  C4  UNL d   1       1.004   3.969  -5.969  0.00  0.00    -0.003 A 
ATOM      4  C5  UNL d   1       0.577   2.646  -5.935  0.00  0.00     0.000 A 
ATOM      5  C6  UNL d   1      -0.787   2.356  -5.948  0.00  0.00     0.000 A 
ATOM      6  C7  UNL d   1      -1.744   3.384  -5.994  0.00  0.00    -0.073 A 
ATOM      7  C8  UNL d   1      -3.202   3.013  -5.999  0.00  0.00     0.078 C 
ENDROOT
BRANCH   1   8
ATOM      8  C1  UNL d   1      -2.281   5.888  -6.000  0.00  0.00     0.053 C 
ATOM      9  C   UNL d   1      -3.066   5.997  -4.702  0.00  0.00     0.018 C 
ENDBRANCH   1   8
TORSDOF 1
ENDMDL
