MODEL 1
REMARK minimizedAffinity -1.33513057
REMARK minimizedRMSD -1
REMARK  1 active torsions:
REMARK  status: ('A' for Active; 'I' for Inactive)
REMARK    1  A    between atoms: C1_2  and  C2_3 
ROOT
ATOM      1  C2  UNL d   1      -0.926   3.702  -5.965  0.00  0.00    -0.076 A 
ATOM      2  C3  UNL d   1      -1.166   5.087  -5.981  0.00  0.00     0.004 A 
ATOM      3  C4  UNL d   1      -0.111   5.998  -5.997  0.00  0.00    -0.003 A 
ATOM      4  C5  UNL d   1       1.201   5.539  -5.997  0.00  0.00     0.000 A 
ATOM      5  C6  UNL d   1       1.458   4.168  -5.999  0.00  0.00     0.000 A 
ATOM      6  C7  UNL d   1       0.406   3.236  -6.000  0.00  0.00    -0.073 A 
ATOM      7  C8  UNL d   1       0.741   1.770  -5.996  0.00  0.00     0.078 C 
ENDROOT
BRANCH   1   8
ATOM      8  C1  UNL d   1      -2.109   2.762  -5.921  0.00  0.00     0.053 C 
ATOM      9  C   UNL d   1      -3.440   3.497  -5.984  0.00  0.00     0.018 C 
ENDBRANCH   1   8
TORSDOF 1
ENDMDL
