MODEL 1
REMARK minimizedAffinity -0.669615805
REMARK minimizedRMSD -1
REMARK  1 active torsions:
REMARK  status: ('A' for Active; 'I' for Inactive)
REMARK    1  A    between atoms: C1_2  and  C2_3 
ROOT
ATOM      1  C2  UNL d   1      -1.817   3.344  -5.981  0.00  0.00    -0.076 A 
ATOM      2  C3  UNL d   1      -0.852   2.322  -5.960  0.00  0.00     0.004 A 
ATOM      3  C4  UNL d   1       0.509   2.621  -5.968  0.00  0.00    -0.003 A 
ATOM      4  C5  UNL d   1       0.928   3.947  -5.996  0.00  0.00     0.000 A 
ATOM      5  C6  UNL d   1      -0.016   4.973  -5.999  0.00  0.00     0.000 A 
ATOM      6  C7  UNL d   1      -1.392   4.690  -5.975  0.00  0.00    -0.073 A 
ATOM      7  C8  UNL d   1      -2.366   5.837  -5.986  0.00  0.00     0.078 C 
ENDROOT
BRANCH   1   8
ATOM      8  C1  UNL d   1      -3.280   2.960  -5.999  0.00  0.00     0.053 C 
ATOM      9  C   UNL d   1      -3.912   3.009  -4.617  0.00  0.00     0.018 C 
ENDBRANCH   1   8
TORSDOF 1
ENDMDL
