MODEL 1
REMARK minimizedAffinity -1.95324814
REMARK minimizedRMSD -1
REMARK  1 active torsions:
REMARK  status: ('A' for Active; 'I' for Inactive)
REMARK    1  A    between atoms: C1_2  and  C2_3 
ROOT
ATOM      1  C2  UNL d   1      -1.656   3.547  -5.964  0.00  0.00    -0.076 A 
ATOM      2  C3  UNL d   1      -3.049   3.362  -5.978  0.00  0.00     0.004 A 
ATOM      3  C4  UNL d   1      -3.918   4.452  -5.993  0.00  0.00    -0.003 A 
ATOM      4  C5  UNL d   1      -3.407   5.745  -5.995  0.00  0.00     0.000 A 
ATOM      5  C6  UNL d   1      -2.027   5.948  -5.999  0.00  0.00     0.000 A 
ATOM      6  C7  UNL d   1      -1.138   4.860  -6.000  0.00  0.00    -0.073 A 
ATOM      7  C8  UNL d   1       0.341   5.136  -5.998  0.00  0.00     0.078 C 
ENDROOT
BRANCH   1   8
ATOM      8  C1  UNL d   1      -0.763   2.327  -5.920  0.00  0.00     0.053 C 
ATOM      9  C   UNL d   1       0.713   2.683  -5.998  0.00  0.00     0.018 C 
ENDBRANCH   1   8
TORSDOF 1
ENDMDL
