MODEL 1
REMARK minimizedAffinity 2.51067734
REMARK minimizedRMSD -1
REMARK  1 active torsions:
REMARK  status: ('A' for Active; 'I' for Inactive)
REMARK    1  A    between atoms: C1_2  and  C2_3 
ROOT
ATOM      1  C2  UNL d   1      -0.033   3.474  -5.991  0.00  0.00    -0.076 A 
ATOM      2  C3  UNL d   1      -1.093   2.550  -6.000  0.00  0.00     0.004 A 
ATOM      3  C4  UNL d   1      -2.419   2.979  -5.982  0.00  0.00    -0.003 A 
ATOM      4  C5  UNL d   1      -2.707   4.339  -5.955  0.00  0.00     0.000 A 
ATOM      5  C6  UNL d   1      -1.669   5.270  -5.964  0.00  0.00     0.000 A 
ATOM      6  C7  UNL d   1      -0.326   4.855  -5.998  0.00  0.00    -0.073 A 
ATOM      7  C8  UNL d   1       0.754   5.902  -6.000  0.00  0.00     0.078 C 
ENDROOT
BRANCH   1   8
ATOM      8  C1  UNL d   1       1.385   2.950  -5.984  0.00  0.00     0.053 C 
ATOM      9  C   UNL d   1       1.456   1.468  -5.649  0.00  0.00     0.018 C 
ENDBRANCH   1   8
TORSDOF 1
ENDMDL
