MODEL 1
REMARK minimizedAffinity -1.31761622
REMARK minimizedRMSD -1
REMARK  1 active torsions:
REMARK  status: ('A' for Active; 'I' for Inactive)
REMARK    1  A    between atoms: C1_2  and  C2_3 
ROOT
ATOM      1  C2  UNL d   1      -1.533   4.153  -5.257  0.00  0.00    -0.076 A 
ATOM      2  C3  UNL d   1      -2.470   4.892  -5.999  0.00  0.00     0.004 A 
ATOM      3  C4  UNL d   1      -3.492   5.598  -5.365  0.00  0.00    -0.003 A 
ATOM      4  C5  UNL d   1      -3.592   5.576  -3.979  0.00  0.00     0.000 A 
ATOM      5  C6  UNL d   1      -2.661   4.862  -3.225  0.00  0.00     0.000 A 
ATOM      6  C7  UNL d   1      -1.615   4.159  -3.848  0.00  0.00    -0.073 A 
ATOM      7  C8  UNL d   1      -0.642   3.401  -2.987  0.00  0.00     0.078 C 
ENDROOT
BRANCH   1   8
ATOM      8  C1  UNL d   1      -0.463   3.385  -6.000  0.00  0.00     0.053 C 
ATOM      9  C   UNL d   1       0.877   4.104  -5.999  0.00  0.00     0.018 C 
ENDBRANCH   1   8
TORSDOF 1
ENDMDL
