MODEL 1
REMARK minimizedAffinity 7.41536093
REMARK minimizedRMSD -1
REMARK  1 active torsions:
REMARK  status: ('A' for Active; 'I' for Inactive)
REMARK    1  A    between atoms: C1_2  and  C2_3 
ROOT
ATOM      1  C2  UNL d   1       0.881   2.552   1.807  0.00  0.00    -0.076 A 
ATOM      2  C3  UNL d   1       0.411   2.888   3.088  0.00  0.00     0.004 A 
ATOM      3  C4  UNL d   1      -0.901   2.609   3.468  0.00  0.00    -0.003 A 
ATOM      4  C5  UNL d   1      -1.764   1.987   2.573  0.00  0.00     0.000 A 
ATOM      5  C6  UNL d   1      -1.309   1.630   1.303  0.00  0.00     0.000 A 
ATOM      6  C7  UNL d   1       0.015   1.890   0.910  0.00  0.00    -0.073 A 
ATOM      7  C8  UNL d   1       0.449   1.489  -0.473  0.00  0.00     0.078 C 
ENDROOT
BRANCH   1   8
ATOM      8  C1  UNL d   1       2.305   2.904   1.442  0.00  0.00     0.053 C 
ATOM      9  C   UNL d   1       3.246   2.837   2.635  0.00  0.00     0.018 C 
ENDBRANCH   1   8
TORSDOF 1
ENDMDL
