MODEL 1
REMARK minimizedAffinity 9.2994175
REMARK minimizedRMSD -1
REMARK  1 active torsions:
REMARK  status: ('A' for Active; 'I' for Inactive)
REMARK    1  A    between atoms: C1_2  and  C2_3 
ROOT
ATOM      1  C2  UNL d   1       2.030   1.555  -2.634  0.00  0.00    -0.076 A 
ATOM      2  C3  UNL d   1       2.176   2.216  -3.866  0.00  0.00     0.004 A 
ATOM      3  C4  UNL d   1       2.347   1.498  -5.049  0.00  0.00    -0.003 A 
ATOM      4  C5  UNL d   1       2.374   0.108  -5.019  0.00  0.00     0.000 A 
ATOM      5  C6  UNL d   1       2.214  -0.564  -3.808  0.00  0.00     0.000 A 
ATOM      6  C7  UNL d   1       2.024   0.144  -2.608  0.00  0.00    -0.073 A 
ATOM      7  C8  UNL d   1       1.862  -0.632  -1.330  0.00  0.00     0.078 C 
ENDROOT
BRANCH   1   8
ATOM      8  C1  UNL d   1       1.875   2.386  -1.380  0.00  0.00     0.053 C 
ATOM      9  C   UNL d   1       3.025   3.362  -1.183  0.00  0.00     0.018 C 
ENDBRANCH   1   8
TORSDOF 1
ENDMDL
