MODEL 1
REMARK minimizedAffinity -0.958842635
REMARK minimizedRMSD -1
REMARK  1 active torsions:
REMARK  status: ('A' for Active; 'I' for Inactive)
REMARK    1  A    between atoms: C1_2  and  C2_3 
ROOT
ATOM      1  C2  UNL d   1      -1.473   3.771  -5.979  0.00  0.00    -0.076 A 
ATOM      2  C3  UNL d   1      -0.172   3.238  -5.986  0.00  0.00     0.004 A 
ATOM      3  C4  UNL d   1       0.945   4.071  -5.997  0.00  0.00    -0.003 A 
ATOM      4  C5  UNL d   1       0.779   5.452  -5.999  0.00  0.00     0.000 A 
ATOM      5  C6  UNL d   1      -0.504   5.998  -5.974  0.00  0.00     0.000 A 
ATOM      6  C7  UNL d   1      -1.640   5.172  -5.947  0.00  0.00    -0.073 A 
ATOM      7  C8  UNL d   1      -3.000   5.815  -5.927  0.00  0.00     0.078 C 
ENDROOT
BRANCH   1   8
ATOM      8  C1  UNL d   1      -2.647   2.817  -5.995  0.00  0.00     0.053 C 
ATOM      9  C   UNL d   1      -3.985   3.540  -5.995  0.00  0.00     0.018 C 
ENDBRANCH   1   8
TORSDOF 1
ENDMDL
