MODEL 1
REMARK minimizedAffinity -3.04794955
REMARK minimizedRMSD -1
REMARK  0 active torsions:
REMARK  status: ('A' for Active; 'I' for Inactive)
ROOT
ATOM      1  O1  BZF d   1       0.710  -2.756   1.708  0.00  0.00    -0.204 OA
ATOM      2  C2  BZF d   1       2.071  -2.979   1.638  0.00  0.00     0.174 A 
ATOM      3  C3  BZF d   1       2.689  -1.969   0.994  0.00  0.00    -0.012 A 
ATOM      4  C3A BZF d   1       1.661  -1.013   0.719  0.00  0.00    -0.107 A 
ATOM      5  C4  BZF d   1       1.654   0.211   0.113  0.00  0.00     0.055 A 
ATOM      6  C5  BZF d   1       0.470   0.855  -0.061  0.00  0.00    -0.016 A 
ATOM      7  C6  BZF d   1      -0.725   0.304   0.355  0.00  0.00     0.022 A 
ATOM      8  C7  BZF d   1      -0.767  -0.905   0.966  0.00  0.00     0.029 A 
ATOM      9  C7A BZF d   1       0.431  -1.544   1.172  0.00  0.00     0.058 A 
ENDROOT
TORSDOF 0
ENDMDL
