MODEL 1
REMARK minimizedAffinity -1.17514694
REMARK minimizedRMSD -1
REMARK  0 active torsions:
REMARK  status: ('A' for Active; 'I' for Inactive)
ROOT
ATOM      1  O1  BZF d   1       2.633  -1.551   1.331  0.00  0.00    -0.204 OA
ATOM      2  C2  BZF d   1       3.391  -0.587   0.694  0.00  0.00     0.174 A 
ATOM      3  C3  BZF d   1       2.600   0.300   0.056  0.00  0.00    -0.012 A 
ATOM      4  C3A BZF d   1       1.262  -0.083   0.388  0.00  0.00    -0.107 A 
ATOM      5  C4  BZF d   1       0.034   0.423   0.070  0.00  0.00     0.055 A 
ATOM      6  C5  BZF d   1      -1.079  -0.229   0.496  0.00  0.00    -0.016 A 
ATOM      7  C6  BZF d   1      -1.003  -1.390   1.237  0.00  0.00     0.022 A 
ATOM      8  C7  BZF d   1       0.193  -1.927   1.582  0.00  0.00     0.029 A 
ATOM      9  C7A BZF d   1       1.320  -1.253   1.181  0.00  0.00     0.058 A 
ENDROOT
TORSDOF 0
ENDMDL
