MODEL 1
REMARK minimizedAffinity -3.07375741
REMARK minimizedRMSD -1
REMARK  0 active torsions:
REMARK  status: ('A' for Active; 'I' for Inactive)
ROOT
ATOM      1  O1  BZF d   1      -1.470   1.268   0.040  0.00  0.00    -0.204 OA
ATOM      2  C2  BZF d   1      -1.065   2.367  -0.693  0.00  0.00     0.174 A 
ATOM      3  C3  BZF d   1       0.274   2.367  -0.855  0.00  0.00    -0.012 A 
ATOM      4  C3A BZF d   1       0.725   1.146  -0.260  0.00  0.00    -0.107 A 
ATOM      5  C4  BZF d   1       1.954   0.569  -0.119  0.00  0.00     0.055 A 
ATOM      6  C5  BZF d   1       2.062  -0.593   0.578  0.00  0.00    -0.016 A 
ATOM      7  C6  BZF d   1       0.964  -1.202   1.149  0.00  0.00     0.022 A 
ATOM      8  C7  BZF d   1      -0.277  -0.669   1.031  0.00  0.00     0.029 A 
ATOM      9  C7A BZF d   1      -0.394   0.487   0.300  0.00  0.00     0.058 A 
ENDROOT
TORSDOF 0
ENDMDL
