MODEL 1
REMARK minimizedAffinity -3.17867303
REMARK minimizedRMSD -1
REMARK  0 active torsions:
REMARK  status: ('A' for Active; 'I' for Inactive)
ROOT
ATOM      1  O1  BZF d   1      -1.514  -0.241  -0.650  0.00  0.00    -0.204 OA
ATOM      2  C2  BZF d   1      -0.250  -0.155  -0.101  0.00  0.00     0.174 A 
ATOM      3  C3  BZF d   1       0.417   0.906  -0.599  0.00  0.00    -0.012 A 
ATOM      4  C3A BZF d   1      -0.519   1.574  -1.449  0.00  0.00    -0.107 A 
ATOM      5  C4  BZF d   1      -0.453   2.703  -2.215  0.00  0.00     0.055 A 
ATOM      6  C5  BZF d   1      -1.521   3.043  -2.984  0.00  0.00    -0.016 A 
ATOM      7  C6  BZF d   1      -2.667   2.276  -3.015  0.00  0.00     0.022 A 
ATOM      8  C7  BZF d   1      -2.782   1.151  -2.268  0.00  0.00     0.029 A 
ATOM      9  C7A BZF d   1      -1.717   0.822  -1.466  0.00  0.00     0.058 A 
ENDROOT
TORSDOF 0
ENDMDL
