MODEL 1
REMARK minimizedAffinity -4.92679453
REMARK minimizedRMSD -1
REMARK  0 active torsions:
REMARK  status: ('A' for Active; 'I' for Inactive)
ROOT
ATOM      1  O1  BZF d   1       0.602   1.239  -0.187  0.00  0.00    -0.204 OA
ATOM      2  C2  BZF d   1      -0.640   1.775   0.094  0.00  0.00     0.174 A 
ATOM      3  C3  BZF d   1      -1.441   0.853   0.667  0.00  0.00    -0.012 A 
ATOM      4  C3A BZF d   1      -0.620  -0.307   0.834  0.00  0.00    -0.107 A 
ATOM      5  C4  BZF d   1      -0.842  -1.546   1.362  0.00  0.00     0.055 A 
ATOM      6  C5  BZF d   1       0.148  -2.475   1.307  0.00  0.00    -0.016 A 
ATOM      7  C6  BZF d   1       1.369  -2.201   0.727  0.00  0.00     0.022 A 
ATOM      8  C7  BZF d   1       1.639  -0.984   0.194  0.00  0.00     0.029 A 
ATOM      9  C7A BZF d   1       0.651  -0.033   0.278  0.00  0.00     0.058 A 
ENDROOT
TORSDOF 0
ENDMDL
