MODEL 1
REMARK minimizedAffinity 1.42140496
REMARK minimizedRMSD -1
REMARK  0 active torsions:
REMARK  status: ('A' for Active; 'I' for Inactive)
ROOT
ATOM      1  O1  BZF d   1      -0.687   1.411   0.110  0.00  0.00    -0.204 OA
ATOM      2  C2  BZF d   1       0.433   1.280  -0.688  0.00  0.00     0.174 A 
ATOM      3  C3  BZF d   1       0.994   0.064  -0.528  0.00  0.00    -0.012 A 
ATOM      4  C3A BZF d   1       0.120  -0.640   0.360  0.00  0.00    -0.107 A 
ATOM      5  C4  BZF d   1       0.132  -1.900   0.886  0.00  0.00     0.055 A 
ATOM      6  C5  BZF d   1      -0.829  -2.252   1.780  0.00  0.00    -0.016 A 
ATOM      7  C6  BZF d   1      -1.812  -1.368   2.175  0.00  0.00     0.022 A 
ATOM      8  C7  BZF d   1      -1.868  -0.109   1.677  0.00  0.00     0.029 A 
ATOM      9  C7A BZF d   1      -0.917   0.239   0.748  0.00  0.00     0.058 A 
ENDROOT
TORSDOF 0
ENDMDL
