MODEL 1
REMARK minimizedAffinity -4.67939997
REMARK minimizedRMSD -1
REMARK  0 active torsions:
REMARK  status: ('A' for Active; 'I' for Inactive)
ROOT
ATOM      1  O1  BZF d   1       2.603  -2.047   1.048  0.00  0.00    -0.204 OA
ATOM      2  C2  BZF d   1       1.873  -3.093   1.578  0.00  0.00     0.174 A 
ATOM      3  C3  BZF d   1       0.550  -2.875   1.435  0.00  0.00    -0.012 A 
ATOM      4  C3A BZF d   1       0.448  -1.657   0.691  0.00  0.00    -0.107 A 
ATOM      5  C4  BZF d   1      -0.608  -0.929   0.221  0.00  0.00     0.055 A 
ATOM      6  C5  BZF d   1      -0.368   0.254  -0.405  0.00  0.00    -0.016 A 
ATOM      7  C6  BZF d   1       0.912   0.740  -0.573  0.00  0.00     0.022 A 
ATOM      8  C7  BZF d   1       1.991   0.051  -0.129  0.00  0.00     0.029 A 
ATOM      9  C7A BZF d   1       1.754  -1.160   0.475  0.00  0.00     0.058 A 
ENDROOT
TORSDOF 0
ENDMDL
