MODEL 1
REMARK minimizedAffinity -4.39355946
REMARK minimizedRMSD -1
REMARK  0 active torsions:
REMARK  status: ('A' for Active; 'I' for Inactive)
ROOT
ATOM      1  O1  BZF d   1      -0.895   0.354   0.329  0.00  0.00    -0.204 OA
ATOM      2  C2  BZF d   1      -0.009   0.852  -0.606  0.00  0.00     0.174 A 
ATOM      3  C3  BZF d   1       1.151   0.166  -0.579  0.00  0.00    -0.012 A 
ATOM      4  C3A BZF d   1       0.946  -0.882   0.373  0.00  0.00    -0.107 A 
ATOM      5  C4  BZF d   1       1.730  -1.904   0.828  0.00  0.00     0.055 A 
ATOM      6  C5  BZF d   1       1.258  -2.710   1.814  0.00  0.00    -0.016 A 
ATOM      7  C6  BZF d   1       0.010  -2.521   2.372  0.00  0.00     0.022 A 
ATOM      8  C7  BZF d   1      -0.805  -1.524   1.950  0.00  0.00     0.029 A 
ATOM      9  C7A BZF d   1      -0.344  -0.728   0.930  0.00  0.00     0.058 A 
ENDROOT
TORSDOF 0
ENDMDL
