MODEL 1
REMARK minimizedAffinity -5.12537813
REMARK minimizedRMSD -1
REMARK  0 active torsions:
REMARK  status: ('A' for Active; 'I' for Inactive)
ROOT
ATOM      1  O1  BZF d   1       0.509  -2.226   1.407  0.00  0.00    -0.204 OA
ATOM      2  C2  BZF d   1       1.831  -2.576   1.210  0.00  0.00     0.174 A 
ATOM      3  C3  BZF d   1       2.463  -1.653   0.457  0.00  0.00    -0.012 A 
ATOM      4  C3A BZF d   1       1.498  -0.618   0.241  0.00  0.00    -0.107 A 
ATOM      5  C4  BZF d   1       1.533   0.575  -0.422  0.00  0.00     0.055 A 
ATOM      6  C5  BZF d   1       0.398   1.317  -0.506  0.00  0.00    -0.016 A 
ATOM      7  C6  BZF d   1      -0.789   0.895   0.056  0.00  0.00     0.022 A 
ATOM      8  C7  BZF d   1      -0.872  -0.279   0.727  0.00  0.00     0.029 A 
ATOM      9  C7A BZF d   1       0.281  -1.016   0.843  0.00  0.00     0.058 A 
ENDROOT
TORSDOF 0
ENDMDL
