MODEL 1
REMARK minimizedAffinity -5.73431158
REMARK minimizedRMSD -1
REMARK  0 active torsions:
REMARK  status: ('A' for Active; 'I' for Inactive)
ROOT
ATOM      1  O1  BZF d   1       2.270  -1.707   0.985  0.00  0.00    -0.204 OA
ATOM      2  C2  BZF d   1       1.694  -2.489   1.968  0.00  0.00     0.174 A 
ATOM      3  C3  BZF d   1       0.432  -2.088   2.220  0.00  0.00    -0.012 A 
ATOM      4  C3A BZF d   1       0.172  -1.046   1.274  0.00  0.00    -0.107 A 
ATOM      5  C4  BZF d   1      -0.917  -0.264   1.014  0.00  0.00     0.055 A 
ATOM      6  C5  BZF d   1      -0.821   0.711   0.072  0.00  0.00    -0.016 A 
ATOM      7  C6  BZF d   1       0.349   0.933  -0.625  0.00  0.00     0.022 A 
ATOM      8  C7  BZF d   1       1.454   0.180  -0.406  0.00  0.00     0.029 A 
ATOM      9  C7A BZF d   1       1.350  -0.827   0.523  0.00  0.00     0.058 A 
ENDROOT
TORSDOF 0
ENDMDL
