MODEL 1
REMARK minimizedAffinity -2.68285131
REMARK minimizedRMSD -1
REMARK  0 active torsions:
REMARK  status: ('A' for Active; 'I' for Inactive)
ROOT
ATOM      1  O1  BZF d   1      -1.531   1.520   0.521  0.00  0.00    -0.204 OA
ATOM      2  C2  BZF d   1      -0.816   1.800  -0.628  0.00  0.00     0.174 A 
ATOM      3  C3  BZF d   1      -0.037   0.754  -0.973  0.00  0.00    -0.012 A 
ATOM      4  C3A BZF d   1      -0.350  -0.275  -0.030  0.00  0.00    -0.107 A 
ATOM      5  C4  BZF d   1       0.087  -1.558   0.139  0.00  0.00     0.055 A 
ATOM      6  C5  BZF d   1      -0.363  -2.274   1.203  0.00  0.00    -0.016 A 
ATOM      7  C6  BZF d   1      -1.244  -1.738   2.119  0.00  0.00     0.022 A 
ATOM      8  C7  BZF d   1      -1.710  -0.472   1.990  0.00  0.00     0.029 A 
ATOM      9  C7A BZF d   1      -1.282   0.243   0.898  0.00  0.00     0.058 A 
ENDROOT
TORSDOF 0
ENDMDL
