MODEL 1
REMARK minimizedAffinity 2.72091746
REMARK minimizedRMSD -1
REMARK  0 active torsions:
REMARK  status: ('A' for Active; 'I' for Inactive)
ROOT
ATOM      1  O1  BZF d   1      -1.828  -0.067  -0.503  0.00  0.00    -0.204 OA
ATOM      2  C2  BZF d   1      -0.651   0.215   0.163  0.00  0.00     0.174 A 
ATOM      3  C3  BZF d   1      -0.023   1.268  -0.399  0.00  0.00    -0.012 A 
ATOM      4  C3A BZF d   1      -0.905   1.727  -1.427  0.00  0.00    -0.107 A 
ATOM      5  C4  BZF d   1      -0.846   2.754  -2.326  0.00  0.00     0.055 A 
ATOM      6  C5  BZF d   1      -1.839   2.887  -3.244  0.00  0.00    -0.016 A 
ATOM      7  C6  BZF d   1      -2.903   2.009  -3.295  0.00  0.00     0.022 A 
ATOM      8  C7  BZF d   1      -3.008   0.979  -2.421  0.00  0.00     0.029 A 
ATOM      9  C7A BZF d   1      -2.022   0.862  -1.471  0.00  0.00     0.058 A 
ENDROOT
TORSDOF 0
ENDMDL
