MODEL 1
REMARK minimizedAffinity -2.31907654
REMARK minimizedRMSD -1
REMARK  0 active torsions:
REMARK  status: ('A' for Active; 'I' for Inactive)
ROOT
ATOM      1  O1  BZF d   1      -1.469   0.198   0.348  0.00  0.00    -0.204 OA
ATOM      2  C2  BZF d   1      -1.371   1.481  -0.154  0.00  0.00     0.174 A 
ATOM      3  C3  BZF d   1      -0.081   1.818  -0.357  0.00  0.00    -0.012 A 
ATOM      4  C3A BZF d   1       0.669   0.641  -0.043  0.00  0.00    -0.107 A 
ATOM      5  C4  BZF d   1       2.002   0.343  -0.065  0.00  0.00     0.055 A 
ATOM      6  C5  BZF d   1       2.413  -0.876   0.372  0.00  0.00    -0.016 A 
ATOM      7  C6  BZF d   1       1.522  -1.818   0.841  0.00  0.00     0.022 A 
ATOM      8  C7  BZF d   1       0.190  -1.571   0.877  0.00  0.00     0.029 A 
ATOM      9  C7A BZF d   1      -0.233  -0.352   0.405  0.00  0.00     0.058 A 
ENDROOT
TORSDOF 0
ENDMDL
