MODEL 1
REMARK minimizedAffinity -5.74924374
REMARK minimizedRMSD -1
REMARK  0 active torsions:
REMARK  status: ('A' for Active; 'I' for Inactive)
ROOT
ATOM      1  O1  BZF d   1      -1.469   0.234   0.020  0.00  0.00    -0.204 OA
ATOM      2  C2  BZF d   1      -0.797   0.283  -1.186  0.00  0.00     0.174 A 
ATOM      3  C3  BZF d   1       0.247  -0.571  -1.187  0.00  0.00    -0.012 A 
ATOM      4  C3A BZF d   1       0.171  -1.259   0.065  0.00  0.00    -0.107 A 
ATOM      5  C4  BZF d   1       0.923  -2.241   0.644  0.00  0.00     0.055 A 
ATOM      6  C5  BZF d   1       0.626  -2.642   1.908  0.00  0.00    -0.016 A 
ATOM      7  C6  BZF d   1      -0.410  -2.080   2.623  0.00  0.00     0.022 A 
ATOM      8  C7  BZF d   1      -1.187  -1.106   2.090  0.00  0.00     0.029 A 
ATOM      9  C7A BZF d   1      -0.911  -0.721   0.800  0.00  0.00     0.058 A 
ENDROOT
TORSDOF 0
ENDMDL
