MODEL 1
REMARK minimizedAffinity -4.82264423
REMARK minimizedRMSD -1
REMARK  0 active torsions:
REMARK  status: ('A' for Active; 'I' for Inactive)
ROOT
ATOM      1  O1  BZF d   1      -0.933  -0.392   0.547  0.00  0.00    -0.204 OA
ATOM      2  C2  BZF d   1      -1.123   0.805  -0.117  0.00  0.00     0.174 A 
ATOM      3  C3  BZF d   1       0.046   1.275  -0.598  0.00  0.00    -0.012 A 
ATOM      4  C3A BZF d   1       1.013   0.266  -0.290  0.00  0.00    -0.107 A 
ATOM      5  C4  BZF d   1       2.353   0.147  -0.526  0.00  0.00     0.055 A 
ATOM      6  C5  BZF d   1       3.017  -0.930  -0.030  0.00  0.00    -0.016 A 
ATOM      7  C6  BZF d   1       2.376  -1.902   0.709  0.00  0.00     0.022 A 
ATOM      8  C7  BZF d   1       1.047  -1.830   0.964  0.00  0.00     0.029 A 
ATOM      9  C7A BZF d   1       0.366  -0.760   0.437  0.00  0.00     0.058 A 
ENDROOT
TORSDOF 0
ENDMDL
