MODEL 1
REMARK minimizedAffinity -4.03951073
REMARK minimizedRMSD -1
REMARK  0 active torsions:
REMARK  status: ('A' for Active; 'I' for Inactive)
ROOT
ATOM      1  O1  BZF d   1      -0.586   2.249  -1.949  0.00  0.00    -0.204 OA
ATOM      2  C2  BZF d   1      -1.952   2.298  -1.747  0.00  0.00     0.174 A 
ATOM      3  C3  BZF d   1      -2.347   1.315  -0.912  0.00  0.00    -0.012 A 
ATOM      4  C3A BZF d   1      -1.141   0.665  -0.499  0.00  0.00    -0.107 A 
ATOM      5  C4  BZF d   1      -0.878  -0.379   0.341  0.00  0.00     0.055 A 
ATOM      6  C5  BZF d   1       0.402  -0.816   0.471  0.00  0.00    -0.016 A 
ATOM      7  C6  BZF d   1       1.441  -0.236  -0.227  0.00  0.00     0.022 A 
ATOM      8  C7  BZF d   1       1.230   0.805  -1.069  0.00  0.00     0.029 A 
ATOM      9  C7A BZF d   1      -0.058   1.270  -1.177  0.00  0.00     0.058 A 
ENDROOT
TORSDOF 0
ENDMDL
