MODEL 1
REMARK minimizedAffinity -3.31161499
REMARK minimizedRMSD -1
REMARK  0 active torsions:
REMARK  status: ('A' for Active; 'I' for Inactive)
ROOT
ATOM      1  O1  BZF d   1       0.190   1.138  -0.972  0.00  0.00    -0.204 OA
ATOM      2  C2  BZF d   1      -1.134   1.000  -0.603  0.00  0.00     0.174 A 
ATOM      3  C3  BZF d   1      -1.301  -0.082   0.184  0.00  0.00    -0.012 A 
ATOM      4  C3A BZF d   1       0.015  -0.604   0.391  0.00  0.00    -0.107 A 
ATOM      5  C4  BZF d   1       0.504  -1.664   1.100  0.00  0.00     0.055 A 
ATOM      6  C5  BZF d   1       1.832  -1.944   1.037  0.00  0.00    -0.016 A 
ATOM      7  C6  BZF d   1       2.698  -1.190   0.272  0.00  0.00     0.022 A 
ATOM      8  C7  BZF d   1       2.260  -0.126  -0.444  0.00  0.00     0.029 A 
ATOM      9  C7A BZF d   1       0.924   0.180  -0.357  0.00  0.00     0.058 A 
ENDROOT
TORSDOF 0
ENDMDL
