MODEL 1
REMARK minimizedAffinity -5.15122461
REMARK minimizedRMSD -1
REMARK  0 active torsions:
REMARK  status: ('A' for Active; 'I' for Inactive)
ROOT
ATOM      1  O1  BZF d   1      -1.713   2.151  -1.919  0.00  0.00    -0.204 OA
ATOM      2  C2  BZF d   1      -2.270   1.246  -2.802  0.00  0.00     0.174 A 
ATOM      3  C3  BZF d   1      -2.164   1.690  -4.072  0.00  0.00    -0.012 A 
ATOM      4  C3A BZF d   1      -1.418   2.907  -3.984  0.00  0.00    -0.107 A 
ATOM      5  C4  BZF d   1      -0.976   3.807  -4.911  0.00  0.00     0.055 A 
ATOM      6  C5  BZF d   1      -0.337   4.930  -4.491  0.00  0.00    -0.016 A 
ATOM      7  C6  BZF d   1      -0.129   5.188  -3.152  0.00  0.00     0.022 A 
ATOM      8  C7  BZF d   1      -0.544   4.323  -2.195  0.00  0.00     0.029 A 
ATOM      9  C7A BZF d   1      -1.160   3.171  -2.618  0.00  0.00     0.058 A 
ENDROOT
TORSDOF 0
ENDMDL
