MODEL 1
REMARK minimizedAffinity -1.43586552
REMARK minimizedRMSD -1
REMARK  1 active torsions:
REMARK  status: ('A' for Active; 'I' for Inactive)
REMARK    1  A    between atoms: C1_2  and  C2_3 
ROOT
ATOM      1  C2  UNL d   1       1.176  -1.429   0.473  0.00  0.00    -0.073 A 
ATOM      2  C3  UNL d   1       0.932  -1.068  -0.857  0.00  0.00    -0.002 A 
ATOM      3  C4  UNL d   1      -0.282  -0.483  -1.218  0.00  0.00     0.004 A 
ATOM      4  C5  UNL d   1      -1.261  -0.246  -0.253  0.00  0.00    -0.004 A 
ATOM      5  C6  UNL d   1      -1.032  -0.589   1.083  0.00  0.00    -0.075 A 
ATOM      6  C7  UNL d   1      -2.076  -0.343   2.133  0.00  0.00     0.076 C 
ATOM      7  C8  UNL d   1       0.189  -1.179   1.437  0.00  0.00     0.001 A 
ENDROOT
BRANCH   1   8
ATOM      8  C1  UNL d   1       2.488  -2.055   0.868  0.00  0.00     0.053 C 
ATOM      9  C   UNL d   1       3.375  -1.086   1.633  0.00  0.00     0.018 C 
ENDBRANCH   1   8
TORSDOF 1
ENDMDL
