MODEL 1
REMARK minimizedAffinity -2.1437397
REMARK minimizedRMSD -1
REMARK  1 active torsions:
REMARK  status: ('A' for Active; 'I' for Inactive)
REMARK    1  A    between atoms: C1_2  and  C2_3 
ROOT
ATOM      1  C2  UNL d   1      -0.224   0.048   0.335  0.00  0.00    -0.073 A 
ATOM      2  C3  UNL d   1      -1.391   0.257   1.078  0.00  0.00    -0.002 A 
ATOM      3  C4  UNL d   1      -1.689  -0.561   2.168  0.00  0.00     0.004 A 
ATOM      4  C5  UNL d   1      -0.822  -1.592   2.530  0.00  0.00    -0.004 A 
ATOM      5  C6  UNL d   1       0.356  -1.809   1.807  0.00  0.00    -0.075 A 
ATOM      6  C7  UNL d   1       1.298  -2.915   2.183  0.00  0.00     0.076 C 
ATOM      7  C8  UNL d   1       0.647  -0.985   0.712  0.00  0.00     0.001 A 
ENDROOT
BRANCH   1   8
ATOM      8  C1  UNL d   1       0.105   0.933  -0.839  0.00  0.00     0.053 C 
ATOM      9  C   UNL d   1      -1.141   1.363  -1.596  0.00  0.00     0.018 C 
ENDBRANCH   1   8
TORSDOF 1
ENDMDL
