MODEL 1
REMARK minimizedAffinity -5.3260293
REMARK minimizedRMSD -1
REMARK  1 active torsions:
REMARK  status: ('A' for Active; 'I' for Inactive)
REMARK    1  A    between atoms: C1_2  and  C2_3 
ROOT
ATOM      1  C2  UNL d   1       0.195  -0.790  -0.430  0.00  0.00    -0.073 A 
ATOM      2  C3  UNL d   1      -0.100  -0.363   0.870  0.00  0.00    -0.002 A 
ATOM      3  C4  UNL d   1      -0.822   0.812   1.078  0.00  0.00     0.004 A 
ATOM      4  C5  UNL d   1      -1.262   1.568  -0.008  0.00  0.00    -0.004 A 
ATOM      5  C6  UNL d   1      -0.987   1.152  -1.315  0.00  0.00    -0.075 A 
ATOM      6  C7  UNL d   1      -1.450   1.955  -2.494  0.00  0.00     0.076 C 
ATOM      7  C8  UNL d   1      -0.259  -0.029  -1.516  0.00  0.00     0.001 A 
ENDROOT
BRANCH   1   8
ATOM      8  C1  UNL d   1       0.969  -2.063  -0.660  0.00  0.00     0.053 C 
ATOM      9  C   UNL d   1       1.857  -2.412   0.524  0.00  0.00     0.018 C 
ENDBRANCH   1   8
TORSDOF 1
ENDMDL
