MODEL 1
REMARK minimizedAffinity -3.37783122
REMARK minimizedRMSD -1
REMARK  1 active torsions:
REMARK  status: ('A' for Active; 'I' for Inactive)
REMARK    1  A    between atoms: C1_2  and  C2_3 
ROOT
ATOM      1  C2  UNL d   1       0.394  -0.490   0.367  0.00  0.00    -0.073 A 
ATOM      2  C3  UNL d   1      -0.400  -0.444   1.518  0.00  0.00    -0.002 A 
ATOM      3  C4  UNL d   1      -1.410   0.512   1.639  0.00  0.00     0.004 A 
ATOM      4  C5  UNL d   1      -1.639   1.425   0.610  0.00  0.00    -0.004 A 
ATOM      5  C6  UNL d   1      -0.864   1.387  -0.553  0.00  0.00    -0.075 A 
ATOM      6  C7  UNL d   1      -1.096   2.363  -1.668  0.00  0.00     0.076 C 
ATOM      7  C8  UNL d   1       0.150   0.426  -0.666  0.00  0.00     0.001 A 
ENDROOT
BRANCH   1   8
ATOM      8  C1  UNL d   1       1.481  -1.525   0.229  0.00  0.00     0.053 C 
ATOM      9  C   UNL d   1       2.222  -1.751   1.537  0.00  0.00     0.018 C 
ENDBRANCH   1   8
TORSDOF 1
ENDMDL
