MODEL 1
REMARK minimizedAffinity -3.57721043
REMARK minimizedRMSD -1
REMARK  1 active torsions:
REMARK  status: ('A' for Active; 'I' for Inactive)
REMARK    1  A    between atoms: C1_2  and  C2_3 
ROOT
ATOM      1  C2  UNL d   1       2.516  -0.968   0.686  0.00  0.00    -0.073 A 
ATOM      2  C3  UNL d   1       1.817  -2.012   1.301  0.00  0.00    -0.002 A 
ATOM      3  C4  UNL d   1       0.436  -2.129   1.137  0.00  0.00     0.004 A 
ATOM      4  C5  UNL d   1      -0.258  -1.208   0.351  0.00  0.00    -0.004 A 
ATOM      5  C6  UNL d   1       0.426  -0.165  -0.282  0.00  0.00    -0.075 A 
ATOM      6  C7  UNL d   1      -0.306   0.835  -1.129  0.00  0.00     0.076 C 
ATOM      7  C8  UNL d   1       1.812  -0.053  -0.110  0.00  0.00     0.001 A 
ENDROOT
BRANCH   1   8
ATOM      8  C1  UNL d   1       4.008  -0.842   0.856  0.00  0.00     0.053 C 
ATOM      9  C   UNL d   1       4.377  -0.141   2.154  0.00  0.00     0.018 C 
ENDBRANCH   1   8
TORSDOF 1
ENDMDL
