MODEL 1
REMARK minimizedAffinity 0.409885764
REMARK minimizedRMSD -1
REMARK  1 active torsions:
REMARK  status: ('A' for Active; 'I' for Inactive)
REMARK    1  A    between atoms: C1_2  and  C2_3 
ROOT
ATOM      1  C2  UNL d   1       0.680  -0.539   1.030  0.00  0.00    -0.073 A 
ATOM      2  C3  UNL d   1       0.645  -0.618  -0.367  0.00  0.00    -0.002 A 
ATOM      3  C4  UNL d   1      -0.540  -0.365  -1.058  0.00  0.00     0.004 A 
ATOM      4  C5  UNL d   1      -1.700  -0.024  -0.362  0.00  0.00    -0.004 A 
ATOM      5  C6  UNL d   1      -1.682   0.072   1.034  0.00  0.00    -0.075 A 
ATOM      6  C7  UNL d   1      -2.921   0.436   1.798  0.00  0.00     0.076 C 
ATOM      7  C8  UNL d   1      -0.488  -0.186   1.721  0.00  0.00     0.001 A 
ENDROOT
BRANCH   1   8
ATOM      8  C1  UNL d   1       1.959  -0.805   1.780  0.00  0.00     0.053 C 
ATOM      9  C   UNL d   1       2.165  -2.288   2.049  0.00  0.00     0.018 C 
ENDBRANCH   1   8
TORSDOF 1
ENDMDL
