MODEL 1
REMARK minimizedAffinity -2.48976159
REMARK minimizedRMSD -1
REMARK  1 active torsions:
REMARK  status: ('A' for Active; 'I' for Inactive)
REMARK    1  A    between atoms: C1_2  and  C2_3 
ROOT
ATOM      1  C2  UNL d   1      -0.571   0.546  -0.560  0.00  0.00    -0.073 A 
ATOM      2  C3  UNL d   1      -1.012  -0.782  -0.537  0.00  0.00    -0.002 A 
ATOM      3  C4  UNL d   1      -0.104  -1.823  -0.340  0.00  0.00     0.004 A 
ATOM      4  C5  UNL d   1       1.251  -1.548  -0.157  0.00  0.00    -0.004 A 
ATOM      5  C6  UNL d   1       1.710  -0.226  -0.165  0.00  0.00    -0.075 A 
ATOM      6  C7  UNL d   1       3.164   0.087   0.028  0.00  0.00     0.076 C 
ATOM      7  C8  UNL d   1       0.792   0.814  -0.366  0.00  0.00     0.001 A 
ENDROOT
BRANCH   1   8
ATOM      8  C1  UNL d   1      -1.549   1.674  -0.766  0.00  0.00     0.053 C 
ATOM      9  C   UNL d   1      -1.839   1.914  -2.239  0.00  0.00     0.018 C 
ENDBRANCH   1   8
TORSDOF 1
ENDMDL
