MODEL 1
REMARK minimizedAffinity -2.90240002
REMARK minimizedRMSD -1
REMARK  1 active torsions:
REMARK  status: ('A' for Active; 'I' for Inactive)
REMARK    1  A    between atoms: C1_2  and  C2_3 
ROOT
ATOM      1  C2  UNL d   1       0.022   0.321  -0.351  0.00  0.00    -0.073 A 
ATOM      2  C3  UNL d   1       1.162   1.043  -0.722  0.00  0.00    -0.002 A 
ATOM      3  C4  UNL d   1       2.429   0.471  -0.601  0.00  0.00     0.004 A 
ATOM      4  C5  UNL d   1       2.569  -0.829  -0.117  0.00  0.00    -0.004 A 
ATOM      5  C6  UNL d   1       1.441  -1.572   0.248  0.00  0.00    -0.075 A 
ATOM      6  C7  UNL d   1       1.575  -2.971   0.773  0.00  0.00     0.076 C 
ATOM      7  C8  UNL d   1       0.172  -0.989   0.127  0.00  0.00     0.001 A 
ENDROOT
BRANCH   1   8
ATOM      8  C1  UNL d   1      -1.349   0.932  -0.485  0.00  0.00     0.053 C 
ATOM      9  C   UNL d   1      -1.446   1.857  -1.688  0.00  0.00     0.018 C 
ENDBRANCH   1   8
TORSDOF 1
ENDMDL
