MODEL 1
REMARK minimizedAffinity 6.84337187
REMARK minimizedRMSD -1
REMARK  0 active torsions:
REMARK  status: ('A' for Active; 'I' for Inactive)
ROOT
ATOM      1  O1  BZF d   1       3.871   5.999   5.969  0.00  0.00    -0.204 OA
ATOM      2  C2  BZF d   1       4.820   5.694   5.013  0.00  0.00     0.174 A 
ATOM      3  C3  BZF d   1       4.233   5.279   3.872  0.00  0.00    -0.012 A 
ATOM      4  C3A BZF d   1       2.827   5.418   4.100  0.00  0.00    -0.107 A 
ATOM      5  C4  BZF d   1       1.723   5.180   3.332  0.00  0.00     0.055 A 
ATOM      6  C5  BZF d   1       0.490   5.348   3.877  0.00  0.00    -0.016 A 
ATOM      7  C6  BZF d   1       0.324   5.746   5.188  0.00  0.00     0.022 A 
ATOM      8  C7  BZF d   1       1.389   5.999   5.987  0.00  0.00     0.029 A 
ATOM      9  C7A BZF d   1       2.636   5.862   5.429  0.00  0.00     0.058 A 
ENDROOT
TORSDOF 0
ENDMDL
