MODEL 1
REMARK minimizedAffinity 2.44449902
REMARK minimizedRMSD -1
REMARK  0 active torsions:
REMARK  status: ('A' for Active; 'I' for Inactive)
ROOT
ATOM      1  O1  BZF d   1      -0.006   5.415   3.746  0.00  0.00    -0.204 OA
ATOM      2  C2  BZF d   1      -0.743   5.767   4.861  0.00  0.00     0.174 A 
ATOM      3  C3  BZF d   1       0.066   5.999   5.915  0.00  0.00    -0.012 A 
ATOM      4  C3A BZF d   1       1.396   5.869   5.405  0.00  0.00    -0.107 A 
ATOM      5  C4  BZF d   1       2.634   6.000   5.966  0.00  0.00     0.055 A 
ATOM      6  C5  BZF d   1       3.733   5.735   5.212  0.00  0.00    -0.016 A 
ATOM      7  C6  BZF d   1       3.631   5.332   3.897  0.00  0.00     0.022 A 
ATOM      8  C7  BZF d   1       2.424   5.194   3.294  0.00  0.00     0.029 A 
ATOM      9  C7A BZF d   1       1.313   5.493   4.044  0.00  0.00     0.058 A 
ENDROOT
TORSDOF 0
ENDMDL
