MODEL 1
REMARK minimizedAffinity -3.17141247
REMARK minimizedRMSD -1
REMARK  0 active torsions:
REMARK  status: ('A' for Active; 'I' for Inactive)
ROOT
ATOM      1  O1  BZF d   1       6.000   3.749  -5.871  0.00  0.00    -0.204 OA
ATOM      2  C2  BZF d   1       5.916   2.375  -5.985  0.00  0.00     0.174 A 
ATOM      3  C3  BZF d   1       4.629   1.973  -6.000  0.00  0.00    -0.012 A 
ATOM      4  C3A BZF d   1       3.859   3.179  -5.982  0.00  0.00    -0.107 A 
ATOM      5  C4  BZF d   1       2.518   3.437  -5.999  0.00  0.00     0.055 A 
ATOM      6  C5  BZF d   1       2.091   4.723  -5.898  0.00  0.00    -0.016 A 
ATOM      7  C6  BZF d   1       2.976   5.774  -5.772  0.00  0.00     0.022 A 
ATOM      8  C7  BZF d   1       4.316   5.568  -5.755  0.00  0.00     0.029 A 
ATOM      9  C7A BZF d   1       4.751   4.273  -5.891  0.00  0.00     0.058 A 
ENDROOT
TORSDOF 0
ENDMDL
