MODEL 1
REMARK minimizedAffinity -1.03458047
REMARK minimizedRMSD -1
REMARK  0 active torsions:
REMARK  status: ('A' for Active; 'I' for Inactive)
ROOT
ATOM      1  O1  BZF d   1       3.589   3.332   3.592  0.00  0.00    -0.204 OA
ATOM      2  C2  BZF d   1       2.947   2.930   2.436  0.00  0.00     0.174 A 
ATOM      3  C3  BZF d   1       1.737   3.516   2.332  0.00  0.00    -0.012 A 
ATOM      4  C3A BZF d   1       1.653   4.408   3.448  0.00  0.00    -0.107 A 
ATOM      5  C4  BZF d   1       0.698   5.282   3.882  0.00  0.00     0.055 A 
ATOM      6  C5  BZF d   1       0.895   5.949   5.049  0.00  0.00    -0.016 A 
ATOM      7  C6  BZF d   1       2.031   5.763   5.809  0.00  0.00     0.022 A 
ATOM      8  C7  BZF d   1       3.008   4.910   5.418  0.00  0.00     0.029 A 
ATOM      9  C7A BZF d   1       2.828   4.259   4.222  0.00  0.00     0.058 A 
ENDROOT
TORSDOF 0
ENDMDL
