MODEL 1
REMARK minimizedAffinity 10.2204361
REMARK minimizedRMSD -1
REMARK  0 active torsions:
REMARK  status: ('A' for Active; 'I' for Inactive)
ROOT
ATOM      1  O1  BZF d   1       2.538   5.653  -5.955  0.00  0.00    -0.204 OA
ATOM      2  C2  BZF d   1       1.158   5.712  -5.942  0.00  0.00     0.174 A 
ATOM      3  C3  BZF d   1       0.625   4.474  -5.991  0.00  0.00    -0.012 A 
ATOM      4  C3A BZF d   1       1.742   3.582  -5.944  0.00  0.00    -0.107 A 
ATOM      5  C4  BZF d   1       1.858   2.221  -5.945  0.00  0.00     0.055 A 
ATOM      6  C5  BZF d   1       3.097   1.663  -5.966  0.00  0.00    -0.016 A 
ATOM      7  C6  BZF d   1       4.240   2.435  -5.993  0.00  0.00     0.022 A 
ATOM      8  C7  BZF d   1       4.176   3.788  -5.988  0.00  0.00     0.029 A 
ATOM      9  C7A BZF d   1       2.926   4.355  -5.933  0.00  0.00     0.058 A 
ENDROOT
TORSDOF 0
ENDMDL
