MODEL 1
REMARK minimizedAffinity 2.26336789
REMARK minimizedRMSD -1
REMARK  0 active torsions:
REMARK  status: ('A' for Active; 'I' for Inactive)
ROOT
ATOM      1  O1  BZF d   1       4.027   4.208   4.975  0.00  0.00    -0.204 OA
ATOM      2  C2  BZF d   1       4.160   5.166   5.961  0.00  0.00     0.174 A 
ATOM      3  C3  BZF d   1       3.098   5.998   5.966  0.00  0.00    -0.012 A 
ATOM      4  C3A BZF d   1       2.205   5.475   4.978  0.00  0.00    -0.107 A 
ATOM      5  C4  BZF d   1       0.973   5.856   4.531  0.00  0.00     0.055 A 
ATOM      6  C5  BZF d   1       0.403   5.174   3.503  0.00  0.00    -0.016 A 
ATOM      7  C6  BZF d   1       1.039   4.110   2.897  0.00  0.00     0.022 A 
ATOM      8  C7  BZF d   1       2.260   3.692   3.309  0.00  0.00     0.029 A 
ATOM      9  C7A BZF d   1       2.824   4.359   4.369  0.00  0.00     0.058 A 
ENDROOT
TORSDOF 0
ENDMDL
