MODEL 1
REMARK minimizedAffinity 2.84204149
REMARK minimizedRMSD -1
REMARK  0 active torsions:
REMARK  status: ('A' for Active; 'I' for Inactive)
ROOT
ATOM      1  O1  BZF d   1       3.490   3.960   4.261  0.00  0.00    -0.204 OA
ATOM      2  C2  BZF d   1       3.365   3.473   2.974  0.00  0.00     0.174 A 
ATOM      3  C3  BZF d   1       2.174   3.820   2.445  0.00  0.00    -0.012 A 
ATOM      4  C3A BZF d   1       1.551   4.648   3.431  0.00  0.00    -0.107 A 
ATOM      5  C4  BZF d   1       0.358   5.311   3.482  0.00  0.00     0.055 A 
ATOM      6  C5  BZF d   1       0.018   5.972   4.620  0.00  0.00    -0.016 A 
ATOM      7  C6  BZF d   1       0.843   5.985   5.726  0.00  0.00     0.022 A 
ATOM      8  C7  BZF d   1       2.039   5.346   5.721  0.00  0.00     0.029 A 
ATOM      9  C7A BZF d   1       2.400   4.706   4.561  0.00  0.00     0.058 A 
ENDROOT
TORSDOF 0
ENDMDL
