MODEL 1
REMARK minimizedAffinity 1.61973655
REMARK minimizedRMSD -1
REMARK  0 active torsions:
REMARK  status: ('A' for Active; 'I' for Inactive)
ROOT
ATOM      1  O1  BZF d   1       3.342   3.786   3.591  0.00  0.00    -0.204 OA
ATOM      2  C2  BZF d   1       2.977   2.858   2.634  0.00  0.00     0.174 A 
ATOM      3  C3  BZF d   1       1.647   2.899   2.412  0.00  0.00    -0.012 A 
ATOM      4  C3A BZF d   1       1.164   3.979   3.217  0.00  0.00    -0.107 A 
ATOM      5  C4  BZF d   1      -0.073   4.523   3.412  0.00  0.00     0.055 A 
ATOM      6  C5  BZF d   1      -0.219   5.523   4.321  0.00  0.00    -0.016 A 
ATOM      7  C6  BZF d   1       0.849   5.999   5.054  0.00  0.00     0.022 A 
ATOM      8  C7  BZF d   1       2.096   5.494   4.891  0.00  0.00     0.029 A 
ATOM      9  C7A BZF d   1       2.252   4.505   3.950  0.00  0.00     0.058 A 
ENDROOT
TORSDOF 0
ENDMDL
