MODEL 1
REMARK minimizedAffinity -2.07209039
REMARK minimizedRMSD -1
REMARK  0 active torsions:
REMARK  status: ('A' for Active; 'I' for Inactive)
ROOT
ATOM      1  O1  BZF d   1       3.671   3.583   3.382  0.00  0.00    -0.204 OA
ATOM      2  C2  BZF d   1       3.138   3.002   2.248  0.00  0.00     0.174 A 
ATOM      3  C3  BZF d   1       1.873   3.425   2.043  0.00  0.00    -0.012 A 
ATOM      4  C3A BZF d   1       1.632   4.398   3.064  0.00  0.00    -0.107 A 
ATOM      5  C4  BZF d   1       0.560   5.185   3.376  0.00  0.00     0.055 A 
ATOM      6  C5  BZF d   1       0.620   5.975   4.480  0.00  0.00    -0.016 A 
ATOM      7  C6  BZF d   1       1.732   5.998   5.296  0.00  0.00     0.022 A 
ATOM      8  C7  BZF d   1       2.821   5.238   5.025  0.00  0.00     0.029 A 
ATOM      9  C7A BZF d   1       2.776   4.464   3.892  0.00  0.00     0.058 A 
ENDROOT
TORSDOF 0
ENDMDL
