MODEL 1
REMARK minimizedAffinity 1.88350952
REMARK minimizedRMSD -1
REMARK  1 active torsions:
REMARK  status: ('A' for Active; 'I' for Inactive)
REMARK    1  A    between atoms: C1_2  and  C2_3 
ROOT
ATOM      1  C2  UNL d   1       4.981   3.917   4.982  0.00  0.00    -0.081 A 
ATOM      2  C3  UNL d   1       3.771   4.008   5.679  0.00  0.00     0.006 A 
ATOM      3  C4  UNL d   1       3.050   2.855   5.999  0.00  0.00     0.002 A 
ATOM      4  C5  UNL d   1       3.530   1.593   5.634  0.00  0.00    -0.080 A 
ATOM      5  C6  UNL d   1       2.781   0.345   5.998  0.00  0.00     0.076 C 
ATOM      6  C7  UNL d   1       4.731   1.503   4.922  0.00  0.00     0.002 A 
ATOM      7  C8  UNL d   1       5.452   2.655   4.601  0.00  0.00     0.006 A 
ENDROOT
BRANCH   1   8
ATOM      8  C1  UNL d   1       5.793   5.153   4.692  0.00  0.00     0.054 C 
ATOM      9  C   UNL d   1       5.997   5.988   5.948  0.00  0.00     0.018 C 
ENDBRANCH   1   8
TORSDOF 1
ENDMDL
