MODEL 1
REMARK minimizedAffinity 8.82078457
REMARK minimizedRMSD -1
REMARK  1 active torsions:
REMARK  status: ('A' for Active; 'I' for Inactive)
REMARK    1  A    between atoms: C1_2  and  C2_3 
ROOT
ATOM      1  C2  UNL d   1       4.836   3.724   4.830  0.00  0.00    -0.081 A 
ATOM      2  C3  UNL d   1       4.685   2.977   3.655  0.00  0.00     0.006 A 
ATOM      3  C4  UNL d   1       3.909   1.816   3.649  0.00  0.00     0.002 A 
ATOM      4  C5  UNL d   1       3.264   1.387   4.814  0.00  0.00    -0.080 A 
ATOM      5  C6  UNL d   1       2.403   0.159   4.813  0.00  0.00     0.076 C 
ATOM      6  C7  UNL d   1       3.429   2.123   5.992  0.00  0.00     0.002 A 
ATOM      7  C8  UNL d   1       4.206   3.284   5.999  0.00  0.00     0.006 A 
ENDROOT
BRANCH   1   8
ATOM      8  C1  UNL d   1       5.620   5.011   4.825  0.00  0.00     0.054 C 
ATOM      9  C   UNL d   1       5.067   6.000   5.841  0.00  0.00     0.018 C 
ENDBRANCH   1   8
TORSDOF 1
ENDMDL
