MODEL 1
REMARK minimizedAffinity -0.346611142
REMARK minimizedRMSD -1
REMARK  1 active torsions:
REMARK  status: ('A' for Active; 'I' for Inactive)
REMARK    1  A    between atoms: C1_2  and  C2_3 
ROOT
ATOM      1  C2  UNL d   1       4.343   4.331   5.093  0.00  0.00    -0.081 A 
ATOM      2  C3  UNL d   1       4.887   3.212   4.449  0.00  0.00     0.006 A 
ATOM      3  C4  UNL d   1       4.284   1.959   4.576  0.00  0.00     0.002 A 
ATOM      4  C5  UNL d   1       3.123   1.804   5.341  0.00  0.00    -0.080 A 
ATOM      5  C6  UNL d   1       2.448   0.470   5.461  0.00  0.00     0.076 C 
ATOM      6  C7  UNL d   1       2.589   2.918   5.998  0.00  0.00     0.002 A 
ATOM      7  C8  UNL d   1       3.192   4.171   5.873  0.00  0.00     0.006 A 
ENDROOT
BRANCH   1   8
ATOM      8  C1  UNL d   1       4.954   5.696   4.905  0.00  0.00     0.054 C 
ATOM      9  C   UNL d   1       5.979   5.997   5.990  0.00  0.00     0.018 C 
ENDBRANCH   1   8
TORSDOF 1
ENDMDL
