MODEL 1
REMARK minimizedAffinity -5.1369338
REMARK minimizedRMSD -1
REMARK  1 active torsions:
REMARK  status: ('A' for Active; 'I' for Inactive)
REMARK    1  A    between atoms: C1_2  and  C2_3 
ROOT
ATOM      1  C2  UNL d   1       4.322   3.582   5.276  0.00  0.00    -0.081 A 
ATOM      2  C3  UNL d   1       3.385   3.812   4.262  0.00  0.00     0.006 A 
ATOM      3  C4  UNL d   1       2.396   2.865   3.984  0.00  0.00     0.002 A 
ATOM      4  C5  UNL d   1       2.323   1.678   4.720  0.00  0.00    -0.080 A 
ATOM      5  C6  UNL d   1       1.248   0.667   4.452  0.00  0.00     0.076 C 
ATOM      6  C7  UNL d   1       3.270   1.441   5.722  0.00  0.00     0.002 A 
ATOM      7  C8  UNL d   1       4.259   2.386   6.000  0.00  0.00     0.006 A 
ENDROOT
BRANCH   1   8
ATOM      8  C1  UNL d   1       5.350   4.630   5.622  0.00  0.00     0.054 C 
ATOM      9  C   UNL d   1       4.691   5.950   5.993  0.00  0.00     0.018 C 
ENDBRANCH   1   8
TORSDOF 1
ENDMDL
