MODEL 1
REMARK minimizedAffinity -1.02739203
REMARK minimizedRMSD -1
REMARK  1 active torsions:
REMARK  status: ('A' for Active; 'I' for Inactive)
REMARK    1  A    between atoms: C1_2  and  C2_3 
ROOT
ATOM      1  C2  UNL d   1       3.498   2.650   4.591  0.00  0.00    -0.081 A 
ATOM      2  C3  UNL d   1       4.492   2.464   5.560  0.00  0.00     0.006 A 
ATOM      3  C4  UNL d   1       5.264   3.542   5.999  0.00  0.00     0.002 A 
ATOM      4  C5  UNL d   1       5.050   4.825   5.482  0.00  0.00    -0.080 A 
ATOM      5  C6  UNL d   1       5.851   5.996   5.967  0.00  0.00     0.076 C 
ATOM      6  C7  UNL d   1       4.070   5.008   4.502  0.00  0.00     0.002 A 
ATOM      7  C8  UNL d   1       3.298   3.930   4.062  0.00  0.00     0.006 A 
ENDROOT
BRANCH   1   8
ATOM      8  C1  UNL d   1       2.621   1.502   4.163  0.00  0.00     0.054 C 
ATOM      9  C   UNL d   1       1.650   1.106   5.266  0.00  0.00     0.018 C 
ENDBRANCH   1   8
TORSDOF 1
ENDMDL
