MODEL 1
REMARK minimizedAffinity -0.648635626
REMARK minimizedRMSD -1
REMARK  1 active torsions:
REMARK  status: ('A' for Active; 'I' for Inactive)
REMARK    1  A    between atoms: C1_2  and  C2_3 
ROOT
ATOM      1  C2  UNL d   1       4.979   3.677   5.142  0.00  0.00    -0.081 A 
ATOM      2  C3  UNL d   1       4.092   3.949   4.093  0.00  0.00     0.006 A 
ATOM      3  C4  UNL d   1       3.107   3.022   3.740  0.00  0.00     0.002 A 
ATOM      4  C5  UNL d   1       2.988   1.814   4.435  0.00  0.00    -0.080 A 
ATOM      5  C6  UNL d   1       1.916   0.825   4.087  0.00  0.00     0.076 C 
ATOM      6  C7  UNL d   1       3.885   1.536   5.472  0.00  0.00     0.002 A 
ATOM      7  C8  UNL d   1       4.870   2.461   5.825  0.00  0.00     0.006 A 
ENDROOT
BRANCH   1   8
ATOM      8  C1  UNL d   1       6.000   4.702   5.566  0.00  0.00     0.054 C 
ATOM      9  C   UNL d   1       5.334   6.000   6.000  0.00  0.00     0.018 C 
ENDBRANCH   1   8
TORSDOF 1
ENDMDL
