MODEL 1
REMARK minimizedAffinity -2.30229759
REMARK minimizedRMSD -1
REMARK  1 active torsions:
REMARK  status: ('A' for Active; 'I' for Inactive)
REMARK    1  A    between atoms: C1_2  and  C2_3 
ROOT
ATOM      1  C2  UNL d   1       3.280  -0.123  -0.150  0.00  0.00    -0.081 A 
ATOM      2  C3  UNL d   1       3.498  -1.214   0.700  0.00  0.00     0.006 A 
ATOM      3  C4  UNL d   1       2.664  -2.334   0.644  0.00  0.00     0.002 A 
ATOM      4  C5  UNL d   1       1.604  -2.384  -0.268  0.00  0.00    -0.080 A 
ATOM      5  C6  UNL d   1       0.720  -3.592  -0.360  0.00  0.00     0.076 C 
ATOM      6  C7  UNL d   1       1.376  -1.287  -1.106  0.00  0.00     0.002 A 
ATOM      7  C8  UNL d   1       2.209  -0.167  -1.049  0.00  0.00     0.006 A 
ENDROOT
BRANCH   1   8
ATOM      8  C1  UNL d   1       4.217   1.058  -0.136  0.00  0.00     0.054 C 
ATOM      9  C   UNL d   1       4.647   1.439  -1.545  0.00  0.00     0.018 C 
ENDBRANCH   1   8
TORSDOF 1
ENDMDL
