MODEL 1
REMARK minimizedAffinity 5.65651369
REMARK minimizedRMSD -1
REMARK  1 active torsions:
REMARK  status: ('A' for Active; 'I' for Inactive)
REMARK    1  A    between atoms: C1_2  and  C2_3 
ROOT
ATOM      1  C2  UNL d   1       3.686   2.480   5.210  0.00  0.00    -0.081 A 
ATOM      2  C3  UNL d   1       4.042   3.664   5.868  0.00  0.00     0.006 A 
ATOM      3  C4  UNL d   1       4.396   4.801   5.137  0.00  0.00     0.002 A 
ATOM      4  C5  UNL d   1       4.391   4.776   3.738  0.00  0.00    -0.080 A 
ATOM      5  C6  UNL d   1       4.739   5.998   2.941  0.00  0.00     0.076 C 
ATOM      6  C7  UNL d   1       4.053   3.588   3.081  0.00  0.00     0.002 A 
ATOM      7  C8  UNL d   1       3.700   2.450   3.812  0.00  0.00     0.006 A 
ENDROOT
BRANCH   1   8
ATOM      8  C1  UNL d   1       3.242   1.272   5.995  0.00  0.00     0.054 C 
ATOM      9  C   UNL d   1       2.263   0.424   5.197  0.00  0.00     0.018 C 
ENDBRANCH   1   8
TORSDOF 1
ENDMDL
