MODEL 1
REMARK minimizedAffinity -0.82650131
REMARK minimizedRMSD -1
REMARK  1 active torsions:
REMARK  status: ('A' for Active; 'I' for Inactive)
REMARK    1  A    between atoms: C1_2  and  C2_3 
ROOT
ATOM      1  C2  UNL d   1       1.538   4.868   5.805  0.00  0.00    -0.081 A 
ATOM      2  C3  UNL d   1       2.183   3.640   6.000  0.00  0.00     0.006 A 
ATOM      3  C4  UNL d   1       3.574   3.550   5.914  0.00  0.00     0.002 A 
ATOM      4  C5  UNL d   1       4.344   4.686   5.641  0.00  0.00    -0.080 A 
ATOM      5  C6  UNL d   1       5.841   4.608   5.577  0.00  0.00     0.076 C 
ATOM      6  C7  UNL d   1       3.699   5.909   5.430  0.00  0.00     0.002 A 
ATOM      7  C8  UNL d   1       2.308   6.000   5.514  0.00  0.00     0.006 A 
ENDROOT
BRANCH   1   8
ATOM      8  C1  UNL d   1       0.043   4.982   5.961  0.00  0.00     0.054 C 
ATOM      9  C   UNL d   1      -0.580   5.723   4.787  0.00  0.00     0.018 C 
ENDBRANCH   1   8
TORSDOF 1
ENDMDL
