MODEL 1
REMARK minimizedAffinity 9.41697598
REMARK minimizedRMSD -1
REMARK  1 active torsions:
REMARK  status: ('A' for Active; 'I' for Inactive)
REMARK    1  A    between atoms: C1_2  and  C2_3 
ROOT
ATOM      1  C2  UNL d   1      -4.895   1.484   1.887  0.00  0.00    -0.073 A 
ATOM      2  C3  UNL d   1      -4.089   2.306   1.091  0.00  0.00    -0.002 A 
ATOM      3  C4  UNL d   1      -3.070   1.755   0.313  0.00  0.00     0.004 A 
ATOM      4  C5  UNL d   1      -2.852   0.377   0.316  0.00  0.00    -0.004 A 
ATOM      5  C6  UNL d   1      -3.654  -0.462   1.096  0.00  0.00    -0.075 A 
ATOM      6  C7  UNL d   1      -3.430  -1.946   1.112  0.00  0.00     0.076 C 
ATOM      7  C8  UNL d   1      -4.673   0.099   1.877  0.00  0.00     0.001 A 
ENDROOT
BRANCH   1   8
ATOM      8  C1  UNL d   1      -6.000   2.074   2.724  0.00  0.00     0.053 C 
ATOM      9  C   UNL d   1      -5.606   3.413   3.326  0.00  0.00     0.018 C 
ENDBRANCH   1   8
TORSDOF 1
ENDMDL
