MODEL 1
REMARK minimizedAffinity 4.8879199
REMARK minimizedRMSD -1
REMARK  1 active torsions:
REMARK  status: ('A' for Active; 'I' for Inactive)
REMARK    1  A    between atoms: C1_2  and  C2_3 
ROOT
ATOM      1  C2  UNL d   1       4.118   1.194   1.231  0.00  0.00    -0.073 A 
ATOM      2  C3  UNL d   1       5.322   0.609   1.638  0.00  0.00    -0.002 A 
ATOM      3  C4  UNL d   1       5.316  -0.548   2.417  0.00  0.00     0.004 A 
ATOM      4  C5  UNL d   1       4.108  -1.136   2.791  0.00  0.00    -0.004 A 
ATOM      5  C6  UNL d   1       2.894  -0.574   2.384  0.00  0.00    -0.075 A 
ATOM      6  C7  UNL d   1       1.585  -1.192   2.780  0.00  0.00     0.076 C 
ATOM      7  C8  UNL d   1       2.908   0.590   1.604  0.00  0.00     0.001 A 
ENDROOT
BRANCH   1   8
ATOM      8  C1  UNL d   1       4.120   2.440   0.383  0.00  0.00     0.053 C 
ATOM      9  C   UNL d   1       4.819   3.599   1.076  0.00  0.00     0.018 C 
ENDBRANCH   1   8
TORSDOF 1
ENDMDL
