MODEL 1
REMARK minimizedAffinity 2.53993011
REMARK minimizedRMSD -1
REMARK  1 active torsions:
REMARK  status: ('A' for Active; 'I' for Inactive)
REMARK    1  A    between atoms: C1_2  and  C2_3 
ROOT
ATOM      1  C2  UNL d   1       2.861  -1.626   1.851  0.00  0.00    -0.073 A 
ATOM      2  C3  UNL d   1       2.349  -0.735   0.900  0.00  0.00    -0.002 A 
ATOM      3  C4  UNL d   1       3.012   0.462   0.627  0.00  0.00     0.004 A 
ATOM      4  C5  UNL d   1       4.195   0.778   1.295  0.00  0.00    -0.004 A 
ATOM      5  C6  UNL d   1       4.729  -0.105   2.239  0.00  0.00    -0.075 A 
ATOM      6  C7  UNL d   1       6.000   0.221   2.968  0.00  0.00     0.076 C 
ATOM      7  C8  UNL d   1       4.056  -1.304   2.510  0.00  0.00     0.001 A 
ENDROOT
BRANCH   1   8
ATOM      8  C1  UNL d   1       2.153  -2.923   2.144  0.00  0.00     0.053 C 
ATOM      9  C   UNL d   1       2.831  -4.107   1.475  0.00  0.00     0.018 C 
ENDBRANCH   1   8
TORSDOF 1
ENDMDL
