MODEL 1
REMARK minimizedAffinity 8.79797649
REMARK minimizedRMSD -1
REMARK  1 active torsions:
REMARK  status: ('A' for Active; 'I' for Inactive)
REMARK    1  A    between atoms: C1_2  and  C2_3 
ROOT
ATOM      1  C2  UNL d   1      -5.393   3.075   2.855  0.00  0.00    -0.073 A 
ATOM      2  C3  UNL d   1      -5.705   1.884   3.519  0.00  0.00    -0.002 A 
ATOM      3  C4  UNL d   1      -5.959   1.887   4.891  0.00  0.00     0.004 A 
ATOM      4  C5  UNL d   1      -5.910   3.080   5.611  0.00  0.00    -0.004 A 
ATOM      5  C6  UNL d   1      -5.611   4.283   4.964  0.00  0.00    -0.075 A 
ATOM      6  C7  UNL d   1      -5.552   5.575   5.725  0.00  0.00     0.076 C 
ATOM      7  C8  UNL d   1      -5.355   4.271   3.586  0.00  0.00     0.001 A 
ENDROOT
BRANCH   1   8
ATOM      8  C1  UNL d   1      -5.124   3.078   1.372  0.00  0.00     0.053 C 
ATOM      9  C   UNL d   1      -4.134   1.996   0.970  0.00  0.00     0.018 C 
ENDBRANCH   1   8
TORSDOF 1
ENDMDL
