MODEL 1
REMARK minimizedAffinity 7.1196661
REMARK minimizedRMSD -1
REMARK  1 active torsions:
REMARK  status: ('A' for Active; 'I' for Inactive)
REMARK    1  A    between atoms: C1_2  and  C2_3 
ROOT
ATOM      1  C2  UNL d   1       3.619  -0.062  -3.969  0.00  0.00    -0.073 A 
ATOM      2  C3  UNL d   1       2.806  -1.123  -3.557  0.00  0.00    -0.002 A 
ATOM      3  C4  UNL d   1       3.031  -1.749  -2.330  0.00  0.00     0.004 A 
ATOM      4  C5  UNL d   1       4.065  -1.316  -1.501  0.00  0.00    -0.004 A 
ATOM      5  C6  UNL d   1       4.882  -0.249  -1.889  0.00  0.00    -0.075 A 
ATOM      6  C7  UNL d   1       6.000   0.227  -1.010  0.00  0.00     0.076 C 
ATOM      7  C8  UNL d   1       4.651   0.373  -3.124  0.00  0.00     0.001 A 
ENDROOT
BRANCH   1   8
ATOM      8  C1  UNL d   1       3.376   0.621  -5.290  0.00  0.00     0.053 C 
ATOM      9  C   UNL d   1       3.750   2.094  -5.247  0.00  0.00     0.018 C 
ENDBRANCH   1   8
TORSDOF 1
ENDMDL
