MODEL 1
REMARK minimizedAffinity 4.52697325
REMARK minimizedRMSD -1
REMARK  1 active torsions:
REMARK  status: ('A' for Active; 'I' for Inactive)
REMARK    1  A    between atoms: C1_2  and  C2_3 
ROOT
ATOM      1  C2  UNL d   1       4.072   0.903   0.942  0.00  0.00    -0.073 A 
ATOM      2  C3  UNL d   1       5.281   0.641   1.596  0.00  0.00    -0.002 A 
ATOM      3  C4  UNL d   1       5.343  -0.319   2.607  0.00  0.00     0.004 A 
ATOM      4  C5  UNL d   1       4.200  -1.030   2.970  0.00  0.00    -0.004 A 
ATOM      5  C6  UNL d   1       2.984  -0.792   2.320  0.00  0.00    -0.075 A 
ATOM      6  C7  UNL d   1       1.745  -1.547   2.700  0.00  0.00     0.076 C 
ATOM      7  C8  UNL d   1       2.930   0.176   1.308  0.00  0.00     0.001 A 
ENDROOT
BRANCH   1   8
ATOM      8  C1  UNL d   1       4.002   1.934  -0.155  0.00  0.00     0.053 C 
ATOM      9  C   UNL d   1       3.077   3.086   0.204  0.00  0.00     0.018 C 
ENDBRANCH   1   8
TORSDOF 1
ENDMDL
