MODEL 1
REMARK minimizedAffinity 4.95103788
REMARK minimizedRMSD -1
REMARK  1 active torsions:
REMARK  status: ('A' for Active; 'I' for Inactive)
REMARK    1  A    between atoms: C1_2  and  C2_3 
ROOT
ATOM      1  C2  UNL d   1       3.426  -0.373   2.566  0.00  0.00    -0.073 A 
ATOM      2  C3  UNL d   1       2.442  -1.358   2.707  0.00  0.00    -0.002 A 
ATOM      3  C4  UNL d   1       1.280  -1.310   1.937  0.00  0.00     0.004 A 
ATOM      4  C5  UNL d   1       1.091  -0.282   1.014  0.00  0.00    -0.004 A 
ATOM      5  C6  UNL d   1       2.068   0.706   0.849  0.00  0.00    -0.075 A 
ATOM      6  C7  UNL d   1       1.879   1.820  -0.138  0.00  0.00     0.076 C 
ATOM      7  C8  UNL d   1       3.231   0.652   1.628  0.00  0.00     0.001 A 
ENDROOT
BRANCH   1   8
ATOM      8  C1  UNL d   1       4.685  -0.424   3.391  0.00  0.00     0.053 C 
ATOM      9  C   UNL d   1       5.906   0.013   2.596  0.00  0.00     0.018 C 
ENDBRANCH   1   8
TORSDOF 1
ENDMDL
