MODEL 1
REMARK minimizedAffinity 9.01347637
REMARK minimizedRMSD -1
REMARK  1 active torsions:
REMARK  status: ('A' for Active; 'I' for Inactive)
REMARK    1  A    between atoms: C1_2  and  C2_3 
ROOT
ATOM      1  C2  UNL d   1       3.002   0.187   1.522  0.00  0.00    -0.073 A 
ATOM      2  C3  UNL d   1       3.623   0.844   0.453  0.00  0.00    -0.002 A 
ATOM      3  C4  UNL d   1       5.004   1.038   0.452  0.00  0.00     0.004 A 
ATOM      4  C5  UNL d   1       5.780   0.573   1.514  0.00  0.00    -0.004 A 
ATOM      5  C6  UNL d   1       5.180  -0.096   2.585  0.00  0.00    -0.075 A 
ATOM      6  C7  UNL d   1       5.999  -0.600   3.736  0.00  0.00     0.076 C 
ATOM      7  C8  UNL d   1       3.791  -0.285   2.580  0.00  0.00     0.001 A 
ENDROOT
BRANCH   1   8
ATOM      8  C1  UNL d   1       1.511  -0.031   1.524  0.00  0.00     0.053 C 
ATOM      9  C   UNL d   1       0.749   1.237   1.173  0.00  0.00     0.018 C 
ENDBRANCH   1   8
TORSDOF 1
ENDMDL
