MODEL 1
REMARK minimizedAffinity 13.3952293
REMARK minimizedRMSD -1
REMARK  1 active torsions:
REMARK  status: ('A' for Active; 'I' for Inactive)
REMARK    1  A    between atoms: C1_2  and  C2_3 
ROOT
ATOM      1  C2  UNL d   1       3.435  -0.769   2.759  0.00  0.00    -0.073 A 
ATOM      2  C3  UNL d   1       2.528  -1.831   2.856  0.00  0.00    -0.002 A 
ATOM      3  C4  UNL d   1       1.299  -1.771   2.198  0.00  0.00     0.004 A 
ATOM      4  C5  UNL d   1       0.967  -0.653   1.431  0.00  0.00    -0.004 A 
ATOM      5  C6  UNL d   1       1.865   0.413   1.313  0.00  0.00    -0.075 A 
ATOM      6  C7  UNL d   1       1.522   1.623   0.494  0.00  0.00     0.076 C 
ATOM      7  C8  UNL d   1       3.096   0.346   1.979  0.00  0.00     0.001 A 
ENDROOT
BRANCH   1   8
ATOM      8  C1  UNL d   1       4.766  -0.832   3.463  0.00  0.00     0.053 C 
ATOM      9  C   UNL d   1       5.808   0.047   2.791  0.00  0.00     0.018 C 
ENDBRANCH   1   8
TORSDOF 1
ENDMDL
