MODEL 1
REMARK minimizedAffinity 1.75240445
REMARK minimizedRMSD -1
REMARK  1 active torsions:
REMARK  status: ('A' for Active; 'I' for Inactive)
REMARK    1  A    between atoms: C1_2  and  C2_3 
ROOT
ATOM      1  C2  UNL d   1      -3.585  -1.882   3.215  0.00  0.00    -0.073 A 
ATOM      2  C3  UNL d   1      -3.561  -3.078   3.941  0.00  0.00    -0.002 A 
ATOM      3  C4  UNL d   1      -3.729  -3.066   5.326  0.00  0.00     0.004 A 
ATOM      4  C5  UNL d   1      -3.930  -1.861   5.998  0.00  0.00    -0.004 A 
ATOM      5  C6  UNL d   1      -3.970  -0.656   5.289  0.00  0.00    -0.075 A 
ATOM      6  C7  UNL d   1      -4.183   0.650   5.998  0.00  0.00     0.076 C 
ATOM      7  C8  UNL d   1      -3.797  -0.676   3.899  0.00  0.00     0.001 A 
ENDROOT
BRANCH   1   8
ATOM      8  C1  UNL d   1      -3.410  -1.891   1.719  0.00  0.00     0.053 C 
ATOM      9  C   UNL d   1      -3.901  -0.601   1.080  0.00  0.00     0.018 C 
ENDBRANCH   1   8
TORSDOF 1
ENDMDL
