MODEL 1
REMARK minimizedAffinity 1.21759343
REMARK minimizedRMSD -1
REMARK  1 active torsions:
REMARK  status: ('A' for Active; 'I' for Inactive)
REMARK    1  A    between atoms: C1_2  and  C2_3 
ROOT
ATOM      1  C2  UNL d   1       1.502   3.496  -4.496  0.00  0.00    -0.073 A 
ATOM      2  C3  UNL d   1       2.365   4.215  -5.330  0.00  0.00    -0.002 A 
ATOM      3  C4  UNL d   1       3.403   3.566  -6.000  0.00  0.00     0.004 A 
ATOM      4  C5  UNL d   1       3.584   2.191  -5.849  0.00  0.00    -0.004 A 
ATOM      5  C6  UNL d   1       2.724   1.452  -5.029  0.00  0.00    -0.075 A 
ATOM      6  C7  UNL d   1       2.907  -0.027  -4.854  0.00  0.00     0.076 C 
ATOM      7  C8  UNL d   1       1.686   2.113  -4.358  0.00  0.00     0.001 A 
ENDROOT
BRANCH   1   8
ATOM      8  C1  UNL d   1       0.376   4.192  -3.776  0.00  0.00     0.053 C 
ATOM      9  C   UNL d   1       0.309   5.672  -4.119  0.00  0.00     0.018 C 
ENDBRANCH   1   8
TORSDOF 1
ENDMDL
