MODEL 1
REMARK minimizedAffinity -4.46853733
REMARK minimizedRMSD -1
REMARK  2 active torsions:
REMARK  status: ('A' for Active; 'I' for Inactive)
REMARK    1  A    between atoms: C2'_3  and  C1'_4 
REMARK    2  A    between atoms: C1'_4  and  C1_5 
ROOT
ATOM      1  C1  I4B d   1       0.716  -0.299  -0.552  0.00  0.00    -0.075 A 
ATOM      2  C2  I4B d   1       1.375   0.476  -1.473  0.00  0.00     0.003 A 
ATOM      3  C3  I4B d   1       2.147  -0.131  -2.493  0.00  0.00     0.002 A 
ATOM      4  C4  I4B d   1       2.272  -1.505  -2.524  0.00  0.00    -0.004 A 
ATOM      5  C5  I4B d   1       1.585  -2.290  -1.602  0.00  0.00     0.002 A 
ATOM      6  C6  I4B d   1       0.791  -1.684  -0.617  0.00  0.00     0.003 A 
ENDROOT
BRANCH   1   7
ATOM      7  C1' I4B d   1      -0.063   0.377   0.532  0.00  0.00     0.060 C 
BRANCH   7   8
ATOM      8  C2' I4B d   1      -1.059  -0.623   1.083  0.00  0.00    -0.013 C 
ATOM      9  C4' I4B d   1      -0.394  -1.594   2.022  0.00  0.00     0.013 C 
ATOM     10  C3' I4B d   1      -2.147   0.142   1.777  0.00  0.00     0.013 C 
ENDBRANCH   7   8
ENDBRANCH   1   7
TORSDOF 2
ENDMDL
