MODEL 1
REMARK minimizedAffinity -1.80552411
REMARK minimizedRMSD -1
REMARK  2 active torsions:
REMARK  status: ('A' for Active; 'I' for Inactive)
REMARK    1  A    between atoms: C2'_3  and  C1'_4 
REMARK    2  A    between atoms: C1'_4  and  C1_5 
ROOT
ATOM      1  C1  I4B d   1       0.169  -0.116   0.170  0.00  0.00    -0.075 A 
ATOM      2  C2  I4B d   1       0.788   1.044  -0.223  0.00  0.00     0.003 A 
ATOM      3  C3  I4B d   1       1.455   1.109  -1.470  0.00  0.00     0.002 A 
ATOM      4  C4  I4B d   1       1.521  -0.017  -2.265  0.00  0.00    -0.004 A 
ATOM      5  C5  I4B d   1       0.874  -1.186  -1.875  0.00  0.00     0.002 A 
ATOM      6  C6  I4B d   1       0.183  -1.233  -0.656  0.00  0.00     0.003 A 
ENDROOT
BRANCH   1   7
ATOM      7  C1' I4B d   1      -0.498  -0.160   1.508  0.00  0.00     0.060 C 
BRANCH   7   8
ATOM      8  C2' I4B d   1      -1.893   0.409   1.353  0.00  0.00    -0.013 C 
ATOM      9  C4' I4B d   1      -2.905  -0.684   1.129  0.00  0.00     0.013 C 
ATOM     10  C3' I4B d   1      -2.212   1.196   2.589  0.00  0.00     0.013 C 
ENDBRANCH   7   8
ENDBRANCH   1   7
TORSDOF 2
ENDMDL
