MODEL 1
REMARK minimizedAffinity -0.937997639
REMARK minimizedRMSD -1
REMARK  2 active torsions:
REMARK  status: ('A' for Active; 'I' for Inactive)
REMARK    1  A    between atoms: C2'_3  and  C1'_4 
REMARK    2  A    between atoms: C1'_4  and  C1_5 
ROOT
ATOM      1  C1  I4B d   1       0.384   0.053  -0.729  0.00  0.00    -0.075 A 
ATOM      2  C2  I4B d   1      -0.551  -0.593   0.041  0.00  0.00     0.003 A 
ATOM      3  C3  I4B d   1      -1.045   0.014   1.220  0.00  0.00     0.002 A 
ATOM      4  C4  I4B d   1      -0.544   1.237   1.617  0.00  0.00    -0.004 A 
ATOM      5  C5  I4B d   1       0.387   1.901   0.823  0.00  0.00     0.002 A 
ATOM      6  C6  I4B d   1       0.845   1.311  -0.364  0.00  0.00     0.003 A 
ENDROOT
BRANCH   1   7
ATOM      7  C1' I4B d   1       0.909  -0.632  -1.952  0.00  0.00     0.060 C 
BRANCH   7   8
ATOM      8  C2' I4B d   1      -0.228  -1.420  -2.570  0.00  0.00    -0.013 C 
ATOM      9  C4' I4B d   1      -0.941  -0.613  -3.623  0.00  0.00     0.013 C 
ATOM     10  C3' I4B d   1       0.343  -2.680  -3.148  0.00  0.00     0.013 C 
ENDBRANCH   7   8
ENDBRANCH   1   7
TORSDOF 2
ENDMDL
