MODEL 1
REMARK minimizedAffinity -3.52107215
REMARK minimizedRMSD -1
REMARK  2 active torsions:
REMARK  status: ('A' for Active; 'I' for Inactive)
REMARK    1  A    between atoms: C2'_3  and  C1'_4 
REMARK    2  A    between atoms: C1'_4  and  C1_5 
ROOT
ATOM      1  C1  I4B d   1      -0.286  -0.016   0.504  0.00  0.00    -0.075 A 
ATOM      2  C2  I4B d   1      -0.234  -0.921  -0.527  0.00  0.00     0.003 A 
ATOM      3  C3  I4B d   1       0.507  -0.627  -1.697  0.00  0.00     0.002 A 
ATOM      4  C4  I4B d   1       1.136   0.596  -1.814  0.00  0.00    -0.004 A 
ATOM      5  C5  I4B d   1       1.101   1.503  -0.759  0.00  0.00     0.002 A 
ATOM      6  C6  I4B d   1       0.396   1.191   0.413  0.00  0.00     0.003 A 
ENDROOT
BRANCH   1   7
ATOM      7  C1' I4B d   1      -1.105  -0.344   1.711  0.00  0.00     0.060 C 
BRANCH   7   8
ATOM      8  C2' I4B d   1      -2.438   0.364   1.578  0.00  0.00    -0.013 C 
ATOM      9  C4' I4B d   1      -3.552  -0.614   1.317  0.00  0.00     0.013 C 
ATOM     10  C3' I4B d   1      -2.680   1.136   2.841  0.00  0.00     0.013 C 
ENDBRANCH   7   8
ENDBRANCH   1   7
TORSDOF 2
ENDMDL
