MODEL 1
REMARK minimizedAffinity -2.54051328
REMARK minimizedRMSD -1
REMARK  2 active torsions:
REMARK  status: ('A' for Active; 'I' for Inactive)
REMARK    1  A    between atoms: C2'_3  and  C1'_4 
REMARK    2  A    between atoms: C1'_4  and  C1_5 
ROOT
ATOM      1  C1  I4B d   1      -1.177  -0.011   0.827  0.00  0.00    -0.075 A 
ATOM      2  C2  I4B d   1      -1.549   0.920   1.765  0.00  0.00     0.003 A 
ATOM      3  C3  I4B d   1      -2.892   0.988   2.207  0.00  0.00     0.002 A 
ATOM      4  C4  I4B d   1      -3.834   0.146   1.653  0.00  0.00    -0.004 A 
ATOM      5  C5  I4B d   1      -3.450  -0.813   0.719  0.00  0.00     0.002 A 
ATOM      6  C6  I4B d   1      -2.111  -0.900   0.312  0.00  0.00     0.003 A 
ENDROOT
BRANCH   1   7
ATOM      7  C1' I4B d   1       0.244  -0.033   0.358  0.00  0.00     0.060 C 
BRANCH   7   8
ATOM      8  C2' I4B d   1       0.454   1.161  -0.551  0.00  0.00    -0.013 C 
ATOM      9  C4' I4B d   1       1.117   2.296   0.185  0.00  0.00     0.013 C 
ATOM     10  C3' I4B d   1       1.283   0.715  -1.718  0.00  0.00     0.013 C 
ENDBRANCH   7   8
ENDBRANCH   1   7
TORSDOF 2
ENDMDL
