MODEL 1
REMARK minimizedAffinity -2.93129253
REMARK minimizedRMSD -1
REMARK  2 active torsions:
REMARK  status: ('A' for Active; 'I' for Inactive)
REMARK    1  A    between atoms: C2'_3  and  C1'_4 
REMARK    2  A    between atoms: C1'_4  and  C1_5 
ROOT
ATOM      1  C1  I4B d   1      -0.240  -0.006   0.535  0.00  0.00    -0.075 A 
ATOM      2  C2  I4B d   1      -0.059  -1.021  -0.371  0.00  0.00     0.003 A 
ATOM      3  C3  I4B d   1       0.737  -0.815  -1.523  0.00  0.00     0.002 A 
ATOM      4  C4  I4B d   1       1.289   0.428  -1.754  0.00  0.00    -0.004 A 
ATOM      5  C5  I4B d   1       1.124   1.450  -0.823  0.00  0.00     0.002 A 
ATOM      6  C6  I4B d   1       0.365   1.228   0.335  0.00  0.00     0.003 A 
ENDROOT
BRANCH   1   7
ATOM      7  C1' I4B d   1      -1.114  -0.248   1.725  0.00  0.00     0.060 C 
BRANCH   7   8
ATOM      8  C2' I4B d   1      -2.427   0.472   1.493  0.00  0.00    -0.013 C 
ATOM      9  C4' I4B d   1      -3.599  -0.455   1.684  0.00  0.00     0.013 C 
ATOM     10  C3' I4B d   1      -2.493   1.631   2.443  0.00  0.00     0.013 C 
ENDBRANCH   7   8
ENDBRANCH   1   7
TORSDOF 2
ENDMDL
