MODEL 1
REMARK minimizedAffinity -2.17322063
REMARK minimizedRMSD -1
REMARK  2 active torsions:
REMARK  status: ('A' for Active; 'I' for Inactive)
REMARK    1  A    between atoms: C2'_3  and  C1'_4 
REMARK    2  A    between atoms: C1'_4  and  C1_5 
ROOT
ATOM      1  C1  I4B d   1      -0.901   0.360   1.155  0.00  0.00    -0.075 A 
ATOM      2  C2  I4B d   1      -0.372  -0.906   1.180  0.00  0.00     0.003 A 
ATOM      3  C3  I4B d   1       0.354  -1.398   0.068  0.00  0.00     0.002 A 
ATOM      4  C4  I4B d   1       0.482  -0.614  -1.060  0.00  0.00    -0.004 A 
ATOM      5  C5  I4B d   1      -0.035   0.678  -1.075  0.00  0.00     0.002 A 
ATOM      6  C6  I4B d   1      -0.720   1.173   0.043  0.00  0.00     0.003 A 
ENDROOT
BRANCH   1   7
ATOM      7  C1' I4B d   1      -1.689   0.836   2.333  0.00  0.00     0.060 C 
BRANCH   7   8
ATOM      8  C2' I4B d   1      -3.043   1.298   1.833  0.00  0.00    -0.013 C 
ATOM      9  C4' I4B d   1      -4.067   0.198   1.935  0.00  0.00     0.013 C 
ATOM     10  C3' I4B d   1      -3.451   2.494   2.641  0.00  0.00     0.013 C 
ENDBRANCH   7   8
ENDBRANCH   1   7
TORSDOF 2
ENDMDL
