MODEL 1
REMARK minimizedAffinity -5.05759716
REMARK minimizedRMSD -1
REMARK  2 active torsions:
REMARK  status: ('A' for Active; 'I' for Inactive)
REMARK    1  A    between atoms: C2'_3  and  C1'_4 
REMARK    2  A    between atoms: C1'_4  and  C1_5 
ROOT
ATOM      1  C1  I4B d   1       0.030  -0.201   0.127  0.00  0.00    -0.075 A 
ATOM      2  C2  I4B d   1       0.479   1.011  -0.334  0.00  0.00     0.003 A 
ATOM      3  C3  I4B d   1       1.181   1.092  -1.560  0.00  0.00     0.002 A 
ATOM      4  C4  I4B d   1       1.455  -0.063  -2.264  0.00  0.00    -0.004 A 
ATOM      5  C5  I4B d   1       0.979  -1.289  -1.807  0.00  0.00     0.002 A 
ATOM      6  C6  I4B d   1       0.251  -1.357  -0.610  0.00  0.00     0.003 A 
ENDROOT
BRANCH   1   7
ATOM      7  C1' I4B d   1      -0.680  -0.255   1.443  0.00  0.00     0.060 C 
BRANCH   7   8
ATOM      8  C2' I4B d   1      -2.018   0.437   1.280  0.00  0.00    -0.013 C 
ATOM      9  C4' I4B d   1      -3.094  -0.543   0.890  0.00  0.00     0.013 C 
ATOM     10  C3' I4B d   1      -2.349   1.117   2.574  0.00  0.00     0.013 C 
ENDBRANCH   7   8
ENDBRANCH   1   7
TORSDOF 2
ENDMDL
