MODEL 1
REMARK minimizedAffinity 13.405035
REMARK minimizedRMSD -1
REMARK  0 active torsions:
REMARK  status: ('A' for Active; 'I' for Inactive)
ROOT
ATOM      1  C4' PXY d   1      -0.214   5.672   3.393  0.00  0.00     0.077 C 
ATOM      2  C1' PXY d   1       5.224   3.784   3.923  0.00  0.00     0.077 C 
ATOM      3  C1  PXY d   1       3.795   4.269   3.776  0.00  0.00    -0.082 A 
ATOM      4  C2  PXY d   1       3.516   5.548   3.967  0.00  0.00     0.003 A 
ATOM      5  C3  PXY d   1       2.224   5.998   3.870  0.00  0.00     0.003 A 
ATOM      6  C4  PXY d   1       1.216   5.139   3.522  0.00  0.00    -0.082 A 
ATOM      7  C5  PXY d   1       1.495   3.835   3.315  0.00  0.00     0.003 A 
ATOM      8  C6  PXY d   1       2.806   3.390   3.458  0.00  0.00     0.003 A 
ENDROOT
TORSDOF 0
ENDMDL
