MODEL 1
REMARK minimizedAffinity 3.59382772
REMARK minimizedRMSD -1
REMARK  0 active torsions:
REMARK  status: ('A' for Active; 'I' for Inactive)
ROOT
ATOM      1  C4' PXY d   1      -4.920   1.807   1.243  0.00  0.00     0.077 C 
ATOM      2  C1' PXY d   1      -5.999   5.304   5.717  0.00  0.00     0.077 C 
ATOM      3  C1  PXY d   1      -5.720   4.396   4.535  0.00  0.00    -0.082 A 
ATOM      4  C2  PXY d   1      -5.752   3.083   4.697  0.00  0.00     0.003 A 
ATOM      5  C3  PXY d   1      -5.471   2.248   3.647  0.00  0.00     0.003 A 
ATOM      6  C4  PXY d   1      -5.205   2.761   2.405  0.00  0.00    -0.082 A 
ATOM      7  C5  PXY d   1      -5.180   4.099   2.230  0.00  0.00     0.003 A 
ATOM      8  C6  PXY d   1      -5.428   4.931   3.318  0.00  0.00     0.003 A 
ENDROOT
TORSDOF 0
ENDMDL
