MODEL 1
REMARK minimizedAffinity 2.87188125
REMARK minimizedRMSD -1
REMARK  0 active torsions:
REMARK  status: ('A' for Active; 'I' for Inactive)
ROOT
ATOM      1  C4' PXY d   1       2.739   3.360   2.610  0.00  0.00     0.077 C 
ATOM      2  C1' PXY d   1      -1.232   1.061  -0.906  0.00  0.00     0.077 C 
ATOM      3  C1  PXY d   1      -0.194   1.655   0.025  0.00  0.00    -0.082 A 
ATOM      4  C2  PXY d   1       0.146   2.927  -0.100  0.00  0.00     0.003 A 
ATOM      5  C3  PXY d   1       1.107   3.472   0.712  0.00  0.00     0.003 A 
ATOM      6  C4  PXY d   1       1.688   2.720   1.699  0.00  0.00    -0.082 A 
ATOM      7  C5  PXY d   1       1.338   1.424   1.840  0.00  0.00     0.003 A 
ATOM      8  C6  PXY d   1       0.391   0.879   0.979  0.00  0.00     0.003 A 
ENDROOT
TORSDOF 0
ENDMDL
