MODEL 1
REMARK minimizedAffinity 3.58044124
REMARK minimizedRMSD -1
REMARK  0 active torsions:
REMARK  status: ('A' for Active; 'I' for Inactive)
ROOT
ATOM      1  C4' PXY d   1       1.701  -2.909  -0.483  0.00  0.00     0.077 C 
ATOM      2  C1' PXY d   1       3.465   2.526   0.394  0.00  0.00     0.077 C 
ATOM      3  C1  PXY d   1       2.992   1.103   0.171  0.00  0.00    -0.082 A 
ATOM      4  C2  PXY d   1       3.874   0.155  -0.101  0.00  0.00     0.003 A 
ATOM      5  C3  PXY d   1       3.460  -1.130  -0.337  0.00  0.00     0.003 A 
ATOM      6  C4  PXY d   1       2.135  -1.460  -0.241  0.00  0.00    -0.082 A 
ATOM      7  C5  PXY d   1       1.229  -0.501   0.047  0.00  0.00     0.003 A 
ATOM      8  C6  PXY d   1       1.666   0.806   0.242  0.00  0.00     0.003 A 
ENDROOT
TORSDOF 0
ENDMDL
