MODEL 1
REMARK minimizedAffinity -1.01242781
REMARK minimizedRMSD -1
REMARK  0 active torsions:
REMARK  status: ('A' for Active; 'I' for Inactive)
ROOT
ATOM      1  C4' PXY d   1       3.461  -0.363  -0.355  0.00  0.00     0.077 C 
ATOM      2  C1' PXY d   1      -0.489  -4.583  -0.311  0.00  0.00     0.077 C 
ATOM      3  C1  PXY d   1       0.555  -3.484  -0.316  0.00  0.00    -0.082 A 
ATOM      4  C2  PXY d   1       0.178  -2.224  -0.465  0.00  0.00     0.003 A 
ATOM      5  C3  PXY d   1       1.112  -1.221  -0.504  0.00  0.00     0.003 A 
ATOM      6  C4  PXY d   1       2.441  -1.504  -0.335  0.00  0.00    -0.082 A 
ATOM      7  C5  PXY d   1       2.832  -2.786  -0.171  0.00  0.00     0.003 A 
ATOM      8  C6  PXY d   1       1.872  -3.794  -0.176  0.00  0.00     0.003 A 
ENDROOT
TORSDOF 0
ENDMDL
