MODEL 1
REMARK minimizedAffinity -2.28539896
REMARK minimizedRMSD -1
REMARK  0 active torsions:
REMARK  status: ('A' for Active; 'I' for Inactive)
ROOT
ATOM      1  C4' PXY d   1      -3.043   5.939   1.033  0.00  0.00     0.077 C 
ATOM      2  C1' PXY d   1      -6.000   5.945   6.000  0.00  0.00     0.077 C 
ATOM      3  C1  PXY d   1      -5.235   5.939   4.691  0.00  0.00    -0.082 A 
ATOM      4  C2  PXY d   1      -3.913   5.895   4.707  0.00  0.00     0.003 A 
ATOM      5  C3  PXY d   1      -3.204   5.921   3.533  0.00  0.00     0.003 A 
ATOM      6  C4  PXY d   1      -3.857   5.938   2.330  0.00  0.00    -0.082 A 
ATOM      7  C5  PXY d   1      -5.206   5.972   2.305  0.00  0.00     0.003 A 
ATOM      8  C6  PXY d   1      -5.906   5.987   3.509  0.00  0.00     0.003 A 
ENDROOT
TORSDOF 0
ENDMDL
