MODEL 1
REMARK minimizedAffinity 3.96684718
REMARK minimizedRMSD -1
REMARK  0 active torsions:
REMARK  status: ('A' for Active; 'I' for Inactive)
ROOT
ATOM      1  C4' PXY d   1      -1.985   1.123  -2.953  0.00  0.00     0.077 C 
ATOM      2  C1' PXY d   1      -6.000   0.009   1.054  0.00  0.00     0.077 C 
ATOM      3  C1  PXY d   1      -4.938   0.297   0.011  0.00  0.00    -0.082 A 
ATOM      4  C2  PXY d   1      -5.172   1.198  -0.929  0.00  0.00     0.003 A 
ATOM      5  C3  PXY d   1      -4.235   1.447  -1.899  0.00  0.00     0.003 A 
ATOM      6  C4  PXY d   1      -3.025   0.807  -1.874  0.00  0.00    -0.082 A 
ATOM      7  C5  PXY d   1      -2.774  -0.106  -0.912  0.00  0.00     0.003 A 
ATOM      8  C6  PXY d   1      -3.755  -0.375   0.039  0.00  0.00     0.003 A 
ENDROOT
TORSDOF 0
ENDMDL
