MODEL 1
REMARK minimizedAffinity -0.854411244
REMARK minimizedRMSD -1
REMARK  0 active torsions:
REMARK  status: ('A' for Active; 'I' for Inactive)
ROOT
ATOM      1  C4' PXY d   1      -6.000  -1.118   1.489  0.00  0.00     0.077 C 
ATOM      2  C1' PXY d   1      -3.000   1.283  -2.830  0.00  0.00     0.077 C 
ATOM      3  C1  PXY d   1      -3.782   0.642  -1.700  0.00  0.00    -0.082 A 
ATOM      4  C2  PXY d   1      -4.894   1.212  -1.269  0.00  0.00     0.003 A 
ATOM      5  C3  PXY d   1      -5.596   0.663  -0.227  0.00  0.00     0.003 A 
ATOM      6  C4  PXY d   1      -5.184  -0.511   0.344  0.00  0.00    -0.082 A 
ATOM      7  C5  PXY d   1      -4.055  -1.105  -0.098  0.00  0.00     0.003 A 
ATOM      8  C6  PXY d   1      -3.335  -0.510  -1.129  0.00  0.00     0.003 A 
ENDROOT
TORSDOF 0
ENDMDL
