MODEL 1
REMARK minimizedAffinity -3.72105217
REMARK minimizedRMSD -1
REMARK  0 active torsions:
REMARK  status: ('A' for Active; 'I' for Inactive)
ROOT
ATOM      1  C4' PXY d   1      -0.322  -5.650  -1.377  0.00  0.00     0.077 C 
ATOM      2  C1' PXY d   1       2.258  -0.497  -0.932  0.00  0.00     0.077 C 
ATOM      3  C1  PXY d   1       1.594  -1.854  -1.049  0.00  0.00    -0.082 A 
ATOM      4  C2  PXY d   1       0.346  -1.936  -1.482  0.00  0.00     0.003 A 
ATOM      5  C3  PXY d   1      -0.281  -3.152  -1.565  0.00  0.00     0.003 A 
ATOM      6  C4  PXY d   1       0.393  -4.302  -1.251  0.00  0.00    -0.082 A 
ATOM      7  C5  PXY d   1       1.670  -4.228  -0.819  0.00  0.00     0.003 A 
ATOM      8  C6  PXY d   1       2.275  -2.980  -0.703  0.00  0.00     0.003 A 
ENDROOT
TORSDOF 0
ENDMDL
