MODEL 1
REMARK minimizedAffinity -3.1301074
REMARK minimizedRMSD -1
REMARK  0 active torsions:
REMARK  status: ('A' for Active; 'I' for Inactive)
ROOT
ATOM      1  C4' PXY d   1       1.520   1.536  -1.315  0.00  0.00     0.077 C 
ATOM      2  C1' PXY d   1       1.401  -4.242  -1.190  0.00  0.00     0.077 C 
ATOM      3  C1  PXY d   1       1.420  -2.726  -1.226  0.00  0.00    -0.082 A 
ATOM      4  C2  PXY d   1       2.551  -2.092  -1.484  0.00  0.00     0.003 A 
ATOM      5  C3  PXY d   1       2.593  -0.721  -1.488  0.00  0.00     0.003 A 
ATOM      6  C4  PXY d   1       1.453   0.007  -1.278  0.00  0.00    -0.082 A 
ATOM      7  C5  PXY d   1       0.292  -0.633  -1.024  0.00  0.00     0.003 A 
ATOM      8  C6  PXY d   1       0.279  -2.025  -0.984  0.00  0.00     0.003 A 
ENDROOT
TORSDOF 0
ENDMDL
