MODEL 1
REMARK minimizedAffinity -4.94012451
REMARK minimizedRMSD -1
REMARK  0 active torsions:
REMARK  status: ('A' for Active; 'I' for Inactive)
ROOT
ATOM      1  C4' PXY d   1      -1.734   0.216  -1.915  0.00  0.00     0.077 C 
ATOM      2  C1' PXY d   1       3.624  -1.693  -0.881  0.00  0.00     0.077 C 
ATOM      3  C1  PXY d   1       2.216  -1.204  -1.157  0.00  0.00    -0.082 A 
ATOM      4  C2  PXY d   1       1.986   0.094  -1.279  0.00  0.00     0.003 A 
ATOM      5  C3  PXY d   1       0.713   0.555  -1.497  0.00  0.00     0.003 A 
ATOM      6  C4  PXY d   1      -0.326  -0.324  -1.645  0.00  0.00    -0.082 A 
ATOM      7  C5  PXY d   1      -0.098  -1.649  -1.533  0.00  0.00     0.003 A 
ATOM      8  C6  PXY d   1       1.194  -2.095  -1.271  0.00  0.00     0.003 A 
ENDROOT
TORSDOF 0
ENDMDL
