MODEL 1
REMARK minimizedAffinity 6.77958298
REMARK minimizedRMSD -1
REMARK  0 active torsions:
REMARK  status: ('A' for Active; 'I' for Inactive)
ROOT
ATOM      1  C   UNL d   1       5.999   3.168   4.186  0.00  0.00    -0.002 A 
ATOM      2  C1  UNL d   1       6.000   2.367   5.320  0.00  0.00     0.010 A 
ATOM      3  C2  UNL d   1       5.350   1.132   5.316  0.00  0.00     0.041 A 
ATOM      4  C3  UNL d   1       4.695   0.709   4.143  0.00  0.00    -0.075 A 
ATOM      5  S   UNL d   1       3.835  -0.767   3.906  0.00  0.00     0.015 SA
ATOM      6  C4  UNL d   1       3.448  -0.370   2.295  0.00  0.00     0.022 A 
ATOM      7  C5  UNL d   1       3.954   0.855   1.930  0.00  0.00     0.026 A 
ATOM      8  C6  UNL d   1       4.682   1.497   2.989  0.00  0.00    -0.082 A 
ATOM      9  C7  UNL d   1       5.349   2.745   3.024  0.00  0.00     0.045 A 
ENDROOT
TORSDOF 0
ENDMDL
