MODEL 1
REMARK minimizedAffinity 13.6958351
REMARK minimizedRMSD -1
REMARK  0 active torsions:
REMARK  status: ('A' for Active; 'I' for Inactive)
ROOT
ATOM      1  C   UNL d   1       1.578  -3.130   2.713  0.00  0.00    -0.002 A 
ATOM      2  C1  UNL d   1       1.662  -2.260   3.790  0.00  0.00     0.010 A 
ATOM      3  C2  UNL d   1       0.565  -1.480   4.162  0.00  0.00     0.041 A 
ATOM      4  C3  UNL d   1      -0.631  -1.593   3.426  0.00  0.00    -0.075 A 
ATOM      5  S   UNL d   1      -2.104  -0.739   3.699  0.00  0.00     0.015 SA
ATOM      6  C4  UNL d   1      -2.880  -1.510   2.392  0.00  0.00     0.022 A 
ATOM      7  C5  UNL d   1      -2.051  -2.400   1.752  0.00  0.00     0.026 A 
ATOM      8  C6  UNL d   1      -0.741  -2.463   2.338  0.00  0.00    -0.082 A 
ATOM      9  C7  UNL d   1       0.389  -3.239   1.985  0.00  0.00     0.045 A 
ENDROOT
TORSDOF 0
ENDMDL
