MODEL 1
REMARK minimizedAffinity 11.9187555
REMARK minimizedRMSD -1
REMARK  0 active torsions:
REMARK  status: ('A' for Active; 'I' for Inactive)
ROOT
ATOM      1  C   UNL d   1      -3.209   2.127  -0.602  0.00  0.00    -0.002 A 
ATOM      2  C1  UNL d   1      -2.788   3.006   0.386  0.00  0.00     0.010 A 
ATOM      3  C2  UNL d   1      -2.564   2.556   1.689  0.00  0.00     0.041 A 
ATOM      4  C3  UNL d   1      -2.769   1.194   1.984  0.00  0.00    -0.075 A 
ATOM      5  S   UNL d   1      -2.556   0.418   3.509  0.00  0.00     0.015 SA
ATOM      6  C4  UNL d   1      -3.018  -1.099   2.884  0.00  0.00     0.022 A 
ATOM      7  C5  UNL d   1      -3.330  -1.033   1.547  0.00  0.00     0.026 A 
ATOM      8  C6  UNL d   1      -3.192   0.290   1.006  0.00  0.00    -0.082 A 
ATOM      9  C7  UNL d   1      -3.412   0.777  -0.305  0.00  0.00     0.045 A 
ENDROOT
TORSDOF 0
ENDMDL
