MODEL 1
REMARK minimizedAffinity -3.14367247
REMARK minimizedRMSD -1
REMARK  0 active torsions:
REMARK  status: ('A' for Active; 'I' for Inactive)
ROOT
ATOM      1  C   UNL d   1      -2.956  -1.125   1.239  0.00  0.00    -0.002 A 
ATOM      2  C1  UNL d   1      -3.934  -0.841   0.297  0.00  0.00     0.010 A 
ATOM      3  C2  UNL d   1      -4.328   0.476   0.056  0.00  0.00     0.041 A 
ATOM      4  C3  UNL d   1      -3.716   1.515   0.785  0.00  0.00    -0.075 A 
ATOM      5  S   UNL d   1      -4.037   3.204   0.658  0.00  0.00     0.015 SA
ATOM      6  C4  UNL d   1      -2.883   3.589   1.851  0.00  0.00     0.022 A 
ATOM      7  C5  UNL d   1      -2.258   2.469   2.345  0.00  0.00     0.026 A 
ATOM      8  C6  UNL d   1      -2.727   1.255   1.738  0.00  0.00    -0.082 A 
ATOM      9  C7  UNL d   1      -2.350  -0.092   1.960  0.00  0.00     0.045 A 
ENDROOT
TORSDOF 0
ENDMDL
