MODEL 1
REMARK minimizedAffinity 11.4907093
REMARK minimizedRMSD -1
REMARK  0 active torsions:
REMARK  status: ('A' for Active; 'I' for Inactive)
ROOT
ATOM      1  C   UNL d   1      -3.786  -5.134   0.116  0.00  0.00    -0.002 A 
ATOM      2  C1  UNL d   1      -2.869  -5.397   1.124  0.00  0.00     0.010 A 
ATOM      3  C2  UNL d   1      -1.512  -5.126   0.939  0.00  0.00     0.041 A 
ATOM      4  C3  UNL d   1      -1.088  -4.578  -0.288  0.00  0.00    -0.075 A 
ATOM      5  S   UNL d   1       0.523  -4.163  -0.739  0.00  0.00     0.015 SA
ATOM      6  C4  UNL d   1       0.033  -3.625  -2.280  0.00  0.00     0.022 A 
ATOM      7  C5  UNL d   1      -1.324  -3.752  -2.463  0.00  0.00     0.026 A 
ATOM      8  C6  UNL d   1      -1.992  -4.303  -1.317  0.00  0.00    -0.082 A 
ATOM      9  C7  UNL d   1      -3.361  -4.590  -1.099  0.00  0.00     0.045 A 
ENDROOT
TORSDOF 0
ENDMDL
