MODEL 1
REMARK minimizedAffinity 2.96985435
REMARK minimizedRMSD -1
REMARK  0 active torsions:
REMARK  status: ('A' for Active; 'I' for Inactive)
ROOT
ATOM      1  C   UNL d   1       4.742   1.481   3.735  0.00  0.00    -0.002 A 
ATOM      2  C1  UNL d   1       4.616   0.525   4.733  0.00  0.00     0.010 A 
ATOM      3  C2  UNL d   1       3.955  -0.679   4.484  0.00  0.00     0.041 A 
ATOM      4  C3  UNL d   1       3.420  -0.910   3.201  0.00  0.00    -0.075 A 
ATOM      5  S   UNL d   1       2.572  -2.312   2.666  0.00  0.00     0.015 SA
ATOM      6  C4  UNL d   1       2.358  -1.676   1.099  0.00  0.00     0.022 A 
ATOM      7  C5  UNL d   1       2.913  -0.425   0.970  0.00  0.00     0.026 A 
ATOM      8  C6  UNL d   1       3.536   0.037   2.179  0.00  0.00    -0.082 A 
ATOM      9  C7  UNL d   1       4.210   1.248   2.464  0.00  0.00     0.045 A 
ENDROOT
TORSDOF 0
ENDMDL
