MODEL 1
REMARK minimizedAffinity 12.4888506
REMARK minimizedRMSD -1
REMARK  0 active torsions:
REMARK  status: ('A' for Active; 'I' for Inactive)
ROOT
ATOM      1  C   UNL d   1      -2.981  -0.787   3.002  0.00  0.00    -0.002 A 
ATOM      2  C1  UNL d   1      -2.814   0.089   4.065  0.00  0.00     0.010 A 
ATOM      3  C2  UNL d   1      -2.839   1.470   3.858  0.00  0.00     0.041 A 
ATOM      4  C3  UNL d   1      -3.038   1.959   2.552  0.00  0.00    -0.075 A 
ATOM      5  S   UNL d   1      -3.107   3.610   2.060  0.00  0.00     0.015 SA
ATOM      6  C4  UNL d   1      -3.360   3.191   0.427  0.00  0.00     0.022 A 
ATOM      7  C5  UNL d   1      -3.394   1.829   0.244  0.00  0.00     0.026 A 
ATOM      8  C6  UNL d   1      -3.210   1.096   1.466  0.00  0.00    -0.082 A 
ATOM      9  C7  UNL d   1      -3.179  -0.298   1.708  0.00  0.00     0.045 A 
ENDROOT
TORSDOF 0
ENDMDL
