MODEL 1
REMARK minimizedAffinity -1.60471439
REMARK minimizedRMSD -1
REMARK  0 active torsions:
REMARK  status: ('A' for Active; 'I' for Inactive)
ROOT
ATOM      1  C   UNL d   1       3.227  -0.440   2.398  0.00  0.00    -0.002 A 
ATOM      2  C1  UNL d   1       3.375  -1.435   3.353  0.00  0.00     0.010 A 
ATOM      3  C2  UNL d   1       4.143  -1.213   4.498  0.00  0.00     0.041 A 
ATOM      4  C3  UNL d   1       4.765   0.039   4.668  0.00  0.00    -0.075 A 
ATOM      5  S   UNL d   1       5.752   0.538   5.991  0.00  0.00     0.015 SA
ATOM      6  C4  UNL d   1       6.000   2.085   5.320  0.00  0.00     0.022 A 
ATOM      7  C5  UNL d   1       5.353   2.234   4.116  0.00  0.00     0.026 A 
ATOM      8  C6  UNL d   1       4.630   1.058   3.721  0.00  0.00    -0.082 A 
ATOM      9  C7  UNL d   1       3.845   0.801   2.571  0.00  0.00     0.045 A 
ENDROOT
TORSDOF 0
ENDMDL
