MODEL 1
REMARK minimizedAffinity -2.17139673
REMARK minimizedRMSD -1
REMARK  0 active torsions:
REMARK  status: ('A' for Active; 'I' for Inactive)
ROOT
ATOM      1  C   UNL d   1       1.926  -1.984   0.348  0.00  0.00    -0.002 A 
ATOM      2  C1  UNL d   1       2.766  -3.018   0.735  0.00  0.00     0.010 A 
ATOM      3  C2  UNL d   1       3.768  -2.802   1.684  0.00  0.00     0.041 A 
ATOM      4  C3  UNL d   1       3.910  -1.518   2.245  0.00  0.00    -0.075 A 
ATOM      5  S   UNL d   1       5.065  -1.021   3.425  0.00  0.00     0.015 SA
ATOM      6  C4  UNL d   1       4.469   0.575   3.444  0.00  0.00     0.022 A 
ATOM      7  C5  UNL d   1       3.415   0.743   2.578  0.00  0.00     0.026 A 
ATOM      8  C6  UNL d   1       3.075  -0.461   1.872  0.00  0.00    -0.082 A 
ATOM      9  C7  UNL d   1       2.070  -0.711   0.907  0.00  0.00     0.045 A 
ENDROOT
TORSDOF 0
ENDMDL
