MODEL 1
REMARK minimizedAffinity 6.69183111
REMARK minimizedRMSD -1
REMARK  0 active torsions:
REMARK  status: ('A' for Active; 'I' for Inactive)
ROOT
ATOM      1  C   UNL d   1       3.396   1.475   1.723  0.00  0.00    -0.002 A 
ATOM      2  C1  UNL d   1       3.729   2.808   1.917  0.00  0.00     0.010 A 
ATOM      3  C2  UNL d   1       4.530   3.191   2.994  0.00  0.00     0.041 A 
ATOM      4  C3  UNL d   1       4.997   2.201   3.882  0.00  0.00    -0.075 A 
ATOM      5  S   UNL d   1       5.992   2.436   5.270  0.00  0.00     0.015 SA
ATOM      6  C4  UNL d   1       6.000   0.771   5.638  0.00  0.00     0.022 A 
ATOM      7  C5  UNL d   1       5.265   0.040   4.735  0.00  0.00     0.026 A 
ATOM      8  C6  UNL d   1       4.676   0.852   3.707  0.00  0.00    -0.082 A 
ATOM      9  C7  UNL d   1       3.861   0.496   2.605  0.00  0.00     0.045 A 
ENDROOT
TORSDOF 0
ENDMDL
