MODEL 1
REMARK minimizedAffinity 9.7515049
REMARK minimizedRMSD -1
REMARK  0 active torsions:
REMARK  status: ('A' for Active; 'I' for Inactive)
ROOT
ATOM      1  C   UNL d   1      -2.626   0.698   1.326  0.00  0.00    -0.002 A 
ATOM      2  C1  UNL d   1      -2.279   1.180   2.581  0.00  0.00     0.010 A 
ATOM      3  C2  UNL d   1      -2.992   0.785   3.714  0.00  0.00     0.041 A 
ATOM      4  C3  UNL d   1      -4.068  -0.112   3.565  0.00  0.00    -0.075 A 
ATOM      5  S   UNL d   1      -5.083  -0.735   4.811  0.00  0.00     0.015 SA
ATOM      6  C4  UNL d   1      -6.000  -1.656   3.708  0.00  0.00     0.022 A 
ATOM      7  C5  UNL d   1      -5.556  -1.503   2.416  0.00  0.00     0.026 A 
ATOM      8  C6  UNL d   1      -4.435  -0.612   2.312  0.00  0.00    -0.082 A 
ATOM      9  C7  UNL d   1      -3.693  -0.191   1.182  0.00  0.00     0.045 A 
ENDROOT
TORSDOF 0
ENDMDL
