MODEL 1
REMARK minimizedAffinity -3.28151274
REMARK minimizedRMSD -1
REMARK  1 active torsions:
REMARK  status: ('A' for Active; 'I' for Inactive)
REMARK    1  A    between atoms: C3_4  and  O_7 
ROOT
ATOM      1  C   UNL d   1      -0.167   0.078  -0.135  0.00  0.00    -0.033 A 
ATOM      2  C1  UNL d   1      -1.157  -0.483   0.674  0.00  0.00     0.039 A 
ATOM      3  C2  UNL d   1      -1.561   0.170   1.840  0.00  0.00    -0.080 A 
ATOM      4  C3  UNL d   1      -0.970   1.382   2.184  0.00  0.00     0.150 A 
ATOM      5  C4  UNL d   1       0.015   1.949   1.381  0.00  0.00    -0.007 A 
ATOM      6  C5  UNL d   1       0.418   1.295   0.217  0.00  0.00     0.039 A 
ENDROOT
BRANCH   4   7
ATOM      7  O   UNL d   1      -1.328   2.055   3.315  0.00  0.00    -0.526 OA
ATOM      8  H5  UNL d   1      -1.997   1.530   3.785  0.00  0.00     0.418 HD
ENDBRANCH   4   7
TORSDOF 1
ENDMDL
