MODEL 1
REMARK minimizedAffinity -4.46016788
REMARK minimizedRMSD -1
REMARK  1 active torsions:
REMARK  status: ('A' for Active; 'I' for Inactive)
REMARK    1  A    between atoms: C3_4  and  O_7 
ROOT
ATOM      1  C   UNL d   1      -0.259  -0.429  -0.553  0.00  0.00    -0.033 A 
ATOM      2  C1  UNL d   1       0.780  -0.096   0.318  0.00  0.00     0.039 A 
ATOM      3  C2  UNL d   1       0.529   0.705   1.434  0.00  0.00    -0.080 A 
ATOM      4  C3  UNL d   1      -0.765   1.163   1.668  0.00  0.00     0.150 A 
ATOM      5  C4  UNL d   1      -1.806   0.832   0.807  0.00  0.00    -0.007 A 
ATOM      6  C5  UNL d   1      -1.552   0.034  -0.308  0.00  0.00     0.039 A 
ENDROOT
BRANCH   4   7
ATOM      7  O   UNL d   1      -1.058   1.951   2.742  0.00  0.00    -0.526 OA
ATOM      8  H5  UNL d   1      -0.236   2.121   3.232  0.00  0.00     0.418 HD
ENDBRANCH   4   7
TORSDOF 1
ENDMDL
