MODEL 1
REMARK minimizedAffinity -3.93294406
REMARK minimizedRMSD -1
REMARK  1 active torsions:
REMARK  status: ('A' for Active; 'I' for Inactive)
REMARK    1  A    between atoms: C3_4  and  O_7 
ROOT
ATOM      1  C   UNL d   1      -0.165  -0.554  -0.613  0.00  0.00    -0.033 A 
ATOM      2  C1  UNL d   1      -1.464  -0.216  -0.226  0.00  0.00     0.039 A 
ATOM      3  C2  UNL d   1      -1.677   0.532   0.934  0.00  0.00    -0.080 A 
ATOM      4  C3  UNL d   1      -0.584   0.936   1.696  0.00  0.00     0.150 A 
ATOM      5  C4  UNL d   1       0.712   0.606   1.315  0.00  0.00    -0.007 A 
ATOM      6  C5  UNL d   1       0.923  -0.141   0.157  0.00  0.00     0.039 A 
ENDROOT
BRANCH   4   7
ATOM      7  O   UNL d   1      -0.743   1.663   2.839  0.00  0.00    -0.526 OA
ATOM      8  H5  UNL d   1      -1.694   1.791   2.992  0.00  0.00     0.418 HD
ENDBRANCH   4   7
TORSDOF 1
ENDMDL
