MODEL 1
REMARK minimizedAffinity -3.29545355
REMARK minimizedRMSD -1
REMARK  1 active torsions:
REMARK  status: ('A' for Active; 'I' for Inactive)
REMARK    1  A    between atoms: C3_4  and  O_7 
ROOT
ATOM      1  C   UNL d   1       1.372   0.758   1.798  0.00  0.00    -0.033 A 
ATOM      2  C1  UNL d   1       0.350   1.313   1.025  0.00  0.00     0.039 A 
ATOM      3  C2  UNL d   1       0.088   0.812  -0.252  0.00  0.00    -0.080 A 
ATOM      4  C3  UNL d   1       0.853  -0.242  -0.742  0.00  0.00     0.150 A 
ATOM      5  C4  UNL d   1       1.870  -0.802   0.024  0.00  0.00    -0.007 A 
ATOM      6  C5  UNL d   1       2.131  -0.300   1.299  0.00  0.00     0.039 A 
ENDROOT
BRANCH   4   7
ATOM      7  O   UNL d   1       0.638  -0.761  -1.984  0.00  0.00    -0.526 OA
ATOM      8  H5  UNL d   1      -0.076  -0.257  -2.409  0.00  0.00     0.418 HD
ENDBRANCH   4   7
TORSDOF 1
ENDMDL
