MODEL 1
REMARK minimizedAffinity -3.97167253
REMARK minimizedRMSD -1
REMARK  1 active torsions:
REMARK  status: ('A' for Active; 'I' for Inactive)
REMARK    1  A    between atoms: C3_4  and  O_7 
ROOT
ATOM      1  C   UNL d   1      -0.070   0.508  -0.821  0.00  0.00    -0.033 A 
ATOM      2  C1  UNL d   1      -0.856   1.655  -0.947  0.00  0.00     0.039 A 
ATOM      3  C2  UNL d   1      -1.371   2.280   0.190  0.00  0.00    -0.080 A 
ATOM      4  C3  UNL d   1      -1.092   1.749   1.447  0.00  0.00     0.150 A 
ATOM      5  C4  UNL d   1      -0.306   0.609   1.581  0.00  0.00    -0.007 A 
ATOM      6  C5  UNL d   1       0.206  -0.014   0.443  0.00  0.00     0.039 A 
ENDROOT
BRANCH   4   7
ATOM      7  O   UNL d   1      -1.576   2.321   2.585  0.00  0.00    -0.526 OA
ATOM      8  H5  UNL d   1      -2.125   3.084   2.337  0.00  0.00     0.418 HD
ENDBRANCH   4   7
TORSDOF 1
ENDMDL
