MODEL 1
REMARK minimizedAffinity -5.37412357
REMARK minimizedRMSD -1
REMARK  1 active torsions:
REMARK  status: ('A' for Active; 'I' for Inactive)
REMARK    1  A    between atoms: C3_4  and  O_7 
ROOT
ATOM      1  C   UNL d   1       0.003  -0.351  -0.042  0.00  0.00    -0.033 A 
ATOM      2  C1  UNL d   1      -1.317   0.080  -0.180  0.00  0.00     0.039 A 
ATOM      3  C2  UNL d   1      -1.915   0.841   0.827  0.00  0.00    -0.080 A 
ATOM      4  C3  UNL d   1      -1.181   1.163   1.965  0.00  0.00     0.150 A 
ATOM      5  C4  UNL d   1       0.136   0.740   2.108  0.00  0.00    -0.007 A 
ATOM      6  C5  UNL d   1       0.730  -0.020   1.102  0.00  0.00     0.039 A 
ENDROOT
BRANCH   4   7
ATOM      7  O   UNL d   1      -1.723   1.899   2.977  0.00  0.00    -0.526 OA
ATOM      8  H5  UNL d   1      -2.648   2.097   2.753  0.00  0.00     0.418 HD
ENDBRANCH   4   7
TORSDOF 1
ENDMDL
