MODEL 1
REMARK minimizedAffinity -3.04757619
REMARK minimizedRMSD -1
REMARK  1 active torsions:
REMARK  status: ('A' for Active; 'I' for Inactive)
REMARK    1  A    between atoms: C3_4  and  O_7 
ROOT
ATOM      1  C   UNL d   1      -0.233  -0.593   0.007  0.00  0.00    -0.033 A 
ATOM      2  C1  UNL d   1      -1.548  -0.147   0.153  0.00  0.00     0.039 A 
ATOM      3  C2  UNL d   1      -1.872   0.759   1.165  0.00  0.00    -0.080 A 
ATOM      4  C3  UNL d   1      -0.873   1.212   2.022  0.00  0.00     0.150 A 
ATOM      5  C4  UNL d   1       0.440   0.774   1.880  0.00  0.00    -0.007 A 
ATOM      6  C5  UNL d   1       0.761  -0.131   0.870  0.00  0.00     0.039 A 
ENDROOT
BRANCH   4   7
ATOM      7  O   UNL d   1      -1.142   2.092   3.027  0.00  0.00    -0.526 OA
ATOM      8  H5  UNL d   1      -2.094   2.284   3.022  0.00  0.00     0.418 HD
ENDBRANCH   4   7
TORSDOF 1
ENDMDL
