MODEL 1
REMARK minimizedAffinity 0.398678869
REMARK minimizedRMSD -1
REMARK  0 active torsions:
REMARK  status: ('A' for Active; 'I' for Inactive)
ROOT
ATOM      1  C   UNL d   1      -1.284  -2.443  -2.356  0.00  0.00     0.020 A 
ATOM      2  C1  UNL d   1      -0.931  -1.876  -1.132  0.00  0.00     0.020 A 
ATOM      3  C2  UNL d   1       0.405  -1.574  -0.861  0.00  0.00     0.034 A 
ATOM      4  C3  UNL d   1       1.394  -1.839  -1.816  0.00  0.00     0.017 A 
ATOM      5  C4  UNL d   1       1.038  -2.408  -3.045  0.00  0.00     0.017 A 
ATOM      6  C5  UNL d   1      -0.301  -2.708  -3.310  0.00  0.00     0.034 A 
ATOM      7 Cl   UNL d   1       2.202  -2.764  -4.272  0.00  0.00    -0.070 Cl
ATOM      8 Cl1  UNL d   1       3.026  -1.440  -1.415  0.00  0.00    -0.070 Cl
ENDROOT
TORSDOF 0
ENDMDL
