MODEL 1
REMARK minimizedAffinity 6.20825815
REMARK minimizedRMSD -1
REMARK  0 active torsions:
REMARK  status: ('A' for Active; 'I' for Inactive)
ROOT
ATOM      1  C   UNL d   1       5.536   5.011  -2.042  0.00  0.00     0.020 A 
ATOM      2  C1  UNL d   1       4.431   5.854  -2.150  0.00  0.00     0.020 A 
ATOM      3  C2  UNL d   1       3.780   6.000  -3.377  0.00  0.00     0.034 A 
ATOM      4  C3  UNL d   1       4.235   5.302  -4.502  0.00  0.00     0.017 A 
ATOM      5  C4  UNL d   1       5.345   4.456  -4.393  0.00  0.00     0.017 A 
ATOM      6  C5  UNL d   1       5.992   4.314  -3.162  0.00  0.00     0.034 A 
ATOM      7 Cl   UNL d   1       5.964   3.562  -5.736  0.00  0.00    -0.070 Cl
ATOM      8 Cl1  UNL d   1       3.382   5.529  -5.987  0.00  0.00    -0.070 Cl
ENDROOT
TORSDOF 0
ENDMDL
