MODEL 1
REMARK minimizedAffinity 5.49728537
REMARK minimizedRMSD -1
REMARK  0 active torsions:
REMARK  status: ('A' for Active; 'I' for Inactive)
ROOT
ATOM      1  C   UNL d   1       0.718  -1.861  -3.062  0.00  0.00     0.020 A 
ATOM      2  C1  UNL d   1       1.235  -1.535  -1.809  0.00  0.00     0.020 A 
ATOM      3  C2  UNL d   1       0.426  -1.624  -0.675  0.00  0.00     0.034 A 
ATOM      4  C3  UNL d   1      -0.906  -2.041  -0.791  0.00  0.00     0.017 A 
ATOM      5  C4  UNL d   1      -1.424  -2.368  -2.049  0.00  0.00     0.017 A 
ATOM      6  C5  UNL d   1      -0.609  -2.277  -3.182  0.00  0.00     0.034 A 
ATOM      7 Cl   UNL d   1      -3.056  -2.890  -2.272  0.00  0.00    -0.070 Cl
ATOM      8 Cl1  UNL d   1      -1.849  -2.129   0.654  0.00  0.00    -0.070 Cl
ENDROOT
TORSDOF 0
ENDMDL
