MODEL 1
REMARK minimizedAffinity 5.23700714
REMARK minimizedRMSD -1
REMARK  0 active torsions:
REMARK  status: ('A' for Active; 'I' for Inactive)
ROOT
ATOM      1  C   UNL d   1       2.567  -2.091  -3.769  0.00  0.00     0.020 A 
ATOM      2  C1  UNL d   1       2.866  -1.621  -2.491  0.00  0.00     0.020 A 
ATOM      3  C2  UNL d   1       1.843  -1.437  -1.558  0.00  0.00     0.034 A 
ATOM      4  C3  UNL d   1       0.516  -1.721  -1.902  0.00  0.00     0.017 A 
ATOM      5  C4  UNL d   1       0.218  -2.193  -3.186  0.00  0.00     0.017 A 
ATOM      6  C5  UNL d   1       1.246  -2.376  -4.116  0.00  0.00     0.034 A 
ATOM      7 Cl   UNL d   1      -1.395  -2.566  -3.684  0.00  0.00    -0.070 Cl
ATOM      8 Cl1  UNL d   1      -0.698  -1.470  -0.699  0.00  0.00    -0.070 Cl
ENDROOT
TORSDOF 0
ENDMDL
