MODEL 1
REMARK minimizedAffinity -2.43794942
REMARK minimizedRMSD -1
REMARK  0 active torsions:
REMARK  status: ('A' for Active; 'I' for Inactive)
ROOT
ATOM      1  C   UNL d   1      -1.695  -2.184  -0.126  0.00  0.00     0.020 A 
ATOM      2  C1  UNL d   1      -2.575  -2.861  -0.971  0.00  0.00     0.020 A 
ATOM      3  C2  UNL d   1      -2.164  -3.233  -2.253  0.00  0.00     0.034 A 
ATOM      4  C3  UNL d   1      -0.871  -2.929  -2.694  0.00  0.00     0.017 A 
ATOM      5  C4  UNL d   1       0.010  -2.249  -1.846  0.00  0.00     0.017 A 
ATOM      6  C5  UNL d   1      -0.406  -1.879  -0.563  0.00  0.00     0.034 A 
ATOM      7 Cl   UNL d   1       1.621  -1.839  -2.320  0.00  0.00    -0.070 Cl
ATOM      8 Cl1  UNL d   1      -0.431  -3.419  -4.291  0.00  0.00    -0.070 Cl
ENDROOT
TORSDOF 0
ENDMDL
