MODEL 1
REMARK minimizedAffinity -0.0907486603
REMARK minimizedRMSD -1
REMARK  0 active torsions:
REMARK  status: ('A' for Active; 'I' for Inactive)
ROOT
ATOM      1  C   UNL d   1       5.906   4.810  -1.691  0.00  0.00     0.020 A 
ATOM      2  C1  UNL d   1       5.169   5.940  -2.039  0.00  0.00     0.020 A 
ATOM      3  C2  UNL d   1       4.523   6.000  -3.276  0.00  0.00     0.034 A 
ATOM      4  C3  UNL d   1       4.615   4.927  -4.170  0.00  0.00     0.017 A 
ATOM      5  C4  UNL d   1       5.356   3.792  -3.819  0.00  0.00     0.017 A 
ATOM      6  C5  UNL d   1       5.999   3.738  -2.579  0.00  0.00     0.034 A 
ATOM      7 Cl   UNL d   1       5.514   2.428  -4.869  0.00  0.00    -0.070 Cl
ATOM      8 Cl1  UNL d   1       3.791   5.068  -5.682  0.00  0.00    -0.070 Cl
ENDROOT
TORSDOF 0
ENDMDL
