MODEL 1
REMARK minimizedAffinity 2.47572923
REMARK minimizedRMSD -1
REMARK  0 active torsions:
REMARK  status: ('A' for Active; 'I' for Inactive)
ROOT
ATOM      1  C   UNL d   1       4.390   4.847  -5.905  0.00  0.00     0.020 A 
ATOM      2  C1  UNL d   1       4.122   5.982  -5.140  0.00  0.00     0.020 A 
ATOM      3  C2  UNL d   1       4.434   5.996  -3.779  0.00  0.00     0.034 A 
ATOM      4  C3  UNL d   1       5.015   4.873  -3.179  0.00  0.00     0.017 A 
ATOM      5  C4  UNL d   1       5.284   3.735  -3.947  0.00  0.00     0.017 A 
ATOM      6  C5  UNL d   1       4.969   3.726  -5.310  0.00  0.00     0.034 A 
ATOM      7 Cl   UNL d   1       6.000   2.312  -3.277  0.00  0.00    -0.070 Cl
ATOM      8 Cl1  UNL d   1       5.375   4.961  -1.491  0.00  0.00    -0.070 Cl
ENDROOT
TORSDOF 0
ENDMDL
