MODEL 1
REMARK minimizedAffinity 3.71068192
REMARK minimizedRMSD -1
REMARK  0 active torsions:
REMARK  status: ('A' for Active; 'I' for Inactive)
ROOT
ATOM      1  C   UNL d   1       4.799   6.000  -4.479  0.00  0.00     0.020 A 
ATOM      2  C1  UNL d   1       4.405   4.945  -5.301  0.00  0.00     0.020 A 
ATOM      3  C2  UNL d   1       4.500   3.629  -4.842  0.00  0.00     0.034 A 
ATOM      4  C3  UNL d   1       4.991   3.366  -3.558  0.00  0.00     0.017 A 
ATOM      5  C4  UNL d   1       5.385   4.426  -2.733  0.00  0.00     0.017 A 
ATOM      6  C5  UNL d   1       5.288   5.741  -3.198  0.00  0.00     0.034 A 
ATOM      7 Cl   UNL d   1       6.000   4.179  -1.137  0.00  0.00    -0.070 Cl
ATOM      8 Cl1  UNL d   1       5.081   1.715  -3.055  0.00  0.00    -0.070 Cl
ENDROOT
TORSDOF 0
ENDMDL
