MODEL 1
REMARK minimizedAffinity -0.820778012
REMARK minimizedRMSD -1
REMARK  0 active torsions:
REMARK  status: ('A' for Active; 'I' for Inactive)
ROOT
ATOM      1  C   UNL d   1       0.089  -1.483  -1.628  0.00  0.00     0.020 A 
ATOM      2  C1  UNL d   1      -0.257  -1.646  -2.969  0.00  0.00     0.020 A 
ATOM      3  C2  UNL d   1      -1.404  -2.365  -3.311  0.00  0.00     0.034 A 
ATOM      4  C3  UNL d   1      -2.209  -2.925  -2.311  0.00  0.00     0.017 A 
ATOM      5  C4  UNL d   1      -1.860  -2.760  -0.966  0.00  0.00     0.017 A 
ATOM      6  C5  UNL d   1      -0.710  -2.039  -0.629  0.00  0.00     0.034 A 
ATOM      7 Cl   UNL d   1      -2.803  -3.421   0.324  0.00  0.00    -0.070 Cl
ATOM      8 Cl1  UNL d   1      -3.613  -3.801  -2.806  0.00  0.00    -0.070 Cl
ENDROOT
TORSDOF 0
ENDMDL
