MODEL 1
REMARK minimizedAffinity 0.263112634
REMARK minimizedRMSD -1
REMARK  0 active torsions:
REMARK  status: ('A' for Active; 'I' for Inactive)
ROOT
ATOM      1  C   UNL d   1       4.519   5.569  -1.876  0.00  0.00     0.020 A 
ATOM      2  C1  UNL d   1       5.553   4.635  -1.858  0.00  0.00     0.020 A 
ATOM      3  C2  UNL d   1       5.995   4.059  -3.051  0.00  0.00     0.034 A 
ATOM      4  C3  UNL d   1       5.403   4.417  -4.267  0.00  0.00     0.017 A 
ATOM      5  C4  UNL d   1       4.364   5.355  -4.284  0.00  0.00     0.017 A 
ATOM      6  C5  UNL d   1       3.926   5.929  -3.087  0.00  0.00     0.034 A 
ATOM      7 Cl   UNL d   1       3.584   5.847  -5.746  0.00  0.00    -0.070 Cl
ATOM      8 Cl1  UNL d   1       6.000   3.666  -5.704  0.00  0.00    -0.070 Cl
ENDROOT
TORSDOF 0
ENDMDL
