MODEL 1
REMARK minimizedAffinity -0.654716849
REMARK minimizedRMSD -1
REMARK  0 active torsions:
REMARK  status: ('A' for Active; 'I' for Inactive)
ROOT
ATOM      1  C   UNL d   1       5.572   4.820  -2.012  0.00  0.00     0.020 A 
ATOM      2  C1  UNL d   1       4.543   5.754  -2.125  0.00  0.00     0.020 A 
ATOM      3  C2  UNL d   1       3.941   5.983  -3.364  0.00  0.00     0.034 A 
ATOM      4  C3  UNL d   1       4.367   5.276  -4.495  0.00  0.00     0.017 A 
ATOM      5  C4  UNL d   1       5.400   4.339  -4.380  0.00  0.00     0.017 A 
ATOM      6  C5  UNL d   1       6.000   4.114  -3.137  0.00  0.00     0.034 A 
ATOM      7 Cl   UNL d   1       5.981   3.429  -5.730  0.00  0.00    -0.070 Cl
ATOM      8 Cl1  UNL d   1       3.578   5.609  -5.995  0.00  0.00    -0.070 Cl
ENDROOT
TORSDOF 0
ENDMDL
