MODEL 1
REMARK minimizedAffinity 3.01129794
REMARK minimizedRMSD -1
REMARK  0 active torsions:
REMARK  status: ('A' for Active; 'I' for Inactive)
ROOT
ATOM      1  C   UNL d   1      -3.210  -3.750  -1.777  0.00  0.00     0.020 A 
ATOM      2  C1  UNL d   1      -2.626  -2.941  -0.804  0.00  0.00     0.020 A 
ATOM      3  C2  UNL d   1      -1.445  -2.250  -1.086  0.00  0.00     0.034 A 
ATOM      4  C3  UNL d   1      -0.845  -2.368  -2.345  0.00  0.00     0.017 A 
ATOM      5  C4  UNL d   1      -1.432  -3.180  -3.322  0.00  0.00     0.017 A 
ATOM      6  C5  UNL d   1      -2.614  -3.869  -3.033  0.00  0.00     0.034 A 
ATOM      7 Cl   UNL d   1      -0.750  -3.375  -4.898  0.00  0.00    -0.070 Cl
ATOM      8 Cl1  UNL d   1       0.614  -1.485  -2.625  0.00  0.00    -0.070 Cl
ENDROOT
TORSDOF 0
ENDMDL
