MODEL 1
REMARK minimizedAffinity 3.12725091
REMARK minimizedRMSD -1
REMARK  0 active torsions:
REMARK  status: ('A' for Active; 'I' for Inactive)
ROOT
ATOM      1  C   UNL d   1      -1.914  -3.249  -1.863  0.00  0.00     0.020 A 
ATOM      2  C1  UNL d   1      -3.029  -2.831  -1.138  0.00  0.00     0.020 A 
ATOM      3  C2  UNL d   1      -2.929  -2.625   0.239  0.00  0.00     0.034 A 
ATOM      4  C3  UNL d   1      -1.712  -2.837   0.897  0.00  0.00     0.017 A 
ATOM      5  C4  UNL d   1      -0.593  -3.257   0.168  0.00  0.00     0.017 A 
ATOM      6  C5  UNL d   1      -0.698  -3.461  -1.211  0.00  0.00     0.034 A 
ATOM      7 Cl   UNL d   1       0.943  -3.539   0.909  0.00  0.00    -0.070 Cl
ATOM      8 Cl1  UNL d   1      -1.661  -2.563   2.602  0.00  0.00    -0.070 Cl
ENDROOT
TORSDOF 0
ENDMDL
