MODEL 1
REMARK minimizedAffinity -0.00613850076
REMARK minimizedRMSD -1
REMARK  0 active torsions:
REMARK  status: ('A' for Active; 'I' for Inactive)
ROOT
ATOM      1  C   UNL d   1       4.509   4.731  -4.483  0.00  0.00     0.020 A 
ATOM      2  C1  UNL d   1       5.546   5.651  -4.332  0.00  0.00     0.020 A 
ATOM      3  C2  UNL d   1       5.991   5.999  -3.055  0.00  0.00     0.034 A 
ATOM      4  C3  UNL d   1       5.399   5.426  -1.923  0.00  0.00     0.017 A 
ATOM      5  C4  UNL d   1       4.358   4.502  -2.076  0.00  0.00     0.017 A 
ATOM      6  C5  UNL d   1       3.917   4.158  -3.357  0.00  0.00     0.034 A 
ATOM      7 Cl   UNL d   1       3.579   3.753  -0.727  0.00  0.00    -0.070 Cl
ATOM      8 Cl1  UNL d   1       5.999   5.901  -0.375  0.00  0.00    -0.070 Cl
ENDROOT
TORSDOF 0
ENDMDL
