MODEL 1
REMARK minimizedAffinity -1.51816559
REMARK minimizedRMSD -1
REMARK  0 active torsions:
REMARK  status: ('A' for Active; 'I' for Inactive)
ROOT
ATOM      1  C   UNL d   1      -1.961   1.274   5.642  0.00  0.00     0.020 A 
ATOM      2  C1  UNL d   1      -1.492   1.492   4.347  0.00  0.00     0.020 A 
ATOM      3  C2  UNL d   1      -1.529   0.459   3.408  0.00  0.00     0.034 A 
ATOM      4  C3  UNL d   1      -2.036  -0.796   3.762  0.00  0.00     0.017 A 
ATOM      5  C4  UNL d   1      -2.507  -1.014   5.061  0.00  0.00     0.017 A 
ATOM      6  C5  UNL d   1      -2.468   0.023   5.998  0.00  0.00     0.034 A 
ATOM      7 Cl   UNL d   1      -3.147  -2.536   5.572  0.00  0.00    -0.070 Cl
ATOM      8 Cl1  UNL d   1      -2.052  -2.027   2.549  0.00  0.00    -0.070 Cl
ENDROOT
TORSDOF 0
ENDMDL
