MODEL 1
REMARK minimizedAffinity 0.865285397
REMARK minimizedRMSD -1
REMARK  0 active torsions:
REMARK  status: ('A' for Active; 'I' for Inactive)
ROOT
ATOM      1  C   UNL d   1      -1.040  -2.700  -2.450  0.00  0.00     0.020 A 
ATOM      2  C1  UNL d   1       0.084  -2.301  -1.728  0.00  0.00     0.020 A 
ATOM      3  C2  UNL d   1       0.024  -2.212  -0.335  0.00  0.00     0.034 A 
ATOM      4  C3  UNL d   1      -1.162  -2.523   0.340  0.00  0.00     0.017 A 
ATOM      5  C4  UNL d   1      -2.290  -2.924  -0.386  0.00  0.00     0.017 A 
ATOM      6  C5  UNL d   1      -2.224  -3.011  -1.780  0.00  0.00     0.034 A 
ATOM      7 Cl   UNL d   1      -3.788  -3.325   0.377  0.00  0.00    -0.070 Cl
ATOM      8 Cl1  UNL d   1      -1.164  -2.392   2.062  0.00  0.00    -0.070 Cl
ENDROOT
TORSDOF 0
ENDMDL
