MODEL 1
REMARK minimizedAffinity 4.94610548
REMARK minimizedRMSD -1
REMARK  0 active torsions:
REMARK  status: ('A' for Active; 'I' for Inactive)
ROOT
ATOM      1  C   UNL d   1      -2.993  -3.663   1.463  0.00  0.00     0.020 A 
ATOM      2  C1  UNL d   1      -3.368  -3.269   0.179  0.00  0.00     0.020 A 
ATOM      3  C2  UNL d   1      -2.423  -2.708  -0.683  0.00  0.00     0.034 A 
ATOM      4  C3  UNL d   1      -1.098  -2.541  -0.263  0.00  0.00     0.017 A 
ATOM      5  C4  UNL d   1      -0.723  -2.937   1.026  0.00  0.00     0.017 A 
ATOM      6  C5  UNL d   1      -1.673  -3.497   1.885  0.00  0.00     0.034 A 
ATOM      7 Cl   UNL d   1       0.892  -2.762   1.616  0.00  0.00    -0.070 Cl
ATOM      8 Cl1  UNL d   1       0.017  -1.841  -1.381  0.00  0.00    -0.070 Cl
ENDROOT
TORSDOF 0
ENDMDL
