MODEL 1
REMARK minimizedAffinity 5.62826824
REMARK minimizedRMSD -1
REMARK  0 active torsions:
REMARK  status: ('A' for Active; 'I' for Inactive)
ROOT
ATOM      1  C   UNL d   1       4.809   4.701  -5.904  0.00  0.00     0.020 A 
ATOM      2  C1  UNL d   1       5.996   4.529  -5.193  0.00  0.00     0.020 A 
ATOM      3  C2  UNL d   1       5.996   4.621  -3.800  0.00  0.00     0.034 A 
ATOM      4  C3  UNL d   1       4.806   4.886  -3.112  0.00  0.00     0.017 A 
ATOM      5  C4  UNL d   1       3.614   5.059  -3.827  0.00  0.00     0.017 A 
ATOM      6  C5  UNL d   1       3.621   4.965  -5.222  0.00  0.00     0.034 A 
ATOM      7 Cl   UNL d   1       2.107   5.388  -3.049  0.00  0.00    -0.070 Cl
ATOM      8 Cl1  UNL d   1       4.878   4.985  -1.389  0.00  0.00    -0.070 Cl
ENDROOT
TORSDOF 0
ENDMDL
