MODEL 1
REMARK minimizedAffinity 1.15971637
REMARK minimizedRMSD -1
REMARK  0 active torsions:
REMARK  status: ('A' for Active; 'I' for Inactive)
ROOT
ATOM      1  C   UNL d   1      -2.238  -1.119   3.278  0.00  0.00     0.020 A 
ATOM      2  C1  UNL d   1      -1.850  -2.285   2.620  0.00  0.00     0.020 A 
ATOM      3  C2  UNL d   1      -1.291  -2.213   1.342  0.00  0.00     0.034 A 
ATOM      4  C3  UNL d   1      -1.117  -0.972   0.719  0.00  0.00     0.017 A 
ATOM      5  C4  UNL d   1      -1.507   0.198   1.381  0.00  0.00     0.017 A 
ATOM      6  C5  UNL d   1      -2.067   0.120   2.660  0.00  0.00     0.034 A 
ATOM      7 Cl   UNL d   1      -1.324   1.766   0.676  0.00  0.00    -0.070 Cl
ATOM      8 Cl1  UNL d   1      -0.419  -0.957  -0.861  0.00  0.00    -0.070 Cl
ENDROOT
TORSDOF 0
ENDMDL
