MODEL 1
REMARK minimizedAffinity -3.06424904
REMARK minimizedRMSD -1
REMARK  0 active torsions:
REMARK  status: ('A' for Active; 'I' for Inactive)
ROOT
ATOM      1  C1  BNZ d   1       1.517  -0.305  -1.424  0.00  0.00     0.000 A 
ATOM      2  C2  BNZ d   1       1.489   1.057  -1.279  0.00  0.00     0.000 A 
ATOM      3  C3  BNZ d   1       0.450   1.671  -0.638  0.00  0.00     0.000 A 
ATOM      4  C4  BNZ d   1      -0.578   0.929  -0.179  0.00  0.00     0.000 A 
ATOM      5  C5  BNZ d   1      -0.569  -0.444  -0.326  0.00  0.00     0.000 A 
ATOM      6  C6  BNZ d   1       0.498  -1.063  -0.937  0.00  0.00     0.000 A 
ENDROOT
TORSDOF 0
ENDMDL
