MODEL 1
REMARK minimizedAffinity -3.88078451
REMARK minimizedRMSD -1
REMARK  0 active torsions:
REMARK  status: ('A' for Active; 'I' for Inactive)
ROOT
ATOM      1  C1  BNZ d   1      -1.025   1.939  -1.009  0.00  0.00     0.000 A 
ATOM      2  C2  BNZ d   1      -1.912   2.060   0.027  0.00  0.00     0.000 A 
ATOM      3  C3  BNZ d   1      -1.781   1.296   1.153  0.00  0.00     0.000 A 
ATOM      4  C4  BNZ d   1      -0.789   0.386   1.225  0.00  0.00     0.000 A 
ATOM      5  C5  BNZ d   1       0.108   0.245   0.185  0.00  0.00     0.000 A 
ATOM      6  C6  BNZ d   1      -0.004   1.043  -0.931  0.00  0.00     0.000 A 
ENDROOT
TORSDOF 0
ENDMDL
