MODEL 1
REMARK minimizedAffinity -2.64996576
REMARK minimizedRMSD -1
REMARK  0 active torsions:
REMARK  status: ('A' for Active; 'I' for Inactive)
ROOT
ATOM      1  C1  BNZ d   1      -0.134  -0.757   1.393  0.00  0.00     0.000 A 
ATOM      2  C2  BNZ d   1      -0.987   0.112   2.018  0.00  0.00     0.000 A 
ATOM      3  C3  BNZ d   1      -1.480   1.204   1.360  0.00  0.00     0.000 A 
ATOM      4  C4  BNZ d   1      -1.089   1.447   0.092  0.00  0.00     0.000 A 
ATOM      5  C5  BNZ d   1      -0.222   0.584  -0.549  0.00  0.00     0.000 A 
ATOM      6  C6  BNZ d   1       0.242  -0.535   0.104  0.00  0.00     0.000 A 
ENDROOT
TORSDOF 0
ENDMDL
