MODEL 1
REMARK minimizedAffinity -5.56404161
REMARK minimizedRMSD -1
REMARK  0 active torsions:
REMARK  status: ('A' for Active; 'I' for Inactive)
ROOT
ATOM      1  C1  BNZ d   1      -0.665   1.398  -0.723  0.00  0.00     0.000 A 
ATOM      2  C2  BNZ d   1      -0.533   2.733  -0.995  0.00  0.00     0.000 A 
ATOM      3  C3  BNZ d   1      -1.116   3.673  -0.191  0.00  0.00     0.000 A 
ATOM      4  C4  BNZ d   1      -1.862   3.275   0.860  0.00  0.00     0.000 A 
ATOM      5  C5  BNZ d   1      -2.012   1.932   1.142  0.00  0.00     0.000 A 
ATOM      6  C6  BNZ d   1      -1.392   0.990   0.353  0.00  0.00     0.000 A 
ENDROOT
TORSDOF 0
ENDMDL
