MODEL 1
REMARK minimizedAffinity -3.6684649
REMARK minimizedRMSD -1
REMARK  0 active torsions:
REMARK  status: ('A' for Active; 'I' for Inactive)
ROOT
ATOM      1  C1  BNZ d   1      -0.191  -0.206   0.194  0.00  0.00     0.000 A 
ATOM      2  C2  BNZ d   1      -1.053   0.836   0.413  0.00  0.00     0.000 A 
ATOM      3  C3  BNZ d   1      -0.929   2.005  -0.283  0.00  0.00     0.000 A 
ATOM      4  C4  BNZ d   1       0.079   2.147  -1.168  0.00  0.00     0.000 A 
ATOM      5  C5  BNZ d   1       0.961   1.109  -1.394  0.00  0.00     0.000 A 
ATOM      6  C6  BNZ d   1       0.810  -0.081  -0.719  0.00  0.00     0.000 A 
ENDROOT
TORSDOF 0
ENDMDL
