MODEL 1
REMARK minimizedAffinity -2.85790253
REMARK minimizedRMSD -1
REMARK  0 active torsions:
REMARK  status: ('A' for Active; 'I' for Inactive)
ROOT
ATOM      1  C1  BNZ d   1       0.486  -1.906  -3.257  0.00  0.00     0.000 A 
ATOM      2  C2  BNZ d   1       0.616  -0.723  -2.579  0.00  0.00     0.000 A 
ATOM      3  C3  BNZ d   1       1.180  -0.688  -1.334  0.00  0.00     0.000 A 
ATOM      4  C4  BNZ d   1       1.575  -1.839  -0.753  0.00  0.00     0.000 A 
ATOM      5  C5  BNZ d   1       1.442  -3.041  -1.419  0.00  0.00     0.000 A 
ATOM      6  C6  BNZ d   1       0.910  -3.067  -2.688  0.00  0.00     0.000 A 
ENDROOT
TORSDOF 0
ENDMDL
