MODEL 1
REMARK minimizedAffinity -3.33806515
REMARK minimizedRMSD -1
REMARK  0 active torsions:
REMARK  status: ('A' for Active; 'I' for Inactive)
ROOT
ATOM      1  C1  BNZ d   1      -1.035   1.117   0.700  0.00  0.00     0.000 A 
ATOM      2  C2  BNZ d   1      -0.312   1.082  -0.463  0.00  0.00     0.000 A 
ATOM      3  C3  BNZ d   1       0.549   0.052  -0.720  0.00  0.00     0.000 A 
ATOM      4  C4  BNZ d   1       0.716  -0.919   0.201  0.00  0.00     0.000 A 
ATOM      5  C5  BNZ d   1       0.001  -0.892   1.382  0.00  0.00     0.000 A 
ATOM      6  C6  BNZ d   1      -0.894   0.126   1.621  0.00  0.00     0.000 A 
ENDROOT
TORSDOF 0
ENDMDL
