MODEL 1
REMARK minimizedAffinity -4.62678766
REMARK minimizedRMSD -1
REMARK  0 active torsions:
REMARK  status: ('A' for Active; 'I' for Inactive)
ROOT
ATOM      1  C1  BNZ d   1       0.108  -0.541   0.164  0.00  0.00     0.000 A 
ATOM      2  C2  BNZ d   1      -0.445   0.549  -0.452  0.00  0.00     0.000 A 
ATOM      3  C3  BNZ d   1      -1.089   1.512   0.274  0.00  0.00     0.000 A 
ATOM      4  C4  BNZ d   1      -1.213   1.364   1.609  0.00  0.00     0.000 A 
ATOM      5  C5  BNZ d   1      -0.668   0.265   2.244  0.00  0.00     0.000 A 
ATOM      6  C6  BNZ d   1       0.012  -0.682   1.514  0.00  0.00     0.000 A 
ENDROOT
TORSDOF 0
ENDMDL
