MODEL 1
REMARK minimizedAffinity -1.87489808
REMARK minimizedRMSD -1
REMARK  0 active torsions:
REMARK  status: ('A' for Active; 'I' for Inactive)
ROOT
ATOM      1  C1  BNZ d   1       0.539  -0.788  -2.729  0.00  0.00     0.000 A 
ATOM      2  C2  BNZ d   1       0.167  -1.863  -3.491  0.00  0.00     0.000 A 
ATOM      3  C3  BNZ d   1       0.340  -3.140  -3.033  0.00  0.00     0.000 A 
ATOM      4  C4  BNZ d   1       0.921  -3.340  -1.833  0.00  0.00     0.000 A 
ATOM      5  C5  BNZ d   1       1.311  -2.267  -1.056  0.00  0.00     0.000 A 
ATOM      6  C6  BNZ d   1       1.099  -0.983  -1.503  0.00  0.00     0.000 A 
ENDROOT
TORSDOF 0
ENDMDL
