MODEL 1
REMARK minimizedAffinity -2.64595985
REMARK minimizedRMSD -1
REMARK  0 active torsions:
REMARK  status: ('A' for Active; 'I' for Inactive)
ROOT
ATOM      1  C1  BNZ d   1       0.008   0.007   0.740  0.00  0.00     0.000 A 
ATOM      2  C2  BNZ d   1       0.922  -0.462  -0.165  0.00  0.00     0.000 A 
ATOM      3  C3  BNZ d   1       1.402   0.345  -1.158  0.00  0.00     0.000 A 
ATOM      4  C4  BNZ d   1       0.938   1.606  -1.269  0.00  0.00     0.000 A 
ATOM      5  C5  BNZ d   1       0.009   2.091  -0.370  0.00  0.00     0.000 A 
ATOM      6  C6  BNZ d   1      -0.442   1.288   0.652  0.00  0.00     0.000 A 
ENDROOT
TORSDOF 0
ENDMDL
