MODEL 1
REMARK minimizedAffinity -4.36744213
REMARK minimizedRMSD -1
REMARK  0 active torsions:
REMARK  status: ('A' for Active; 'I' for Inactive)
ROOT
ATOM      1  C1  BNZ d   1       0.087   2.265  -0.883  0.00  0.00     0.000 A 
ATOM      2  C2  BNZ d   1      -0.380   3.430  -0.335  0.00  0.00     0.000 A 
ATOM      3  C3  BNZ d   1      -1.297   3.408   0.678  0.00  0.00     0.000 A 
ATOM      4  C4  BNZ d   1      -1.776   2.225   1.114  0.00  0.00     0.000 A 
ATOM      5  C5  BNZ d   1      -1.322   1.043   0.565  0.00  0.00     0.000 A 
ATOM      6  C6  BNZ d   1      -0.370   1.067  -0.428  0.00  0.00     0.000 A 
ENDROOT
TORSDOF 0
ENDMDL
