MODEL 1
REMARK minimizedAffinity -5.20096636
REMARK minimizedRMSD -1
REMARK  0 active torsions:
REMARK  status: ('A' for Active; 'I' for Inactive)
ROOT
ATOM      1  C1  BNZ d   1      -0.496   0.482   1.412  0.00  0.00     0.000 A 
ATOM      2  C2  BNZ d   1       0.154   0.513   0.207  0.00  0.00     0.000 A 
ATOM      3  C3  BNZ d   1       0.070   1.610  -0.605  0.00  0.00     0.000 A 
ATOM      4  C4  BNZ d   1      -0.694   2.656  -0.230  0.00  0.00     0.000 A 
ATOM      5  C5  BNZ d   1      -1.363   2.635   0.978  0.00  0.00     0.000 A 
ATOM      6  C6  BNZ d   1      -1.245   1.545   1.810  0.00  0.00     0.000 A 
ENDROOT
TORSDOF 0
ENDMDL
