MODEL 1
REMARK minimizedAffinity -4.16531897
REMARK minimizedRMSD -1
REMARK  0 active torsions:
REMARK  status: ('A' for Active; 'I' for Inactive)
ROOT
ATOM      1  C1  BNZ d   1      -0.800   1.328   0.426  0.00  0.00     0.000 A 
ATOM      2  C2  BNZ d   1      -0.120   1.342  -0.763  0.00  0.00     0.000 A 
ATOM      3  C3  BNZ d   1       0.775   0.354  -1.068  0.00  0.00     0.000 A 
ATOM      4  C4  BNZ d   1       1.017  -0.623  -0.171  0.00  0.00     0.000 A 
ATOM      5  C5  BNZ d   1       0.345  -0.646   1.036  0.00  0.00     0.000 A 
ATOM      6  C6  BNZ d   1      -0.583   0.329   1.324  0.00  0.00     0.000 A 
ENDROOT
TORSDOF 0
ENDMDL
