MODEL 1
REMARK minimizedAffinity -3.38433886
REMARK minimizedRMSD -1
REMARK  0 active torsions:
REMARK  status: ('A' for Active; 'I' for Inactive)
ROOT
ATOM      1  C1  BNZ d   1      -0.396  -0.117   1.429  0.00  0.00     0.000 A 
ATOM      2  C2  BNZ d   1       0.387  -0.535   0.387  0.00  0.00     0.000 A 
ATOM      3  C3  BNZ d   1       0.870   0.358  -0.528  0.00  0.00     0.000 A 
ATOM      4  C4  BNZ d   1       0.536   1.661  -0.423  0.00  0.00     0.000 A 
ATOM      5  C5  BNZ d   1      -0.261   2.096   0.616  0.00  0.00     0.000 A 
ATOM      6  C6  BNZ d   1      -0.713   1.201   1.558  0.00  0.00     0.000 A 
ENDROOT
TORSDOF 0
ENDMDL
