MODEL 1
REMARK minimizedAffinity -4.94996881
REMARK minimizedRMSD -1
REMARK  0 active torsions:
REMARK  status: ('A' for Active; 'I' for Inactive)
ROOT
ATOM      1  C1  BNZ d   1      -0.731   2.956  -0.273  0.00  0.00     0.000 A 
ATOM      2  C2  BNZ d   1      -0.068   1.916  -0.868  0.00  0.00     0.000 A 
ATOM      3  C3  BNZ d   1      -0.097   0.663  -0.321  0.00  0.00     0.000 A 
ATOM      4  C4  BNZ d   1      -0.754   0.462   0.839  0.00  0.00     0.000 A 
ATOM      5  C5  BNZ d   1      -1.420   1.503   1.455  0.00  0.00     0.000 A 
ATOM      6  C6  BNZ d   1      -1.421   2.753   0.882  0.00  0.00     0.000 A 
ENDROOT
TORSDOF 0
ENDMDL
