MODEL 1
REMARK minimizedAffinity -4.18553638
REMARK minimizedRMSD -1
REMARK  0 active torsions:
REMARK  status: ('A' for Active; 'I' for Inactive)
ROOT
ATOM      1  C1  BNZ d   1       0.457  -0.414   0.586  0.00  0.00     0.000 A 
ATOM      2  C2  BNZ d   1      -0.205  -0.339   1.783  0.00  0.00     0.000 A 
ATOM      3  C3  BNZ d   1      -1.110   0.657   2.021  0.00  0.00     0.000 A 
ATOM      4  C4  BNZ d   1      -1.324   1.598   1.078  0.00  0.00     0.000 A 
ATOM      5  C5  BNZ d   1      -0.658   1.541  -0.130  0.00  0.00     0.000 A 
ATOM      6  C6  BNZ d   1       0.224   0.515  -0.381  0.00  0.00     0.000 A 
ENDROOT
TORSDOF 0
ENDMDL
