MODEL 1
REMARK minimizedAffinity -5.13246393
REMARK minimizedRMSD -1
REMARK  0 active torsions:
REMARK  status: ('A' for Active; 'I' for Inactive)
ROOT
ATOM      1  C1  BNZ d   1      -0.855   2.958  -0.042  0.00  0.00     0.000 A 
ATOM      2  C2  BNZ d   1      -1.581   2.717   1.094  0.00  0.00     0.000 A 
ATOM      3  C3  BNZ d   1      -1.727   1.446   1.574  0.00  0.00     0.000 A 
ATOM      4  C4  BNZ d   1      -1.182   0.415   0.898  0.00  0.00     0.000 A 
ATOM      5  C5  BNZ d   1      -0.455   0.640  -0.254  0.00  0.00     0.000 A 
ATOM      6  C6  BNZ d   1      -0.277   1.925  -0.713  0.00  0.00     0.000 A 
ENDROOT
TORSDOF 0
ENDMDL
