MODEL 1
REMARK minimizedAffinity 1.46081805
REMARK minimizedRMSD -1
REMARK  1 active torsions:
REMARK  status: ('A' for Active; 'I' for Inactive)
REMARK    1  A    between atoms: N_2  and  C1_3 
ROOT
ATOM      1  C1  UNL d   1       1.496   0.411   0.144  0.00  0.00     0.143 A 
ATOM      2  C2  UNL d   1       1.354  -0.768  -0.595  0.00  0.00    -0.057 A 
ATOM      3  C3  UNL d   1       2.022  -1.942  -0.224  0.00  0.00     0.033 A 
ATOM      4  C4  UNL d   1       2.869  -1.949   0.879  0.00  0.00    -0.042 A 
ATOM      5  C5  UNL d   1       3.045  -0.781   1.613  0.00  0.00     0.033 A 
ATOM      6  C6  UNL d   1       2.371   0.386   1.242  0.00  0.00    -0.057 A 
ENDROOT
BRANCH   1   7
ATOM      7  N   UNL d   1       0.937   1.635  -0.230  0.00  0.00    -0.732 N 
ATOM      8  C   UNL d   1       1.173   2.825   0.559  0.00  0.00     0.284 C 
ATOM      9  H3  UNL d   1       0.974   1.789  -1.235  0.00  0.00     0.395 HD
ENDBRANCH   1   7
TORSDOF 1
ENDMDL
