MODEL 1
REMARK minimizedAffinity 6.89644814
REMARK minimizedRMSD -1
REMARK  1 active torsions:
REMARK  status: ('A' for Active; 'I' for Inactive)
REMARK    1  A    between atoms: N_2  and  C1_3 
ROOT
ATOM      1  C1  UNL d   1       1.200  -3.294  -0.322  0.00  0.00     0.143 A 
ATOM      2  C2  UNL d   1       1.338  -2.343  -1.338  0.00  0.00    -0.057 A 
ATOM      3  C3  UNL d   1       2.136  -1.205  -1.163  0.00  0.00     0.033 A 
ATOM      4  C4  UNL d   1       2.788  -0.985   0.045  0.00  0.00    -0.042 A 
ATOM      5  C5  UNL d   1       2.644  -1.905   1.078  0.00  0.00     0.033 A 
ATOM      6  C6  UNL d   1       1.852  -3.042   0.895  0.00  0.00    -0.057 A 
ENDROOT
BRANCH   1   7
ATOM      7  N   UNL d   1       0.343  -4.395  -0.400  0.00  0.00    -0.732 N 
ATOM      8  C   UNL d   1      -0.986  -4.257  -0.956  0.00  0.00     0.284 C 
ATOM      9  H3  UNL d   1       0.826  -5.244  -0.684  0.00  0.00     0.395 HD
ENDBRANCH   1   7
TORSDOF 1
ENDMDL
