MODEL 1
REMARK minimizedAffinity 2.30039048
REMARK minimizedRMSD -1
REMARK  1 active torsions:
REMARK  status: ('A' for Active; 'I' for Inactive)
REMARK    1  A    between atoms: N_2  and  C1_3 
ROOT
ATOM      1  C1  UNL d   1      -1.917   1.882   1.701  0.00  0.00     0.143 A 
ATOM      2  C2  UNL d   1      -1.360   2.183   0.454  0.00  0.00    -0.057 A 
ATOM      3  C3  UNL d   1       0.019   2.091   0.232  0.00  0.00     0.033 A 
ATOM      4  C4  UNL d   1       0.873   1.722   1.266  0.00  0.00    -0.042 A 
ATOM      5  C5  UNL d   1       0.345   1.442   2.522  0.00  0.00     0.033 A 
ATOM      6  C6  UNL d   1      -1.035   1.529   2.735  0.00  0.00    -0.057 A 
ENDROOT
BRANCH   1   7
ATOM      7  N   UNL d   1      -3.268   2.049   2.011  0.00  0.00    -0.732 N 
ATOM      8  C   UNL d   1      -4.289   1.350   1.260  0.00  0.00     0.284 C 
ATOM      9  H3  UNL d   1      -3.436   2.077   3.014  0.00  0.00     0.395 HD
ENDBRANCH   1   7
TORSDOF 1
ENDMDL
