MODEL 1
REMARK minimizedAffinity 0.0204223059
REMARK minimizedRMSD -1
REMARK  1 active torsions:
REMARK  status: ('A' for Active; 'I' for Inactive)
REMARK    1  A    between atoms: N_2  and  C1_3 
ROOT
ATOM      1  C1  UNL d   1       0.952   0.999  -0.217  0.00  0.00     0.143 A 
ATOM      2  C2  UNL d   1       2.301   0.770  -0.510  0.00  0.00    -0.057 A 
ATOM      3  C3  UNL d   1       2.749  -0.486  -0.937  0.00  0.00     0.033 A 
ATOM      4  C4  UNL d   1       1.856  -1.547  -1.052  0.00  0.00    -0.042 A 
ATOM      5  C5  UNL d   1       0.515  -1.349  -0.742  0.00  0.00     0.033 A 
ATOM      6  C6  UNL d   1       0.074  -0.091  -0.322  0.00  0.00    -0.057 A 
ENDROOT
BRANCH   1   7
ATOM      7  N   UNL d   1       0.462   2.198   0.306  0.00  0.00    -0.732 N 
ATOM      8  C   UNL d   1       0.183   2.325   1.720  0.00  0.00     0.284 C 
ATOM      9  H3  UNL d   1       0.912   3.013  -0.104  0.00  0.00     0.395 HD
ENDBRANCH   1   7
TORSDOF 1
ENDMDL
