MODEL 1
REMARK minimizedAffinity -1.26098001
REMARK minimizedRMSD -1
REMARK  1 active torsions:
REMARK  status: ('A' for Active; 'I' for Inactive)
REMARK    1  A    between atoms: N_2  and  C1_3 
ROOT
ATOM      1  C1  UNL d   1       2.348  -0.719  -0.599  0.00  0.00     0.143 A 
ATOM      2  C2  UNL d   1       1.380   0.290  -0.557  0.00  0.00    -0.057 A 
ATOM      3  C3  UNL d   1       0.021  -0.001  -0.725  0.00  0.00     0.033 A 
ATOM      4  C4  UNL d   1      -0.392  -1.307  -0.967  0.00  0.00    -0.042 A 
ATOM      5  C5  UNL d   1       0.556  -2.322  -1.038  0.00  0.00     0.033 A 
ATOM      6  C6  UNL d   1       1.911  -2.026  -0.863  0.00  0.00    -0.057 A 
ENDROOT
BRANCH   1   7
ATOM      7  N   UNL d   1       3.723  -0.479  -0.537  0.00  0.00    -0.732 N 
ATOM      8  C   UNL d   1       4.301   0.673  -1.194  0.00  0.00     0.284 C 
ATOM      9  H3  UNL d   1       4.110  -0.670   0.384  0.00  0.00     0.395 HD
ENDBRANCH   1   7
TORSDOF 1
ENDMDL
