MODEL 1
REMARK minimizedAffinity 9.83445454
REMARK minimizedRMSD -1
REMARK  1 active torsions:
REMARK  status: ('A' for Active; 'I' for Inactive)
REMARK    1  A    between atoms: N_2  and  C1_3 
ROOT
ATOM      1  C1  UNL d   1      -0.234  -2.350  -1.722  0.00  0.00     0.143 A 
ATOM      2  C2  UNL d   1       1.004  -2.670  -1.155  0.00  0.00    -0.057 A 
ATOM      3  C3  UNL d   1       1.686  -1.760  -0.338  0.00  0.00     0.033 A 
ATOM      4  C4  UNL d   1       1.152  -0.498  -0.095  0.00  0.00    -0.042 A 
ATOM      5  C5  UNL d   1      -0.066  -0.149  -0.669  0.00  0.00     0.033 A 
ATOM      6  C6  UNL d   1      -0.744  -1.065  -1.478  0.00  0.00    -0.057 A 
ENDROOT
BRANCH   1   7
ATOM      7  N   UNL d   1      -0.914  -3.174  -2.622  0.00  0.00    -0.732 N 
ATOM      8  C   UNL d   1      -0.935  -2.862  -4.035  0.00  0.00     0.284 C 
ATOM      9  H3  UNL d   1      -0.786  -4.162  -2.416  0.00  0.00     0.395 HD
ENDBRANCH   1   7
TORSDOF 1
ENDMDL
