MODEL 1
REMARK minimizedAffinity 5.35452747
REMARK minimizedRMSD -1
REMARK  0 active torsions:
REMARK  status: ('A' for Active; 'I' for Inactive)
ROOT
ATOM      1  C   UNL d   1       5.273  -0.326   4.088  0.00  0.00     0.020 A 
ATOM      2  C1  UNL d   1       6.000   0.363   5.058  0.00  0.00     0.020 A 
ATOM      3  C2  UNL d   1       5.980   1.759   5.084  0.00  0.00     0.034 A 
ATOM      4  C3  UNL d   1       5.232   2.471   4.139  0.00  0.00     0.017 A 
ATOM      5  C4  UNL d   1       4.502   1.778   3.166  0.00  0.00     0.017 A 
ATOM      6  C5  UNL d   1       4.526   0.380   3.145  0.00  0.00     0.034 A 
ATOM      7 Cl   UNL d   1       3.556   2.586   1.967  0.00  0.00    -0.070 Cl
ATOM      8 Cl1  UNL d   1       5.253   4.196   4.231  0.00  0.00    -0.070 Cl
ENDROOT
TORSDOF 0
ENDMDL
