MODEL 1
REMARK minimizedAffinity 6.2502923
REMARK minimizedRMSD -1
REMARK  0 active torsions:
REMARK  status: ('A' for Active; 'I' for Inactive)
ROOT
ATOM      1  C   UNL d   1      -2.917   2.596  -0.436  0.00  0.00     0.020 A 
ATOM      2  C1  UNL d   1      -2.426   3.771   0.131  0.00  0.00     0.020 A 
ATOM      3  C2  UNL d   1      -1.063   4.065   0.059  0.00  0.00     0.034 A 
ATOM      4  C3  UNL d   1      -0.186   3.183  -0.582  0.00  0.00     0.017 A 
ATOM      5  C4  UNL d   1      -0.680   2.004  -1.152  0.00  0.00     0.017 A 
ATOM      6  C5  UNL d   1      -2.046   1.714  -1.076  0.00  0.00     0.034 A 
ATOM      7 Cl   UNL d   1       0.341   0.866  -1.959  0.00  0.00    -0.070 Cl
ATOM      8 Cl1  UNL d   1       1.488   3.610  -0.634  0.00  0.00    -0.070 Cl
ENDROOT
TORSDOF 0
ENDMDL
