MODEL 1
REMARK minimizedAffinity 5.36257839
REMARK minimizedRMSD -1
REMARK  0 active torsions:
REMARK  status: ('A' for Active; 'I' for Inactive)
ROOT
ATOM      1  C   UNL d   1       5.893   0.511   4.807  0.00  0.00     0.020 A 
ATOM      2  C1  UNL d   1       5.850   1.889   5.018  0.00  0.00     0.020 A 
ATOM      3  C2  UNL d   1       5.197   2.716   4.101  0.00  0.00     0.034 A 
ATOM      4  C3  UNL d   1       4.585   2.166   2.969  0.00  0.00     0.017 A 
ATOM      5  C4  UNL d   1       4.629   0.783   2.758  0.00  0.00     0.017 A 
ATOM      6  C5  UNL d   1       5.283  -0.040   3.679  0.00  0.00     0.034 A 
ATOM      7 Cl   UNL d   1       3.897   0.032   1.384  0.00  0.00    -0.070 Cl
ATOM      8 Cl1  UNL d   1       3.796   3.248   1.877  0.00  0.00    -0.070 Cl
ENDROOT
TORSDOF 0
ENDMDL
