MODEL 1
REMARK minimizedAffinity 4.43879175
REMARK minimizedRMSD -1
REMARK  0 active torsions:
REMARK  status: ('A' for Active; 'I' for Inactive)
ROOT
ATOM      1  C   UNL d   1      -2.213  -0.900   3.395  0.00  0.00     0.020 A 
ATOM      2  C1  UNL d   1      -3.519  -0.728   3.851  0.00  0.00     0.020 A 
ATOM      3  C2  UNL d   1      -4.589  -0.830   2.959  0.00  0.00     0.034 A 
ATOM      4  C3  UNL d   1      -4.354  -1.105   1.607  0.00  0.00     0.017 A 
ATOM      5  C4  UNL d   1      -3.043  -1.278   1.151  0.00  0.00     0.017 A 
ATOM      6  C5  UNL d   1      -1.975  -1.175   2.048  0.00  0.00     0.034 A 
ATOM      7 Cl   UNL d   1      -2.674  -1.621  -0.503  0.00  0.00    -0.070 Cl
ATOM      8 Cl1  UNL d   1      -5.725  -1.218   0.561  0.00  0.00    -0.070 Cl
ENDROOT
TORSDOF 0
ENDMDL
