MODEL 1
REMARK minimizedAffinity 3.87378049
REMARK minimizedRMSD -1
REMARK  0 active torsions:
REMARK  status: ('A' for Active; 'I' for Inactive)
ROOT
ATOM      1  C   UNL d   1       5.916   0.864   5.258  0.00  0.00     0.020 A 
ATOM      2  C1  UNL d   1       5.316   0.197   4.191  0.00  0.00     0.020 A 
ATOM      3  C2  UNL d   1       4.799   0.923   3.116  0.00  0.00     0.034 A 
ATOM      4  C3  UNL d   1       4.880   2.320   3.106  0.00  0.00     0.017 A 
ATOM      5  C4  UNL d   1       5.483   2.989   4.178  0.00  0.00     0.017 A 
ATOM      6  C5  UNL d   1       6.000   2.257   5.251  0.00  0.00     0.034 A 
ATOM      7 Cl   UNL d   1       5.621   4.711   4.236  0.00  0.00    -0.070 Cl
ATOM      8 Cl1  UNL d   1       4.220   3.154   1.744  0.00  0.00    -0.070 Cl
ENDROOT
TORSDOF 0
ENDMDL
