MODEL 1
REMARK minimizedAffinity -4.95781136
REMARK minimizedRMSD -1
REMARK  0 active torsions:
REMARK  status: ('A' for Active; 'I' for Inactive)
ROOT
ATOM      1  C   UNL d   1      -3.042   2.778   1.268  0.00  0.00     0.020 A 
ATOM      2  C1  UNL d   1      -3.136   4.121   1.629  0.00  0.00     0.020 A 
ATOM      3  C2  UNL d   1      -3.569   4.471   2.910  0.00  0.00     0.034 A 
ATOM      4  C3  UNL d   1      -3.909   3.476   3.834  0.00  0.00     0.017 A 
ATOM      5  C4  UNL d   1      -3.813   2.128   3.471  0.00  0.00     0.017 A 
ATOM      6  C5  UNL d   1      -3.379   1.784   2.187  0.00  0.00     0.034 A 
ATOM      7 Cl   UNL d   1      -4.215   0.845   4.557  0.00  0.00    -0.070 Cl
ATOM      8 Cl1  UNL d   1      -4.436   3.981   5.400  0.00  0.00    -0.070 Cl
ENDROOT
TORSDOF 0
ENDMDL
