MODEL 1
REMARK minimizedAffinity 1.04880822
REMARK minimizedRMSD -1
REMARK  0 active torsions:
REMARK  status: ('A' for Active; 'I' for Inactive)
ROOT
ATOM      1  C   UNL d   1       5.468   2.135  -6.000  0.00  0.00     0.020 A 
ATOM      2  C1  UNL d   1       4.181   2.559  -5.671  0.00  0.00     0.020 A 
ATOM      3  C2  UNL d   1       3.426   1.841  -4.741  0.00  0.00     0.034 A 
ATOM      4  C3  UNL d   1       3.956   0.696  -4.137  0.00  0.00     0.017 A 
ATOM      5  C4  UNL d   1       5.248   0.270  -4.468  0.00  0.00     0.017 A 
ATOM      6  C5  UNL d   1       6.000   0.993  -5.400  0.00  0.00     0.034 A 
ATOM      7 Cl   UNL d   1       5.970  -1.133  -3.765  0.00  0.00    -0.070 Cl
ATOM      8 Cl1  UNL d   1       2.966  -0.143  -2.996  0.00  0.00    -0.070 Cl
ENDROOT
TORSDOF 0
ENDMDL
