MODEL 1
REMARK minimizedAffinity 8.13355255
REMARK minimizedRMSD -1
REMARK  0 active torsions:
REMARK  status: ('A' for Active; 'I' for Inactive)
ROOT
ATOM      1  C   UNL d   1       5.214   0.013   3.482  0.00  0.00     0.020 A 
ATOM      2  C1  UNL d   1       5.989   0.652   4.449  0.00  0.00     0.020 A 
ATOM      3  C2  UNL d   1       5.999   2.047   4.526  0.00  0.00     0.034 A 
ATOM      4  C3  UNL d   1       5.233   2.807   3.635  0.00  0.00     0.017 A 
ATOM      5  C4  UNL d   1       4.455   2.164   2.664  0.00  0.00     0.017 A 
ATOM      6  C5  UNL d   1       4.449   0.768   2.591  0.00  0.00     0.034 A 
ATOM      7 Cl   UNL d   1       3.484   3.034   1.530  0.00  0.00    -0.070 Cl
ATOM      8 Cl1  UNL d   1       5.292   4.527   3.788  0.00  0.00    -0.070 Cl
ENDROOT
TORSDOF 0
ENDMDL
