MODEL 1
REMARK minimizedAffinity 5.11787796
REMARK minimizedRMSD -1
REMARK  0 active torsions:
REMARK  status: ('A' for Active; 'I' for Inactive)
ROOT
ATOM      1  C   UNL d   1       4.889  -0.157   4.280  0.00  0.00     0.020 A 
ATOM      2  C1  UNL d   1       5.683   0.372   5.296  0.00  0.00     0.020 A 
ATOM      3  C2  UNL d   1       6.000   1.732   5.298  0.00  0.00     0.034 A 
ATOM      4  C3  UNL d   1       5.523   2.568   4.281  0.00  0.00     0.017 A 
ATOM      5  C4  UNL d   1       4.726   2.035   3.261  0.00  0.00     0.017 A 
ATOM      6  C5  UNL d   1       4.411   0.673   3.265  0.00  0.00     0.034 A 
ATOM      7 Cl   UNL d   1       4.100   3.003   1.973  0.00  0.00    -0.070 Cl
ATOM      8 Cl1  UNL d   1       5.954   4.240   4.346  0.00  0.00    -0.070 Cl
ENDROOT
TORSDOF 0
ENDMDL
