MODEL 1
REMARK minimizedAffinity -5.31345415
REMARK minimizedRMSD -1
REMARK  0 active torsions:
REMARK  status: ('A' for Active; 'I' for Inactive)
ROOT
ATOM      1  C   UNL d   1      -3.796  -0.844   2.386  0.00  0.00     0.020 A 
ATOM      2  C1  UNL d   1      -3.206  -0.348   1.224  0.00  0.00     0.020 A 
ATOM      3  C2  UNL d   1      -2.934   1.017   1.108  0.00  0.00     0.034 A 
ATOM      4  C3  UNL d   1      -3.252   1.890   2.155  0.00  0.00     0.017 A 
ATOM      5  C4  UNL d   1      -3.844   1.390   3.321  0.00  0.00     0.017 A 
ATOM      6  C5  UNL d   1      -4.115   0.023   3.432  0.00  0.00     0.034 A 
ATOM      7 Cl   UNL d   1      -4.265   2.405   4.655  0.00  0.00    -0.070 Cl
ATOM      8 Cl1  UNL d   1      -2.887   3.565   1.943  0.00  0.00    -0.070 Cl
ENDROOT
TORSDOF 0
ENDMDL
