MODEL 1
REMARK minimizedAffinity 2.57617855
REMARK minimizedRMSD -1
REMARK  0 active torsions:
REMARK  status: ('A' for Active; 'I' for Inactive)
ROOT
ATOM      1  C   UNL d   1       5.795   1.138   5.291  0.00  0.00     0.020 A 
ATOM      2  C1  UNL d   1       5.298   0.526   4.141  0.00  0.00     0.020 A 
ATOM      3  C2  UNL d   1       5.006   1.294   3.012  0.00  0.00     0.034 A 
ATOM      4  C3  UNL d   1       5.211   2.678   3.030  0.00  0.00     0.017 A 
ATOM      5  C4  UNL d   1       5.709   3.292   4.185  0.00  0.00     0.017 A 
ATOM      6  C5  UNL d   1       6.000   2.519   5.313  0.00  0.00     0.034 A 
ATOM      7 Cl   UNL d   1       5.988   4.995   4.283  0.00  0.00    -0.070 Cl
ATOM      8 Cl1  UNL d   1       4.828   3.566   1.598  0.00  0.00    -0.070 Cl
ENDROOT
TORSDOF 0
ENDMDL
