MODEL 1
REMARK minimizedAffinity 5.19797754
REMARK minimizedRMSD -1
REMARK  0 active torsions:
REMARK  status: ('A' for Active; 'I' for Inactive)
ROOT
ATOM      1  C   UNL d   1      -2.644  -0.841   3.651  0.00  0.00     0.020 A 
ATOM      2  C1  UNL d   1      -3.839  -1.488   3.964  0.00  0.00     0.020 A 
ATOM      3  C2  UNL d   1      -4.861  -1.563   3.016  0.00  0.00     0.034 A 
ATOM      4  C3  UNL d   1      -4.692  -0.989   1.751  0.00  0.00     0.017 A 
ATOM      5  C4  UNL d   1      -3.493  -0.339   1.438  0.00  0.00     0.017 A 
ATOM      6  C5  UNL d   1      -2.472  -0.267   2.391  0.00  0.00     0.034 A 
ATOM      7 Cl   UNL d   1      -3.210   0.393  -0.102  0.00  0.00    -0.070 Cl
ATOM      8 Cl1  UNL d   1      -5.999  -1.119   0.628  0.00  0.00    -0.070 Cl
ENDROOT
TORSDOF 0
ENDMDL
