MODEL 1
REMARK minimizedAffinity 4.98513222
REMARK minimizedRMSD -1
REMARK  0 active torsions:
REMARK  status: ('A' for Active; 'I' for Inactive)
ROOT
ATOM      1  C   UNL d   1      -2.138  -0.959   0.127  0.00  0.00     0.020 A 
ATOM      2  C1  UNL d   1      -2.185   0.425  -0.035  0.00  0.00     0.020 A 
ATOM      3  C2  UNL d   1      -1.297   1.057  -0.908  0.00  0.00     0.034 A 
ATOM      4  C3  UNL d   1      -0.357   0.304  -1.622  0.00  0.00     0.017 A 
ATOM      5  C4  UNL d   1      -0.311  -1.085  -1.459  0.00  0.00     0.017 A 
ATOM      6  C5  UNL d   1      -1.203  -1.712  -0.583  0.00  0.00     0.034 A 
ATOM      7 Cl   UNL d   1       0.820  -2.081  -2.306  0.00  0.00    -0.070 Cl
ATOM      8 Cl1  UNL d   1       0.710   1.150  -2.685  0.00  0.00    -0.070 Cl
ENDROOT
TORSDOF 0
ENDMDL
