MODEL 1
REMARK minimizedAffinity 6.51512861
REMARK minimizedRMSD -1
REMARK  0 active torsions:
REMARK  status: ('A' for Active; 'I' for Inactive)
ROOT
ATOM      1  C   UNL d   1       5.665   3.686  -5.334  0.00  0.00     0.020 A 
ATOM      2  C1  UNL d   1       4.325   4.070  -5.287  0.00  0.00     0.020 A 
ATOM      3  C2  UNL d   1       3.319   3.116  -5.455  0.00  0.00     0.034 A 
ATOM      4  C3  UNL d   1       3.651   1.774  -5.672  0.00  0.00     0.017 A 
ATOM      5  C4  UNL d   1       4.996   1.390  -5.720  0.00  0.00     0.017 A 
ATOM      6  C5  UNL d   1       5.999   2.349  -5.550  0.00  0.00     0.034 A 
ATOM      7 Cl   UNL d   1       5.484  -0.248  -5.983  0.00  0.00    -0.070 Cl
ATOM      8 Cl1  UNL d   1       2.356   0.647  -5.872  0.00  0.00    -0.070 Cl
ENDROOT
TORSDOF 0
ENDMDL
