MODEL 1
REMARK minimizedAffinity 7.14485693
REMARK minimizedRMSD -1
REMARK  0 active torsions:
REMARK  status: ('A' for Active; 'I' for Inactive)
ROOT
ATOM      1  C   UNL d   1       5.999   1.180   5.106  0.00  0.00     0.020 A 
ATOM      2  C1  UNL d   1       5.749   2.552   5.136  0.00  0.00     0.020 A 
ATOM      3  C2  UNL d   1       5.017   3.150   4.108  0.00  0.00     0.034 A 
ATOM      4  C3  UNL d   1       4.533   2.377   3.046  0.00  0.00     0.017 A 
ATOM      5  C4  UNL d   1       4.785   1.000   3.017  0.00  0.00     0.017 A 
ATOM      6  C5  UNL d   1       5.518   0.407   4.049  0.00  0.00     0.034 A 
ATOM      7 Cl   UNL d   1       4.221  -0.019   1.741  0.00  0.00    -0.070 Cl
ATOM      8 Cl1  UNL d   1       3.636   3.183   1.809  0.00  0.00    -0.070 Cl
ENDROOT
TORSDOF 0
ENDMDL
