MODEL 1
REMARK minimizedAffinity 3.52898121
REMARK minimizedRMSD -1
REMARK  0 active torsions:
REMARK  status: ('A' for Active; 'I' for Inactive)
ROOT
ATOM      1  C   UNL d   1       5.295   0.098   3.758  0.00  0.00     0.020 A 
ATOM      2  C1  UNL d   1       5.992   0.763   4.766  0.00  0.00     0.020 A 
ATOM      3  C2  UNL d   1       5.999   2.159   4.806  0.00  0.00     0.034 A 
ATOM      4  C3  UNL d   1       5.307   2.895   3.837  0.00  0.00     0.017 A 
ATOM      5  C4  UNL d   1       4.608   2.226   2.825  0.00  0.00     0.017 A 
ATOM      6  C5  UNL d   1       4.605   0.828   2.790  0.00  0.00     0.034 A 
ATOM      7 Cl   UNL d   1       3.732   3.065   1.594  0.00  0.00    -0.070 Cl
ATOM      8 Cl1  UNL d   1       5.359   4.618   3.948  0.00  0.00    -0.070 Cl
ENDROOT
TORSDOF 0
ENDMDL
