MODEL 1
REMARK minimizedAffinity 3.86661172
REMARK minimizedRMSD -1
REMARK  0 active torsions:
REMARK  status: ('A' for Active; 'I' for Inactive)
ROOT
ATOM      1  C   UNL d   1      -3.060   3.901  -0.482  0.00  0.00     0.020 A 
ATOM      2  C1  UNL d   1      -2.887   4.245   0.858  0.00  0.00     0.020 A 
ATOM      3  C2  UNL d   1      -2.815   3.247   1.832  0.00  0.00     0.034 A 
ATOM      4  C3  UNL d   1      -2.915   1.899   1.467  0.00  0.00     0.017 A 
ATOM      5  C4  UNL d   1      -3.088   1.555   0.121  0.00  0.00     0.017 A 
ATOM      6  C5  UNL d   1      -3.160   2.559  -0.849  0.00  0.00     0.034 A 
ATOM      7 Cl   UNL d   1      -3.219  -0.086  -0.406  0.00  0.00    -0.070 Cl
ATOM      8 Cl1  UNL d   1      -2.816   0.717   2.723  0.00  0.00    -0.070 Cl
ENDROOT
TORSDOF 0
ENDMDL
