MODEL 1
REMARK minimizedAffinity 7.75777006
REMARK minimizedRMSD -1
REMARK  0 active torsions:
REMARK  status: ('A' for Active; 'I' for Inactive)
ROOT
ATOM      1  C   UNL d   1       5.571   1.241  -5.270  0.00  0.00     0.020 A 
ATOM      2  C1  UNL d   1       5.997   2.568  -5.231  0.00  0.00     0.020 A 
ATOM      3  C2  UNL d   1       5.059   3.602  -5.235  0.00  0.00     0.034 A 
ATOM      4  C3  UNL d   1       3.691   3.312  -5.277  0.00  0.00     0.017 A 
ATOM      5  C4  UNL d   1       3.264   1.979  -5.316  0.00  0.00     0.017 A 
ATOM      6  C5  UNL d   1       4.207   0.947  -5.312  0.00  0.00     0.034 A 
ATOM      7 Cl   UNL d   1       1.593   1.543  -5.370  0.00  0.00    -0.070 Cl
ATOM      8 Cl1  UNL d   1       2.587   4.641  -5.279  0.00  0.00    -0.070 Cl
ENDROOT
TORSDOF 0
ENDMDL
