MODEL 1
REMARK minimizedAffinity 5.02309608
REMARK minimizedRMSD -1
REMARK  0 active torsions:
REMARK  status: ('A' for Active; 'I' for Inactive)
ROOT
ATOM      1  C   UNL d   1      -2.901   4.320  -0.011  0.00  0.00     0.020 A 
ATOM      2  C1  UNL d   1      -4.048   3.697   0.481  0.00  0.00     0.020 A 
ATOM      3  C2  UNL d   1      -4.151   2.305   0.457  0.00  0.00     0.034 A 
ATOM      4  C3  UNL d   1      -3.105   1.531  -0.060  0.00  0.00     0.017 A 
ATOM      5  C4  UNL d   1      -1.955   2.157  -0.553  0.00  0.00     0.017 A 
ATOM      6  C5  UNL d   1      -1.857   3.552  -0.526  0.00  0.00     0.034 A 
ATOM      7 Cl   UNL d   1      -0.624   1.269  -1.206  0.00  0.00    -0.070 Cl
ATOM      8 Cl1  UNL d   1      -3.300  -0.186  -0.058  0.00  0.00    -0.070 Cl
ENDROOT
TORSDOF 0
ENDMDL
