MODEL 1
REMARK minimizedAffinity 5.83104086
REMARK minimizedRMSD -1
REMARK  1 active torsions:
REMARK  status: ('A' for Active; 'I' for Inactive)
REMARK    1  A    between atoms: C3_4  and  O_7 
ROOT
ATOM      1  C   UNL d   1       5.414  -4.421  -1.791  0.00  0.00    -0.033 A 
ATOM      2  C1  UNL d   1       4.115  -4.883  -2.013  0.00  0.00     0.039 A 
ATOM      3  C2  UNL d   1       3.392  -4.435  -3.120  0.00  0.00    -0.080 A 
ATOM      4  C3  UNL d   1       3.978  -3.527  -3.997  0.00  0.00     0.150 A 
ATOM      5  C4  UNL d   1       5.273  -3.065  -3.785  0.00  0.00    -0.007 A 
ATOM      6  C5  UNL d   1       5.993  -3.513  -2.678  0.00  0.00     0.039 A 
ENDROOT
BRANCH   4   7
ATOM      7  O   UNL d   1       3.309  -3.057  -5.088  0.00  0.00    -0.526 OA
ATOM      8  H5  UNL d   1       2.417  -3.441  -5.091  0.00  0.00     0.418 HD
ENDBRANCH   4   7
TORSDOF 1
ENDMDL
