MODEL 1
REMARK minimizedAffinity -1.39761031
REMARK minimizedRMSD -1
REMARK  1 active torsions:
REMARK  status: ('A' for Active; 'I' for Inactive)
REMARK    1  A    between atoms: C3_4  and  O_7 
ROOT
ATOM      1  C   UNL d   1       0.608   0.570  -1.675  0.00  0.00    -0.033 A 
ATOM      2  C1  UNL d   1       0.020  -0.676  -1.899  0.00  0.00     0.039 A 
ATOM      3  C2  UNL d   1      -1.149  -0.772  -2.657  0.00  0.00    -0.080 A 
ATOM      4  C3  UNL d   1      -1.717   0.383  -3.186  0.00  0.00     0.150 A 
ATOM      5  C4  UNL d   1      -1.135   1.627  -2.970  0.00  0.00    -0.007 A 
ATOM      6  C5  UNL d   1       0.032   1.722  -2.212  0.00  0.00     0.039 A 
ENDROOT
BRANCH   4   7
ATOM      7  O   UNL d   1      -2.860   0.340  -3.928  0.00  0.00    -0.526 OA
ATOM      8  H5  UNL d   1      -3.165  -0.582  -3.970  0.00  0.00     0.418 HD
ENDBRANCH   4   7
TORSDOF 1
ENDMDL
