MODEL 1
REMARK minimizedAffinity 5.3364954
REMARK minimizedRMSD -1
REMARK  1 active torsions:
REMARK  status: ('A' for Active; 'I' for Inactive)
REMARK    1  A    between atoms: C3_4  and  O_7 
ROOT
ATOM      1  C   UNL d   1      -1.379   2.734   2.355  0.00  0.00    -0.033 A 
ATOM      2  C1  UNL d   1      -0.918   1.509   1.868  0.00  0.00     0.039 A 
ATOM      3  C2  UNL d   1      -0.330   1.435   0.604  0.00  0.00    -0.080 A 
ATOM      4  C3  UNL d   1      -0.207   2.591  -0.161  0.00  0.00     0.150 A 
ATOM      5  C4  UNL d   1      -0.660   3.816   0.320  0.00  0.00    -0.007 A 
ATOM      6  C5  UNL d   1      -1.248   3.887   1.582  0.00  0.00     0.039 A 
ENDROOT
BRANCH   4   7
ATOM      7  O   UNL d   1       0.356   2.568  -1.403  0.00  0.00    -0.526 OA
ATOM      8  H5  UNL d   1       0.596   1.651  -1.614  0.00  0.00     0.418 HD
ENDBRANCH   4   7
TORSDOF 1
ENDMDL
