MODEL 1
REMARK minimizedAffinity -0.148855105
REMARK minimizedRMSD -1
REMARK  1 active torsions:
REMARK  status: ('A' for Active; 'I' for Inactive)
REMARK    1  A    between atoms: C3_4  and  O_7 
ROOT
ATOM      1  C   UNL d   1      -0.683  -0.374  -3.773  0.00  0.00    -0.033 A 
ATOM      2  C1  UNL d   1       0.619   0.125  -3.689  0.00  0.00     0.039 A 
ATOM      3  C2  UNL d   1       0.915   1.161  -2.801  0.00  0.00    -0.080 A 
ATOM      4  C3  UNL d   1      -0.096   1.687  -2.003  0.00  0.00     0.150 A 
ATOM      5  C4  UNL d   1      -1.394   1.193  -2.078  0.00  0.00    -0.007 A 
ATOM      6  C5  UNL d   1      -1.689   0.159  -2.967  0.00  0.00     0.039 A 
ENDROOT
BRANCH   4   7
ATOM      7  O   UNL d   1       0.144   2.702  -1.125  0.00  0.00    -0.526 OA
ATOM      8  H5  UNL d   1       1.078   2.961  -1.202  0.00  0.00     0.418 HD
ENDBRANCH   4   7
TORSDOF 1
ENDMDL
