MODEL 1
REMARK minimizedAffinity 9.31099415
REMARK minimizedRMSD -1
REMARK  1 active torsions:
REMARK  status: ('A' for Active; 'I' for Inactive)
REMARK    1  A    between atoms: C3_4  and  O_7 
ROOT
ATOM      1  C   UNL d   1       1.950  -3.509  -5.078  0.00  0.00    -0.033 A 
ATOM      2  C1  UNL d   1       2.980  -3.949  -4.244  0.00  0.00     0.039 A 
ATOM      3  C2  UNL d   1       2.772  -4.044  -2.866  0.00  0.00    -0.080 A 
ATOM      4  C3  UNL d   1       1.532  -3.697  -2.337  0.00  0.00     0.150 A 
ATOM      5  C4  UNL d   1       0.501  -3.262  -3.163  0.00  0.00    -0.007 A 
ATOM      6  C5  UNL d   1       0.711  -3.167  -4.538  0.00  0.00     0.039 A 
ENDROOT
BRANCH   4   7
ATOM      7  O   UNL d   1       1.284  -3.768  -0.998  0.00  0.00    -0.526 OA
ATOM      8  H5  UNL d   1       2.096  -4.057  -0.549  0.00  0.00     0.418 HD
ENDBRANCH   4   7
TORSDOF 1
ENDMDL
