MODEL 1
REMARK minimizedAffinity 11.0580778
REMARK minimizedRMSD -1
REMARK  1 active torsions:
REMARK  status: ('A' for Active; 'I' for Inactive)
REMARK    1  A    between atoms: C3_4  and  O_7 
ROOT
ATOM      1  C   UNL d   1      -0.324   3.007  -2.095  0.00  0.00    -0.033 A 
ATOM      2  C1  UNL d   1      -1.351   2.191  -1.617  0.00  0.00     0.039 A 
ATOM      3  C2  UNL d   1      -1.285   1.667  -0.325  0.00  0.00    -0.080 A 
ATOM      4  C3  UNL d   1      -0.189   1.968   0.479  0.00  0.00     0.150 A 
ATOM      5  C4  UNL d   1       0.836   2.784   0.011  0.00  0.00    -0.007 A 
ATOM      6  C5  UNL d   1       0.769   3.305  -1.280  0.00  0.00     0.039 A 
ENDROOT
BRANCH   4   7
ATOM      7  O   UNL d   1      -0.078   1.477   1.746  0.00  0.00    -0.526 OA
ATOM      8  H5  UNL d   1      -0.845   0.906   1.923  0.00  0.00     0.418 HD
ENDBRANCH   4   7
TORSDOF 1
ENDMDL
