MODEL 1
REMARK minimizedAffinity 1.58599353
REMARK minimizedRMSD -1
REMARK  1 active torsions:
REMARK  status: ('A' for Active; 'I' for Inactive)
REMARK    1  A    between atoms: C3_4  and  O_7 
ROOT
ATOM      1  C   UNL d   1      -0.619   3.468  -0.867  0.00  0.00    -0.033 A 
ATOM      2  C1  UNL d   1      -1.760   3.536  -0.066  0.00  0.00     0.039 A 
ATOM      3  C2  UNL d   1      -1.753   2.971   1.211  0.00  0.00    -0.080 A 
ATOM      4  C3  UNL d   1      -0.600   2.343   1.674  0.00  0.00     0.150 A 
ATOM      5  C4  UNL d   1       0.542   2.276   0.882  0.00  0.00    -0.007 A 
ATOM      6  C5  UNL d   1       0.533   2.839  -0.393  0.00  0.00     0.039 A 
ENDROOT
BRANCH   4   7
ATOM      7  O   UNL d   1      -0.546   1.773   2.911  0.00  0.00    -0.526 OA
ATOM      8  H5  UNL d   1      -1.416   1.871   3.333  0.00  0.00     0.418 HD
ENDBRANCH   4   7
TORSDOF 1
ENDMDL
