MODEL 1
REMARK minimizedAffinity 2.54164815
REMARK minimizedRMSD -1
REMARK  1 active torsions:
REMARK  status: ('A' for Active; 'I' for Inactive)
REMARK    1  A    between atoms: C3_4  and  O_7 
ROOT
ATOM      1  C   UNL d   1      -0.363   6.000  -1.097  0.00  0.00    -0.033 A 
ATOM      2  C1  UNL d   1       0.363   4.877  -1.498  0.00  0.00     0.039 A 
ATOM      3  C2  UNL d   1       0.238   3.676  -0.796  0.00  0.00    -0.080 A 
ATOM      4  C3  UNL d   1      -0.616   3.611   0.301  0.00  0.00     0.150 A 
ATOM      5  C4  UNL d   1      -1.346   4.725   0.703  0.00  0.00    -0.007 A 
ATOM      6  C5  UNL d   1      -1.219   5.924   0.002  0.00  0.00     0.039 A 
ENDROOT
BRANCH   4   7
ATOM      7  O   UNL d   1      -0.768   2.463   1.020  0.00  0.00    -0.526 OA
ATOM      8  H5  UNL d   1      -0.181   1.785   0.644  0.00  0.00     0.418 HD
ENDBRANCH   4   7
TORSDOF 1
ENDMDL
