MODEL 1
REMARK minimizedAffinity 4.13581324
REMARK minimizedRMSD -1
REMARK  1 active torsions:
REMARK  status: ('A' for Active; 'I' for Inactive)
REMARK    1  A    between atoms: C3_4  and  O_7 
ROOT
ATOM      1  C   UNL d   1      -1.398   2.695  -2.706  0.00  0.00    -0.033 A 
ATOM      2  C1  UNL d   1      -0.376   3.636  -2.562  0.00  0.00     0.039 A 
ATOM      3  C2  UNL d   1       0.335   3.719  -1.364  0.00  0.00    -0.080 A 
ATOM      4  C3  UNL d   1       0.016   2.856  -0.319  0.00  0.00     0.150 A 
ATOM      5  C4  UNL d   1      -0.998   1.914  -0.457  0.00  0.00    -0.007 A 
ATOM      6  C5  UNL d   1      -1.708   1.833  -1.654  0.00  0.00     0.039 A 
ENDROOT
BRANCH   4   7
ATOM      7  O   UNL d   1       0.680   2.902   0.872  0.00  0.00    -0.526 OA
ATOM      8  H5  UNL d   1       1.333   3.620   0.832  0.00  0.00     0.418 HD
ENDBRANCH   4   7
TORSDOF 1
ENDMDL
