MODEL 1
REMARK minimizedAffinity 3.42416739
REMARK minimizedRMSD -1
REMARK  1 active torsions:
REMARK  status: ('A' for Active; 'I' for Inactive)
REMARK    1  A    between atoms: C3_4  and  O_7 
ROOT
ATOM      1  C   UNL d   1       0.187   4.207  -0.763  0.00  0.00    -0.033 A 
ATOM      2  C1  UNL d   1      -0.772   5.092  -0.265  0.00  0.00     0.039 A 
ATOM      3  C2  UNL d   1      -1.809   4.619   0.541  0.00  0.00    -0.080 A 
ATOM      4  C3  UNL d   1      -1.876   3.262   0.843  0.00  0.00     0.150 A 
ATOM      5  C4  UNL d   1      -0.922   2.375   0.353  0.00  0.00    -0.007 A 
ATOM      6  C5  UNL d   1       0.112   2.849  -0.452  0.00  0.00     0.039 A 
ENDROOT
BRANCH   4   7
ATOM      7  O   UNL d   1      -2.872   2.753   1.622  0.00  0.00    -0.526 OA
ATOM      8  H5  UNL d   1      -3.474   3.477   1.864  0.00  0.00     0.418 HD
ENDBRANCH   4   7
TORSDOF 1
ENDMDL
