MODEL 1
REMARK minimizedAffinity 11.2582788
REMARK minimizedRMSD -1
REMARK  1 active torsions:
REMARK  status: ('A' for Active; 'I' for Inactive)
REMARK    1  A    between atoms: C3_4  and  O_7 
ROOT
ATOM      1  C   UNL d   1       2.171  -6.000  -2.772  0.00  0.00    -0.033 A 
ATOM      2  C1  UNL d   1       3.263  -5.999  -1.902  0.00  0.00     0.039 A 
ATOM      3  C2  UNL d   1       3.326  -5.074  -0.859  0.00  0.00    -0.080 A 
ATOM      4  C3  UNL d   1       2.292  -4.156  -0.696  0.00  0.00     0.150 A 
ATOM      5  C4  UNL d   1       1.199  -4.154  -1.556  0.00  0.00    -0.007 A 
ATOM      6  C5  UNL d   1       1.138  -5.078  -2.598  0.00  0.00     0.039 A 
ENDROOT
BRANCH   4   7
ATOM      7  O   UNL d   1       2.311  -3.231   0.305  0.00  0.00    -0.526 OA
ATOM      8  H5  UNL d   1       3.140  -3.333   0.803  0.00  0.00     0.418 HD
ENDBRANCH   4   7
TORSDOF 1
ENDMDL
