MODEL 1
REMARK minimizedAffinity 4.71767569
REMARK minimizedRMSD -1
REMARK  1 active torsions:
REMARK  status: ('A' for Active; 'I' for Inactive)
REMARK    1  A    between atoms: C3_4  and  O_7 
ROOT
ATOM      1  C   UNL d   1       2.326  -6.000  -2.428  0.00  0.00    -0.033 A 
ATOM      2  C1  UNL d   1       3.377  -5.942  -1.512  0.00  0.00     0.039 A 
ATOM      3  C2  UNL d   1       3.463  -4.878  -0.611  0.00  0.00    -0.080 A 
ATOM      4  C3  UNL d   1       2.492  -3.881  -0.637  0.00  0.00     0.150 A 
ATOM      5  C4  UNL d   1       1.439  -3.935  -1.545  0.00  0.00    -0.007 A 
ATOM      6  C5  UNL d   1       1.356  -4.997  -2.444  0.00  0.00     0.039 A 
ENDROOT
BRANCH   4   7
ATOM      7  O   UNL d   1       2.536  -2.821   0.219  0.00  0.00    -0.526 OA
ATOM      8  H5  UNL d   1       3.333  -2.902   0.768  0.00  0.00     0.418 HD
ENDBRANCH   4   7
TORSDOF 1
ENDMDL
