MODEL 1
REMARK minimizedAffinity 14.1929235
REMARK minimizedRMSD -1
REMARK  1 active torsions:
REMARK  status: ('A' for Active; 'I' for Inactive)
REMARK    1  A    between atoms: C3_4  and  O_7 
ROOT
ATOM      1  C   UNL d   1       4.443  -1.731   1.759  0.00  0.00    -0.033 A 
ATOM      2  C1  UNL d   1       3.392  -2.640   1.621  0.00  0.00     0.039 A 
ATOM      3  C2  UNL d   1       3.641  -4.012   1.678  0.00  0.00    -0.080 A 
ATOM      4  C3  UNL d   1       4.944  -4.463   1.874  0.00  0.00     0.150 A 
ATOM      5  C4  UNL d   1       5.996  -3.563   2.016  0.00  0.00    -0.007 A 
ATOM      6  C5  UNL d   1       5.745  -2.193   1.958  0.00  0.00     0.039 A 
ENDROOT
BRANCH   4   7
ATOM      7  O   UNL d   1       5.237  -5.793   1.931  0.00  0.00    -0.526 OA
ATOM      8  H5  UNL d   1       4.417  -6.295   1.789  0.00  0.00     0.418 HD
ENDBRANCH   4   7
TORSDOF 1
ENDMDL
