MODEL 1
REMARK minimizedAffinity 9.80222702
REMARK minimizedRMSD -1
REMARK  1 active torsions:
REMARK  status: ('A' for Active; 'I' for Inactive)
REMARK    1  A    between atoms: C3_4  and  O_7 
ROOT
ATOM      1  C   UNL d   1      -4.495   4.501  -1.281  0.00  0.00    -0.033 A 
ATOM      2  C1  UNL d   1      -5.500   5.466  -1.196  0.00  0.00     0.039 A 
ATOM      3  C2  UNL d   1      -5.871   5.982   0.047  0.00  0.00    -0.080 A 
ATOM      4  C3  UNL d   1      -5.229   5.526   1.196  0.00  0.00     0.150 A 
ATOM      5  C4  UNL d   1      -4.225   4.568   1.117  0.00  0.00    -0.007 A 
ATOM      6  C5  UNL d   1      -3.856   4.053  -0.125  0.00  0.00     0.039 A 
ENDROOT
BRANCH   4   7
ATOM      7  O   UNL d   1      -5.560   5.997   2.431  0.00  0.00    -0.526 OA
ATOM      8  H5  UNL d   1      -6.289   6.632   2.334  0.00  0.00     0.418 HD
ENDBRANCH   4   7
TORSDOF 1
ENDMDL
