MODEL 1
REMARK minimizedAffinity 2.15808249
REMARK minimizedRMSD -1
REMARK  1 active torsions:
REMARK  status: ('A' for Active; 'I' for Inactive)
REMARK    1  A    between atoms: C3_4  and  O_7 
ROOT
ATOM      1  C   UNL d   1       0.276   1.963   0.825  0.00  0.00    -0.033 A 
ATOM      2  C1  UNL d   1      -0.674   1.702  -0.164  0.00  0.00     0.039 A 
ATOM      3  C2  UNL d   1      -2.033   1.699   0.154  0.00  0.00    -0.080 A 
ATOM      4  C3  UNL d   1      -2.429   1.957   1.464  0.00  0.00     0.150 A 
ATOM      5  C4  UNL d   1      -1.488   2.221   2.454  0.00  0.00    -0.007 A 
ATOM      6  C5  UNL d   1      -0.131   2.223   2.134  0.00  0.00     0.039 A 
ENDROOT
BRANCH   4   7
ATOM      7  O   UNL d   1      -3.744   1.960   1.823  0.00  0.00    -0.526 OA
ATOM      8  H5  UNL d   1      -4.277   1.734   1.043  0.00  0.00     0.418 HD
ENDBRANCH   4   7
TORSDOF 1
ENDMDL
