MODEL 1
REMARK minimizedAffinity 5.09758329
REMARK minimizedRMSD -1
REMARK  1 active torsions:
REMARK  status: ('A' for Active; 'I' for Inactive)
REMARK    1  A    between atoms: C3_4  and  O_7 
ROOT
ATOM      1  C   UNL d   1       0.500   2.807   0.128  0.00  0.00    -0.033 A 
ATOM      2  C1  UNL d   1      -0.603   1.983  -0.104  0.00  0.00     0.039 A 
ATOM      3  C2  UNL d   1      -1.354   2.130  -1.272  0.00  0.00    -0.080 A 
ATOM      4  C3  UNL d   1      -0.991   3.104  -2.199  0.00  0.00     0.150 A 
ATOM      5  C4  UNL d   1       0.109   3.926  -1.976  0.00  0.00    -0.007 A 
ATOM      6  C5  UNL d   1       0.856   3.778  -0.809  0.00  0.00     0.039 A 
ENDROOT
BRANCH   4   7
ATOM      7  O   UNL d   1      -1.696   3.288  -3.351  0.00  0.00    -0.526 OA
ATOM      8  H5  UNL d   1      -2.445   2.669  -3.356  0.00  0.00     0.418 HD
ENDBRANCH   4   7
TORSDOF 1
ENDMDL
