MODEL 1
REMARK minimizedAffinity 10.0491982
REMARK minimizedRMSD -1
REMARK  1 active torsions:
REMARK  status: ('A' for Active; 'I' for Inactive)
REMARK    1  A    between atoms: C3_4  and  O_7 
ROOT
ATOM      1  C   UNL d   1      -1.570   2.326  -1.805  0.00  0.00    -0.033 A 
ATOM      2  C1  UNL d   1      -1.207   3.406  -2.613  0.00  0.00     0.039 A 
ATOM      3  C2  UNL d   1      -0.098   4.187  -2.281  0.00  0.00    -0.080 A 
ATOM      4  C3  UNL d   1       0.639   3.877  -1.142  0.00  0.00     0.150 A 
ATOM      5  C4  UNL d   1       0.285   2.801  -0.334  0.00  0.00    -0.007 A 
ATOM      6  C5  UNL d   1      -0.823   2.023  -0.667  0.00  0.00     0.039 A 
ENDROOT
BRANCH   4   7
ATOM      7  O   UNL d   1       1.726   4.614  -0.774  0.00  0.00    -0.526 OA
ATOM      8  H5  UNL d   1       1.833   5.341  -1.409  0.00  0.00     0.418 HD
ENDBRANCH   4   7
TORSDOF 1
ENDMDL
