MODEL 1
REMARK minimizedAffinity -3.87637305
REMARK minimizedRMSD -1
REMARK  1 active torsions:
REMARK  status: ('A' for Active; 'I' for Inactive)
REMARK    1  A    between atoms: C3_4  and  O_7 
ROOT
ATOM      1  C   UNL d   1       0.364   3.577  -0.340  0.00  0.00    -0.033 A 
ATOM      2  C1  UNL d   1      -0.234   2.410  -0.819  0.00  0.00     0.039 A 
ATOM      3  C2  UNL d   1      -0.990   1.609   0.039  0.00  0.00    -0.080 A 
ATOM      4  C3  UNL d   1      -1.141   1.986   1.370  0.00  0.00     0.150 A 
ATOM      5  C4  UNL d   1      -0.551   3.149   1.853  0.00  0.00    -0.007 A 
ATOM      6  C5  UNL d   1       0.205   3.948   0.996  0.00  0.00     0.039 A 
ENDROOT
BRANCH   4   7
ATOM      7  O   UNL d   1      -1.866   1.233   2.246  0.00  0.00    -0.526 OA
ATOM      8  H5  UNL d   1      -2.190   0.445   1.779  0.00  0.00     0.418 HD
ENDBRANCH   4   7
TORSDOF 1
ENDMDL
