MODEL 1
REMARK minimizedAffinity 13.5128269
REMARK minimizedRMSD -1
REMARK  0 active torsions:
REMARK  status: ('A' for Active; 'I' for Inactive)
ROOT
ATOM      1  C   UNL d   1       1.474  -5.999  -1.587  0.00  0.00     0.172 C 
ATOM      2  N   UNL d   1       0.278  -5.490  -2.217  0.00  0.00    -0.070 N 
ATOM      3  C1  UNL d   1      -0.310  -6.000  -3.343  0.00  0.00    -0.004 A 
ATOM      4  C2  UNL d   1      -1.424  -5.237  -3.619  0.00  0.00    -0.047 A 
ATOM      5  C3  UNL d   1      -1.507  -4.233  -2.626  0.00  0.00    -0.047 A 
ATOM      6  C4  UNL d   1      -0.441  -4.413  -1.770  0.00  0.00    -0.004 A 
ENDROOT
TORSDOF 0
ENDMDL
