MODEL 1
REMARK minimizedAffinity 10.4487038
REMARK minimizedRMSD -1
REMARK  0 active torsions:
REMARK  status: ('A' for Active; 'I' for Inactive)
ROOT
ATOM      1  C   UNL d   1      -5.999   4.112  -6.000  0.00  0.00     0.172 C 
ATOM      2  N   UNL d   1      -4.556   4.081  -5.983  0.00  0.00    -0.070 N 
ATOM      3  C1  UNL d   1      -3.733   5.176  -6.000  0.00  0.00    -0.004 A 
ATOM      4  C2  UNL d   1      -2.431   4.726  -5.973  0.00  0.00    -0.047 A 
ATOM      5  C3  UNL d   1      -2.472   3.312  -5.940  0.00  0.00    -0.047 A 
ATOM      6  C4  UNL d   1      -3.800   2.939  -5.947  0.00  0.00    -0.004 A 
ENDROOT
TORSDOF 0
ENDMDL
