MODEL 1
REMARK minimizedAffinity 6.05070591
REMARK minimizedRMSD -1
REMARK  0 active torsions:
REMARK  status: ('A' for Active; 'I' for Inactive)
ROOT
ATOM      1  C   UNL d   1      -0.756  -3.005  -2.203  0.00  0.00     0.172 C 
ATOM      2  N   UNL d   1       0.292  -2.105  -1.781  0.00  0.00    -0.070 N 
ATOM      3  C1  UNL d   1       0.869  -1.134  -2.555  0.00  0.00    -0.004 A 
ATOM      4  C2  UNL d   1       1.821  -0.495  -1.790  0.00  0.00    -0.047 A 
ATOM      5  C3  UNL d   1       1.816  -1.104  -0.512  0.00  0.00    -0.047 A 
ATOM      6  C4  UNL d   1       0.860  -2.098  -0.535  0.00  0.00    -0.004 A 
ENDROOT
TORSDOF 0
ENDMDL
