MODEL 1
REMARK minimizedAffinity 5.9033699
REMARK minimizedRMSD -1
REMARK  0 active torsions:
REMARK  status: ('A' for Active; 'I' for Inactive)
ROOT
ATOM      1  C   UNL d   1       4.023  -1.424   0.099  0.00  0.00     0.172 C 
ATOM      2  N   UNL d   1       2.720  -1.521  -0.517  0.00  0.00    -0.070 N 
ATOM      3  C1  UNL d   1       1.709  -2.355  -0.119  0.00  0.00    -0.004 A 
ATOM      4  C2  UNL d   1       0.636  -2.147  -0.957  0.00  0.00    -0.047 A 
ATOM      5  C3  UNL d   1       1.015  -1.155  -1.892  0.00  0.00    -0.047 A 
ATOM      6  C4  UNL d   1       2.310  -0.785  -1.597  0.00  0.00    -0.004 A 
ENDROOT
TORSDOF 0
ENDMDL
