MODEL 1
REMARK minimizedAffinity 5.37332773
REMARK minimizedRMSD -1
REMARK  0 active torsions:
REMARK  status: ('A' for Active; 'I' for Inactive)
ROOT
ATOM      1  C   UNL d   1       4.103  -2.244  -0.221  0.00  0.00     0.172 C 
ATOM      2  N   UNL d   1       2.846  -1.965  -0.873  0.00  0.00    -0.070 N 
ATOM      3  C1  UNL d   1       2.532  -0.813  -1.543  0.00  0.00    -0.004 A 
ATOM      4  C2  UNL d   1       1.245  -0.938  -2.019  0.00  0.00    -0.047 A 
ATOM      5  C3  UNL d   1       0.768  -2.209  -1.620  0.00  0.00    -0.047 A 
ATOM      6  C4  UNL d   1       1.779  -2.824  -0.912  0.00  0.00    -0.004 A 
ENDROOT
TORSDOF 0
ENDMDL
