MODEL 1
REMARK minimizedAffinity 13.6945133
REMARK minimizedRMSD -1
REMARK  0 active torsions:
REMARK  status: ('A' for Active; 'I' for Inactive)
ROOT
ATOM      1  C   UNL d   1       1.364  -0.672  -1.867  0.00  0.00     0.172 C 
ATOM      2  N   UNL d   1       2.408   0.031  -1.158  0.00  0.00    -0.070 N 
ATOM      3  C1  UNL d   1       2.957   1.229  -1.529  0.00  0.00    -0.004 A 
ATOM      4  C2  UNL d   1       3.916   1.560  -0.596  0.00  0.00    -0.047 A 
ATOM      5  C3  UNL d   1       3.945   0.524   0.368  0.00  0.00    -0.047 A 
ATOM      6  C4  UNL d   1       3.001  -0.410  -0.004  0.00  0.00    -0.004 A 
ENDROOT
TORSDOF 0
ENDMDL
