MODEL 1
REMARK minimizedAffinity 8.42969036
REMARK minimizedRMSD -1
REMARK  0 active torsions:
REMARK  status: ('A' for Active; 'I' for Inactive)
ROOT
ATOM      1  C   UNL d   1       1.262  -0.504  -1.151  0.00  0.00     0.172 C 
ATOM      2  N   UNL d   1       2.511  -0.113  -0.541  0.00  0.00    -0.070 N 
ATOM      3  C1  UNL d   1       2.982   1.169  -0.437  0.00  0.00    -0.004 A 
ATOM      4  C2  UNL d   1       4.200   1.120   0.207  0.00  0.00    -0.047 A 
ATOM      5  C3  UNL d   1       4.471  -0.238   0.499  0.00  0.00    -0.047 A 
ATOM      6  C4  UNL d   1       3.409  -0.979   0.025  0.00  0.00    -0.004 A 
ENDROOT
TORSDOF 0
ENDMDL
