MODEL 1
REMARK minimizedAffinity 7.06558084
REMARK minimizedRMSD -1
REMARK  0 active torsions:
REMARK  status: ('A' for Active; 'I' for Inactive)
ROOT
ATOM      1  C   UNL d   1       6.000  -5.627  -1.662  0.00  0.00     0.172 C 
ATOM      2  N   UNL d   1       4.712  -5.193  -1.175  0.00  0.00    -0.070 N 
ATOM      3  C1  UNL d   1       3.626  -6.000  -0.960  0.00  0.00    -0.004 A 
ATOM      4  C2  UNL d   1       2.598  -5.209  -0.496  0.00  0.00    -0.047 A 
ATOM      5  C3  UNL d   1       3.081  -3.880  -0.431  0.00  0.00    -0.047 A 
ATOM      6  C4  UNL d   1       4.392  -3.899  -0.857  0.00  0.00    -0.004 A 
ENDROOT
TORSDOF 0
ENDMDL
