MODEL 1
REMARK minimizedAffinity 4.81022549
REMARK minimizedRMSD -1
REMARK  0 active torsions:
REMARK  status: ('A' for Active; 'I' for Inactive)
ROOT
ATOM      1  C   UNL d   1       2.154   0.362  -0.596  0.00  0.00     0.172 C 
ATOM      2  N   UNL d   1       1.703  -0.963  -0.952  0.00  0.00    -0.070 N 
ATOM      3  C1  UNL d   1       1.922  -2.103  -0.226  0.00  0.00    -0.004 A 
ATOM      4  C2  UNL d   1       1.334  -3.152  -0.900  0.00  0.00    -0.047 A 
ATOM      5  C3  UNL d   1       0.742  -2.624  -2.071  0.00  0.00    -0.047 A 
ATOM      6  C4  UNL d   1       0.985  -1.267  -2.079  0.00  0.00    -0.004 A 
ENDROOT
TORSDOF 0
ENDMDL
