MODEL 1
REMARK minimizedAffinity 10.8174238
REMARK minimizedRMSD -1
REMARK  0 active torsions:
REMARK  status: ('A' for Active; 'I' for Inactive)
ROOT
ATOM      1  C   UNL d   1      -0.894   1.393  -4.265  0.00  0.00     0.172 C 
ATOM      2  N   UNL d   1      -2.166   1.944  -4.669  0.00  0.00    -0.070 N 
ATOM      3  C1  UNL d   1      -3.040   2.614  -3.856  0.00  0.00    -0.004 A 
ATOM      4  C2  UNL d   1      -4.131   2.976  -4.616  0.00  0.00    -0.047 A 
ATOM      5  C3  UNL d   1      -3.905   2.507  -5.932  0.00  0.00    -0.047 A 
ATOM      6  C4  UNL d   1      -2.681   1.872  -5.937  0.00  0.00    -0.004 A 
ENDROOT
TORSDOF 0
ENDMDL
