MODEL 1
REMARK minimizedAffinity 8.26816177
REMARK minimizedRMSD -1
REMARK  0 active torsions:
REMARK  status: ('A' for Active; 'I' for Inactive)
ROOT
ATOM      1  C   UNL d   1       1.702   0.362  -2.847  0.00  0.00     0.172 C 
ATOM      2  N   UNL d   1       2.729   0.542  -1.847  0.00  0.00    -0.070 N 
ATOM      3  C1  UNL d   1       3.240   1.743  -1.435  0.00  0.00    -0.004 A 
ATOM      4  C2  UNL d   1       4.193   1.489  -0.473  0.00  0.00    -0.047 A 
ATOM      5  C3  UNL d   1       4.257   0.086  -0.301  0.00  0.00    -0.047 A 
ATOM      6  C4  UNL d   1       3.340  -0.476  -1.164  0.00  0.00    -0.004 A 
ENDROOT
TORSDOF 0
ENDMDL
