MODEL 1
REMARK minimizedAffinity 4.86267757
REMARK minimizedRMSD -1
REMARK  0 active torsions:
REMARK  status: ('A' for Active; 'I' for Inactive)
ROOT
ATOM      1  C   UNL d   1      -0.432  -3.457  -1.898  0.00  0.00     0.172 C 
ATOM      2  N   UNL d   1       0.762  -2.717  -1.562  0.00  0.00    -0.070 N 
ATOM      3  C1  UNL d   1       1.035  -1.429  -1.936  0.00  0.00    -0.004 A 
ATOM      4  C2  UNL d   1       2.266  -1.090  -1.418  0.00  0.00    -0.047 A 
ATOM      5  C3  UNL d   1       2.750  -2.215  -0.708  0.00  0.00    -0.047 A 
ATOM      6  C4  UNL d   1       1.799  -3.208  -0.814  0.00  0.00    -0.004 A 
ENDROOT
TORSDOF 0
ENDMDL
