MODEL 1
REMARK minimizedAffinity 16.2139282
REMARK minimizedRMSD -1
REMARK  0 active torsions:
REMARK  status: ('A' for Active; 'I' for Inactive)
ROOT
ATOM      1  C   UNL d   1       0.901  -3.492  -0.199  0.00  0.00     0.172 C 
ATOM      2  N   UNL d   1       2.093  -4.276  -0.422  0.00  0.00    -0.070 N 
ATOM      3  C1  UNL d   1       2.143  -5.640  -0.526  0.00  0.00    -0.004 A 
ATOM      4  C2  UNL d   1       3.456  -6.000  -0.736  0.00  0.00    -0.047 A 
ATOM      5  C3  UNL d   1       4.223  -4.810  -0.759  0.00  0.00    -0.047 A 
ATOM      6  C4  UNL d   1       3.353  -3.758  -0.562  0.00  0.00    -0.004 A 
ENDROOT
TORSDOF 0
ENDMDL
