MODEL 1
REMARK minimizedAffinity 8.9381628
REMARK minimizedRMSD -1
REMARK  0 active torsions:
REMARK  status: ('A' for Active; 'I' for Inactive)
ROOT
ATOM      1  C   UNL d   1      -5.075  -1.455   4.343  0.00  0.00     0.172 C 
ATOM      2  N   UNL d   1      -4.395  -0.276   3.861  0.00  0.00    -0.070 N 
ATOM      3  C1  UNL d   1      -4.641   0.359   2.673  0.00  0.00    -0.004 A 
ATOM      4  C2  UNL d   1      -3.788   1.437   2.585  0.00  0.00    -0.047 A 
ATOM      5  C3  UNL d   1      -3.001   1.451   3.761  0.00  0.00    -0.047 A 
ATOM      6  C4  UNL d   1      -3.398   0.380   4.534  0.00  0.00    -0.004 A 
ENDROOT
TORSDOF 0
ENDMDL
