MODEL 1
REMARK minimizedAffinity 6.8007226
REMARK minimizedRMSD -1
REMARK  0 active torsions:
REMARK  status: ('A' for Active; 'I' for Inactive)
ROOT
ATOM      1  C   UNL d   1      -4.231  -1.926   5.255  0.00  0.00     0.172 C 
ATOM      2  N   UNL d   1      -3.981  -0.581   4.794  0.00  0.00    -0.070 N 
ATOM      3  C1  UNL d   1      -3.522   0.455   5.563  0.00  0.00    -0.004 A 
ATOM      4  C2  UNL d   1      -3.416   1.566   4.755  0.00  0.00    -0.047 A 
ATOM      5  C3  UNL d   1      -3.826   1.185   3.455  0.00  0.00    -0.047 A 
ATOM      6  C4  UNL d   1      -4.170  -0.149   3.507  0.00  0.00    -0.004 A 
ENDROOT
TORSDOF 0
ENDMDL
