MODEL 1
REMARK minimizedAffinity 9.73276329
REMARK minimizedRMSD -1
REMARK  0 active torsions:
REMARK  status: ('A' for Active; 'I' for Inactive)
ROOT
ATOM      1  C   UNL d   1       1.991   1.443  -2.315  0.00  0.00     0.172 C 
ATOM      2  N   UNL d   1       1.511   0.211  -1.734  0.00  0.00    -0.070 N 
ATOM      3  C1  UNL d   1       1.344  -0.974  -2.399  0.00  0.00    -0.004 A 
ATOM      4  C2  UNL d   1       0.871  -1.902  -1.497  0.00  0.00    -0.047 A 
ATOM      5  C3  UNL d   1       0.747  -1.251  -0.246  0.00  0.00    -0.047 A 
ATOM      6  C4  UNL d   1       1.150   0.056  -0.422  0.00  0.00    -0.004 A 
ENDROOT
TORSDOF 0
ENDMDL
