MODEL 1
REMARK minimizedAffinity 4.15670681
REMARK minimizedRMSD -1
REMARK  0 active torsions:
REMARK  status: ('A' for Active; 'I' for Inactive)
ROOT
ATOM      1  C   UNL d   1      -1.810   1.695   3.023  0.00  0.00     0.172 C 
ATOM      2  N   UNL d   1      -0.776   1.466   4.005  0.00  0.00    -0.070 N 
ATOM      3  C1  UNL d   1       0.405   0.810   3.782  0.00  0.00    -0.004 A 
ATOM      4  C2  UNL d   1       1.114   0.803   4.964  0.00  0.00    -0.047 A 
ATOM      5  C3  UNL d   1       0.331   1.477   5.931  0.00  0.00    -0.047 A 
ATOM      6  C4  UNL d   1      -0.834   1.877   5.310  0.00  0.00    -0.004 A 
ENDROOT
TORSDOF 0
ENDMDL
