MODEL 1
REMARK minimizedAffinity 6.88813448
REMARK minimizedRMSD -1
REMARK  0 active torsions:
REMARK  status: ('A' for Active; 'I' for Inactive)
ROOT
ATOM      1  C   UNL d   1       0.053   1.500   1.897  0.00  0.00     0.172 C 
ATOM      2  N   UNL d   1      -1.215   1.445   2.585  0.00  0.00    -0.070 N 
ATOM      3  C1  UNL d   1      -2.447   1.402   1.989  0.00  0.00    -0.004 A 
ATOM      4  C2  UNL d   1      -3.397   1.356   2.985  0.00  0.00    -0.047 A 
ATOM      5  C3  UNL d   1      -2.713   1.374   4.224  0.00  0.00    -0.047 A 
ATOM      6  C4  UNL d   1      -1.364   1.429   3.947  0.00  0.00    -0.004 A 
ENDROOT
TORSDOF 0
ENDMDL
