MODEL 1
REMARK minimizedAffinity -2.35841918
REMARK minimizedRMSD -1
REMARK  0 active torsions:
REMARK  status: ('A' for Active; 'I' for Inactive)
ROOT
ATOM      1  C   UNL d   1       0.419   0.281  -1.236  0.00  0.00     0.172 C 
ATOM      2  N   UNL d   1       0.203   0.321   0.191  0.00  0.00    -0.070 N 
ATOM      3  C1  UNL d   1      -1.014   0.272   0.816  0.00  0.00    -0.004 A 
ATOM      4  C2  UNL d   1      -0.794   0.334   2.175  0.00  0.00    -0.047 A 
ATOM      5  C3  UNL d   1       0.605   0.423   2.374  0.00  0.00    -0.047 A 
ATOM      6  C4  UNL d   1       1.198   0.413   1.129  0.00  0.00    -0.004 A 
ENDROOT
TORSDOF 0
ENDMDL
