MODEL 1
REMARK minimizedAffinity -2.35203385
REMARK minimizedRMSD -1
REMARK  0 active torsions:
REMARK  status: ('A' for Active; 'I' for Inactive)
ROOT
ATOM      1  C   UNL d   1      -2.174   0.818   0.171  0.00  0.00     0.172 C 
ATOM      2  N   UNL d   1      -0.785   0.776   0.565  0.00  0.00    -0.070 N 
ATOM      3  C1  UNL d   1      -0.316   0.434   1.805  0.00  0.00    -0.004 A 
ATOM      4  C2  UNL d   1       1.059   0.516   1.774  0.00  0.00    -0.047 A 
ATOM      5  C3  UNL d   1       1.430   0.922   0.470  0.00  0.00    -0.047 A 
ATOM      6  C4  UNL d   1       0.269   1.075  -0.258  0.00  0.00    -0.004 A 
ENDROOT
TORSDOF 0
ENDMDL
