MODEL 1
REMARK minimizedAffinity -2.49463391
REMARK minimizedRMSD -1
REMARK  0 active torsions:
REMARK  status: ('A' for Active; 'I' for Inactive)
ROOT
ATOM      1  C   UNL d   1       0.794   0.196   2.294  0.00  0.00     0.172 C 
ATOM      2  N   UNL d   1       0.276   0.271   0.948  0.00  0.00    -0.070 N 
ATOM      3  C1  UNL d   1      -1.037   0.130   0.588  0.00  0.00    -0.004 A 
ATOM      4  C2  UNL d   1      -1.118   0.269  -0.780  0.00  0.00    -0.047 A 
ATOM      5  C3  UNL d   1       0.193   0.500  -1.260  0.00  0.00    -0.047 A 
ATOM      6  C4  UNL d   1       1.037   0.497  -0.169  0.00  0.00    -0.004 A 
ENDROOT
TORSDOF 0
ENDMDL
