MODEL 1
REMARK minimizedAffinity -1.15905917
REMARK minimizedRMSD -1
REMARK  0 active torsions:
REMARK  status: ('A' for Active; 'I' for Inactive)
ROOT
ATOM      1  C   UNL d   1       0.116   0.453   2.783  0.00  0.00     0.172 C 
ATOM      2  N   UNL d   1      -0.069   0.422   1.351  0.00  0.00    -0.070 N 
ATOM      3  C1  UNL d   1      -1.274   0.438   0.701  0.00  0.00    -0.004 A 
ATOM      4  C2  UNL d   1      -1.024   0.397  -0.654  0.00  0.00    -0.047 A 
ATOM      5  C3  UNL d   1       0.380   0.354  -0.824  0.00  0.00    -0.047 A 
ATOM      6  C4  UNL d   1       0.947   0.370   0.433  0.00  0.00    -0.004 A 
ENDROOT
TORSDOF 0
ENDMDL
