MODEL 1
REMARK minimizedAffinity -2.71486211
REMARK minimizedRMSD -1
REMARK  0 active torsions:
REMARK  status: ('A' for Active; 'I' for Inactive)
ROOT
ATOM      1  C   UNL d   1       0.387   0.377  -0.394  0.00  0.00     0.172 C 
ATOM      2  N   UNL d   1       0.329  -0.561  -1.490  0.00  0.00    -0.070 N 
ATOM      3  C1  UNL d   1       1.338  -0.812  -2.381  0.00  0.00    -0.004 A 
ATOM      4  C2  UNL d   1       0.891  -1.766  -3.269  0.00  0.00    -0.047 A 
ATOM      5  C3  UNL d   1      -0.434  -2.099  -2.900  0.00  0.00    -0.047 A 
ATOM      6  C4  UNL d   1      -0.757  -1.339  -1.796  0.00  0.00    -0.004 A 
ENDROOT
TORSDOF 0
ENDMDL
