MODEL 1
REMARK minimizedAffinity -2.54460764
REMARK minimizedRMSD -1
REMARK  0 active torsions:
REMARK  status: ('A' for Active; 'I' for Inactive)
ROOT
ATOM      1  C   UNL d   1       5.238  -4.504   5.597  0.00  0.00     0.172 C 
ATOM      2  N   UNL d   1       4.170  -5.101   4.831  0.00  0.00    -0.070 N 
ATOM      3  C1  UNL d   1       2.946  -5.471   5.321  0.00  0.00    -0.004 A 
ATOM      4  C2  UNL d   1       2.215  -5.997   4.278  0.00  0.00    -0.047 A 
ATOM      5  C3  UNL d   1       3.028  -5.942   3.121  0.00  0.00    -0.047 A 
ATOM      6  C4  UNL d   1       4.233  -5.383   3.492  0.00  0.00    -0.004 A 
ENDROOT
TORSDOF 0
ENDMDL
