MODEL 1
REMARK minimizedAffinity -0.689999402
REMARK minimizedRMSD -1
REMARK  0 active torsions:
REMARK  status: ('A' for Active; 'I' for Inactive)
ROOT
ATOM      1  C   UNL d   1      -1.747   0.410  -0.342  0.00  0.00     0.172 C 
ATOM      2  N   UNL d   1      -0.564   0.463   0.484  0.00  0.00    -0.070 N 
ATOM      3  C1  UNL d   1       0.727   0.491   0.028  0.00  0.00    -0.004 A 
ATOM      4  C2  UNL d   1       1.561   0.541   1.124  0.00  0.00    -0.047 A 
ATOM      5  C3  UNL d   1       0.743   0.540   2.279  0.00  0.00    -0.047 A 
ATOM      6  C4  UNL d   1      -0.568   0.492   1.853  0.00  0.00    -0.004 A 
ENDROOT
TORSDOF 0
ENDMDL
