MODEL 1
REMARK minimizedAffinity -2.52346087
REMARK minimizedRMSD -1
REMARK  0 active torsions:
REMARK  status: ('A' for Active; 'I' for Inactive)
ROOT
ATOM      1  C   UNL d   1       0.120   0.407  -0.988  0.00  0.00     0.172 C 
ATOM      2  N   UNL d   1       0.692  -0.251  -2.139  0.00  0.00    -0.070 N 
ATOM      3  C1  UNL d   1       1.695   0.247  -2.927  0.00  0.00    -0.004 A 
ATOM      4  C2  UNL d   1       1.955  -0.678  -3.915  0.00  0.00    -0.047 A 
ATOM      5  C3  UNL d   1       1.076  -1.770  -3.715  0.00  0.00    -0.047 A 
ATOM      6  C4  UNL d   1       0.305  -1.479  -2.609  0.00  0.00    -0.004 A 
ENDROOT
TORSDOF 0
ENDMDL
