MODEL 1
REMARK minimizedAffinity -3.13267565
REMARK minimizedRMSD -1
REMARK  0 active torsions:
REMARK  status: ('A' for Active; 'I' for Inactive)
ROOT
ATOM      1  C   UNL d   1      -2.688   0.561   0.785  0.00  0.00     0.172 C 
ATOM      2  N   UNL d   1      -1.333   0.254   1.177  0.00  0.00    -0.070 N 
ATOM      3  C1  UNL d   1      -0.884   0.120   2.463  0.00  0.00    -0.004 A 
ATOM      4  C2  UNL d   1       0.462  -0.172   2.413  0.00  0.00    -0.047 A 
ATOM      5  C3  UNL d   1       0.835  -0.215   1.048  0.00  0.00    -0.047 A 
ATOM      6  C4  UNL d   1      -0.295   0.052   0.305  0.00  0.00    -0.004 A 
ENDROOT
TORSDOF 0
ENDMDL
