MODEL 1
REMARK minimizedAffinity -3.86385274
REMARK minimizedRMSD -1
REMARK  0 active torsions:
REMARK  status: ('A' for Active; 'I' for Inactive)
ROOT
ATOM      1  C   UNL d   1       0.139   0.167  -0.870  0.00  0.00     0.172 C 
ATOM      2  N   UNL d   1      -0.124  -0.055   0.533  0.00  0.00    -0.070 N 
ATOM      3  C1  UNL d   1       0.804   0.010   1.538  0.00  0.00    -0.004 A 
ATOM      4  C2  UNL d   1       0.159  -0.262   2.725  0.00  0.00    -0.047 A 
ATOM      5  C3  UNL d   1      -1.203  -0.498   2.423  0.00  0.00    -0.047 A 
ATOM      6  C4  UNL d   1      -1.350  -0.364   1.058  0.00  0.00    -0.004 A 
ENDROOT
TORSDOF 0
ENDMDL
