MODEL 1
REMARK minimizedAffinity -1.91001391
REMARK minimizedRMSD -1
REMARK  0 active torsions:
REMARK  status: ('A' for Active; 'I' for Inactive)
ROOT
ATOM      1  C   UNL d   1      -0.026   0.420   2.733  0.00  0.00     0.172 C 
ATOM      2  N   UNL d   1      -0.093   0.357   1.292  0.00  0.00    -0.070 N 
ATOM      3  C1  UNL d   1      -1.240   0.278   0.548  0.00  0.00    -0.004 A 
ATOM      4  C2  UNL d   1      -0.879   0.239  -0.781  0.00  0.00    -0.047 A 
ATOM      5  C3  UNL d   1       0.533   0.295  -0.838  0.00  0.00    -0.047 A 
ATOM      6  C4  UNL d   1       0.995   0.368   0.459  0.00  0.00    -0.004 A 
ENDROOT
TORSDOF 0
ENDMDL
