MODEL 1
REMARK minimizedAffinity -1.42865348
REMARK minimizedRMSD -1
REMARK  0 active torsions:
REMARK  status: ('A' for Active; 'I' for Inactive)
ROOT
ATOM      1  C   UNL d   1      -0.899  -0.150   2.726  0.00  0.00     0.172 C 
ATOM      2  N   UNL d   1      -0.136  -0.017   1.507  0.00  0.00    -0.070 N 
ATOM      3  C1  UNL d   1      -0.611  -0.231   0.241  0.00  0.00    -0.004 A 
ATOM      4  C2  UNL d   1       0.421  -0.000  -0.642  0.00  0.00    -0.047 A 
ATOM      5  C3  UNL d   1       1.556   0.365   0.120  0.00  0.00    -0.047 A 
ATOM      6  C4  UNL d   1       1.183   0.347   1.447  0.00  0.00    -0.004 A 
ENDROOT
TORSDOF 0
ENDMDL
