MODEL 1
REMARK minimizedAffinity -1.76761007
REMARK minimizedRMSD -1
REMARK  0 active torsions:
REMARK  status: ('A' for Active; 'I' for Inactive)
ROOT
ATOM      1  C   UNL d   1       0.084   0.376  -1.573  0.00  0.00     0.172 C 
ATOM      2  N   UNL d   1       0.211   0.359  -0.134  0.00  0.00    -0.070 N 
ATOM      3  C1  UNL d   1       1.279   0.836   0.578  0.00  0.00    -0.004 A 
ATOM      4  C2  UNL d   1       1.017   0.637   1.916  0.00  0.00    -0.047 A 
ATOM      5  C3  UNL d   1      -0.252   0.017   2.011  0.00  0.00    -0.047 A 
ATOM      6  C4  UNL d   1      -0.728  -0.143   0.727  0.00  0.00    -0.004 A 
ENDROOT
TORSDOF 0
ENDMDL
