MODEL 1
REMARK minimizedAffinity -3.04891801
REMARK minimizedRMSD -1
REMARK  0 active torsions:
REMARK  status: ('A' for Active; 'I' for Inactive)
ROOT
ATOM      1  C   UNL d   1       0.893  -0.424  -2.649  0.00  0.00     0.172 C 
ATOM      2  N   UNL d   1       0.749   0.002  -1.277  0.00  0.00    -0.070 N 
ATOM      3  C1  UNL d   1      -0.383   0.537  -0.722  0.00  0.00    -0.004 A 
ATOM      4  C2  UNL d   1      -0.116   0.810   0.602  0.00  0.00    -0.047 A 
ATOM      5  C3  UNL d   1       1.224   0.427   0.851  0.00  0.00    -0.047 A 
ATOM      6  C4  UNL d   1       1.735  -0.070  -0.330  0.00  0.00    -0.004 A 
ENDROOT
TORSDOF 0
ENDMDL
