MODEL 1
REMARK minimizedAffinity -3.19801831
REMARK minimizedRMSD -1
REMARK  0 active torsions:
REMARK  status: ('A' for Active; 'I' for Inactive)
ROOT
ATOM      1  C   UNL d   1       0.075  -0.248  -0.769  0.00  0.00     0.172 C 
ATOM      2  N   UNL d   1      -0.119  -0.090   0.654  0.00  0.00    -0.070 N 
ATOM      3  C1  UNL d   1      -1.328   0.040   1.285  0.00  0.00    -0.004 A 
ATOM      4  C2  UNL d   1      -1.087   0.168   2.636  0.00  0.00    -0.047 A 
ATOM      5  C3  UNL d   1       0.315   0.113   2.823  0.00  0.00    -0.047 A 
ATOM      6  C4  UNL d   1       0.889  -0.046   1.579  0.00  0.00    -0.004 A 
ENDROOT
TORSDOF 0
ENDMDL
