MODEL 1
REMARK minimizedAffinity -2.70374465
REMARK minimizedRMSD -1
REMARK  1 active torsions:
REMARK  status: ('A' for Active; 'I' for Inactive)
REMARK    1  A    between atoms: N_2  and  C1_3 
ROOT
ATOM      1  C1  UNL d   1       0.918  -0.748   2.717  0.00  0.00     0.143 A 
ATOM      2  C2  UNL d   1       1.013  -0.636   1.326  0.00  0.00    -0.057 A 
ATOM      3  C3  UNL d   1      -0.017  -0.060   0.572  0.00  0.00     0.033 A 
ATOM      4  C4  UNL d   1      -1.177   0.388   1.195  0.00  0.00    -0.042 A 
ATOM      5  C5  UNL d   1      -1.304   0.263   2.574  0.00  0.00     0.033 A 
ATOM      6  C6  UNL d   1      -0.269  -0.306   3.323  0.00  0.00    -0.057 A 
ENDROOT
BRANCH   1   7
ATOM      7  N   UNL d   1       1.864  -1.400   3.512  0.00  0.00    -0.732 N 
ATOM      8  C   UNL d   1       1.726  -1.425   4.952  0.00  0.00     0.284 C 
ATOM      9  H3  UNL d   1       2.169  -2.282   3.108  0.00  0.00     0.395 HD
ENDBRANCH   1   7
TORSDOF 1
ENDMDL
