MODEL 1
REMARK minimizedAffinity 2.01857281
REMARK minimizedRMSD -1
REMARK  1 active torsions:
REMARK  status: ('A' for Active; 'I' for Inactive)
REMARK    1  A    between atoms: N_2  and  C1_3 
ROOT
ATOM      1  C1  UNL d   1      -0.116  -0.040   0.629  0.00  0.00     0.143 A 
ATOM      2  C2  UNL d   1      -0.722  -0.390  -0.582  0.00  0.00    -0.057 A 
ATOM      3  C3  UNL d   1      -2.108  -0.286  -0.757  0.00  0.00     0.033 A 
ATOM      4  C4  UNL d   1      -2.916   0.145   0.289  0.00  0.00    -0.042 A 
ATOM      5  C5  UNL d   1      -2.338   0.474   1.510  0.00  0.00     0.033 A 
ATOM      6  C6  UNL d   1      -0.953   0.374   1.676  0.00  0.00    -0.057 A 
ENDROOT
BRANCH   1   7
ATOM      7  N   UNL d   1       1.244  -0.216   0.896  0.00  0.00    -0.732 N 
ATOM      8  C   UNL d   1       2.183   0.865   0.683  0.00  0.00     0.284 C 
ATOM      9  H3  UNL d   1       1.407  -0.745   1.750  0.00  0.00     0.395 HD
ENDBRANCH   1   7
TORSDOF 1
ENDMDL
