MODEL 1
REMARK minimizedAffinity -0.442226976
REMARK minimizedRMSD -1
REMARK  1 active torsions:
REMARK  status: ('A' for Active; 'I' for Inactive)
REMARK    1  A    between atoms: N_2  and  C1_3 
ROOT
ATOM      1  C1  UNL d   1      -0.193  -0.373   1.271  0.00  0.00     0.143 A 
ATOM      2  C2  UNL d   1      -0.483  -0.740  -0.047  0.00  0.00    -0.057 A 
ATOM      3  C3  UNL d   1      -1.748  -0.514  -0.602  0.00  0.00     0.033 A 
ATOM      4  C4  UNL d   1      -2.758   0.059   0.164  0.00  0.00    -0.042 A 
ATOM      5  C5  UNL d   1      -2.500   0.409   1.484  0.00  0.00     0.033 A 
ATOM      6  C6  UNL d   1      -1.232   0.187   2.031  0.00  0.00    -0.057 A 
ENDROOT
BRANCH   1   7
ATOM      7  N   UNL d   1       1.015  -0.660   1.911  0.00  0.00    -0.732 N 
ATOM      8  C   UNL d   1       1.031  -1.138   3.277  0.00  0.00     0.284 C 
ATOM      9  H3  UNL d   1       1.677  -1.132   1.298  0.00  0.00     0.395 HD
ENDBRANCH   1   7
TORSDOF 1
ENDMDL
