MODEL 1
REMARK minimizedAffinity 6.20338392
REMARK minimizedRMSD -1
REMARK  1 active torsions:
REMARK  status: ('A' for Active; 'I' for Inactive)
REMARK    1  A    between atoms: N_2  and  C1_3 
ROOT
ATOM      1  C1  UNL d   1      -2.598  -0.669   0.265  0.00  0.00     0.143 A 
ATOM      2  C2  UNL d   1      -3.328  -1.823   0.571  0.00  0.00    -0.057 A 
ATOM      3  C3  UNL d   1      -3.670  -2.137   1.891  0.00  0.00     0.033 A 
ATOM      4  C4  UNL d   1      -3.262  -1.315   2.937  0.00  0.00    -0.042 A 
ATOM      5  C5  UNL d   1      -2.514  -0.176   2.659  0.00  0.00     0.033 A 
ATOM      6  C6  UNL d   1      -2.181   0.136   1.337  0.00  0.00    -0.057 A 
ENDROOT
BRANCH   1   7
ATOM      7  N   UNL d   1      -2.142  -0.354  -1.017  0.00  0.00    -0.732 N 
ATOM      8  C   UNL d   1      -1.047  -1.089  -1.612  0.00  0.00     0.284 C 
ATOM      9  H3  UNL d   1      -2.904  -0.149  -1.660  0.00  0.00     0.395 HD
ENDBRANCH   1   7
TORSDOF 1
ENDMDL
