MODEL 1
REMARK minimizedAffinity 4.111413
REMARK minimizedRMSD -1
REMARK  1 active torsions:
REMARK  status: ('A' for Active; 'I' for Inactive)
REMARK    1  A    between atoms: N_2  and  C1_3 
ROOT
ATOM      1  C1  UNL d   1       0.331  -0.761   2.394  0.00  0.00     0.143 A 
ATOM      2  C2  UNL d   1       0.418  -0.789   0.998  0.00  0.00    -0.057 A 
ATOM      3  C3  UNL d   1      -0.668  -0.420   0.195  0.00  0.00     0.033 A 
ATOM      4  C4  UNL d   1      -1.874  -0.042   0.776  0.00  0.00    -0.042 A 
ATOM      5  C5  UNL d   1      -1.991  -0.031   2.161  0.00  0.00     0.033 A 
ATOM      6  C6  UNL d   1      -0.901  -0.394   2.958  0.00  0.00    -0.057 A 
ENDROOT
BRANCH   1   7
ATOM      7  N   UNL d   1       1.343  -1.210   3.246  0.00  0.00    -0.732 N 
ATOM      8  C   UNL d   1       1.024  -1.733   4.557  0.00  0.00     0.284 C 
ATOM      9  H3  UNL d   1       2.061  -1.736   2.752  0.00  0.00     0.395 HD
ENDBRANCH   1   7
TORSDOF 1
ENDMDL
