MODEL 1
REMARK minimizedAffinity -4.2659235
REMARK minimizedRMSD -1
REMARK  1 active torsions:
REMARK  status: ('A' for Active; 'I' for Inactive)
REMARK    1  A    between atoms: C1_2  and  C2_3 
ROOT
ATOM      1  C2  UNL d   1      -4.954   3.707   4.615  0.00  0.00    -0.081 A 
ATOM      2  C3  UNL d   1      -4.314   4.930   4.378  0.00  0.00     0.006 A 
ATOM      3  C4  UNL d   1      -4.519   5.615   3.178  0.00  0.00     0.002 A 
ATOM      4  C5  UNL d   1      -5.373   5.095   2.200  0.00  0.00    -0.080 A 
ATOM      5  C6  UNL d   1      -5.625   5.836   0.921  0.00  0.00     0.076 C 
ATOM      6  C7  UNL d   1      -6.000   3.866   2.430  0.00  0.00     0.002 A 
ATOM      7  C8  UNL d   1      -5.795   3.179   3.629  0.00  0.00     0.006 A 
ENDROOT
BRANCH   1   8
ATOM      8  C1  UNL d   1      -4.786   2.997   5.934  0.00  0.00     0.054 C 
ATOM      9  C   UNL d   1      -5.644   1.742   6.000  0.00  0.00     0.018 C 
ENDBRANCH   1   8
TORSDOF 1
ENDMDL
