MODEL 1
REMARK minimizedAffinity -0.0152257374
REMARK minimizedRMSD -1
REMARK  1 active torsions:
REMARK  status: ('A' for Active; 'I' for Inactive)
REMARK    1  A    between atoms: C1_2  and  C2_3 
ROOT
ATOM      1  C2  UNL d   1      -0.883  -0.918  -0.440  0.00  0.00    -0.081 A 
ATOM      2  C3  UNL d   1      -1.636  -0.442   0.640  0.00  0.00     0.006 A 
ATOM      3  C4  UNL d   1      -2.922  -0.934   0.878  0.00  0.00     0.002 A 
ATOM      4  C5  UNL d   1      -3.471  -1.916   0.046  0.00  0.00    -0.080 A 
ATOM      5  C6  UNL d   1      -4.838  -2.475   0.309  0.00  0.00     0.076 C 
ATOM      6  C7  UNL d   1      -2.725  -2.379  -1.043  0.00  0.00     0.002 A 
ATOM      7  C8  UNL d   1      -1.441  -1.886  -1.282  0.00  0.00     0.006 A 
ENDROOT
BRANCH   1   8
ATOM      8  C1  UNL d   1       0.528  -0.436  -0.662  0.00  0.00     0.054 C 
ATOM      9  C   UNL d   1       0.550   1.002  -1.160  0.00  0.00     0.018 C 
ENDBRANCH   1   8
TORSDOF 1
ENDMDL
