MODEL 1
REMARK minimizedAffinity -3.49340749
REMARK minimizedRMSD -1
REMARK  1 active torsions:
REMARK  status: ('A' for Active; 'I' for Inactive)
REMARK    1  A    between atoms: C1_2  and  C2_3 
ROOT
ATOM      1  C2  UNL d   1      -5.446   4.862   3.007  0.00  0.00    -0.081 A 
ATOM      2  C3  UNL d   1      -4.890   3.629   2.644  0.00  0.00     0.006 A 
ATOM      3  C4  UNL d   1      -4.638   2.653   3.611  0.00  0.00     0.002 A 
ATOM      4  C5  UNL d   1      -4.944   2.891   4.955  0.00  0.00    -0.080 A 
ATOM      5  C6  UNL d   1      -4.706   1.840   5.999  0.00  0.00     0.076 C 
ATOM      6  C7  UNL d   1      -5.483   4.129   5.321  0.00  0.00     0.002 A 
ATOM      7  C8  UNL d   1      -5.735   5.105   4.355  0.00  0.00     0.006 A 
ENDROOT
BRANCH   1   8
ATOM      8  C1  UNL d   1      -5.779   5.892   1.958  0.00  0.00     0.054 C 
ATOM      9  C   UNL d   1      -5.941   5.252   0.587  0.00  0.00     0.018 C 
ENDBRANCH   1   8
TORSDOF 1
ENDMDL
