MODEL 1
REMARK minimizedAffinity -1.03824461
REMARK minimizedRMSD -1
REMARK  1 active torsions:
REMARK  status: ('A' for Active; 'I' for Inactive)
REMARK    1  A    between atoms: C1_2  and  C2_3 
ROOT
ATOM      1  C2  UNL d   1      -2.212  -3.075  -1.257  0.00  0.00    -0.081 A 
ATOM      2  C3  UNL d   1      -3.395  -2.950  -0.517  0.00  0.00     0.006 A 
ATOM      3  C4  UNL d   1      -3.564  -1.888   0.374  0.00  0.00     0.002 A 
ATOM      4  C5  UNL d   1      -2.558  -0.930   0.536  0.00  0.00    -0.080 A 
ATOM      5  C6  UNL d   1      -2.739   0.232   1.468  0.00  0.00     0.076 C 
ATOM      6  C7  UNL d   1      -1.369  -1.064  -0.190  0.00  0.00     0.002 A 
ATOM      7  C8  UNL d   1      -1.199  -2.126  -1.081  0.00  0.00     0.006 A 
ENDROOT
BRANCH   1   8
ATOM      8  C1  UNL d   1      -2.053  -4.182  -2.267  0.00  0.00     0.054 C 
ATOM      9  C   UNL d   1      -1.592  -3.641  -3.613  0.00  0.00     0.018 C 
ENDBRANCH   1   8
TORSDOF 1
ENDMDL
