MODEL 1
REMARK minimizedAffinity -3.09252572
REMARK minimizedRMSD -1
REMARK  1 active torsions:
REMARK  status: ('A' for Active; 'I' for Inactive)
REMARK    1  A    between atoms: C1_2  and  C2_3 
ROOT
ATOM      1  C2  UNL d   1      -4.960   3.568   4.734  0.00  0.00    -0.081 A 
ATOM      2  C3  UNL d   1      -4.460   3.062   3.528  0.00  0.00     0.006 A 
ATOM      3  C4  UNL d   1      -4.483   3.841   2.369  0.00  0.00     0.002 A 
ATOM      4  C5  UNL d   1      -4.998   5.142   2.399  0.00  0.00    -0.080 A 
ATOM      5  C6  UNL d   1      -5.000   6.000   1.169  0.00  0.00     0.076 C 
ATOM      6  C7  UNL d   1      -5.514   5.641   3.599  0.00  0.00     0.002 A 
ATOM      7  C8  UNL d   1      -5.492   4.862   4.758  0.00  0.00     0.006 A 
ENDROOT
BRANCH   1   8
ATOM      8  C1  UNL d   1      -4.878   2.753   6.000  0.00  0.00     0.054 C 
ATOM      9  C   UNL d   1      -5.895   1.621   5.996  0.00  0.00     0.018 C 
ENDBRANCH   1   8
TORSDOF 1
ENDMDL
