MODEL 1
REMARK minimizedAffinity -2.85125279
REMARK minimizedRMSD -1
REMARK  1 active torsions:
REMARK  status: ('A' for Active; 'I' for Inactive)
REMARK    1  A    between atoms: C1_2  and  C2_3 
ROOT
ATOM      1  C2  UNL d   1      -5.341   4.019   4.648  0.00  0.00    -0.081 A 
ATOM      2  C3  UNL d   1      -4.828   5.312   4.488  0.00  0.00     0.006 A 
ATOM      3  C4  UNL d   1      -4.895   5.952   3.247  0.00  0.00     0.002 A 
ATOM      4  C5  UNL d   1      -5.483   5.313   2.150  0.00  0.00    -0.080 A 
ATOM      5  C6  UNL d   1      -5.588   6.000   0.821  0.00  0.00     0.076 C 
ATOM      6  C7  UNL d   1      -5.980   4.015   2.306  0.00  0.00     0.002 A 
ATOM      7  C8  UNL d   1      -5.913   3.374   3.546  0.00  0.00     0.006 A 
ENDROOT
BRANCH   1   8
ATOM      8  C1  UNL d   1      -5.329   3.352   6.000  0.00  0.00     0.054 C 
ATOM      9  C   UNL d   1      -5.973   1.974   5.943  0.00  0.00     0.018 C 
ENDBRANCH   1   8
TORSDOF 1
ENDMDL
