MODEL 1
REMARK minimizedAffinity -0.809008718
REMARK minimizedRMSD -1
REMARK  1 active torsions:
REMARK  status: ('A' for Active; 'I' for Inactive)
REMARK    1  A    between atoms: C1_2  and  C2_3 
ROOT
ATOM      1  C2  UNL d   1      -5.603   4.088   4.448  0.00  0.00    -0.081 A 
ATOM      2  C3  UNL d   1      -5.986   5.384   4.082  0.00  0.00     0.006 A 
ATOM      3  C4  UNL d   1      -5.985   5.770   2.739  0.00  0.00     0.002 A 
ATOM      4  C5  UNL d   1      -5.610   4.865   1.740  0.00  0.00    -0.080 A 
ATOM      5  C6  UNL d   1      -5.634   5.258   0.293  0.00  0.00     0.076 C 
ATOM      6  C7  UNL d   1      -5.210   3.576   2.108  0.00  0.00     0.002 A 
ATOM      7  C8  UNL d   1      -5.210   3.189   3.450  0.00  0.00     0.006 A 
ENDROOT
BRANCH   1   8
ATOM      8  C1  UNL d   1      -5.665   3.649   5.888  0.00  0.00     0.054 C 
ATOM      9  C   UNL d   1      -5.876   2.145   6.000  0.00  0.00     0.018 C 
ENDBRANCH   1   8
TORSDOF 1
ENDMDL
