MODEL 1
REMARK minimizedAffinity -1.03224492
REMARK minimizedRMSD -1
REMARK  1 active torsions:
REMARK  status: ('A' for Active; 'I' for Inactive)
REMARK    1  A    between atoms: C1_2  and  C2_3 
ROOT
ATOM      1  C2  UNL d   1      -5.924   5.258   1.704  0.00  0.00    -0.081 A 
ATOM      2  C3  UNL d   1      -5.839   3.861   1.762  0.00  0.00     0.006 A 
ATOM      3  C4  UNL d   1      -5.838   3.202   2.993  0.00  0.00     0.002 A 
ATOM      4  C5  UNL d   1      -5.932   3.927   4.187  0.00  0.00    -0.080 A 
ATOM      5  C6  UNL d   1      -5.964   3.229   5.514  0.00  0.00     0.076 C 
ATOM      6  C7  UNL d   1      -6.000   5.323   4.130  0.00  0.00     0.002 A 
ATOM      7  C8  UNL d   1      -5.999   5.983   2.899  0.00  0.00     0.006 A 
ENDROOT
BRANCH   1   8
ATOM      8  C1  UNL d   1      -5.990   5.967   0.376  0.00  0.00     0.054 C 
ATOM      9  C   UNL d   1      -5.264   5.182  -0.707  0.00  0.00     0.018 C 
ENDBRANCH   1   8
TORSDOF 1
ENDMDL
