MODEL 1
REMARK minimizedAffinity -2.34213638
REMARK minimizedRMSD -1
REMARK  1 active torsions:
REMARK  status: ('A' for Active; 'I' for Inactive)
REMARK    1  A    between atoms: C1_2  and  C2_3 
ROOT
ATOM      1  C2  UNL d   1      -6.000   4.182   4.160  0.00  0.00    -0.081 A 
ATOM      2  C3  UNL d   1      -5.995   3.252   3.113  0.00  0.00     0.006 A 
ATOM      3  C4  UNL d   1      -5.981   3.681   1.784  0.00  0.00     0.002 A 
ATOM      4  C5  UNL d   1      -5.963   5.046   1.479  0.00  0.00    -0.080 A 
ATOM      5  C6  UNL d   1      -5.917   5.520   0.057  0.00  0.00     0.076 C 
ATOM      6  C7  UNL d   1      -5.985   5.976   2.524  0.00  0.00     0.002 A 
ATOM      7  C8  UNL d   1      -6.000   5.547   3.854  0.00  0.00     0.006 A 
ENDROOT
BRANCH   1   8
ATOM      8  C1  UNL d   1      -5.950   3.722   5.594  0.00  0.00     0.054 C 
ATOM      9  C   UNL d   1      -4.537   3.324   5.999  0.00  0.00     0.018 C 
ENDBRANCH   1   8
TORSDOF 1
ENDMDL
