MODEL 1
REMARK minimizedAffinity -3.3414669
REMARK minimizedRMSD -1
REMARK  1 active torsions:
REMARK  status: ('A' for Active; 'I' for Inactive)
REMARK    1  A    between atoms: C1_2  and  C2_3 
ROOT
ATOM      1  C2  UNL d   1      -5.335   4.881   2.594  0.00  0.00    -0.081 A 
ATOM      2  C3  UNL d   1      -5.024   3.553   2.276  0.00  0.00     0.006 A 
ATOM      3  C4  UNL d   1      -5.204   2.539   3.219  0.00  0.00     0.002 A 
ATOM      4  C5  UNL d   1      -5.705   2.833   4.492  0.00  0.00    -0.080 A 
ATOM      5  C6  UNL d   1      -5.931   1.749   5.503  0.00  0.00     0.076 C 
ATOM      6  C7  UNL d   1      -5.999   4.162   4.815  0.00  0.00     0.002 A 
ATOM      7  C8  UNL d   1      -5.819   5.177   3.873  0.00  0.00     0.006 A 
ENDROOT
BRANCH   1   8
ATOM      8  C1  UNL d   1      -5.203   5.968   1.558  0.00  0.00     0.054 C 
ATOM      9  C   UNL d   1      -6.000   5.637   0.304  0.00  0.00     0.018 C 
ENDBRANCH   1   8
TORSDOF 1
ENDMDL
