MODEL 1
REMARK minimizedAffinity 1.15461147
REMARK minimizedRMSD -1
REMARK  1 active torsions:
REMARK  status: ('A' for Active; 'I' for Inactive)
REMARK    1  A    between atoms: C1_2  and  C2_3 
ROOT
ATOM      1  C2  UNL d   1      -5.574   5.258   1.927  0.00  0.00    -0.081 A 
ATOM      2  C3  UNL d   1      -4.893   4.053   2.138  0.00  0.00     0.006 A 
ATOM      3  C4  UNL d   1      -4.652   3.594   3.435  0.00  0.00     0.002 A 
ATOM      4  C5  UNL d   1      -5.094   4.327   4.541  0.00  0.00    -0.080 A 
ATOM      5  C6  UNL d   1      -4.868   3.830   5.938  0.00  0.00     0.076 C 
ATOM      6  C7  UNL d   1      -5.759   5.540   4.331  0.00  0.00     0.002 A 
ATOM      7  C8  UNL d   1      -6.000   6.000   3.034  0.00  0.00     0.006 A 
ENDROOT
BRANCH   1   8
ATOM      8  C1  UNL d   1      -5.893   5.724   0.529  0.00  0.00     0.054 C 
ATOM      9  C   UNL d   1      -5.319   4.776  -0.514  0.00  0.00     0.018 C 
ENDBRANCH   1   8
TORSDOF 1
ENDMDL
