MODEL 1
REMARK minimizedAffinity -1.47342575
REMARK minimizedRMSD -1
REMARK  1 active torsions:
REMARK  status: ('A' for Active; 'I' for Inactive)
REMARK    1  A    between atoms: C1_2  and  C2_3 
ROOT
ATOM      1  C2  UNL d   1      -5.444   4.293   4.529  0.00  0.00    -0.081 A 
ATOM      2  C3  UNL d   1      -5.999   3.547   3.482  0.00  0.00     0.006 A 
ATOM      3  C4  UNL d   1      -5.948   4.023   2.169  0.00  0.00     0.002 A 
ATOM      4  C5  UNL d   1      -5.335   5.246   1.881  0.00  0.00    -0.080 A 
ATOM      5  C6  UNL d   1      -5.246   5.754   0.472  0.00  0.00     0.076 C 
ATOM      6  C7  UNL d   1      -4.795   6.000   2.929  0.00  0.00     0.002 A 
ATOM      7  C8  UNL d   1      -4.847   5.525   4.242  0.00  0.00     0.006 A 
ENDROOT
BRANCH   1   8
ATOM      8  C1  UNL d   1      -5.440   3.753   5.937  0.00  0.00     0.054 C 
ATOM      9  C   UNL d   1      -6.000   2.339   5.988  0.00  0.00     0.018 C 
ENDBRANCH   1   8
TORSDOF 1
ENDMDL
