MODEL 1
REMARK minimizedAffinity -3.31776571
REMARK minimizedRMSD -1
REMARK  1 active torsions:
REMARK  status: ('A' for Active; 'I' for Inactive)
REMARK    1  A    between atoms: C1_2  and  C2_3 
ROOT
ATOM      1  C2  UNL d   1      -5.622   3.969   4.612  0.00  0.00    -0.081 A 
ATOM      2  C3  UNL d   1      -5.294   3.273   3.442  0.00  0.00     0.006 A 
ATOM      3  C4  UNL d   1      -5.305   3.922   2.206  0.00  0.00     0.002 A 
ATOM      4  C5  UNL d   1      -5.636   5.279   2.119  0.00  0.00    -0.080 A 
ATOM      5  C6  UNL d   1      -5.622   5.995   0.801  0.00  0.00     0.076 C 
ATOM      6  C7  UNL d   1      -5.980   5.970   3.285  0.00  0.00     0.002 A 
ATOM      7  C8  UNL d   1      -5.970   5.321   4.522  0.00  0.00     0.006 A 
ENDROOT
BRANCH   1   8
ATOM      8  C1  UNL d   1      -5.548   3.288   5.955  0.00  0.00     0.054 C 
ATOM      9  C   UNL d   1      -4.414   2.273   6.000  0.00  0.00     0.018 C 
ENDBRANCH   1   8
TORSDOF 1
ENDMDL
