MODEL 1
REMARK minimizedAffinity -0.888629079
REMARK minimizedRMSD -1
REMARK  1 active torsions:
REMARK  status: ('A' for Active; 'I' for Inactive)
REMARK    1  A    between atoms: C1_2  and  C2_3 
ROOT
ATOM      1  C2  UNL d   1      -5.763   5.148   2.427  0.00  0.00    -0.081 A 
ATOM      2  C3  UNL d   1      -5.903   5.754   3.682  0.00  0.00     0.006 A 
ATOM      3  C4  UNL d   1      -5.988   4.976   4.839  0.00  0.00     0.002 A 
ATOM      4  C5  UNL d   1      -5.926   3.580   4.761  0.00  0.00    -0.080 A 
ATOM      5  C6  UNL d   1      -5.986   2.734   5.998  0.00  0.00     0.076 C 
ATOM      6  C7  UNL d   1      -5.804   2.974   3.506  0.00  0.00     0.002 A 
ATOM      7  C8  UNL d   1      -5.720   3.752   2.349  0.00  0.00     0.006 A 
ENDROOT
BRANCH   1   8
ATOM      8  C1  UNL d   1      -5.606   5.987   1.184  0.00  0.00     0.054 C 
ATOM      9  C   UNL d   1      -5.228   5.131  -0.016  0.00  0.00     0.018 C 
ENDBRANCH   1   8
TORSDOF 1
ENDMDL
