MODEL 1
REMARK minimizedAffinity 0.710502923
REMARK minimizedRMSD -1
REMARK  0 active torsions:
REMARK  status: ('A' for Active; 'I' for Inactive)
ROOT
ATOM      1  C1  BNZ d   1      -1.779   0.709  -0.718  0.00  0.00     0.000 A 
ATOM      2  C2  BNZ d   1      -0.912   0.201  -1.649  0.00  0.00     0.000 A 
ATOM      3  C3  BNZ d   1       0.266  -0.376  -1.266  0.00  0.00     0.000 A 
ATOM      4  C4  BNZ d   1       0.595  -0.407   0.041  0.00  0.00     0.000 A 
ATOM      5  C5  BNZ d   1      -0.264   0.109   0.991  0.00  0.00     0.000 A 
ATOM      6  C6  BNZ d   1      -1.467   0.654   0.605  0.00  0.00     0.000 A 
ENDROOT
TORSDOF 0
ENDMDL
