MODEL 1
REMARK minimizedAffinity 6.53551149
REMARK minimizedRMSD -1
REMARK  0 active torsions:
REMARK  status: ('A' for Active; 'I' for Inactive)
ROOT
ATOM      1  C1  BNZ d   1      -1.449  -1.630  -0.788  0.00  0.00     0.000 A 
ATOM      2  C2  BNZ d   1      -2.652  -1.091  -0.416  0.00  0.00     0.000 A 
ATOM      3  C3  BNZ d   1      -2.705   0.073   0.300  0.00  0.00     0.000 A 
ATOM      4  C4  BNZ d   1      -1.558   0.673   0.676  0.00  0.00     0.000 A 
ATOM      5  C5  BNZ d   1      -0.338   0.136   0.317  0.00  0.00     0.000 A 
ATOM      6  C6  BNZ d   1      -0.288  -1.014  -0.437  0.00  0.00     0.000 A 
ENDROOT
TORSDOF 0
ENDMDL
