MODEL 1
REMARK minimizedAffinity 1.45466685
REMARK minimizedRMSD -1
REMARK  0 active torsions:
REMARK  status: ('A' for Active; 'I' for Inactive)
ROOT
ATOM      1  C1  BNZ d   1       0.582  -1.263   0.940  0.00  0.00     0.000 A 
ATOM      2  C2  BNZ d   1      -0.535  -0.906   0.233  0.00  0.00     0.000 A 
ATOM      3  C3  BNZ d   1      -0.437  -0.127  -0.886  0.00  0.00     0.000 A 
ATOM      4  C4  BNZ d   1       0.773   0.327  -1.273  0.00  0.00     0.000 A 
ATOM      5  C5  BNZ d   1       1.908  -0.017  -0.566  0.00  0.00     0.000 A 
ATOM      6  C6  BNZ d   1       1.809  -0.833   0.537  0.00  0.00     0.000 A 
ENDROOT
TORSDOF 0
ENDMDL
