MODEL 1
REMARK minimizedAffinity -4.8003521
REMARK minimizedRMSD -1
REMARK  0 active torsions:
REMARK  status: ('A' for Active; 'I' for Inactive)
ROOT
ATOM      1  C1  BNZ d   1       0.351   0.173   0.440  0.00  0.00     0.000 A 
ATOM      2  C2  BNZ d   1       1.087   0.310   1.587  0.00  0.00     0.000 A 
ATOM      3  C3  BNZ d   1       0.502   0.738   2.746  0.00  0.00     0.000 A 
ATOM      4  C4  BNZ d   1      -0.806   1.067   2.747  0.00  0.00     0.000 A 
ATOM      5  C5  BNZ d   1      -1.559   0.943   1.596  0.00  0.00     0.000 A 
ATOM      6  C6  BNZ d   1      -0.976   0.474   0.441  0.00  0.00     0.000 A 
ENDROOT
TORSDOF 0
ENDMDL
