MODEL 1
REMARK minimizedAffinity 20.3929253
REMARK minimizedRMSD -1
REMARK  0 active torsions:
REMARK  status: ('A' for Active; 'I' for Inactive)
ROOT
ATOM      1  C   UNL d   1       1.480   0.519  -3.046  0.00  0.00    -0.002 A 
ATOM      2  C1  UNL d   1       1.138   1.850  -2.854  0.00  0.00     0.010 A 
ATOM      3  C2  UNL d   1       1.367   2.472  -1.625  0.00  0.00     0.041 A 
ATOM      4  C3  UNL d   1       1.953   1.728  -0.583  0.00  0.00    -0.075 A 
ATOM      5  S   UNL d   1       2.328   2.281   1.006  0.00  0.00     0.015 SA
ATOM      6  C4  UNL d   1       2.952   0.764   1.468  0.00  0.00     0.022 A 
ATOM      7  C5  UNL d   1       2.884  -0.154   0.447  0.00  0.00     0.026 A 
ATOM      8  C6  UNL d   1       2.308   0.386  -0.752  0.00  0.00    -0.082 A 
ATOM      9  C7  UNL d   1       2.062  -0.216  -2.010  0.00  0.00     0.045 A 
ENDROOT
TORSDOF 0
ENDMDL
