MODEL 1
REMARK minimizedAffinity 20.98526
REMARK minimizedRMSD -1
REMARK  0 active torsions:
REMARK  status: ('A' for Active; 'I' for Inactive)
ROOT
ATOM      1  C   UNL d   1       0.962  -2.634  -1.816  0.00  0.00    -0.002 A 
ATOM      2  C1  UNL d   1       1.973  -3.432  -1.301  0.00  0.00     0.010 A 
ATOM      3  C2  UNL d   1       3.108  -2.857  -0.726  0.00  0.00     0.041 A 
ATOM      4  C3  UNL d   1       3.210  -1.453  -0.674  0.00  0.00    -0.075 A 
ATOM      5  S   UNL d   1       4.507  -0.528  -0.015  0.00  0.00     0.015 SA
ATOM      6  C4  UNL d   1       3.748   0.949  -0.401  0.00  0.00     0.022 A 
ATOM      7  C5  UNL d   1       2.534   0.759  -1.018  0.00  0.00     0.026 A 
ATOM      8  C6  UNL d   1       2.204  -0.628  -1.185  0.00  0.00    -0.082 A 
ATOM      9  C7  UNL d   1       1.066  -1.241  -1.763  0.00  0.00     0.045 A 
ENDROOT
TORSDOF 0
ENDMDL
