MODEL 1
REMARK minimizedAffinity 15.8423767
REMARK minimizedRMSD -1
REMARK  0 active torsions:
REMARK  status: ('A' for Active; 'I' for Inactive)
ROOT
ATOM      1  C   UNL d   1       0.549  -0.897   5.224  0.00  0.00    -0.002 A 
ATOM      2  C1  UNL d   1       0.381  -0.611   3.876  0.00  0.00     0.010 A 
ATOM      3  C2  UNL d   1       1.098   0.426   3.276  0.00  0.00     0.041 A 
ATOM      4  C3  UNL d   1       1.996   1.177   4.060  0.00  0.00    -0.075 A 
ATOM      5  S   UNL d   1       2.981   2.493   3.539  0.00  0.00     0.015 SA
ATOM      6  C4  UNL d   1       3.647   2.706   5.093  0.00  0.00     0.022 A 
ATOM      7  C5  UNL d   1       3.142   1.804   6.000  0.00  0.00     0.026 A 
ATOM      8  C6  UNL d   1       2.182   0.908   5.419  0.00  0.00    -0.082 A 
ATOM      9  C7  UNL d   1       1.440  -0.150   5.998  0.00  0.00     0.045 A 
ENDROOT
TORSDOF 0
ENDMDL
