MODEL 1
REMARK minimizedAffinity 6.01411438
REMARK minimizedRMSD -1
REMARK  0 active torsions:
REMARK  status: ('A' for Active; 'I' for Inactive)
ROOT
ATOM      1  C   UNL d   1       2.598   0.970  -1.871  0.00  0.00    -0.002 A 
ATOM      2  C1  UNL d   1       3.261   0.396  -0.796  0.00  0.00     0.010 A 
ATOM      3  C2  UNL d   1       2.829  -0.818  -0.260  0.00  0.00     0.041 A 
ATOM      4  C3  UNL d   1       1.707  -1.453  -0.829  0.00  0.00    -0.075 A 
ATOM      5  S   UNL d   1       0.999  -2.947  -0.339  0.00  0.00     0.015 SA
ATOM      6  C4  UNL d   1      -0.202  -2.859  -1.546  0.00  0.00     0.022 A 
ATOM      7  C5  UNL d   1      -0.080  -1.724  -2.313  0.00  0.00     0.026 A 
ATOM      8  C6  UNL d   1       1.023  -0.896  -1.913  0.00  0.00    -0.082 A 
ATOM      9  C7  UNL d   1       1.486   0.337  -2.433  0.00  0.00     0.045 A 
ENDROOT
TORSDOF 0
ENDMDL
