MODEL 1
REMARK minimizedAffinity 12.288002
REMARK minimizedRMSD -1
REMARK  0 active torsions:
REMARK  status: ('A' for Active; 'I' for Inactive)
ROOT
ATOM      1  C   UNL d   1       0.368  -4.155  -1.450  0.00  0.00    -0.002 A 
ATOM      2  C1  UNL d   1      -0.358  -3.766  -2.567  0.00  0.00     0.010 A 
ATOM      3  C2  UNL d   1      -0.167  -2.505  -3.135  0.00  0.00     0.041 A 
ATOM      4  C3  UNL d   1       0.778  -1.634  -2.557  0.00  0.00    -0.075 A 
ATOM      5  S   UNL d   1       1.182  -0.042  -3.083  0.00  0.00     0.015 SA
ATOM      6  C4  UNL d   1       2.328   0.158  -1.838  0.00  0.00     0.022 A 
ATOM      7  C5  UNL d   1       2.414  -0.952  -1.032  0.00  0.00     0.026 A 
ATOM      8  C6  UNL d   1       1.522  -2.004  -1.433  0.00  0.00    -0.082 A 
ATOM      9  C7  UNL d   1       1.304  -3.289  -0.880  0.00  0.00     0.045 A 
ENDROOT
TORSDOF 0
ENDMDL
