MODEL 1
REMARK minimizedAffinity 6.12774467
REMARK minimizedRMSD -1
REMARK  0 active torsions:
REMARK  status: ('A' for Active; 'I' for Inactive)
ROOT
ATOM      1  C   UNL d   1       1.689   0.785   5.632  0.00  0.00    -0.002 A 
ATOM      2  C1  UNL d   1       2.302   2.008   5.862  0.00  0.00     0.010 A 
ATOM      3  C2  UNL d   1       2.755   2.788   4.796  0.00  0.00     0.041 A 
ATOM      4  C3  UNL d   1       2.578   2.313   3.481  0.00  0.00    -0.075 A 
ATOM      5  S   UNL d   1       3.052   3.097   2.021  0.00  0.00     0.015 SA
ATOM      6  C4  UNL d   1       2.451   1.826   1.056  0.00  0.00     0.022 A 
ATOM      7  C5  UNL d   1       1.900   0.820   1.814  0.00  0.00     0.026 A 
ATOM      8  C6  UNL d   1       1.963   1.084   3.224  0.00  0.00    -0.082 A 
ATOM      9  C7  UNL d   1       1.515   0.317   4.326  0.00  0.00     0.045 A 
ENDROOT
TORSDOF 0
ENDMDL
