MODEL 1
REMARK minimizedAffinity 13.3773279
REMARK minimizedRMSD -1
REMARK  0 active torsions:
REMARK  status: ('A' for Active; 'I' for Inactive)
ROOT
ATOM      1  C   UNL d   1       1.726  -0.177   0.969  0.00  0.00    -0.002 A 
ATOM      2  C1  UNL d   1       2.954  -0.109   0.325  0.00  0.00     0.010 A 
ATOM      3  C2  UNL d   1       3.747   1.035   0.427  0.00  0.00     0.041 A 
ATOM      4  C3  UNL d   1       3.282   2.120   1.196  0.00  0.00    -0.075 A 
ATOM      5  S   UNL d   1       4.083   3.623   1.464  0.00  0.00     0.015 SA
ATOM      6  C4  UNL d   1       2.815   4.210   2.440  0.00  0.00     0.022 A 
ATOM      7  C5  UNL d   1       1.797   3.295   2.569  0.00  0.00     0.026 A 
ATOM      8  C6  UNL d   1       2.050   2.075   1.854  0.00  0.00    -0.082 A 
ATOM      9  C7  UNL d   1       1.268   0.901   1.730  0.00  0.00     0.045 A 
ENDROOT
TORSDOF 0
ENDMDL
