MODEL 1
REMARK minimizedAffinity 8.45216179
REMARK minimizedRMSD -1
REMARK  0 active torsions:
REMARK  status: ('A' for Active; 'I' for Inactive)
ROOT
ATOM      1  C   UNL d   1      -2.086  -3.431  -2.259  0.00  0.00    -0.002 A 
ATOM      2  C1  UNL d   1      -2.519  -2.182  -2.682  0.00  0.00     0.010 A 
ATOM      3  C2  UNL d   1      -1.615  -1.127  -2.822  0.00  0.00     0.041 A 
ATOM      4  C3  UNL d   1      -0.255  -1.351  -2.529  0.00  0.00    -0.075 A 
ATOM      5  S   UNL d   1       1.032  -0.208  -2.629  0.00  0.00     0.015 SA
ATOM      6  C4  UNL d   1       2.186  -1.350  -2.113  0.00  0.00     0.022 A 
ATOM      7  C5  UNL d   1       1.621  -2.579  -1.866  0.00  0.00     0.026 A 
ATOM      8  C6  UNL d   1       0.205  -2.600  -2.102  0.00  0.00    -0.082 A 
ATOM      9  C7  UNL d   1      -0.736  -3.649  -1.969  0.00  0.00     0.045 A 
ENDROOT
TORSDOF 0
ENDMDL
