MODEL 1
REMARK minimizedAffinity 21.9378338
REMARK minimizedRMSD -1
REMARK  0 active torsions:
REMARK  status: ('A' for Active; 'I' for Inactive)
ROOT
ATOM      1  C   UNL d   1      -0.844  -4.703  -2.632  0.00  0.00    -0.002 A 
ATOM      2  C1  UNL d   1      -0.663  -5.157  -3.931  0.00  0.00     0.010 A 
ATOM      3  C2  UNL d   1      -1.473  -4.687  -4.967  0.00  0.00     0.041 A 
ATOM      4  C3  UNL d   1      -2.477  -3.744  -4.673  0.00  0.00    -0.075 A 
ATOM      5  S   UNL d   1      -3.587  -3.027  -5.780  0.00  0.00     0.015 SA
ATOM      6  C4  UNL d   1      -4.327  -2.102  -4.555  0.00  0.00     0.022 A 
ATOM      7  C5  UNL d   1      -3.754  -2.321  -3.325  0.00  0.00     0.026 A 
ATOM      8  C6  UNL d   1      -2.678  -3.271  -3.373  0.00  0.00    -0.082 A 
ATOM      9  C7  UNL d   1      -1.841  -3.767  -2.344  0.00  0.00     0.045 A 
ENDROOT
TORSDOF 0
ENDMDL
