MODEL 1
REMARK minimizedAffinity 17.1047363
REMARK minimizedRMSD -1
REMARK  0 active torsions:
REMARK  status: ('A' for Active; 'I' for Inactive)
ROOT
ATOM      1  C   UNL d   1       2.670  -0.310  -0.814  0.00  0.00    -0.002 A 
ATOM      2  C1  UNL d   1       1.896  -0.950  -1.771  0.00  0.00     0.010 A 
ATOM      3  C2  UNL d   1       1.124  -0.212  -2.671  0.00  0.00     0.041 A 
ATOM      4  C3  UNL d   1       1.146   1.194  -2.593  0.00  0.00    -0.075 A 
ATOM      5  S   UNL d   1       0.283   2.304  -3.591  0.00  0.00     0.015 SA
ATOM      6  C4  UNL d   1       0.922   3.654  -2.772  0.00  0.00     0.022 A 
ATOM      7  C5  UNL d   1       1.775   3.286  -1.758  0.00  0.00     0.026 A 
ATOM      8  C6  UNL d   1       1.919   1.862  -1.639  0.00  0.00    -0.082 A 
ATOM      9  C7  UNL d   1       2.689   1.086  -0.741  0.00  0.00     0.045 A 
ENDROOT
TORSDOF 0
ENDMDL
