MODEL 1
REMARK minimizedAffinity 22.2012062
REMARK minimizedRMSD -1
REMARK  0 active torsions:
REMARK  status: ('A' for Active; 'I' for Inactive)
ROOT
ATOM      1  C   UNL d   1      -2.201  -1.524  -2.224  0.00  0.00    -0.002 A 
ATOM      2  C1  UNL d   1      -2.699  -1.789  -3.492  0.00  0.00     0.010 A 
ATOM      3  C2  UNL d   1      -2.504  -3.038  -4.085  0.00  0.00     0.041 A 
ATOM      4  C3  UNL d   1      -1.795  -4.026  -3.374  0.00  0.00    -0.075 A 
ATOM      5  S   UNL d   1      -1.436  -5.628  -3.900  0.00  0.00     0.015 SA
ATOM      6  C4  UNL d   1      -0.615  -5.999  -2.454  0.00  0.00     0.022 A 
ATOM      7  C5  UNL d   1      -0.604  -4.938  -1.580  0.00  0.00     0.026 A 
ATOM      8  C6  UNL d   1      -1.285  -3.784  -2.095  0.00  0.00    -0.082 A 
ATOM      9  C7  UNL d   1      -1.499  -2.507  -1.522  0.00  0.00     0.045 A 
ENDROOT
TORSDOF 0
ENDMDL
