MODEL 1
REMARK minimizedAffinity 18.2807198
REMARK minimizedRMSD -1
REMARK  0 active torsions:
REMARK  status: ('A' for Active; 'I' for Inactive)
ROOT
ATOM      1  C   UNL d   1       0.337   0.611  -3.349  0.00  0.00    -0.002 A 
ATOM      2  C1  UNL d   1       0.475  -0.732  -3.028  0.00  0.00     0.010 A 
ATOM      3  C2  UNL d   1       1.558  -1.173  -2.265  0.00  0.00     0.041 A 
ATOM      4  C3  UNL d   1       2.509  -0.231  -1.824  0.00  0.00    -0.075 A 
ATOM      5  S   UNL d   1       3.916  -0.540  -0.877  0.00  0.00     0.015 SA
ATOM      6  C4  UNL d   1       4.367   1.103  -0.875  0.00  0.00     0.022 A 
ATOM      7  C5  UNL d   1       3.477   1.883  -1.575  0.00  0.00     0.026 A 
ATOM      8  C6  UNL d   1       2.391   1.127  -2.134  0.00  0.00    -0.082 A 
ATOM      9  C7  UNL d   1       1.282   1.542  -2.910  0.00  0.00     0.045 A 
ENDROOT
TORSDOF 0
ENDMDL
