MODEL 1
REMARK minimizedAffinity 25.2629986
REMARK minimizedRMSD -1
REMARK  0 active torsions:
REMARK  status: ('A' for Active; 'I' for Inactive)
ROOT
ATOM      1  C   UNL d   1       1.108   2.098  -3.413  0.00  0.00    -0.002 A 
ATOM      2  C1  UNL d   1       0.858   0.746  -3.596  0.00  0.00     0.010 A 
ATOM      3  C2  UNL d   1       1.473  -0.207  -2.781  0.00  0.00     0.041 A 
ATOM      4  C3  UNL d   1       2.350   0.227  -1.768  0.00  0.00    -0.075 A 
ATOM      5  S   UNL d   1       3.216  -0.758  -0.649  0.00  0.00     0.015 SA
ATOM      6  C4  UNL d   1       3.936   0.593   0.099  0.00  0.00     0.022 A 
ATOM      7  C5  UNL d   1       3.538   1.775  -0.478  0.00  0.00     0.026 A 
ATOM      8  C6  UNL d   1       2.617   1.584  -1.564  0.00  0.00    -0.082 A 
ATOM      9  C7  UNL d   1       1.979   2.525  -2.407  0.00  0.00     0.045 A 
ENDROOT
TORSDOF 0
ENDMDL
