MODEL 1
REMARK minimizedAffinity 14.7183466
REMARK minimizedRMSD -1
REMARK  0 active torsions:
REMARK  status: ('A' for Active; 'I' for Inactive)
ROOT
ATOM      1  C   UNL d   1       5.919   2.584   5.814  0.00  0.00     0.078 C 
ATOM      2  C1  UNL d   1       5.161   3.146   4.647  0.00  0.00    -0.077 A 
ATOM      3  C2  UNL d   1       5.661   3.038   3.344  0.00  0.00    -0.001 A 
ATOM      4  C3  UNL d   1       4.950   3.574   2.269  0.00  0.00     0.003 A 
ATOM      5  C4  UNL d   1       3.735   4.222   2.487  0.00  0.00    -0.005 A 
ATOM      6  C5  UNL d   1       3.232   4.336   3.781  0.00  0.00     0.003 A 
ATOM      7  C6  UNL d   1       3.941   3.801   4.857  0.00  0.00    -0.001 A 
ENDROOT
TORSDOF 0
ENDMDL
