MODEL 1
REMARK minimizedAffinity 9.12193966
REMARK minimizedRMSD -1
REMARK  0 active torsions:
REMARK  status: ('A' for Active; 'I' for Inactive)
ROOT
ATOM      1  C   UNL d   1       3.069   1.929  -1.082  0.00  0.00     0.078 C 
ATOM      2  C1  UNL d   1       2.815   0.611  -0.415  0.00  0.00    -0.077 A 
ATOM      3  C2  UNL d   1       2.008  -0.361  -1.021  0.00  0.00    -0.001 A 
ATOM      4  C3  UNL d   1       1.772  -1.580  -0.384  0.00  0.00     0.003 A 
ATOM      5  C4  UNL d   1       2.338  -1.839   0.862  0.00  0.00    -0.005 A 
ATOM      6  C5  UNL d   1       3.140  -0.878   1.474  0.00  0.00     0.003 A 
ATOM      7  C6  UNL d   1       3.377   0.342   0.839  0.00  0.00    -0.001 A 
ENDROOT
TORSDOF 0
ENDMDL
