MODEL 1
REMARK minimizedAffinity 7.0603447
REMARK minimizedRMSD -1
REMARK  0 active torsions:
REMARK  status: ('A' for Active; 'I' for Inactive)
ROOT
ATOM      1  C   UNL d   1       2.239  -1.606   0.421  0.00  0.00     0.078 C 
ATOM      2  C1  UNL d   1       2.807  -0.305  -0.062  0.00  0.00    -0.077 A 
ATOM      3  C2  UNL d   1       3.190   0.694   0.842  0.00  0.00    -0.001 A 
ATOM      4  C3  UNL d   1       3.708   1.904   0.379  0.00  0.00     0.003 A 
ATOM      5  C4  UNL d   1       3.847   2.128  -0.990  0.00  0.00    -0.005 A 
ATOM      6  C5  UNL d   1       3.467   1.141  -1.897  0.00  0.00     0.003 A 
ATOM      7  C6  UNL d   1       2.948  -0.070  -1.435  0.00  0.00    -0.001 A 
ENDROOT
TORSDOF 0
ENDMDL
