MODEL 1
REMARK minimizedAffinity 3.42798233
REMARK minimizedRMSD -1
REMARK  0 active torsions:
REMARK  status: ('A' for Active; 'I' for Inactive)
ROOT
ATOM      1  C   UNL d   1      -4.833   3.702   2.321  0.00  0.00     0.078 C 
ATOM      2  C1  UNL d   1      -4.865   4.470   3.608  0.00  0.00    -0.077 A 
ATOM      3  C2  UNL d   1      -5.979   4.413   4.454  0.00  0.00    -0.001 A 
ATOM      4  C3  UNL d   1      -5.999   5.141   5.645  0.00  0.00     0.003 A 
ATOM      5  C4  UNL d   1      -4.908   5.932   6.000  0.00  0.00    -0.005 A 
ATOM      6  C5  UNL d   1      -3.796   5.996   5.163  0.00  0.00     0.003 A 
ATOM      7  C6  UNL d   1      -3.774   5.269   3.972  0.00  0.00    -0.001 A 
ENDROOT
TORSDOF 0
ENDMDL
