MODEL 1
REMARK minimizedAffinity 7.2947216
REMARK minimizedRMSD -1
REMARK  0 active torsions:
REMARK  status: ('A' for Active; 'I' for Inactive)
ROOT
ATOM      1  C   UNL d   1      -4.828   1.120   1.356  0.00  0.00     0.078 C 
ATOM      2  C1  UNL d   1      -4.878   0.711  -0.086  0.00  0.00    -0.077 A 
ATOM      3  C2  UNL d   1      -5.961   1.066  -0.900  0.00  0.00    -0.001 A 
ATOM      4  C3  UNL d   1      -5.998   0.670  -2.237  0.00  0.00     0.003 A 
ATOM      5  C4  UNL d   1      -4.957  -0.085  -2.773  0.00  0.00    -0.005 A 
ATOM      6  C5  UNL d   1      -3.876  -0.445  -1.971  0.00  0.00     0.003 A 
ATOM      7  C6  UNL d   1      -3.837  -0.050  -0.633  0.00  0.00    -0.001 A 
ENDROOT
TORSDOF 0
ENDMDL
