MODEL 1
REMARK minimizedAffinity 6.81602621
REMARK minimizedRMSD -1
REMARK  0 active torsions:
REMARK  status: ('A' for Active; 'I' for Inactive)
ROOT
ATOM      1  C   UNL d   1      -5.790  -2.117  -5.963  0.00  0.00     0.077 C 
ATOM      2  C1  UNL d   1      -4.290  -2.102  -5.983  0.00  0.00    -0.074 A 
ATOM      3  C2  UNL d   1      -3.583  -0.896  -5.983  0.00  0.00    -0.005 A 
ATOM      4  C3  UNL d   1      -2.188  -0.898  -5.992  0.00  0.00     0.006 A 
ATOM      5  C4  UNL d   1      -1.488  -2.105  -5.999  0.00  0.00    -0.005 A 
ATOM      6  C5  UNL d   1      -2.178  -3.321  -5.998  0.00  0.00    -0.074 A 
ATOM      7  C6  UNL d   1      -1.440  -4.627  -5.996  0.00  0.00     0.077 C 
ATOM      8  C7  UNL d   1      -3.579  -3.310  -5.982  0.00  0.00    -0.001 A 
ENDROOT
TORSDOF 0
ENDMDL
