MODEL 1
REMARK minimizedAffinity 3.54133868
REMARK minimizedRMSD -1
REMARK  0 active torsions:
REMARK  status: ('A' for Active; 'I' for Inactive)
ROOT
ATOM      1  C   UNL d   1      -0.760   0.334   2.545  0.00  0.00     0.077 C 
ATOM      2  C1  UNL d   1      -2.077   0.121   1.860  0.00  0.00    -0.074 A 
ATOM      3  C2  UNL d   1      -3.043   1.132   1.831  0.00  0.00    -0.005 A 
ATOM      4  C3  UNL d   1      -4.260   0.924   1.182  0.00  0.00     0.006 A 
ATOM      5  C4  UNL d   1      -4.523  -0.296   0.557  0.00  0.00    -0.005 A 
ATOM      6  C5  UNL d   1      -3.569  -1.318   0.576  0.00  0.00    -0.074 A 
ATOM      7  C6  UNL d   1      -3.832  -2.632  -0.099  0.00  0.00     0.077 C 
ATOM      8  C7  UNL d   1      -2.346  -1.098   1.224  0.00  0.00    -0.001 A 
ENDROOT
TORSDOF 0
ENDMDL
