MODEL 1
REMARK minimizedAffinity 1.56256211
REMARK minimizedRMSD -1
REMARK  0 active torsions:
REMARK  status: ('A' for Active; 'I' for Inactive)
ROOT
ATOM      1  C   UNL d   1      -5.559   1.126   0.098  0.00  0.00     0.077 C 
ATOM      2  C1  UNL d   1      -4.710   0.891   1.311  0.00  0.00    -0.074 A 
ATOM      3  C2  UNL d   1      -5.186   1.192   2.591  0.00  0.00    -0.005 A 
ATOM      4  C3  UNL d   1      -4.388   0.959   3.711  0.00  0.00     0.006 A 
ATOM      5  C4  UNL d   1      -3.108   0.424   3.563  0.00  0.00    -0.005 A 
ATOM      6  C5  UNL d   1      -2.615   0.117   2.291  0.00  0.00    -0.074 A 
ATOM      7  C6  UNL d   1      -1.245  -0.468   2.115  0.00  0.00     0.077 C 
ATOM      8  C7  UNL d   1      -3.425   0.347   1.171  0.00  0.00    -0.001 A 
ENDROOT
TORSDOF 0
ENDMDL
