MODEL 1
REMARK minimizedAffinity 5.06739807
REMARK minimizedRMSD -1
REMARK  0 active torsions:
REMARK  status: ('A' for Active; 'I' for Inactive)
ROOT
ATOM      1  C   UNL d   1      -4.516  -1.110   0.105  0.00  0.00     0.077 C 
ATOM      2  C1  UNL d   1      -3.666  -0.001   0.651  0.00  0.00    -0.074 A 
ATOM      3  C2  UNL d   1      -4.121   1.321   0.651  0.00  0.00    -0.005 A 
ATOM      4  C3  UNL d   1      -3.323   2.340   1.170  0.00  0.00     0.006 A 
ATOM      5  C4  UNL d   1      -2.063   2.048   1.694  0.00  0.00    -0.005 A 
ATOM      6  C5  UNL d   1      -1.591   0.731   1.704  0.00  0.00    -0.074 A 
ATOM      7  C6  UNL d   1      -0.244   0.398   2.273  0.00  0.00     0.077 C 
ATOM      8  C7  UNL d   1      -2.402  -0.288   1.187  0.00  0.00    -0.001 A 
ENDROOT
TORSDOF 0
ENDMDL
