MODEL 1
REMARK minimizedAffinity 5.14970922
REMARK minimizedRMSD -1
REMARK  0 active torsions:
REMARK  status: ('A' for Active; 'I' for Inactive)
ROOT
ATOM      1  C   UNL d   1      -5.093  -5.465  -5.984  0.00  0.00     0.077 C 
ATOM      2  C1  UNL d   1      -4.879  -3.980  -5.994  0.00  0.00    -0.074 A 
ATOM      3  C2  UNL d   1      -5.965  -3.098  -5.989  0.00  0.00    -0.005 A 
ATOM      4  C3  UNL d   1      -5.750  -1.720  -5.989  0.00  0.00     0.006 A 
ATOM      5  C4  UNL d   1      -4.451  -1.211  -5.994  0.00  0.00    -0.005 A 
ATOM      6  C5  UNL d   1      -3.354  -2.077  -5.999  0.00  0.00    -0.074 A 
ATOM      7  C6  UNL d   1      -1.951  -1.547  -5.995  0.00  0.00     0.077 C 
ATOM      8  C7  UNL d   1      -3.577  -3.461  -5.992  0.00  0.00    -0.001 A 
ENDROOT
TORSDOF 0
ENDMDL
