MODEL 1
REMARK minimizedAffinity 8.74270439
REMARK minimizedRMSD -1
REMARK  0 active torsions:
REMARK  status: ('A' for Active; 'I' for Inactive)
ROOT
ATOM      1  C   UNL d   1      -4.201   0.813   0.348  0.00  0.00     0.077 C 
ATOM      2  C1  UNL d   1      -3.465   0.482   1.612  0.00  0.00    -0.074 A 
ATOM      3  C2  UNL d   1      -4.157   0.140   2.778  0.00  0.00    -0.005 A 
ATOM      4  C3  UNL d   1      -3.458  -0.174   3.944  0.00  0.00     0.006 A 
ATOM      5  C4  UNL d   1      -2.063  -0.149   3.956  0.00  0.00    -0.005 A 
ATOM      6  C5  UNL d   1      -1.354   0.190   2.799  0.00  0.00    -0.074 A 
ATOM      7  C6  UNL d   1       0.146   0.212   2.792  0.00  0.00     0.077 C 
ATOM      8  C7  UNL d   1      -2.063   0.498   1.630  0.00  0.00    -0.001 A 
ENDROOT
TORSDOF 0
ENDMDL
