MODEL 1
REMARK minimizedAffinity -3.74112868
REMARK minimizedRMSD -1
REMARK  0 active torsions:
REMARK  status: ('A' for Active; 'I' for Inactive)
ROOT
ATOM      1  C   UNL d   1      -2.973  -1.823   0.237  0.00  0.00     0.077 C 
ATOM      2  C1  UNL d   1      -2.493  -0.764   1.184  0.00  0.00    -0.074 A 
ATOM      3  C2  UNL d   1      -3.386   0.149   1.755  0.00  0.00    -0.005 A 
ATOM      4  C3  UNL d   1      -2.926   1.122   2.641  0.00  0.00     0.006 A 
ATOM      5  C4  UNL d   1      -1.571   1.193   2.965  0.00  0.00    -0.005 A 
ATOM      6  C5  UNL d   1      -0.663   0.289   2.406  0.00  0.00    -0.074 A 
ATOM      7  C6  UNL d   1       0.795   0.345   2.751  0.00  0.00     0.077 C 
ATOM      8  C7  UNL d   1      -1.134  -0.691   1.521  0.00  0.00    -0.001 A 
ENDROOT
TORSDOF 0
ENDMDL
