MODEL 1
REMARK minimizedAffinity 9.04428959
REMARK minimizedRMSD -1
REMARK  0 active torsions:
REMARK  status: ('A' for Active; 'I' for Inactive)
ROOT
ATOM      1  C   UNL d   1      -4.641  -1.845   0.410  0.00  0.00     0.077 C 
ATOM      2  C1  UNL d   1      -3.988  -0.665   1.067  0.00  0.00    -0.074 A 
ATOM      3  C2  UNL d   1      -4.725   0.482   1.379  0.00  0.00    -0.005 A 
ATOM      4  C3  UNL d   1      -4.106   1.568   1.999  0.00  0.00     0.006 A 
ATOM      5  C4  UNL d   1      -2.747   1.518   2.312  0.00  0.00    -0.005 A 
ATOM      6  C5  UNL d   1      -1.995   0.379   2.007  0.00  0.00    -0.074 A 
ATOM      7  C6  UNL d   1      -0.536   0.305   2.346  0.00  0.00     0.077 C 
ATOM      8  C7  UNL d   1      -2.625  -0.711   1.391  0.00  0.00    -0.001 A 
ENDROOT
TORSDOF 0
ENDMDL
