MODEL 1
REMARK minimizedAffinity 9.17650986
REMARK minimizedRMSD -1
REMARK  0 active torsions:
REMARK  status: ('A' for Active; 'I' for Inactive)
ROOT
ATOM      1  C   UNL d   1      -0.891   0.729   1.892  0.00  0.00     0.077 C 
ATOM      2  C1  UNL d   1      -2.253   0.465   1.323  0.00  0.00    -0.074 A 
ATOM      3  C2  UNL d   1      -3.087   1.520   0.936  0.00  0.00    -0.005 A 
ATOM      4  C3  UNL d   1      -4.348   1.259   0.399  0.00  0.00     0.006 A 
ATOM      5  C4  UNL d   1      -4.787  -0.057   0.245  0.00  0.00    -0.005 A 
ATOM      6  C5  UNL d   1      -3.967  -1.124   0.626  0.00  0.00    -0.074 A 
ATOM      7  C6  UNL d   1      -4.420  -2.544   0.458  0.00  0.00     0.077 C 
ATOM      8  C7  UNL d   1      -2.699  -0.854   1.158  0.00  0.00    -0.001 A 
ENDROOT
TORSDOF 0
ENDMDL
