MODEL 1
REMARK minimizedAffinity -0.987456977
REMARK minimizedRMSD -1
REMARK  0 active torsions:
REMARK  status: ('A' for Active; 'I' for Inactive)
ROOT
ATOM      1  C   UNL d   1      -3.675  -5.591  -5.994  0.00  0.00     0.077 C 
ATOM      2  C1  UNL d   1      -4.103  -4.153  -6.000  0.00  0.00    -0.074 A 
ATOM      3  C2  UNL d   1      -5.458  -3.807  -5.990  0.00  0.00    -0.005 A 
ATOM      4  C3  UNL d   1      -5.841  -2.466  -5.986  0.00  0.00     0.006 A 
ATOM      5  C4  UNL d   1      -4.875  -1.459  -5.991  0.00  0.00    -0.005 A 
ATOM      6  C5  UNL d   1      -3.515  -1.786  -6.000  0.00  0.00    -0.074 A 
ATOM      7  C6  UNL d   1      -2.464  -0.717  -5.995  0.00  0.00     0.077 C 
ATOM      8  C7  UNL d   1      -3.138  -3.136  -5.997  0.00  0.00    -0.001 A 
ENDROOT
TORSDOF 0
ENDMDL
