MODEL 1
REMARK minimizedAffinity 15.3109531
REMARK minimizedRMSD -1
REMARK  0 active torsions:
REMARK  status: ('A' for Active; 'I' for Inactive)
ROOT
ATOM      1  C   UNL d   1       0.322  -0.767  -5.985  0.00  0.00     0.077 C 
ATOM      2  C1  UNL d   1      -0.853  -1.698  -5.994  0.00  0.00    -0.074 A 
ATOM      3  C2  UNL d   1      -0.672  -3.085  -5.999  0.00  0.00    -0.005 A 
ATOM      4  C3  UNL d   1      -1.775  -3.938  -5.998  0.00  0.00     0.006 A 
ATOM      5  C4  UNL d   1      -3.068  -3.415  -5.992  0.00  0.00    -0.005 A 
ATOM      6  C5  UNL d   1      -3.269  -2.031  -5.987  0.00  0.00    -0.074 A 
ATOM      7  C6  UNL d   1      -4.653  -1.452  -5.971  0.00  0.00     0.077 C 
ATOM      8  C7  UNL d   1      -2.156  -1.180  -5.981  0.00  0.00    -0.001 A 
ENDROOT
TORSDOF 0
ENDMDL
