MODEL 1
REMARK minimizedAffinity 8.12586117
REMARK minimizedRMSD -1
REMARK  0 active torsions:
REMARK  status: ('A' for Active; 'I' for Inactive)
ROOT
ATOM      1  C   UNL d   1      -3.368  -4.770  -5.758  0.00  0.00     0.077 C 
ATOM      2  C1  UNL d   1      -3.654  -3.300  -5.833  0.00  0.00    -0.074 A 
ATOM      3  C2  UNL d   1      -4.967  -2.825  -5.898  0.00  0.00    -0.005 A 
ATOM      4  C3  UNL d   1      -5.217  -1.454  -5.958  0.00  0.00     0.006 A 
ATOM      5  C4  UNL d   1      -4.158  -0.546  -5.954  0.00  0.00    -0.005 A 
ATOM      6  C5  UNL d   1      -2.838  -1.002  -5.888  0.00  0.00    -0.074 A 
ATOM      7  C6  UNL d   1      -1.688  -0.039  -5.872  0.00  0.00     0.077 C 
ATOM      8  C7  UNL d   1      -2.595  -2.381  -5.821  0.00  0.00    -0.001 A 
ENDROOT
TORSDOF 0
ENDMDL
