MODEL 1
REMARK minimizedAffinity 0.245767891
REMARK minimizedRMSD -1
REMARK  0 active torsions:
REMARK  status: ('A' for Active; 'I' for Inactive)
ROOT
ATOM      1  C   UNL d   1      -2.116   0.254  -5.987  0.00  0.00     0.077 C 
ATOM      2  C1  UNL d   1      -2.630  -1.155  -5.997  0.00  0.00    -0.074 A 
ATOM      3  C2  UNL d   1      -1.749  -2.241  -6.000  0.00  0.00    -0.005 A 
ATOM      4  C3  UNL d   1      -2.241  -3.546  -6.000  0.00  0.00     0.006 A 
ATOM      5  C4  UNL d   1      -3.617  -3.778  -5.998  0.00  0.00    -0.005 A 
ATOM      6  C5  UNL d   1      -4.513  -2.704  -5.994  0.00  0.00    -0.074 A 
ATOM      7  C6  UNL d   1      -5.995  -2.935  -5.982  0.00  0.00     0.077 C 
ATOM      8  C7  UNL d   1      -4.011  -1.396  -5.987  0.00  0.00    -0.001 A 
ENDROOT
TORSDOF 0
ENDMDL
