MODEL 1
REMARK minimizedAffinity 10.4936285
REMARK minimizedRMSD -1
REMARK  0 active torsions:
REMARK  status: ('A' for Active; 'I' for Inactive)
ROOT
ATOM      1  C   UNL d   1       1.546  -5.931   2.760  0.00  0.00     0.077 C 
ATOM      2  C1  UNL d   1       3.023  -5.672   2.777  0.00  0.00    -0.074 A 
ATOM      3  C2  UNL d   1       3.673  -5.146   1.656  0.00  0.00    -0.005 A 
ATOM      4  C3  UNL d   1       5.046  -4.901   1.690  0.00  0.00     0.006 A 
ATOM      5  C4  UNL d   1       5.781  -5.179   2.843  0.00  0.00    -0.005 A 
ATOM      6  C5  UNL d   1       5.147  -5.705   3.974  0.00  0.00    -0.074 A 
ATOM      7  C6  UNL d   1       5.921  -6.000   5.225  0.00  0.00     0.077 C 
ATOM      8  C7  UNL d   1       3.766  -5.941   3.934  0.00  0.00    -0.001 A 
ENDROOT
TORSDOF 0
ENDMDL
