MODEL 1
REMARK minimizedAffinity -0.203047767
REMARK minimizedRMSD -1
REMARK  0 active torsions:
REMARK  status: ('A' for Active; 'I' for Inactive)
ROOT
ATOM      1  C   UNL d   1      -0.400  -1.327  -5.625  0.00  0.00     0.077 C 
ATOM      2  C1  UNL d   1       0.864  -0.716  -5.098  0.00  0.00    -0.074 A 
ATOM      3  C2  UNL d   1       1.954  -0.477  -5.941  0.00  0.00    -0.005 A 
ATOM      4  C3  UNL d   1       3.119   0.101  -5.439  0.00  0.00     0.006 A 
ATOM      5  C4  UNL d   1       3.207   0.445  -4.089  0.00  0.00    -0.005 A 
ATOM      6  C5  UNL d   1       2.128   0.215  -3.231  0.00  0.00    -0.074 A 
ATOM      7  C6  UNL d   1       2.202   0.588  -1.780  0.00  0.00     0.077 C 
ATOM      8  C7  UNL d   1       0.957  -0.360  -3.745  0.00  0.00    -0.001 A 
ENDROOT
TORSDOF 0
ENDMDL
