MODEL 1
REMARK minimizedAffinity -1.01961958
REMARK minimizedRMSD -1
REMARK  0 active torsions:
REMARK  status: ('A' for Active; 'I' for Inactive)
ROOT
ATOM      1  C   UNL d   1      -2.242   0.334  -5.903  0.00  0.00     0.077 C 
ATOM      2  C1  UNL d   1      -2.706  -1.092  -5.899  0.00  0.00    -0.074 A 
ATOM      3  C2  UNL d   1      -1.793  -2.146  -6.000  0.00  0.00    -0.005 A 
ATOM      4  C3  UNL d   1      -2.239  -3.468  -5.985  0.00  0.00     0.006 A 
ATOM      5  C4  UNL d   1      -3.601  -3.748  -5.870  0.00  0.00    -0.005 A 
ATOM      6  C5  UNL d   1      -4.529  -2.707  -5.767  0.00  0.00    -0.074 A 
ATOM      7  C6  UNL d   1      -5.996  -2.991  -5.632  0.00  0.00     0.077 C 
ATOM      8  C7  UNL d   1      -4.072  -1.382  -5.775  0.00  0.00    -0.001 A 
ENDROOT
TORSDOF 0
ENDMDL
