MODEL 1
REMARK minimizedAffinity 8.99924469
REMARK minimizedRMSD -1
REMARK  0 active torsions:
REMARK  status: ('A' for Active; 'I' for Inactive)
ROOT
ATOM      1  C   UNL d   1      -5.061  -0.172   2.107  0.00  0.00     0.077 C 
ATOM      2  C1  UNL d   1      -3.935   0.819   2.099  0.00  0.00    -0.074 A 
ATOM      3  C2  UNL d   1      -4.171   2.177   2.338  0.00  0.00    -0.005 A 
ATOM      4  C3  UNL d   1      -3.112   3.085   2.337  0.00  0.00     0.006 A 
ATOM      5  C4  UNL d   1      -1.809   2.646   2.099  0.00  0.00    -0.005 A 
ATOM      6  C5  UNL d   1      -1.554   1.292   1.859  0.00  0.00    -0.074 A 
ATOM      7  C6  UNL d   1      -0.159   0.802   1.610  0.00  0.00     0.077 C 
ATOM      8  C7  UNL d   1      -2.622   0.385   1.868  0.00  0.00    -0.001 A 
ENDROOT
TORSDOF 0
ENDMDL
