MODEL 1
REMARK minimizedAffinity 18.1853504
REMARK minimizedRMSD -1
REMARK  0 active torsions:
REMARK  status: ('A' for Active; 'I' for Inactive)
ROOT
ATOM      1  N1  IND d   1       3.658  -0.776   0.801  0.00  0.00    -0.196 N 
ATOM      2  C2  IND d   1       4.412  -0.585  -0.324  0.00  0.00     0.054 A 
ATOM      3  C3  IND d   1       4.049   0.559  -0.945  0.00  0.00    -0.031 A 
ATOM      4  C4  IND d   1       2.313   2.324  -0.237  0.00  0.00     0.051 A 
ATOM      5  C5  IND d   1       1.348   2.572   0.698  0.00  0.00    -0.031 A 
ATOM      6  C6  IND d   1       1.101   1.700   1.739  0.00  0.00     0.015 A 
ATOM      7  C7  IND d   1       1.820   0.548   1.889  0.00  0.00    -0.016 A 
ATOM      8  C8  IND d   1       2.796   0.290   0.937  0.00  0.00    -0.047 A 
ATOM      9  C9  IND d   1       3.023   1.150  -0.145  0.00  0.00    -0.096 A 
ATOM     10  HN1 IND d   1       3.713  -1.449   1.334  0.00  0.00     0.298 HD
ENDROOT
TORSDOF 0
ENDMDL
