MODEL 1
REMARK minimizedAffinity 14.9026623
REMARK minimizedRMSD -1
REMARK  0 active torsions:
REMARK  status: ('A' for Active; 'I' for Inactive)
ROOT
ATOM      1  N1  IND d   1      -3.527  -2.383  -2.492  0.00  0.00    -0.196 N 
ATOM      2  C2  IND d   1      -2.624  -2.609  -1.491  0.00  0.00     0.054 A 
ATOM      3  C3  IND d   1      -2.821  -3.830  -0.945  0.00  0.00    -0.031 A 
ATOM      4  C4  IND d   1      -4.502  -5.664  -1.605  0.00  0.00     0.051 A 
ATOM      5  C5  IND d   1      -5.559  -5.908  -2.437  0.00  0.00    -0.031 A 
ATOM      6  C6  IND d   1      -6.000  -4.971  -3.349  0.00  0.00     0.015 A 
ATOM      7  C7  IND d   1      -5.390  -3.755  -3.473  0.00  0.00    -0.016 A 
ATOM      8  C8  IND d   1      -4.321  -3.501  -2.625  0.00  0.00    -0.047 A 
ATOM      9  C9  IND d   1      -3.896  -4.431  -1.668  0.00  0.00    -0.096 A 
ATOM     10  HN1 IND d   1      -3.590  -1.664  -2.959  0.00  0.00     0.298 HD
ENDROOT
TORSDOF 0
ENDMDL
