MODEL 1
REMARK minimizedAffinity 9.83095932
REMARK minimizedRMSD -1
REMARK  0 active torsions:
REMARK  status: ('A' for Active; 'I' for Inactive)
ROOT
ATOM      1  N1  IND d   1       1.414   2.031  -1.786  0.00  0.00    -0.196 N 
ATOM      2  C2  IND d   1       2.187   1.718  -2.870  0.00  0.00     0.054 A 
ATOM      3  C3  IND d   1       3.326   1.107  -2.475  0.00  0.00    -0.031 A 
ATOM      4  C4  IND d   1       4.083   0.428  -0.110  0.00  0.00     0.051 A 
ATOM      5  C5  IND d   1       3.730   0.534   1.206  0.00  0.00    -0.031 A 
ATOM      6  C6  IND d   1       2.562   1.155   1.599  0.00  0.00     0.015 A 
ATOM      7  C7  IND d   1       1.694   1.685   0.687  0.00  0.00    -0.016 A 
ATOM      8  C8  IND d   1       2.053   1.585  -0.650  0.00  0.00    -0.047 A 
ATOM      9  C9  IND d   1       3.257   0.994  -1.053  0.00  0.00    -0.096 A 
ATOM     10  HN1 IND d   1       0.657   2.438  -1.811  0.00  0.00     0.298 HD
ENDROOT
TORSDOF 0
ENDMDL
