MODEL 1
REMARK minimizedAffinity 22.4157715
REMARK minimizedRMSD -1
REMARK  0 active torsions:
REMARK  status: ('A' for Active; 'I' for Inactive)
ROOT
ATOM      1  N1  IND d   1       4.580  -0.750   2.095  0.00  0.00    -0.196 N 
ATOM      2  C2  IND d   1       5.892  -0.443   1.867  0.00  0.00     0.054 A 
ATOM      3  C3  IND d   1       5.999   0.426   0.837  0.00  0.00    -0.031 A 
ATOM      4  C4  IND d   1       4.147   1.552  -0.553  0.00  0.00     0.051 A 
ATOM      5  C5  IND d   1       2.793   1.557  -0.740  0.00  0.00    -0.031 A 
ATOM      6  C6  IND d   1       1.948   0.780   0.026  0.00  0.00     0.015 A 
ATOM      7  C7  IND d   1       2.427  -0.026   1.019  0.00  0.00    -0.016 A 
ATOM      8  C8  IND d   1       3.802  -0.040   1.207  0.00  0.00    -0.047 A 
ATOM      9  C9  IND d   1       4.668   0.714   0.405  0.00  0.00    -0.096 A 
ATOM     10  HN1 IND d   1       4.289  -1.296   2.693  0.00  0.00     0.298 HD
ENDROOT
TORSDOF 0
ENDMDL
