MODEL 1
REMARK minimizedAffinity 10.4122524
REMARK minimizedRMSD -1
REMARK  0 active torsions:
REMARK  status: ('A' for Active; 'I' for Inactive)
ROOT
ATOM      1  N1  IND d   1      -3.305  -2.736  -1.625  0.00  0.00    -0.196 N 
ATOM      2  C2  IND d   1      -2.556  -2.404  -2.719  0.00  0.00     0.054 A 
ATOM      3  C3  IND d   1      -1.257  -2.260  -2.374  0.00  0.00    -0.031 A 
ATOM      4  C4  IND d   1      -0.121  -2.625  -0.092  0.00  0.00     0.051 A 
ATOM      5  C5  IND d   1      -0.399  -2.900   1.217  0.00  0.00    -0.031 A 
ATOM      6  C6  IND d   1      -1.685  -3.143   1.655  0.00  0.00     0.015 A 
ATOM      7  C7  IND d   1      -2.745  -3.130   0.793  0.00  0.00    -0.016 A 
ATOM      8  C8  IND d   1      -2.468  -2.844  -0.536  0.00  0.00    -0.047 A 
ATOM      9  C9  IND d   1      -1.170  -2.555  -0.978  0.00  0.00    -0.096 A 
ATOM     10  HN1 IND d   1      -4.156  -2.858  -1.618  0.00  0.00     0.298 HD
ENDROOT
TORSDOF 0
ENDMDL
