MODEL 1
REMARK minimizedAffinity 6.23183012
REMARK minimizedRMSD -1
REMARK  0 active torsions:
REMARK  status: ('A' for Active; 'I' for Inactive)
ROOT
ATOM      1  N1  IND d   1      -1.119  -5.386   2.292  0.00  0.00    -0.196 N 
ATOM      2  C2  IND d   1      -2.340  -5.999   2.231  0.00  0.00     0.054 A 
ATOM      3  C3  IND d   1      -3.198  -5.267   1.486  0.00  0.00    -0.031 A 
ATOM      4  C4  IND d   1      -2.783  -3.082   0.189  0.00  0.00     0.051 A 
ATOM      5  C5  IND d   1      -1.836  -2.122  -0.029  0.00  0.00    -0.031 A 
ATOM      6  C6  IND d   1      -0.574  -2.204   0.525  0.00  0.00     0.015 A 
ATOM      7  C7  IND d   1      -0.209  -3.259   1.311  0.00  0.00    -0.016 A 
ATOM      8  C8  IND d   1      -1.171  -4.233   1.540  0.00  0.00    -0.047 A 
ATOM      9  C9  IND d   1      -2.466  -4.134   1.016  0.00  0.00    -0.096 A 
ATOM     10  HN1 IND d   1      -0.435  -5.672   2.727  0.00  0.00     0.298 HD
ENDROOT
TORSDOF 0
ENDMDL
