MODEL 1
REMARK minimizedAffinity 21.9450817
REMARK minimizedRMSD -1
REMARK  0 active torsions:
REMARK  status: ('A' for Active; 'I' for Inactive)
ROOT
ATOM      1  N1  IND d   1      -4.829  -3.593  -3.647  0.00  0.00    -0.196 N 
ATOM      2  C2  IND d   1      -6.000  -3.977  -3.054  0.00  0.00     0.054 A 
ATOM      3  C3  IND d   1      -5.770  -4.953  -2.148  0.00  0.00    -0.031 A 
ATOM      4  C4  IND d   1      -3.540  -6.000  -1.401  0.00  0.00     0.051 A 
ATOM      5  C5  IND d   1      -2.203  -6.000  -1.682  0.00  0.00    -0.031 A 
ATOM      6  C6  IND d   1      -1.661  -5.179  -2.650  0.00  0.00     0.015 A 
ATOM      7  C7  IND d   1      -2.439  -4.316  -3.368  0.00  0.00    -0.016 A 
ATOM      8  C8  IND d   1      -3.798  -4.318  -3.090  0.00  0.00    -0.047 A 
ATOM      9  C9  IND d   1      -4.360  -5.179  -2.139  0.00  0.00    -0.096 A 
ATOM     10  HN1 IND d   1      -4.750  -2.999  -4.263  0.00  0.00     0.298 HD
ENDROOT
TORSDOF 0
ENDMDL
