MODEL 1
REMARK minimizedAffinity 21.061573
REMARK minimizedRMSD -1
REMARK  0 active torsions:
REMARK  status: ('A' for Active; 'I' for Inactive)
ROOT
ATOM      1  N1  IND d   1      -2.215  -1.667  -2.554  0.00  0.00    -0.196 N 
ATOM      2  C2  IND d   1      -2.579  -2.639  -1.664  0.00  0.00     0.054 A 
ATOM      3  C3  IND d   1      -2.545  -3.854  -2.256  0.00  0.00    -0.031 A 
ATOM      4  C4  IND d   1      -1.824  -4.491  -4.644  0.00  0.00     0.051 A 
ATOM      5  C5  IND d   1      -1.443  -3.943  -5.836  0.00  0.00    -0.031 A 
ATOM      6  C6  IND d   1      -1.294  -2.581  -5.998  0.00  0.00     0.015 A 
ATOM      7  C7  IND d   1      -1.511  -1.713  -4.965  0.00  0.00    -0.016 A 
ATOM      8  C8  IND d   1      -1.905  -2.266  -3.755  0.00  0.00    -0.047 A 
ATOM      9  C9  IND d   1      -2.098  -3.644  -3.597  0.00  0.00    -0.096 A 
ATOM     10  HN1 IND d   1      -2.184  -0.823  -2.390  0.00  0.00     0.298 HD
ENDROOT
TORSDOF 0
ENDMDL
