MODEL 1
REMARK minimizedAffinity 13.31217
REMARK minimizedRMSD -1
REMARK  0 active torsions:
REMARK  status: ('A' for Active; 'I' for Inactive)
ROOT
ATOM      1  N1  IND d   1      -1.816  -1.904  -1.937  0.00  0.00    -0.196 N 
ATOM      2  C2  IND d   1      -3.000  -2.250  -2.527  0.00  0.00     0.054 A 
ATOM      3  C3  IND d   1      -3.744  -3.000  -1.683  0.00  0.00    -0.031 A 
ATOM      4  C4  IND d   1      -3.259  -3.694   0.748  0.00  0.00     0.051 A 
ATOM      5  C5  IND d   1      -2.289  -3.647   1.709  0.00  0.00    -0.031 A 
ATOM      6  C6  IND d   1      -1.087  -3.000   1.500  0.00  0.00     0.015 A 
ATOM      7  C7  IND d   1      -0.816  -2.365   0.321  0.00  0.00    -0.016 A 
ATOM      8  C8  IND d   1      -1.797  -2.417  -0.659  0.00  0.00    -0.047 A 
ATOM      9  C9  IND d   1      -3.000  -3.108  -0.468  0.00  0.00    -0.096 A 
ATOM     10  HN1 IND d   1      -1.189  -1.443  -2.303  0.00  0.00     0.298 HD
ENDROOT
TORSDOF 0
ENDMDL
