MODEL 1
REMARK minimizedAffinity 3.32188988
REMARK minimizedRMSD -1
REMARK  0 active torsions:
REMARK  status: ('A' for Active; 'I' for Inactive)
ROOT
ATOM      1  N1  IND d   1      -3.431  -3.980  -1.989  0.00  0.00    -0.196 N 
ATOM      2  C2  IND d   1      -2.925  -2.798  -2.456  0.00  0.00     0.054 A 
ATOM      3  C3  IND d   1      -2.164  -2.205  -1.509  0.00  0.00    -0.031 A 
ATOM      4  C4  IND d   1      -1.530  -3.044   0.841  0.00  0.00     0.051 A 
ATOM      5  C5  IND d   1      -1.779  -4.053   1.728  0.00  0.00    -0.031 A 
ATOM      6  C6  IND d   1      -2.607  -5.112   1.415  0.00  0.00     0.015 A 
ATOM      7  C7  IND d   1      -3.209  -5.207   0.192  0.00  0.00    -0.016 A 
ATOM      8  C8  IND d   1      -2.964  -4.181  -0.709  0.00  0.00    -0.047 A 
ATOM      9  C9  IND d   1      -2.159  -3.082  -0.381  0.00  0.00    -0.096 A 
ATOM     10  HN1 IND d   1      -3.953  -4.508  -2.422  0.00  0.00     0.298 HD
ENDROOT
TORSDOF 0
ENDMDL
