MODEL 1
REMARK minimizedAffinity 9.38401127
REMARK minimizedRMSD -1
REMARK  0 active torsions:
REMARK  status: ('A' for Active; 'I' for Inactive)
ROOT
ATOM      1  N1  IND d   1       3.111  -0.216   2.505  0.00  0.00    -0.196 N 
ATOM      2  C2  IND d   1       1.916   0.347   2.857  0.00  0.00     0.054 A 
ATOM      3  C3  IND d   1       1.425   1.085   1.836  0.00  0.00    -0.031 A 
ATOM      4  C4  IND d   1       2.365   1.425  -0.536  0.00  0.00     0.051 A 
ATOM      5  C5  IND d   1       3.451   1.140  -1.316  0.00  0.00    -0.031 A 
ATOM      6  C6  IND d   1       4.499   0.370  -0.853  0.00  0.00     0.015 A 
ATOM      7  C7  IND d   1       4.495  -0.154   0.409  0.00  0.00    -0.016 A 
ATOM      8  C8  IND d   1       3.397   0.139   1.205  0.00  0.00    -0.047 A 
ATOM      9  C9  IND d   1       2.350   0.954   0.756  0.00  0.00    -0.096 A 
ATOM     10  HN1 IND d   1       3.601  -0.709   3.011  0.00  0.00     0.298 HD
ENDROOT
TORSDOF 0
ENDMDL
