MODEL 1
REMARK minimizedAffinity 3.23972583
REMARK minimizedRMSD -1
REMARK  0 active torsions:
REMARK  status: ('A' for Active; 'I' for Inactive)
ROOT
ATOM      1  N1  IND d   1       3.235  -0.245   0.721  0.00  0.00    -0.196 N 
ATOM      2  C2  IND d   1       3.723   0.362  -0.402  0.00  0.00     0.054 A 
ATOM      3  C3  IND d   1       2.982   1.450  -0.709  0.00  0.00    -0.031 A 
ATOM      4  C4  IND d   1       0.986   2.478   0.552  0.00  0.00     0.051 A 
ATOM      5  C5  IND d   1       0.153   2.257   1.613  0.00  0.00    -0.031 A 
ATOM      6  C6  IND d   1       0.310   1.171   2.449  0.00  0.00     0.015 A 
ATOM      7  C7  IND d   1       1.317   0.267   2.262  0.00  0.00    -0.016 A 
ATOM      8  C8  IND d   1       2.160   0.484   1.181  0.00  0.00    -0.047 A 
ATOM      9  C9  IND d   1       1.980   1.561   0.304  0.00  0.00    -0.096 A 
ATOM     10  HN1 IND d   1       3.547  -0.961   1.080  0.00  0.00     0.298 HD
ENDROOT
TORSDOF 0
ENDMDL
