MODEL 1
REMARK minimizedAffinity 3.70363259
REMARK minimizedRMSD -1
REMARK  0 active torsions:
REMARK  status: ('A' for Active; 'I' for Inactive)
ROOT
ATOM      1  N1  IND d   1       4.871  -0.465   0.157  0.00  0.00    -0.196 N 
ATOM      2  C2  IND d   1       4.515   0.053  -1.057  0.00  0.00     0.054 A 
ATOM      3  C3  IND d   1       3.354   0.739  -0.954  0.00  0.00    -0.031 A 
ATOM      4  C4  IND d   1       1.922   1.225   1.130  0.00  0.00     0.051 A 
ATOM      5  C5  IND d   1       1.822   0.931   2.461  0.00  0.00    -0.031 A 
ATOM      6  C6  IND d   1       2.754   0.143   3.105  0.00  0.00     0.015 A 
ATOM      7  C7  IND d   1       3.831  -0.373   2.442  0.00  0.00    -0.016 A 
ATOM      8  C8  IND d   1       3.932  -0.083   1.089  0.00  0.00    -0.047 A 
ATOM      9  C9  IND d   1       2.967   0.681   0.420  0.00  0.00    -0.096 A 
ATOM     10  HN1 IND d   1       5.565  -0.948   0.312  0.00  0.00     0.298 HD
ENDROOT
TORSDOF 0
ENDMDL
