MODEL 1
REMARK minimizedAffinity 16.6613846
REMARK minimizedRMSD -1
REMARK  0 active torsions:
REMARK  status: ('A' for Active; 'I' for Inactive)
ROOT
ATOM      1  N1  IND d   1       2.070   4.332  -4.505  0.00  0.00    -0.196 N 
ATOM      2  C2  IND d   1       1.425   5.205  -5.336  0.00  0.00     0.054 A 
ATOM      3  C3  IND d   1       2.320   5.974  -5.997  0.00  0.00    -0.031 A 
ATOM      4  C4  IND d   1       4.893   5.900  -5.945  0.00  0.00     0.051 A 
ATOM      5  C5  IND d   1       5.940   5.294  -5.310  0.00  0.00    -0.031 A 
ATOM      6  C6  IND d   1       5.747   4.315  -4.356  0.00  0.00     0.015 A 
ATOM      7  C7  IND d   1       4.494   3.895  -4.010  0.00  0.00    -0.016 A 
ATOM      8  C8  IND d   1       3.428   4.513  -4.648  0.00  0.00    -0.047 A 
ATOM      9  C9  IND d   1       3.616   5.537  -5.585  0.00  0.00    -0.096 A 
ATOM     10  HN1 IND d   1       1.691   3.765  -3.982  0.00  0.00     0.298 HD
ENDROOT
TORSDOF 0
ENDMDL
