MODEL 1
REMARK minimizedAffinity 12.2509451
REMARK minimizedRMSD -1
REMARK  0 active torsions:
REMARK  status: ('A' for Active; 'I' for Inactive)
ROOT
ATOM      1  N1  IND d   1      -0.930  -4.079  -5.001  0.00  0.00    -0.196 N 
ATOM      2  C2  IND d   1      -0.498  -5.291  -4.541  0.00  0.00     0.054 A 
ATOM      3  C3  IND d   1      -0.919  -5.490  -3.272  0.00  0.00    -0.031 A 
ATOM      4  C4  IND d   1      -2.415  -4.005  -1.794  0.00  0.00     0.051 A 
ATOM      5  C5  IND d   1      -3.028  -2.784  -1.765  0.00  0.00    -0.031 A 
ATOM      6  C6  IND d   1      -2.975  -1.916  -2.836  0.00  0.00     0.015 A 
ATOM      7  C7  IND d   1      -2.312  -2.242  -3.985  0.00  0.00    -0.016 A 
ATOM      8  C8  IND d   1      -1.683  -3.479  -4.016  0.00  0.00    -0.047 A 
ATOM      9  C9  IND d   1      -1.698  -4.346  -2.916  0.00  0.00    -0.096 A 
ATOM     10  HN1 IND d   1      -0.761  -3.747  -5.776  0.00  0.00     0.298 HD
ENDROOT
TORSDOF 0
ENDMDL
