MODEL 1
REMARK minimizedAffinity 4.360816
REMARK minimizedRMSD -1
REMARK  0 active torsions:
REMARK  status: ('A' for Active; 'I' for Inactive)
ROOT
ATOM      1  N1  IND d   1       1.963   0.140   1.638  0.00  0.00    -0.196 N 
ATOM      2  C2  IND d   1       2.903   1.057   1.257  0.00  0.00     0.054 A 
ATOM      3  C3  IND d   1       2.340   2.278   1.117  0.00  0.00    -0.031 A 
ATOM      4  C4  IND d   1      -0.085   3.021   1.559  0.00  0.00     0.051 A 
ATOM      5  C5  IND d   1      -1.319   2.532   1.886  0.00  0.00    -0.031 A 
ATOM      6  C6  IND d   1      -1.525   1.195   2.156  0.00  0.00     0.015 A 
ATOM      7  C7  IND d   1      -0.499   0.294   2.119  0.00  0.00    -0.016 A 
ATOM      8  C8  IND d   1       0.754   0.785   1.780  0.00  0.00    -0.047 A 
ATOM      9  C9  IND d   1       0.961   2.134   1.463  0.00  0.00    -0.096 A 
ATOM     10  HN1 IND d   1       2.103  -0.699   1.767  0.00  0.00     0.298 HD
ENDROOT
TORSDOF 0
ENDMDL
