MODEL 1
REMARK minimizedAffinity 3.14256239
REMARK minimizedRMSD -1
REMARK  0 active torsions:
REMARK  status: ('A' for Active; 'I' for Inactive)
ROOT
ATOM      1  N1  IND d   1      -4.033   3.310   5.021  0.00  0.00    -0.196 N 
ATOM      2  C2  IND d   1      -5.074   2.576   5.516  0.00  0.00     0.054 A 
ATOM      3  C3  IND d   1      -5.040   1.318   5.021  0.00  0.00    -0.031 A 
ATOM      4  C4  IND d   1      -3.309   0.218   3.466  0.00  0.00     0.051 A 
ATOM      5  C5  IND d   1      -2.198   0.499   2.721  0.00  0.00    -0.031 A 
ATOM      6  C6  IND d   1      -1.628   1.756   2.707  0.00  0.00     0.015 A 
ATOM      7  C7  IND d   1      -2.145   2.780   3.449  0.00  0.00    -0.016 A 
ATOM      8  C8  IND d   1      -3.277   2.501   4.201  0.00  0.00    -0.047 A 
ATOM      9  C9  IND d   1      -3.884   1.238   4.186  0.00  0.00    -0.096 A 
ATOM     10  HN1 IND d   1      -3.876   4.137   5.193  0.00  0.00     0.298 HD
ENDROOT
TORSDOF 0
ENDMDL
