MODEL 1
REMARK minimizedAffinity 10.5050678
REMARK minimizedRMSD -1
REMARK  0 active torsions:
REMARK  status: ('A' for Active; 'I' for Inactive)
ROOT
ATOM      1  N1  IND d   1       1.096   2.143   2.479  0.00  0.00    -0.196 N 
ATOM      2  C2  IND d   1      -0.227   1.811   2.385  0.00  0.00     0.054 A 
ATOM      3  C3  IND d   1      -0.433   0.995   1.326  0.00  0.00    -0.031 A 
ATOM      4  C4  IND d   1       1.270  -0.003  -0.325  0.00  0.00     0.051 A 
ATOM      5  C5  IND d   1       2.593   0.039  -0.665  0.00  0.00    -0.031 A 
ATOM      6  C6  IND d   1       3.504   0.798   0.041  0.00  0.00     0.015 A 
ATOM      7  C7  IND d   1       3.125   1.538   1.126  0.00  0.00    -0.016 A 
ATOM      8  C8  IND d   1       1.781   1.503   1.470  0.00  0.00    -0.047 A 
ATOM      9  C9  IND d   1       0.845   0.768   0.731  0.00  0.00    -0.096 A 
ATOM     10  HN1 IND d   1       1.441   2.664   3.069  0.00  0.00     0.298 HD
ENDROOT
TORSDOF 0
ENDMDL
