MODEL 1
REMARK minimizedAffinity 3.77885127
REMARK minimizedRMSD -1
REMARK  1 active torsions:
REMARK  status: ('A' for Active; 'I' for Inactive)
REMARK    1  A    between atoms: C1_2  and  C2_3 
ROOT
ATOM      1  C2  UNL d   1       0.155  -0.077   1.057  0.00  0.00    -0.077 A 
ATOM      2  C3  UNL d   1      -0.799   0.463   0.184  0.00  0.00     0.002 A 
ATOM      3  C4  UNL d   1      -2.066   0.815   0.652  0.00  0.00     0.002 A 
ATOM      4  C5  UNL d   1      -2.390   0.633   1.995  0.00  0.00    -0.004 A 
ATOM      5  C6  UNL d   1      -1.448   0.094   2.871  0.00  0.00     0.002 A 
ATOM      6  C7  UNL d   1      -0.181  -0.258   2.405  0.00  0.00     0.002 A 
ENDROOT
BRANCH   1   7
ATOM      7  C1  UNL d   1       1.539  -0.411   0.564  0.00  0.00     0.055 C 
ATOM      8  C   UNL d   1       2.218   0.807  -0.046  0.00  0.00     0.019 C 
ENDBRANCH   1   7
TORSDOF 1
ENDMDL
