MODEL 1
REMARK minimizedAffinity 0.552492142
REMARK minimizedRMSD -1
REMARK  1 active torsions:
REMARK  status: ('A' for Active; 'I' for Inactive)
REMARK    1  A    between atoms: C1_2  and  C2_3 
ROOT
ATOM      1  C2  UNL d   1      -1.088  -0.257   2.296  0.00  0.00    -0.077 A 
ATOM      2  C3  UNL d   1      -2.074  -0.235   1.300  0.00  0.00     0.002 A 
ATOM      3  C4  UNL d   1      -1.731   0.036  -0.026  0.00  0.00     0.002 A 
ATOM      4  C5  UNL d   1      -0.404   0.283  -0.369  0.00  0.00    -0.004 A 
ATOM      5  C6  UNL d   1       0.584   0.266   0.616  0.00  0.00     0.002 A 
ATOM      6  C7  UNL d   1       0.244  -0.004   1.942  0.00  0.00     0.002 A 
ENDROOT
BRANCH   1   7
ATOM      7  C1  UNL d   1      -1.447  -0.597   3.719  0.00  0.00     0.055 C 
ATOM      8  C   UNL d   1      -2.477  -1.716   3.777  0.00  0.00     0.019 C 
ENDBRANCH   1   7
TORSDOF 1
ENDMDL
