MODEL 1
REMARK minimizedAffinity 4.79615784
REMARK minimizedRMSD -1
REMARK  1 active torsions:
REMARK  status: ('A' for Active; 'I' for Inactive)
REMARK    1  A    between atoms: C1_2  and  C2_3 
ROOT
ATOM      1  C2  UNL d   1      -2.227   0.179   2.431  0.00  0.00    -0.077 A 
ATOM      2  C3  UNL d   1      -1.075  -0.102   3.179  0.00  0.00     0.002 A 
ATOM      3  C4  UNL d   1      -1.067  -1.157   4.093  0.00  0.00     0.002 A 
ATOM      4  C5  UNL d   1      -2.206  -1.941   4.265  0.00  0.00    -0.004 A 
ATOM      5  C6  UNL d   1      -3.357  -1.668   3.528  0.00  0.00     0.002 A 
ATOM      6  C7  UNL d   1      -3.367  -0.613   2.614  0.00  0.00     0.002 A 
ENDROOT
BRANCH   1   7
ATOM      7  C1  UNL d   1      -2.222   1.285   1.408  0.00  0.00     0.055 C 
ATOM      8  C   UNL d   1      -2.326   0.732  -0.006  0.00  0.00     0.019 C 
ENDBRANCH   1   7
TORSDOF 1
ENDMDL
