MODEL 1
REMARK minimizedAffinity 1.51119375
REMARK minimizedRMSD -1
REMARK  1 active torsions:
REMARK  status: ('A' for Active; 'I' for Inactive)
REMARK    1  A    between atoms: C1_2  and  C2_3 
ROOT
ATOM      1  C2  UNL d   1      -0.243  -0.735   2.443  0.00  0.00    -0.077 A 
ATOM      2  C3  UNL d   1       0.083  -0.682   1.081  0.00  0.00     0.002 A 
ATOM      3  C4  UNL d   1      -0.880  -0.321   0.137  0.00  0.00     0.002 A 
ATOM      4  C5  UNL d   1      -2.174  -0.005   0.546  0.00  0.00    -0.004 A 
ATOM      5  C6  UNL d   1      -2.509  -0.056   1.899  0.00  0.00     0.002 A 
ATOM      6  C7  UNL d   1      -1.548  -0.419   2.843  0.00  0.00     0.002 A 
ENDROOT
BRANCH   1   7
ATOM      7  C1  UNL d   1       0.808  -1.077   3.467  0.00  0.00     0.055 C 
ATOM      8  C   UNL d   1       0.181  -1.613   4.746  0.00  0.00     0.019 C 
ENDBRANCH   1   7
TORSDOF 1
ENDMDL
