MODEL 1
REMARK minimizedAffinity 3.50217843
REMARK minimizedRMSD -1
REMARK  1 active torsions:
REMARK  status: ('A' for Active; 'I' for Inactive)
REMARK    1  A    between atoms: C1_2  and  C2_3 
ROOT
ATOM      1  C2  UNL d   1      -1.387  -0.332   2.229  0.00  0.00    -0.077 A 
ATOM      2  C3  UNL d   1      -2.554  -0.345   1.453  0.00  0.00     0.002 A 
ATOM      3  C4  UNL d   1      -2.476  -0.380   0.059  0.00  0.00     0.002 A 
ATOM      4  C5  UNL d   1      -1.233  -0.407  -0.570  0.00  0.00    -0.004 A 
ATOM      5  C6  UNL d   1      -0.066  -0.393   0.193  0.00  0.00     0.002 A 
ATOM      6  C7  UNL d   1      -0.142  -0.356   1.586  0.00  0.00     0.002 A 
ENDROOT
BRANCH   1   7
ATOM      7  C1  UNL d   1      -1.469  -0.344   3.733  0.00  0.00     0.055 C 
ATOM      8  C   UNL d   1      -0.486  -1.338   4.333  0.00  0.00     0.019 C 
ENDBRANCH   1   7
TORSDOF 1
ENDMDL
