MODEL 1
REMARK minimizedAffinity 6.79115486
REMARK minimizedRMSD -1
REMARK  1 active torsions:
REMARK  status: ('A' for Active; 'I' for Inactive)
REMARK    1  A    between atoms: C1_2  and  C2_3 
ROOT
ATOM      1  C2  UNL d   1       0.209   0.047   0.776  0.00  0.00    -0.077 A 
ATOM      2  C3  UNL d   1      -0.983   0.645   1.207  0.00  0.00     0.002 A 
ATOM      3  C4  UNL d   1      -2.185   0.379   0.548  0.00  0.00     0.002 A 
ATOM      4  C5  UNL d   1      -2.207  -0.488  -0.543  0.00  0.00    -0.004 A 
ATOM      5  C6  UNL d   1      -1.026  -1.086  -0.980  0.00  0.00     0.002 A 
ATOM      6  C7  UNL d   1       0.177  -0.820  -0.324  0.00  0.00     0.002 A 
ENDROOT
BRANCH   1   7
ATOM      7  C1  UNL d   1       1.498   0.294   1.516  0.00  0.00     0.055 C 
ATOM      8  C   UNL d   1       2.039   1.689   1.235  0.00  0.00     0.019 C 
ENDBRANCH   1   7
TORSDOF 1
ENDMDL
