MODEL 1
REMARK minimizedAffinity 2.1139214
REMARK minimizedRMSD -1
REMARK  3 active torsions:
REMARK  status: ('A' for Active; 'I' for Inactive)
REMARK    1  A    between atoms: C3'_2  and  C2'_3 
REMARK    2  A    between atoms: C2'_3  and  C1'_4 
REMARK    3  A    between atoms: C1'_4  and  C1_5 
ROOT
ATOM      1  C1  N4B d   1      -3.148   2.348  -5.976  0.00  0.00    -0.075 A 
ATOM      2  C2  N4B d   1      -4.543   2.568  -5.999  0.00  0.00     0.002 A 
ATOM      3  C3  N4B d   1      -5.036   3.849  -5.995  0.00  0.00     0.002 A 
ATOM      4  C4  N4B d   1      -4.158   4.922  -5.950  0.00  0.00    -0.004 A 
ATOM      5  C5  N4B d   1      -2.812   4.702  -5.953  0.00  0.00     0.002 A 
ATOM      6  C6  N4B d   1      -2.302   3.419  -5.961  0.00  0.00     0.002 A 
ENDROOT
BRANCH   1   7
ATOM      7  C1' N4B d   1      -2.564   0.964  -5.892  0.00  0.00     0.057 C 
BRANCH   7   8
ATOM      8  C2' N4B d   1      -3.516   0.065  -5.110  0.00  0.00     0.009 C 
BRANCH   8   9
ATOM      9  C3' N4B d   1      -4.953   0.216  -5.579  0.00  0.00     0.004 C 
ATOM     10  C4' N4B d   1      -5.567  -1.087  -5.998  0.00  0.00     0.003 C 
ENDBRANCH   8   9
ENDBRANCH   7   8
ENDBRANCH   1   7
TORSDOF 3
ENDMDL
