MODEL 1
REMARK minimizedAffinity -0.892123103
REMARK minimizedRMSD -1
REMARK  3 active torsions:
REMARK  status: ('A' for Active; 'I' for Inactive)
REMARK    1  A    between atoms: C3'_2  and  C2'_3 
REMARK    2  A    between atoms: C2'_3  and  C1'_4 
REMARK    3  A    between atoms: C1'_4  and  C1_5 
ROOT
ATOM      1  C1  N4B d   1      -3.215   2.013  -5.898  0.00  0.00    -0.075 A 
ATOM      2  C2  N4B d   1      -2.457   3.204  -5.878  0.00  0.00     0.002 A 
ATOM      3  C3  N4B d   1      -3.091   4.422  -5.908  0.00  0.00     0.002 A 
ATOM      4  C4  N4B d   1      -4.475   4.473  -5.978  0.00  0.00    -0.004 A 
ATOM      5  C5  N4B d   1      -5.201   3.318  -5.971  0.00  0.00     0.002 A 
ATOM      6  C6  N4B d   1      -4.578   2.087  -5.937  0.00  0.00     0.002 A 
ENDROOT
BRANCH   1   7
ATOM      7  C1' N4B d   1      -2.564   0.657  -5.953  0.00  0.00     0.057 C 
BRANCH   7   8
ATOM      8  C2' N4B d   1      -3.387  -0.327  -5.128  0.00  0.00     0.009 C 
BRANCH   8   9
ATOM      9  C3' N4B d   1      -3.965  -1.442  -5.983  0.00  0.00     0.004 C 
ATOM     10  C4' N4B d   1      -3.283  -2.758  -5.759  0.00  0.00     0.003 C 
ENDBRANCH   8   9
ENDBRANCH   7   8
ENDBRANCH   1   7
TORSDOF 3
ENDMDL
