MODEL 1
REMARK minimizedAffinity 0.74248296
REMARK minimizedRMSD -1
REMARK  3 active torsions:
REMARK  status: ('A' for Active; 'I' for Inactive)
REMARK    1  A    between atoms: C3'_2  and  C2'_3 
REMARK    2  A    between atoms: C2'_3  and  C1'_4 
REMARK    3  A    between atoms: C1'_4  and  C1_5 
ROOT
ATOM      1  C1  N4B d   1      -3.453   1.550  -5.961  0.00  0.00    -0.075 A 
ATOM      2  C2  N4B d   1      -4.850   1.753  -5.978  0.00  0.00     0.002 A 
ATOM      3  C3  N4B d   1      -5.358   3.029  -5.998  0.00  0.00     0.002 A 
ATOM      4  C4  N4B d   1      -4.492   4.112  -5.982  0.00  0.00    -0.004 A 
ATOM      5  C5  N4B d   1      -3.144   3.907  -5.992  0.00  0.00     0.002 A 
ATOM      6  C6  N4B d   1      -2.619   2.630  -5.976  0.00  0.00     0.002 A 
ENDROOT
BRANCH   1   7
ATOM      7  C1' N4B d   1      -2.852   0.175  -5.852  0.00  0.00     0.057 C 
BRANCH   7   8
ATOM      8  C2' N4B d   1      -1.521   0.268  -5.113  0.00  0.00     0.009 C 
BRANCH   8   9
ATOM      9  C3' N4B d   1      -1.354  -0.853  -4.101  0.00  0.00     0.004 C 
ATOM     10  C4' N4B d   1       0.045  -0.950  -3.567  0.00  0.00     0.003 C 
ENDBRANCH   8   9
ENDBRANCH   7   8
ENDBRANCH   1   7
TORSDOF 3
ENDMDL
