MODEL 1
REMARK minimizedAffinity 11.7333908
REMARK minimizedRMSD -1
REMARK  3 active torsions:
REMARK  status: ('A' for Active; 'I' for Inactive)
REMARK    1  A    between atoms: C3'_2  and  C2'_3 
REMARK    2  A    between atoms: C2'_3  and  C1'_4 
REMARK    3  A    between atoms: C1'_4  and  C1_5 
ROOT
ATOM      1  C1  N4B d   1      -2.412  -4.170  -4.350  0.00  0.00    -0.075 A 
ATOM      2  C2  N4B d   1      -2.534  -5.288  -5.205  0.00  0.00     0.002 A 
ATOM      3  C3  N4B d   1      -3.648  -5.428  -5.996  0.00  0.00     0.002 A 
ATOM      4  C4  N4B d   1      -4.656  -4.477  -5.937  0.00  0.00    -0.004 A 
ATOM      5  C5  N4B d   1      -4.518  -3.388  -5.127  0.00  0.00     0.002 A 
ATOM      6  C6  N4B d   1      -3.403  -3.232  -4.329  0.00  0.00     0.002 A 
ENDROOT
BRANCH   1   7
ATOM      7  C1' N4B d   1      -1.253  -4.018  -3.403  0.00  0.00     0.057 C 
BRANCH   7   8
ATOM      8  C2' N4B d   1      -1.694  -3.188  -2.201  0.00  0.00     0.009 C 
BRANCH   8   9
ATOM      9  C3' N4B d   1      -1.529  -3.946  -0.895  0.00  0.00     0.004 C 
ATOM     10  C4' N4B d   1      -1.898  -3.124   0.304  0.00  0.00     0.003 C 
ENDBRANCH   8   9
ENDBRANCH   7   8
ENDBRANCH   1   7
TORSDOF 3
ENDMDL
