MODEL 1
REMARK minimizedAffinity 0.729829967
REMARK minimizedRMSD -1
REMARK  3 active torsions:
REMARK  status: ('A' for Active; 'I' for Inactive)
REMARK    1  A    between atoms: C3'_2  and  C2'_3 
REMARK    2  A    between atoms: C2'_3  and  C1'_4 
REMARK    3  A    between atoms: C1'_4  and  C1_5 
ROOT
ATOM      1  C1  N4B d   1      -3.414   0.525  -5.913  0.00  0.00    -0.075 A 
ATOM      2  C2  N4B d   1      -3.084  -0.848  -5.893  0.00  0.00     0.002 A 
ATOM      3  C3  N4B d   1      -4.080  -1.793  -5.922  0.00  0.00     0.002 A 
ATOM      4  C4  N4B d   1      -5.407  -1.391  -5.951  0.00  0.00    -0.004 A 
ATOM      5  C5  N4B d   1      -5.716  -0.063  -5.995  0.00  0.00     0.002 A 
ATOM      6  C6  N4B d   1      -4.725   0.898  -5.971  0.00  0.00     0.002 A 
ENDROOT
BRANCH   1   7
ATOM      7  C1' N4B d   1      -2.363   1.595  -5.796  0.00  0.00     0.057 C 
BRANCH   7   8
ATOM      8  C2' N4B d   1      -3.025   2.963  -5.929  0.00  0.00     0.009 C 
BRANCH   8   9
ATOM      9  C3' N4B d   1      -2.003   4.087  -5.967  0.00  0.00     0.004 C 
ATOM     10  C4' N4B d   1      -2.636   5.447  -5.997  0.00  0.00     0.003 C 
ENDBRANCH   8   9
ENDBRANCH   7   8
ENDBRANCH   1   7
TORSDOF 3
ENDMDL
