MODEL 1
REMARK minimizedAffinity -1.64544332
REMARK minimizedRMSD -1
REMARK  3 active torsions:
REMARK  status: ('A' for Active; 'I' for Inactive)
REMARK    1  A    between atoms: C3'_2  and  C2'_3 
REMARK    2  A    between atoms: C2'_3  and  C1'_4 
REMARK    3  A    between atoms: C1'_4  and  C1_5 
ROOT
ATOM      1  C1  N4B d   1      -4.022   1.509  -5.899  0.00  0.00    -0.075 A 
ATOM      2  C2  N4B d   1      -5.247   0.807  -5.882  0.00  0.00     0.002 A 
ATOM      3  C3  N4B d   1      -5.253  -0.566  -5.918  0.00  0.00     0.002 A 
ATOM      4  C4  N4B d   1      -4.052  -1.255  -5.989  0.00  0.00    -0.004 A 
ATOM      5  C5  N4B d   1      -2.872  -0.571  -5.979  0.00  0.00     0.002 A 
ATOM      6  C6  N4B d   1      -2.851   0.809  -5.940  0.00  0.00     0.002 A 
ENDROOT
BRANCH   1   7
ATOM      7  C1' N4B d   1      -3.967   3.011  -5.948  0.00  0.00     0.057 C 
BRANCH   7   8
ATOM      8  C2' N4B d   1      -2.660   3.486  -5.320  0.00  0.00     0.009 C 
BRANCH   8   9
ATOM      9  C3' N4B d   1      -2.174   4.787  -5.935  0.00  0.00     0.004 C 
ATOM     10  C4' N4B d   1      -3.244   5.835  -5.998  0.00  0.00     0.003 C 
ENDBRANCH   8   9
ENDBRANCH   7   8
ENDBRANCH   1   7
TORSDOF 3
ENDMDL
