MODEL 1
REMARK minimizedAffinity -2.88045287
REMARK minimizedRMSD -1
REMARK  3 active torsions:
REMARK  status: ('A' for Active; 'I' for Inactive)
REMARK    1  A    between atoms: C3'_2  and  C2'_3 
REMARK    2  A    between atoms: C2'_3  and  C1'_4 
REMARK    3  A    between atoms: C1'_4  and  C1_5 
ROOT
ATOM      1  C1  N4B d   1      -2.635  -2.108  -5.744  0.00  0.00    -0.075 A 
ATOM      2  C2  N4B d   1      -4.007  -2.402  -5.913  0.00  0.00     0.002 A 
ATOM      3  C3  N4B d   1      -4.424  -3.707  -5.997  0.00  0.00     0.002 A 
ATOM      4  C4  N4B d   1      -3.490  -4.731  -5.935  0.00  0.00    -0.004 A 
ATOM      5  C5  N4B d   1      -2.171  -4.440  -5.747  0.00  0.00     0.002 A 
ATOM      6  C6  N4B d   1      -1.738  -3.132  -5.656  0.00  0.00     0.002 A 
ENDROOT
BRANCH   1   7
ATOM      7  C1' N4B d   1      -2.122  -0.694  -5.733  0.00  0.00     0.057 C 
BRANCH   7   8
ATOM      8  C2' N4B d   1      -3.281   0.262  -5.999  0.00  0.00     0.009 C 
BRANCH   8   9
ATOM      9  C3' N4B d   1      -2.838   1.715  -5.963  0.00  0.00     0.004 C 
ATOM     10  C4' N4B d   1      -3.992   2.673  -5.943  0.00  0.00     0.003 C 
ENDBRANCH   8   9
ENDBRANCH   7   8
ENDBRANCH   1   7
TORSDOF 3
ENDMDL
