MODEL 1
REMARK minimizedAffinity -2.51239395
REMARK minimizedRMSD -1
REMARK  3 active torsions:
REMARK  status: ('A' for Active; 'I' for Inactive)
REMARK    1  A    between atoms: C3'_2  and  C2'_3 
REMARK    2  A    between atoms: C2'_3  and  C1'_4 
REMARK    3  A    between atoms: C1'_4  and  C1_5 
ROOT
ATOM      1  C1  N4B d   1      -4.843   1.032  -5.906  0.00  0.00    -0.075 A 
ATOM      2  C2  N4B d   1      -3.504   0.593  -5.999  0.00  0.00     0.002 A 
ATOM      3  C3  N4B d   1      -2.480   1.508  -5.994  0.00  0.00     0.002 A 
ATOM      4  C4  N4B d   1      -2.770   2.862  -5.917  0.00  0.00    -0.004 A 
ATOM      5  C5  N4B d   1      -4.065   3.276  -5.802  0.00  0.00     0.002 A 
ATOM      6  C6  N4B d   1      -5.104   2.367  -5.801  0.00  0.00     0.002 A 
ENDROOT
BRANCH   1   7
ATOM      7  C1' N4B d   1      -6.000   0.074  -5.994  0.00  0.00     0.057 C 
BRANCH   7   8
ATOM      8  C2' N4B d   1      -5.697  -1.157  -5.145  0.00  0.00     0.009 C 
BRANCH   8   9
ATOM      9  C3' N4B d   1      -5.423  -2.383  -5.999  0.00  0.00     0.004 C 
ATOM     10  C4' N4B d   1      -3.983  -2.800  -5.972  0.00  0.00     0.003 C 
ENDBRANCH   8   9
ENDBRANCH   7   8
ENDBRANCH   1   7
TORSDOF 3
ENDMDL
