MODEL 1
REMARK minimizedAffinity -3.35169888
REMARK minimizedRMSD -1
REMARK  3 active torsions:
REMARK  status: ('A' for Active; 'I' for Inactive)
REMARK    1  A    between atoms: C3'_2  and  C2'_3 
REMARK    2  A    between atoms: C2'_3  and  C1'_4 
REMARK    3  A    between atoms: C1'_4  and  C1_5 
ROOT
ATOM      1  C1  N4B d   1      -4.572   1.478  -5.873  0.00  0.00    -0.075 A 
ATOM      2  C2  N4B d   1      -4.792   2.859  -5.679  0.00  0.00     0.002 A 
ATOM      3  C3  N4B d   1      -3.726   3.704  -5.489  0.00  0.00     0.002 A 
ATOM      4  C4  N4B d   1      -2.438   3.189  -5.470  0.00  0.00    -0.004 A 
ATOM      5  C5  N4B d   1      -2.233   1.858  -5.684  0.00  0.00     0.002 A 
ATOM      6  C6  N4B d   1      -3.295   0.998  -5.881  0.00  0.00     0.002 A 
ENDROOT
BRANCH   1   7
ATOM      7  C1' N4B d   1      -5.711   0.502  -5.999  0.00  0.00     0.057 C 
BRANCH   7   8
ATOM      8  C2' N4B d   1      -5.413  -0.728  -5.148  0.00  0.00     0.009 C 
BRANCH   8   9
ATOM      9  C3' N4B d   1      -5.293  -1.987  -5.990  0.00  0.00     0.004 C 
ATOM     10  C4' N4B d   1      -3.902  -2.548  -6.000  0.00  0.00     0.003 C 
ENDBRANCH   8   9
ENDBRANCH   7   8
ENDBRANCH   1   7
TORSDOF 3
ENDMDL
