MODEL 1
REMARK minimizedAffinity -2.92845583
REMARK minimizedRMSD -1
REMARK  3 active torsions:
REMARK  status: ('A' for Active; 'I' for Inactive)
REMARK    1  A    between atoms: C3'_2  and  C2'_3 
REMARK    2  A    between atoms: C2'_3  and  C1'_4 
REMARK    3  A    between atoms: C1'_4  and  C1_5 
ROOT
ATOM      1  C1  N4B d   1      -3.176   0.726  -5.662  0.00  0.00    -0.075 A 
ATOM      2  C2  N4B d   1      -4.444   1.349  -5.685  0.00  0.00     0.002 A 
ATOM      3  C3  N4B d   1      -4.555   2.690  -5.409  0.00  0.00     0.002 A 
ATOM      4  C4  N4B d   1      -3.421   3.421  -5.089  0.00  0.00    -0.004 A 
ATOM      5  C5  N4B d   1      -2.197   2.817  -5.094  0.00  0.00     0.002 A 
ATOM      6  C6  N4B d   1      -2.070   1.472  -5.374  0.00  0.00     0.002 A 
ENDROOT
BRANCH   1   7
ATOM      7  C1' N4B d   1      -3.015  -0.754  -5.873  0.00  0.00     0.057 C 
BRANCH   7   8
ATOM      8  C2' N4B d   1      -4.351  -1.445  -5.615  0.00  0.00     0.009 C 
BRANCH   8   9
ATOM      9  C3' N4B d   1      -4.313  -2.915  -5.997  0.00  0.00     0.004 C 
ATOM     10  C4' N4B d   1      -2.925  -3.483  -5.986  0.00  0.00     0.003 C 
ENDBRANCH   8   9
ENDBRANCH   7   8
ENDBRANCH   1   7
TORSDOF 3
ENDMDL
