MODEL 1
REMARK minimizedAffinity 3.44940019
REMARK minimizedRMSD -1
REMARK  3 active torsions:
REMARK  status: ('A' for Active; 'I' for Inactive)
REMARK    1  A    between atoms: C3'_2  and  C2'_3 
REMARK    2  A    between atoms: C2'_3  and  C1'_4 
REMARK    3  A    between atoms: C1'_4  and  C1_5 
ROOT
ATOM      1  C1  N4B d   1      -4.236   0.576   2.317  0.00  0.00    -0.075 A 
ATOM      2  C2  N4B d   1      -3.261   1.501   1.883  0.00  0.00     0.002 A 
ATOM      3  C3  N4B d   1      -2.825   2.488   2.732  0.00  0.00     0.002 A 
ATOM      4  C4  N4B d   1      -3.361   2.581   4.008  0.00  0.00    -0.004 A 
ATOM      5  C5  N4B d   1      -4.283   1.668   4.428  0.00  0.00     0.002 A 
ATOM      6  C6  N4B d   1      -4.728   0.668   3.587  0.00  0.00     0.002 A 
ENDROOT
BRANCH   1   7
ATOM      7  C1' N4B d   1      -4.806  -0.468   1.396  0.00  0.00     0.057 C 
BRANCH   7   8
ATOM      8  C2' N4B d   1      -3.726  -1.497   1.077  0.00  0.00     0.009 C 
BRANCH   8   9
ATOM      9  C3' N4B d   1      -4.176  -2.480   0.009  0.00  0.00     0.004 C 
ATOM     10  C4' N4B d   1      -3.030  -3.200  -0.637  0.00  0.00     0.003 C 
ENDBRANCH   8   9
ENDBRANCH   7   8
ENDBRANCH   1   7
TORSDOF 3
ENDMDL
