MODEL 1
REMARK minimizedAffinity 0.978918612
REMARK minimizedRMSD -1
REMARK  3 active torsions:
REMARK  status: ('A' for Active; 'I' for Inactive)
REMARK    1  A    between atoms: C3'_2  and  C2'_3 
REMARK    2  A    between atoms: C2'_3  and  C1'_4 
REMARK    3  A    between atoms: C1'_4  and  C1_5 
ROOT
ATOM      1  C1  N4B d   1      -5.110   0.867  -5.310  0.00  0.00    -0.075 A 
ATOM      2  C2  N4B d   1      -5.971  -0.251  -5.373  0.00  0.00     0.002 A 
ATOM      3  C3  N4B d   1      -5.458  -1.499  -5.628  0.00  0.00     0.002 A 
ATOM      4  C4  N4B d   1      -4.097  -1.650  -5.841  0.00  0.00    -0.004 A 
ATOM      5  C5  N4B d   1      -3.269  -0.570  -5.754  0.00  0.00     0.002 A 
ATOM      6  C6  N4B d   1      -3.770   0.690  -5.495  0.00  0.00     0.002 A 
ENDROOT
BRANCH   1   7
ATOM      7  C1' N4B d   1      -5.635   2.264  -5.120  0.00  0.00     0.057 C 
BRANCH   7   8
ATOM      8  C2' N4B d   1      -4.752   3.240  -5.890  0.00  0.00     0.009 C 
BRANCH   8   9
ATOM      9  C3' N4B d   1      -3.403   3.438  -5.219  0.00  0.00     0.004 C 
ATOM     10  C4' N4B d   1      -2.272   2.837  -6.000  0.00  0.00     0.003 C 
ENDBRANCH   8   9
ENDBRANCH   7   8
ENDBRANCH   1   7
TORSDOF 3
ENDMDL
