MODEL 1
REMARK minimizedAffinity 3.89502406
REMARK minimizedRMSD -1
REMARK  3 active torsions:
REMARK  status: ('A' for Active; 'I' for Inactive)
REMARK    1  A    between atoms: C3'_2  and  C2'_3 
REMARK    2  A    between atoms: C2'_3  and  C1'_4 
REMARK    3  A    between atoms: C1'_4  and  C1_5 
ROOT
ATOM      1  C1  N4B d   1      -4.168   1.356  -5.757  0.00  0.00    -0.075 A 
ATOM      2  C2  N4B d   1      -5.291   0.517  -5.927  0.00  0.00     0.002 A 
ATOM      3  C3  N4B d   1      -5.142  -0.847  -5.881  0.00  0.00     0.002 A 
ATOM      4  C4  N4B d   1      -3.882  -1.393  -5.686  0.00  0.00    -0.004 A 
ATOM      5  C5  N4B d   1      -2.806  -0.575  -5.498  0.00  0.00     0.002 A 
ATOM      6  C6  N4B d   1      -2.942   0.798  -5.538  0.00  0.00     0.002 A 
ENDROOT
BRANCH   1   7
ATOM      7  C1' N4B d   1      -4.267   2.852  -5.885  0.00  0.00     0.057 C 
BRANCH   7   8
ATOM      8  C2' N4B d   1      -5.736   3.248  -6.000  0.00  0.00     0.009 C 
BRANCH   8   9
ATOM      9  C3' N4B d   1      -5.926   4.754  -5.932  0.00  0.00     0.004 C 
ATOM     10  C4' N4B d   1      -4.629   5.505  -5.971  0.00  0.00     0.003 C 
ENDBRANCH   8   9
ENDBRANCH   7   8
ENDBRANCH   1   7
TORSDOF 3
ENDMDL
