MODEL 1
REMARK minimizedAffinity 12.6820135
REMARK minimizedRMSD -1
REMARK  0 active torsions:
REMARK  status: ('A' for Active; 'I' for Inactive)
ROOT
ATOM      1  C   UNL d   1      -1.497  -5.143  -6.000  0.00  0.00     0.077 C 
ATOM      2  C1  UNL d   1      -1.876  -3.879  -5.287  0.00  0.00    -0.074 A 
ATOM      3  C2  UNL d   1      -2.276  -2.744  -6.000  0.00  0.00    -0.005 A 
ATOM      4  C3  UNL d   1      -2.635  -1.578  -5.323  0.00  0.00     0.006 A 
ATOM      5  C4  UNL d   1      -2.598  -1.536  -3.928  0.00  0.00    -0.005 A 
ATOM      6  C5  UNL d   1      -2.202  -2.661  -3.199  0.00  0.00    -0.074 A 
ATOM      7  C6  UNL d   1      -2.166  -2.636  -1.699  0.00  0.00     0.077 C 
ATOM      8  C7  UNL d   1      -1.850  -3.831  -3.886  0.00  0.00    -0.001 A 
ENDROOT
TORSDOF 0
ENDMDL
