MODEL 1
REMARK minimizedAffinity 1.82368255
REMARK minimizedRMSD -1
REMARK  0 active torsions:
REMARK  status: ('A' for Active; 'I' for Inactive)
ROOT
ATOM      1  C   UNL d   1       3.041   1.559  -5.989  0.00  0.00     0.077 C 
ATOM      2  C1  UNL d   1       2.977   3.057  -5.999  0.00  0.00    -0.074 A 
ATOM      3  C2  UNL d   1       1.748   3.724  -5.999  0.00  0.00    -0.005 A 
ATOM      4  C3  UNL d   1       1.704   5.118  -5.999  0.00  0.00     0.006 A 
ATOM      5  C4  UNL d   1       2.887   5.858  -5.999  0.00  0.00    -0.005 A 
ATOM      6  C5  UNL d   1       4.126   5.209  -5.998  0.00  0.00    -0.074 A 
ATOM      7  C6  UNL d   1       5.407   5.989  -5.988  0.00  0.00     0.077 C 
ATOM      8  C7  UNL d   1       4.161   3.808  -5.991  0.00  0.00    -0.001 A 
ENDROOT
TORSDOF 0
ENDMDL
