MODEL 1
REMARK minimizedAffinity 9.82236385
REMARK minimizedRMSD -1
REMARK  0 active torsions:
REMARK  status: ('A' for Active; 'I' for Inactive)
ROOT
ATOM      1  C   UNL d   1       0.994  -3.345  -0.452  0.00  0.00     0.077 C 
ATOM      2  C1  UNL d   1      -0.267  -2.662  -0.012  0.00  0.00    -0.074 A 
ATOM      3  C2  UNL d   1      -1.162  -2.134  -0.948  0.00  0.00    -0.005 A 
ATOM      4  C3  UNL d   1      -2.336  -1.510  -0.524  0.00  0.00     0.006 A 
ATOM      5  C4  UNL d   1      -2.625  -1.407   0.837  0.00  0.00    -0.005 A 
ATOM      6  C5  UNL d   1      -1.742  -1.930   1.787  0.00  0.00    -0.074 A 
ATOM      7  C6  UNL d   1      -2.042  -1.837   3.254  0.00  0.00     0.077 C 
ATOM      8  C7  UNL d   1      -0.568  -2.562   1.353  0.00  0.00    -0.001 A 
ENDROOT
TORSDOF 0
ENDMDL
