MODEL 1
REMARK minimizedAffinity 9.27309799
REMARK minimizedRMSD -1
REMARK  0 active torsions:
REMARK  status: ('A' for Active; 'I' for Inactive)
ROOT
ATOM      1  C   UNL d   1      -1.012  -1.881  -5.998  0.00  0.00     0.077 C 
ATOM      2  C1  UNL d   1      -1.477  -2.682  -4.818  0.00  0.00    -0.074 A 
ATOM      3  C2  UNL d   1      -2.387  -3.732  -4.975  0.00  0.00    -0.005 A 
ATOM      4  C3  UNL d   1      -2.803  -4.474  -3.869  0.00  0.00     0.006 A 
ATOM      5  C4  UNL d   1      -2.314  -4.173  -2.597  0.00  0.00    -0.005 A 
ATOM      6  C5  UNL d   1      -1.402  -3.127  -2.421  0.00  0.00    -0.074 A 
ATOM      7  C6  UNL d   1      -0.859  -2.797  -1.062  0.00  0.00     0.077 C 
ATOM      8  C7  UNL d   1      -0.984  -2.391  -3.538  0.00  0.00    -0.001 A 
ENDROOT
TORSDOF 0
ENDMDL
