MODEL 1
REMARK minimizedAffinity 10.7812719
REMARK minimizedRMSD -1
REMARK  0 active torsions:
REMARK  status: ('A' for Active; 'I' for Inactive)
ROOT
ATOM      1  C   UNL d   1       0.857  -3.705   0.024  0.00  0.00     0.077 C 
ATOM      2  C1  UNL d   1      -0.277  -2.982  -0.642  0.00  0.00    -0.074 A 
ATOM      3  C2  UNL d   1      -1.078  -2.087   0.074  0.00  0.00    -0.005 A 
ATOM      4  C3  UNL d   1      -2.123  -1.415  -0.560  0.00  0.00     0.006 A 
ATOM      5  C4  UNL d   1      -2.376  -1.631  -1.916  0.00  0.00    -0.005 A 
ATOM      6  C5  UNL d   1      -1.585  -2.521  -2.648  0.00  0.00    -0.074 A 
ATOM      7  C6  UNL d   1      -1.837  -2.757  -4.108  0.00  0.00     0.077 C 
ATOM      8  C7  UNL d   1      -0.532  -3.187  -2.005  0.00  0.00    -0.001 A 
ENDROOT
TORSDOF 0
ENDMDL
