MODEL 1
REMARK minimizedAffinity -0.479378939
REMARK minimizedRMSD -1
REMARK  0 active torsions:
REMARK  status: ('A' for Active; 'I' for Inactive)
ROOT
ATOM      1  C   UNL d   1       5.999  -0.545  -5.978  0.00  0.00     0.077 C 
ATOM      2  C1  UNL d   1       5.428   0.639  -5.256  0.00  0.00    -0.074 A 
ATOM      3  C2  UNL d   1       5.780   0.911  -3.930  0.00  0.00    -0.005 A 
ATOM      4  C3  UNL d   1       5.248   2.021  -3.275  0.00  0.00     0.006 A 
ATOM      5  C4  UNL d   1       4.360   2.869  -3.938  0.00  0.00    -0.005 A 
ATOM      6  C5  UNL d   1       3.997   2.614  -5.264  0.00  0.00    -0.074 A 
ATOM      7  C6  UNL d   1       3.051   3.521  -5.994  0.00  0.00     0.077 C 
ATOM      8  C7  UNL d   1       4.541   1.500  -5.918  0.00  0.00    -0.001 A 
ENDROOT
TORSDOF 0
ENDMDL
