MODEL 1
REMARK minimizedAffinity 9.52625084
REMARK minimizedRMSD -1
REMARK  0 active torsions:
REMARK  status: ('A' for Active; 'I' for Inactive)
ROOT
ATOM      1  C   UNL d   1       1.075  -2.626  -0.727  0.00  0.00     0.077 C 
ATOM      2  C1  UNL d   1      -0.279  -2.181  -0.257  0.00  0.00    -0.074 A 
ATOM      3  C2  UNL d   1      -1.222  -1.675  -1.158  0.00  0.00    -0.005 A 
ATOM      4  C3  UNL d   1      -2.479  -1.274  -0.708  0.00  0.00     0.006 A 
ATOM      5  C4  UNL d   1      -2.807  -1.374   0.645  0.00  0.00    -0.005 A 
ATOM      6  C5  UNL d   1      -1.877  -1.878   1.560  0.00  0.00    -0.074 A 
ATOM      7  C6  UNL d   1      -2.216  -2.002   3.016  0.00  0.00     0.077 C 
ATOM      8  C7  UNL d   1      -0.617  -2.286   1.099  0.00  0.00    -0.001 A 
ENDROOT
TORSDOF 0
ENDMDL
