MODEL 1
REMARK minimizedAffinity 10.9967976
REMARK minimizedRMSD -1
REMARK  0 active torsions:
REMARK  status: ('A' for Active; 'I' for Inactive)
ROOT
ATOM      1  C   UNL d   1       5.935   0.765  -2.307  0.00  0.00     0.077 C 
ATOM      2  C1  UNL d   1       5.211   1.014  -3.597  0.00  0.00    -0.074 A 
ATOM      3  C2  UNL d   1       5.631   0.408  -4.785  0.00  0.00    -0.005 A 
ATOM      4  C3  UNL d   1       4.942   0.641  -5.975  0.00  0.00     0.006 A 
ATOM      5  C4  UNL d   1       3.827   1.480  -5.989  0.00  0.00    -0.005 A 
ATOM      6  C5  UNL d   1       3.392   2.094  -4.810  0.00  0.00    -0.074 A 
ATOM      7  C6  UNL d   1       2.190   2.992  -4.806  0.00  0.00     0.077 C 
ATOM      8  C7  UNL d   1       4.085   1.850  -3.617  0.00  0.00    -0.001 A 
ENDROOT
TORSDOF 0
ENDMDL
