MODEL 1
REMARK minimizedAffinity 4.49170589
REMARK minimizedRMSD -1
REMARK  0 active torsions:
REMARK  status: ('A' for Active; 'I' for Inactive)
ROOT
ATOM      1  C   UNL d   1       1.503   6.000  -5.774  0.00  0.00     0.077 C 
ATOM      2  C1  UNL d   1       2.013   4.717  -5.188  0.00  0.00    -0.074 A 
ATOM      3  C2  UNL d   1       2.262   3.605  -6.000  0.00  0.00    -0.005 A 
ATOM      4  C3  UNL d   1       2.744   2.421  -5.442  0.00  0.00     0.006 A 
ATOM      5  C4  UNL d   1       2.983   2.337  -4.070  0.00  0.00    -0.005 A 
ATOM      6  C5  UNL d   1       2.741   3.438  -3.243  0.00  0.00    -0.074 A 
ATOM      7  C6  UNL d   1       3.002   3.368  -1.767  0.00  0.00     0.077 C 
ATOM      8  C7  UNL d   1       2.263   4.626  -3.811  0.00  0.00    -0.001 A 
ENDROOT
TORSDOF 0
ENDMDL
