MODEL 1
REMARK minimizedAffinity -3.79494715
REMARK minimizedRMSD -1
REMARK  0 active torsions:
REMARK  status: ('A' for Active; 'I' for Inactive)
ROOT
ATOM      1  C   UNL d   1       6.000   5.889  -5.391  0.00  0.00     0.077 C 
ATOM      2  C1  UNL d   1       4.642   5.257  -5.320  0.00  0.00    -0.074 A 
ATOM      3  C2  UNL d   1       3.523   5.999  -4.927  0.00  0.00    -0.005 A 
ATOM      4  C3  UNL d   1       2.264   5.400  -4.875  0.00  0.00     0.006 A 
ATOM      5  C4  UNL d   1       2.112   4.055  -5.214  0.00  0.00    -0.005 A 
ATOM      6  C5  UNL d   1       3.219   3.298  -5.610  0.00  0.00    -0.074 A 
ATOM      7  C6  UNL d   1       3.071   1.853  -5.987  0.00  0.00     0.077 C 
ATOM      8  C7  UNL d   1       4.479   3.909  -5.666  0.00  0.00    -0.001 A 
ENDROOT
TORSDOF 0
ENDMDL
