MODEL 1
REMARK minimizedAffinity 9.23565006
REMARK minimizedRMSD -1
REMARK  0 active torsions:
REMARK  status: ('A' for Active; 'I' for Inactive)
ROOT
ATOM      1  C   UNL d   1      -1.272  -2.247   2.013  0.00  0.00     0.077 C 
ATOM      2  C1  UNL d   1      -0.594  -1.084   2.674  0.00  0.00    -0.074 A 
ATOM      3  C2  UNL d   1      -0.864  -0.757   4.007  0.00  0.00    -0.005 A 
ATOM      4  C3  UNL d   1      -0.218   0.321   4.612  0.00  0.00     0.006 A 
ATOM      5  C4  UNL d   1       0.703   1.082   3.891  0.00  0.00    -0.005 A 
ATOM      6  C5  UNL d   1       0.987   0.769   2.558  0.00  0.00    -0.074 A 
ATOM      7  C6  UNL d   1       1.983   1.571   1.772  0.00  0.00     0.077 C 
ATOM      8  C7  UNL d   1       0.339  -0.320   1.959  0.00  0.00    -0.001 A 
ENDROOT
TORSDOF 0
ENDMDL
