MODEL 1
REMARK minimizedAffinity -2.02441454
REMARK minimizedRMSD -1
REMARK  0 active torsions:
REMARK  status: ('A' for Active; 'I' for Inactive)
ROOT
ATOM      1  C   UNL d   1       3.298  -0.751   3.415  0.00  0.00     0.077 C 
ATOM      2  C1  UNL d   1       3.983   0.271   2.557  0.00  0.00    -0.074 A 
ATOM      3  C2  UNL d   1       5.376   0.389   2.553  0.00  0.00    -0.005 A 
ATOM      4  C3  UNL d   1       6.000   1.338   1.743  0.00  0.00     0.006 A 
ATOM      5  C4  UNL d   1       5.237   2.177   0.930  0.00  0.00    -0.005 A 
ATOM      6  C5  UNL d   1       3.842   2.073   0.920  0.00  0.00    -0.074 A 
ATOM      7  C6  UNL d   1       3.008   2.961   0.045  0.00  0.00     0.077 C 
ATOM      8  C7  UNL d   1       3.224   1.113   1.732  0.00  0.00    -0.001 A 
ENDROOT
TORSDOF 0
ENDMDL
