MODEL 1
REMARK minimizedAffinity -1.97758973
REMARK minimizedRMSD -1
REMARK  0 active torsions:
REMARK  status: ('A' for Active; 'I' for Inactive)
ROOT
ATOM      1  C   UNL d   1       5.913   5.640  -5.994  0.00  0.00     0.077 C 
ATOM      2  C1  UNL d   1       4.597   4.919  -5.988  0.00  0.00    -0.074 A 
ATOM      3  C2  UNL d   1       3.390   5.626  -5.994  0.00  0.00    -0.005 A 
ATOM      4  C3  UNL d   1       2.175   4.942  -5.998  0.00  0.00     0.006 A 
ATOM      5  C4  UNL d   1       2.154   3.547  -5.995  0.00  0.00    -0.005 A 
ATOM      6  C5  UNL d   1       3.351   2.823  -5.990  0.00  0.00    -0.074 A 
ATOM      7  C6  UNL d   1       3.346   1.323  -5.997  0.00  0.00     0.077 C 
ATOM      8  C7  UNL d   1       4.568   3.518  -5.993  0.00  0.00    -0.001 A 
ENDROOT
TORSDOF 0
ENDMDL
