MODEL 1
REMARK minimizedAffinity -3.39003444
REMARK minimizedRMSD -1
REMARK  0 active torsions:
REMARK  status: ('A' for Active; 'I' for Inactive)
ROOT
ATOM      1  C   UNL d   1       5.985   1.220  -4.505  0.00  0.00     0.077 C 
ATOM      2  C1  UNL d   1       5.301   2.499  -4.887  0.00  0.00    -0.074 A 
ATOM      3  C2  UNL d   1       5.999   3.711  -4.902  0.00  0.00    -0.005 A 
ATOM      4  C3  UNL d   1       5.352   4.891  -5.268  0.00  0.00     0.006 A 
ATOM      5  C4  UNL d   1       4.002   4.871  -5.622  0.00  0.00    -0.005 A 
ATOM      6  C5  UNL d   1       3.288   3.669  -5.613  0.00  0.00    -0.074 A 
ATOM      7  C6  UNL d   1       1.839   3.628  -6.000  0.00  0.00     0.077 C 
ATOM      8  C7  UNL d   1       3.947   2.486  -5.251  0.00  0.00    -0.001 A 
ENDROOT
TORSDOF 0
ENDMDL
