MODEL 1
REMARK minimizedAffinity -1.46972609
REMARK minimizedRMSD -1
REMARK  0 active torsions:
REMARK  status: ('A' for Active; 'I' for Inactive)
ROOT
ATOM      1  C   UNL d   1       2.070   3.010  -6.000  0.00  0.00     0.077 C 
ATOM      2  C1  UNL d   1       3.443   2.699  -5.483  0.00  0.00    -0.074 A 
ATOM      3  C2  UNL d   1       4.137   3.618  -4.690  0.00  0.00    -0.005 A 
ATOM      4  C3  UNL d   1       5.410   3.312  -4.208  0.00  0.00     0.006 A 
ATOM      5  C4  UNL d   1       6.000   2.085  -4.514  0.00  0.00    -0.005 A 
ATOM      6  C5  UNL d   1       5.320   1.153  -5.304  0.00  0.00    -0.074 A 
ATOM      7  C6  UNL d   1       5.936  -0.175  -5.634  0.00  0.00     0.077 C 
ATOM      8  C7  UNL d   1       4.039   1.465  -5.779  0.00  0.00    -0.001 A 
ENDROOT
TORSDOF 0
ENDMDL
