MODEL 1
REMARK minimizedAffinity -1.06934345
REMARK minimizedRMSD -1
REMARK  0 active torsions:
REMARK  status: ('A' for Active; 'I' for Inactive)
ROOT
ATOM      1  C   UNL d   1       6.000  -0.323   2.582  0.00  0.00     0.077 C 
ATOM      2  C1  UNL d   1       4.972   0.662   2.108  0.00  0.00    -0.074 A 
ATOM      3  C2  UNL d   1       5.354   1.867   1.511  0.00  0.00    -0.005 A 
ATOM      4  C3  UNL d   1       4.387   2.769   1.066  0.00  0.00     0.006 A 
ATOM      5  C4  UNL d   1       3.031   2.475   1.214  0.00  0.00    -0.005 A 
ATOM      6  C5  UNL d   1       2.631   1.274   1.809  0.00  0.00    -0.074 A 
ATOM      7  C6  UNL d   1       1.178   0.938   1.967  0.00  0.00     0.077 C 
ATOM      8  C7  UNL d   1       3.608   0.370   2.247  0.00  0.00    -0.001 A 
ENDROOT
TORSDOF 0
ENDMDL
