MODEL 1
REMARK minimizedAffinity 0.547433913
REMARK minimizedRMSD -1
REMARK  0 active torsions:
REMARK  status: ('A' for Active; 'I' for Inactive)
ROOT
ATOM      1  C   UNL d   1       5.999   4.400  -5.999  0.00  0.00     0.077 C 
ATOM      2  C1  UNL d   1       5.616   3.193  -5.196  0.00  0.00    -0.074 A 
ATOM      3  C2  UNL d   1       5.999   3.069  -3.856  0.00  0.00    -0.005 A 
ATOM      4  C3  UNL d   1       5.627   1.944  -3.120  0.00  0.00     0.006 A 
ATOM      5  C4  UNL d   1       4.870   0.934  -3.714  0.00  0.00    -0.005 A 
ATOM      6  C5  UNL d   1       4.477   1.041  -5.052  0.00  0.00    -0.074 A 
ATOM      7  C6  UNL d   1       3.654  -0.031  -5.703  0.00  0.00     0.077 C 
ATOM      8  C7  UNL d   1       4.849   2.177  -5.784  0.00  0.00    -0.001 A 
ENDROOT
TORSDOF 0
ENDMDL
