MODEL 1
REMARK minimizedAffinity -0.532206237
REMARK minimizedRMSD -1
REMARK  1 active torsions:
REMARK  status: ('A' for Active; 'I' for Inactive)
REMARK    1  A    between atoms: C1_2  and  C2_3 
ROOT
ATOM      1  C2  UNL d   1       0.592   3.182  -0.124  0.00  0.00    -0.077 A 
ATOM      2  C3  UNL d   1       1.496   4.254  -0.143  0.00  0.00     0.002 A 
ATOM      3  C4  UNL d   1       2.228   4.580   1.000  0.00  0.00     0.002 A 
ATOM      4  C5  UNL d   1       2.067   3.838   2.168  0.00  0.00    -0.004 A 
ATOM      5  C6  UNL d   1       1.169   2.772   2.197  0.00  0.00     0.002 A 
ATOM      6  C7  UNL d   1       0.436   2.445   1.056  0.00  0.00     0.002 A 
ENDROOT
BRANCH   1   7
ATOM      7  C1  UNL d   1      -0.162   2.798  -1.371  0.00  0.00     0.055 C 
ATOM      8  C   UNL d   1      -0.423   1.299  -1.419  0.00  0.00     0.019 C 
ENDBRANCH   1   7
TORSDOF 1
ENDMDL
