MODEL 1
REMARK minimizedAffinity 0.313347936
REMARK minimizedRMSD -1
REMARK  1 active torsions:
REMARK  status: ('A' for Active; 'I' for Inactive)
REMARK    1  A    between atoms: C1_2  and  C2_3 
ROOT
ATOM      1  C2  UNL d   1       0.593   2.519   0.447  0.00  0.00    -0.077 A 
ATOM      2  C3  UNL d   1       1.630   3.447   0.615  0.00  0.00     0.002 A 
ATOM      3  C4  UNL d   1       2.013   4.277  -0.440  0.00  0.00     0.002 A 
ATOM      4  C5  UNL d   1       1.362   4.190  -1.669  0.00  0.00    -0.004 A 
ATOM      5  C6  UNL d   1       0.331   3.268  -1.847  0.00  0.00     0.002 A 
ATOM      6  C7  UNL d   1      -0.052   2.437  -0.794  0.00  0.00     0.002 A 
ENDROOT
BRANCH   1   7
ATOM      7  C1  UNL d   1       0.146   1.656   1.598  0.00  0.00     0.055 C 
ATOM      8  C   UNL d   1       0.433   0.186   1.333  0.00  0.00     0.019 C 
ENDBRANCH   1   7
TORSDOF 1
ENDMDL
