MODEL 1
REMARK minimizedAffinity 3.41618347
REMARK minimizedRMSD -1
REMARK  1 active torsions:
REMARK  status: ('A' for Active; 'I' for Inactive)
REMARK    1  A    between atoms: C1_2  and  C2_3 
ROOT
ATOM      1  C2  UNL d   1       5.319  -3.646  -3.394  0.00  0.00    -0.077 A 
ATOM      2  C3  UNL d   1       5.998  -2.669  -2.653  0.00  0.00     0.002 A 
ATOM      3  C4  UNL d   1       5.357  -1.483  -2.292  0.00  0.00     0.002 A 
ATOM      4  C5  UNL d   1       4.032  -1.264  -2.664  0.00  0.00    -0.004 A 
ATOM      5  C6  UNL d   1       3.348  -2.228  -3.403  0.00  0.00     0.002 A 
ATOM      6  C7  UNL d   1       3.988  -3.414  -3.766  0.00  0.00     0.002 A 
ENDROOT
BRANCH   1   7
ATOM      7  C1  UNL d   1       5.993  -4.947  -3.742  0.00  0.00     0.055 C 
ATOM      8  C   UNL d   1       5.971  -5.913  -2.566  0.00  0.00     0.019 C 
ENDBRANCH   1   7
TORSDOF 1
ENDMDL
