MODEL 1
REMARK minimizedAffinity -1.21951592
REMARK minimizedRMSD -1
REMARK  1 active torsions:
REMARK  status: ('A' for Active; 'I' for Inactive)
REMARK    1  A    between atoms: C1_2  and  C2_3 
ROOT
ATOM      1  C2  UNL d   1      -2.228   1.888  -1.712  0.00  0.00    -0.077 A 
ATOM      2  C3  UNL d   1      -2.949   0.704  -1.924  0.00  0.00     0.002 A 
ATOM      3  C4  UNL d   1      -4.153   0.728  -2.630  0.00  0.00     0.002 A 
ATOM      4  C5  UNL d   1      -4.645   1.931  -3.132  0.00  0.00    -0.004 A 
ATOM      5  C6  UNL d   1      -3.936   3.114  -2.925  0.00  0.00     0.002 A 
ATOM      6  C7  UNL d   1      -2.733   3.092  -2.218  0.00  0.00     0.002 A 
ENDROOT
BRANCH   1   7
ATOM      7  C1  UNL d   1      -0.904   1.857  -0.993  0.00  0.00     0.055 C 
ATOM      8  C   UNL d   1      -0.285   3.245  -0.915  0.00  0.00     0.019 C 
ENDBRANCH   1   7
TORSDOF 1
ENDMDL
