MODEL 1
REMARK minimizedAffinity 2.6170857
REMARK minimizedRMSD -1
REMARK  1 active torsions:
REMARK  status: ('A' for Active; 'I' for Inactive)
REMARK    1  A    between atoms: C1_2  and  C2_3 
ROOT
ATOM      1  C2  UNL d   1       4.169  -4.447  -1.404  0.00  0.00    -0.077 A 
ATOM      2  C3  UNL d   1       4.509  -4.498  -2.763  0.00  0.00     0.002 A 
ATOM      3  C4  UNL d   1       3.757  -5.270  -3.651  0.00  0.00     0.002 A 
ATOM      4  C5  UNL d   1       2.659  -5.993  -3.191  0.00  0.00    -0.004 A 
ATOM      5  C6  UNL d   1       2.313  -5.950  -1.841  0.00  0.00     0.002 A 
ATOM      6  C7  UNL d   1       3.065  -5.181  -0.952  0.00  0.00     0.002 A 
ENDROOT
BRANCH   1   7
ATOM      7  C1  UNL d   1       4.949  -3.577  -0.454  0.00  0.00     0.055 C 
ATOM      8  C   UNL d   1       4.463  -2.135  -0.499  0.00  0.00     0.019 C 
ENDBRANCH   1   7
TORSDOF 1
ENDMDL
