MODEL 1
REMARK minimizedAffinity 6.10654926
REMARK minimizedRMSD -1
REMARK  2 active torsions:
REMARK  status: ('A' for Active; 'I' for Inactive)
REMARK    1  A    between atoms: C2'_3  and  C1'_4 
REMARK    2  A    between atoms: C1'_4  and  C1_5 
ROOT
ATOM      1  C1  I4B d   1       0.847   0.841  -0.302  0.00  0.00    -0.075 A 
ATOM      2  C2  I4B d   1       1.063   0.653   1.041  0.00  0.00     0.003 A 
ATOM      3  C3  I4B d   1       1.671  -0.539   1.505  0.00  0.00     0.002 A 
ATOM      4  C4  I4B d   1       1.999  -1.530   0.603  0.00  0.00    -0.004 A 
ATOM      5  C5  I4B d   1       1.801  -1.328  -0.760  0.00  0.00     0.002 A 
ATOM      6  C6  I4B d   1       1.233  -0.130  -1.217  0.00  0.00     0.003 A 
ENDROOT
BRANCH   1   7
ATOM      7  C1' I4B d   1       0.173   2.097  -0.754  0.00  0.00     0.060 C 
BRANCH   7   8
ATOM      8  C2' I4B d   1       0.693   3.239   0.095  0.00  0.00    -0.013 C 
ATOM      9  C4' I4B d   1       1.138   4.396  -0.760  0.00  0.00     0.013 C 
ATOM     10  C3' I4B d   1      -0.398   3.650   1.038  0.00  0.00     0.013 C 
ENDBRANCH   7   8
ENDBRANCH   1   7
TORSDOF 2
ENDMDL
