MODEL 1
REMARK minimizedAffinity 3.63747287
REMARK minimizedRMSD -1
REMARK  2 active torsions:
REMARK  status: ('A' for Active; 'I' for Inactive)
REMARK    1  A    between atoms: C2'_3  and  C1'_4 
REMARK    2  A    between atoms: C1'_4  and  C1_5 
ROOT
ATOM      1  C1  I4B d   1       0.531   0.216  -1.660  0.00  0.00    -0.075 A 
ATOM      2  C2  I4B d   1       1.274  -0.415  -0.694  0.00  0.00     0.003 A 
ATOM      3  C3  I4B d   1       1.488   0.207   0.560  0.00  0.00     0.002 A 
ATOM      4  C4  I4B d   1       0.987   1.473   0.785  0.00  0.00    -0.004 A 
ATOM      5  C5  I4B d   1       0.214   2.101  -0.187  0.00  0.00     0.002 A 
ATOM      6  C6  I4B d   1      -0.026   1.464  -1.413  0.00  0.00     0.003 A 
ENDROOT
BRANCH   1   7
ATOM      7  C1' I4B d   1       0.352  -0.456  -2.985  0.00  0.00     0.060 C 
BRANCH   7   8
ATOM      8  C2' I4B d   1      -0.973  -0.001  -3.564  0.00  0.00    -0.013 C 
ATOM      9  C4' I4B d   1      -0.781   0.685  -4.891  0.00  0.00     0.013 C 
ATOM     10  C3' I4B d   1      -1.856  -1.205  -3.700  0.00  0.00     0.013 C 
ENDBRANCH   7   8
ENDBRANCH   1   7
TORSDOF 2
ENDMDL
