MODEL 1
REMARK minimizedAffinity 6.30622196
REMARK minimizedRMSD -1
REMARK  2 active torsions:
REMARK  status: ('A' for Active; 'I' for Inactive)
REMARK    1  A    between atoms: C2'_3  and  C1'_4 
REMARK    2  A    between atoms: C1'_4  and  C1_5 
ROOT
ATOM      1  C1  I4B d   1      -0.628   3.749  -0.633  0.00  0.00    -0.075 A 
ATOM      2  C2  I4B d   1       0.695   3.536  -0.334  0.00  0.00     0.003 A 
ATOM      3  C3  I4B d   1       1.654   4.547  -0.585  0.00  0.00     0.002 A 
ATOM      4  C4  I4B d   1       1.258   5.728  -1.179  0.00  0.00    -0.004 A 
ATOM      5  C5  I4B d   1      -0.087   5.951  -1.460  0.00  0.00     0.002 A 
ATOM      6  C6  I4B d   1      -1.038   4.961  -1.175  0.00  0.00     0.003 A 
ENDROOT
BRANCH   1   7
ATOM      7  C1' I4B d   1      -1.609   2.648  -0.386  0.00  0.00     0.060 C 
BRANCH   7   8
ATOM      8  C2' I4B d   1      -2.441   2.473  -1.640  0.00  0.00    -0.013 C 
ATOM      9  C4' I4B d   1      -1.755   1.567  -2.627  0.00  0.00     0.013 C 
ATOM     10  C3' I4B d   1      -3.776   1.922  -1.237  0.00  0.00     0.013 C 
ENDBRANCH   7   8
ENDBRANCH   1   7
TORSDOF 2
ENDMDL
