MODEL 1
REMARK minimizedAffinity 3.14519334
REMARK minimizedRMSD -1
REMARK  2 active torsions:
REMARK  status: ('A' for Active; 'I' for Inactive)
REMARK    1  A    between atoms: C2'_3  and  C1'_4 
REMARK    2  A    between atoms: C1'_4  and  C1_5 
ROOT
ATOM      1  C1  I4B d   1      -4.841   3.153  -4.425  0.00  0.00    -0.075 A 
ATOM      2  C2  I4B d   1      -3.555   2.806  -4.096  0.00  0.00     0.003 A 
ATOM      3  C3  I4B d   1      -2.461   3.460  -4.713  0.00  0.00     0.002 A 
ATOM      4  C4  I4B d   1      -2.697   4.412  -5.684  0.00  0.00    -0.004 A 
ATOM      5  C5  I4B d   1      -4.002   4.778  -6.000  0.00  0.00     0.002 A 
ATOM      6  C6  I4B d   1      -5.082   4.153  -5.358  0.00  0.00     0.003 A 
ENDROOT
BRANCH   1   7
ATOM      7  C1' I4B d   1      -5.973   2.419  -3.779  0.00  0.00     0.060 C 
BRANCH   7   8
ATOM      8  C2' I4B d   1      -5.458   1.065  -3.334  0.00  0.00    -0.013 C 
ATOM      9  C4' I4B d   1      -5.861   0.768  -1.913  0.00  0.00     0.013 C 
ATOM     10  C3' I4B d   1      -5.999   0.032  -4.277  0.00  0.00     0.013 C 
ENDBRANCH   7   8
ENDBRANCH   1   7
TORSDOF 2
ENDMDL
