MODEL 1
REMARK minimizedAffinity 1.2548852
REMARK minimizedRMSD -1
REMARK  2 active torsions:
REMARK  status: ('A' for Active; 'I' for Inactive)
REMARK    1  A    between atoms: C2'_3  and  C1'_4 
REMARK    2  A    between atoms: C1'_4  and  C1_5 
ROOT
ATOM      1  C1  I4B d   1      -3.584   3.039   0.848  0.00  0.00    -0.075 A 
ATOM      2  C2  I4B d   1      -4.789   2.402   0.686  0.00  0.00     0.003 A 
ATOM      3  C3  I4B d   1      -5.999   3.129   0.795  0.00  0.00     0.002 A 
ATOM      4  C4  I4B d   1      -5.960   4.471   1.114  0.00  0.00    -0.004 A 
ATOM      5  C5  I4B d   1      -4.736   5.119   1.255  0.00  0.00     0.002 A 
ATOM      6  C6  I4B d   1      -3.540   4.402   1.109  0.00  0.00     0.003 A 
ENDROOT
BRANCH   1   7
ATOM      7  C1' I4B d   1      -2.326   2.234   0.760  0.00  0.00     0.060 C 
BRANCH   7   8
ATOM      8  C2' I4B d   1      -1.459   2.840  -0.325  0.00  0.00    -0.013 C 
ATOM      9  C4' I4B d   1      -0.010   2.476  -0.133  0.00  0.00     0.013 C 
ATOM     10  C3' I4B d   1      -1.968   2.356  -1.650  0.00  0.00     0.013 C 
ENDBRANCH   7   8
ENDBRANCH   1   7
TORSDOF 2
ENDMDL
