MODEL 1
REMARK minimizedAffinity 11.962986
REMARK minimizedRMSD -1
REMARK  2 active torsions:
REMARK  status: ('A' for Active; 'I' for Inactive)
REMARK    1  A    between atoms: C2'_3  and  C1'_4 
REMARK    2  A    between atoms: C1'_4  and  C1_5 
ROOT
ATOM      1  C1  I4B d   1       2.566   4.182   0.275  0.00  0.00    -0.075 A 
ATOM      2  C2  I4B d   1       2.111   2.981   0.760  0.00  0.00     0.003 A 
ATOM      3  C3  I4B d   1       0.747   2.626   0.620  0.00  0.00     0.002 A 
ATOM      4  C4  I4B d   1      -0.131   3.518   0.037  0.00  0.00    -0.004 A 
ATOM      5  C5  I4B d   1       0.337   4.725  -0.474  0.00  0.00     0.002 A 
ATOM      6  C6  I4B d   1       1.696   5.054  -0.366  0.00  0.00     0.003 A 
ENDROOT
BRANCH   1   7
ATOM      7  C1' I4B d   1       4.006   4.538   0.469  0.00  0.00     0.060 C 
BRANCH   7   8
ATOM      8  C2' I4B d   1       4.147   5.183   1.833  0.00  0.00    -0.013 C 
ATOM      9  C4' I4B d   1       4.173   4.147   2.926  0.00  0.00     0.013 C 
ATOM     10  C3' I4B d   1       5.405   6.000   1.831  0.00  0.00     0.013 C 
ENDBRANCH   7   8
ENDBRANCH   1   7
TORSDOF 2
ENDMDL
