MODEL 1
REMARK minimizedAffinity 15.4183884
REMARK minimizedRMSD -1
REMARK  2 active torsions:
REMARK  status: ('A' for Active; 'I' for Inactive)
REMARK    1  A    between atoms: C2'_3  and  C1'_4 
REMARK    2  A    between atoms: C1'_4  and  C1_5 
ROOT
ATOM      1  C1  I4B d   1       1.101   1.526   0.447  0.00  0.00    -0.075 A 
ATOM      2  C2  I4B d   1       1.132   1.190  -0.883  0.00  0.00     0.003 A 
ATOM      3  C3  I4B d   1       1.778   0.002  -1.304  0.00  0.00     0.002 A 
ATOM      4  C4  I4B d   1       2.418  -0.789  -0.373  0.00  0.00    -0.004 A 
ATOM      5  C5  I4B d   1       2.366  -0.459   0.979  0.00  0.00     0.002 A 
ATOM      6  C6  I4B d   1       1.693   0.699   1.393  0.00  0.00     0.003 A 
ENDROOT
BRANCH   1   7
ATOM      7  C1' I4B d   1       0.439   2.805   0.853  0.00  0.00     0.060 C 
BRANCH   7   8
ATOM      8  C2' I4B d   1      -0.704   3.063  -0.107  0.00  0.00    -0.013 C 
ATOM      9  C4' I4B d   1      -2.036   2.812   0.550  0.00  0.00     0.013 C 
ATOM     10  C3' I4B d   1      -0.595   4.480  -0.586  0.00  0.00     0.013 C 
ENDBRANCH   7   8
ENDBRANCH   1   7
TORSDOF 2
ENDMDL
