MODEL 1
REMARK minimizedAffinity 8.98445797
REMARK minimizedRMSD -1
REMARK  2 active torsions:
REMARK  status: ('A' for Active; 'I' for Inactive)
REMARK    1  A    between atoms: C2'_3  and  C1'_4 
REMARK    2  A    between atoms: C1'_4  and  C1_5 
ROOT
ATOM      1  C1  I4B d   1      -2.533   3.518  -5.070  0.00  0.00    -0.075 A 
ATOM      2  C2  I4B d   1      -3.905   3.467  -5.061  0.00  0.00     0.003 A 
ATOM      3  C3  I4B d   1      -4.660   4.639  -4.814  0.00  0.00     0.002 A 
ATOM      4  C4  I4B d   1      -4.007   5.822  -4.532  0.00  0.00    -0.004 A 
ATOM      5  C5  I4B d   1      -2.616   5.876  -4.564  0.00  0.00     0.002 A 
ATOM      6  C6  I4B d   1      -1.875   4.720  -4.847  0.00  0.00     0.003 A 
ENDROOT
BRANCH   1   7
ATOM      7  C1' I4B d   1      -1.767   2.254  -5.302  0.00  0.00     0.060 C 
BRANCH   7   8
ATOM      8  C2' I4B d   1      -1.719   1.490  -3.994  0.00  0.00    -0.013 C 
ATOM      9  C4' I4B d   1      -2.968   0.672  -3.794  0.00  0.00     0.013 C 
ATOM     10  C3' I4B d   1      -0.498   0.620  -4.011  0.00  0.00     0.013 C 
ENDBRANCH   7   8
ENDBRANCH   1   7
TORSDOF 2
ENDMDL
