MODEL 1
REMARK minimizedAffinity 12.3859577
REMARK minimizedRMSD -1
REMARK  2 active torsions:
REMARK  status: ('A' for Active; 'I' for Inactive)
REMARK    1  A    between atoms: C2'_3  and  C1'_4 
REMARK    2  A    between atoms: C1'_4  and  C1_5 
ROOT
ATOM      1  C1  I4B d   1       1.106   3.169   0.137  0.00  0.00    -0.075 A 
ATOM      2  C2  I4B d   1       0.357   2.578  -0.849  0.00  0.00     0.003 A 
ATOM      3  C3  I4B d   1       0.125   1.181  -0.828  0.00  0.00     0.002 A 
ATOM      4  C4  I4B d   1       0.700   0.412   0.163  0.00  0.00    -0.004 A 
ATOM      5  C5  I4B d   1       1.440   1.017   1.175  0.00  0.00     0.002 A 
ATOM      6  C6  I4B d   1       1.635   2.405   1.169  0.00  0.00     0.003 A 
ENDROOT
BRANCH   1   7
ATOM      7  C1' I4B d   1       1.358   4.642   0.065  0.00  0.00     0.060 C 
BRANCH   7   8
ATOM      8  C2' I4B d   1       0.842   5.139  -1.270  0.00  0.00    -0.013 C 
ATOM      9  C4' I4B d   1      -0.444   5.905  -1.106  0.00  0.00     0.013 C 
ATOM     10  C3' I4B d   1       1.907   5.996  -1.888  0.00  0.00     0.013 C 
ENDBRANCH   7   8
ENDBRANCH   1   7
TORSDOF 2
ENDMDL
