MODEL 1
REMARK minimizedAffinity 28.4114208
REMARK minimizedRMSD -1
REMARK  0 active torsions:
REMARK  status: ('A' for Active; 'I' for Inactive)
ROOT
ATOM      1  C   UNL d   1       4.994  -2.296  -1.619  0.00  0.00     0.124 A 
ATOM      2  C1  UNL d   1       4.439  -3.505  -1.223  0.00  0.00     0.062 A 
ATOM      3  C2  UNL d   1       4.354  -4.564  -2.122  0.00  0.00     0.162 A 
ATOM      4  C3  UNL d   1       4.825  -4.419  -3.427  0.00  0.00    -0.034 A 
ATOM      5  C4  UNL d   1       5.381  -3.199  -3.818  0.00  0.00     0.162 A 
ATOM      6  C5  UNL d   1       5.464  -2.144  -2.916  0.00  0.00     0.062 A 
ATOM      7  F   UNL d   1       6.000  -0.976  -3.300  0.00  0.00    -0.097 F 
ATOM      8  F1  UNL d   1       5.844  -3.025  -5.065  0.00  0.00    -0.096 F 
ATOM      9  I   UNL d   1       4.700  -6.000  -4.775  0.00  0.00    -0.060 I 
ATOM     10  F2  UNL d   1       3.813  -5.721  -1.712  0.00  0.00    -0.096 F 
ATOM     11  F3  UNL d   1       3.983  -3.654   0.029  0.00  0.00    -0.097 F 
ATOM     12  F4  UNL d   1       5.073  -1.278  -0.752  0.00  0.00    -0.092 F 
ENDROOT
TORSDOF 0
ENDMDL
