MODEL 1
REMARK minimizedAffinity 29.3953476
REMARK minimizedRMSD -1
REMARK  0 active torsions:
REMARK  status: ('A' for Active; 'I' for Inactive)
ROOT
ATOM      1  C   UNL d   1       1.571  -4.600  -2.809  0.00  0.00     0.124 A 
ATOM      2  C1  UNL d   1       1.621  -5.278  -4.020  0.00  0.00     0.062 A 
ATOM      3  C2  UNL d   1       0.494  -5.338  -4.835  0.00  0.00     0.162 A 
ATOM      4  C3  UNL d   1      -0.692  -4.717  -4.444  0.00  0.00    -0.034 A 
ATOM      5  C4  UNL d   1      -0.735  -4.038  -3.225  0.00  0.00     0.162 A 
ATOM      6  C5  UNL d   1       0.394  -3.981  -2.413  0.00  0.00     0.062 A 
ATOM      7  F   UNL d   1       0.344  -3.326  -1.244  0.00  0.00    -0.097 F 
ATOM      8  F1  UNL d   1      -1.859  -3.430  -2.818  0.00  0.00    -0.096 F 
ATOM      9  I   UNL d   1      -2.378  -4.804  -5.660  0.00  0.00    -0.060 I 
ATOM     10  F2  UNL d   1       0.571  -6.000  -5.999  0.00  0.00    -0.096 F 
ATOM     11  F3  UNL d   1       2.756  -5.878  -4.404  0.00  0.00    -0.097 F 
ATOM     12  F4  UNL d   1       2.656  -4.545  -2.026  0.00  0.00    -0.092 F 
ENDROOT
TORSDOF 0
ENDMDL
