MODEL 1
REMARK minimizedAffinity 28.2310505
REMARK minimizedRMSD -1
REMARK  0 active torsions:
REMARK  status: ('A' for Active; 'I' for Inactive)
ROOT
ATOM      1  C   UNL d   1       2.088   4.726   0.637  0.00  0.00     0.124 A 
ATOM      2  C1  UNL d   1       3.014   4.641   1.668  0.00  0.00     0.062 A 
ATOM      3  C2  UNL d   1       2.978   3.568   2.554  0.00  0.00     0.162 A 
ATOM      4  C3  UNL d   1       2.013   2.571   2.412  0.00  0.00    -0.034 A 
ATOM      5  C4  UNL d   1       1.085   2.664   1.374  0.00  0.00     0.162 A 
ATOM      6  C5  UNL d   1       1.125   3.738   0.491  0.00  0.00     0.062 A 
ATOM      7  F   UNL d   1       0.230   3.819  -0.504  0.00  0.00    -0.097 F 
ATOM      8  F1  UNL d   1       0.143   1.723   1.209  0.00  0.00    -0.096 F 
ATOM      9  I   UNL d   1       1.955   0.965   3.735  0.00  0.00    -0.060 I 
ATOM     10  F2  UNL d   1       3.884   3.511   3.540  0.00  0.00    -0.096 F 
ATOM     11  F3  UNL d   1       3.945   5.595   1.811  0.00  0.00    -0.097 F 
ATOM     12  F4  UNL d   1       2.125   5.760  -0.214  0.00  0.00    -0.092 F 
ENDROOT
TORSDOF 0
ENDMDL
