MODEL 1
REMARK minimizedAffinity 33.925705
REMARK minimizedRMSD -1
REMARK  0 active torsions:
REMARK  status: ('A' for Active; 'I' for Inactive)
ROOT
ATOM      1  C   UNL d   1       0.502   2.998   0.781  0.00  0.00     0.124 A 
ATOM      2  C1  UNL d   1       0.275   4.006  -0.146  0.00  0.00     0.062 A 
ATOM      3  C2  UNL d   1      -0.810   4.864   0.005  0.00  0.00     0.162 A 
ATOM      4  C3  UNL d   1      -1.678   4.719   1.087  0.00  0.00    -0.034 A 
ATOM      5  C4  UNL d   1      -1.444   3.702   2.015  0.00  0.00     0.162 A 
ATOM      6  C5  UNL d   1      -0.358   2.847   1.860  0.00  0.00     0.062 A 
ATOM      7  F   UNL d   1      -0.140   1.874   2.757  0.00  0.00    -0.097 F 
ATOM      8  F1  UNL d   1      -2.258   3.534   3.068  0.00  0.00    -0.096 F 
ATOM      9  I   UNL d   1      -3.302   6.000   1.316  0.00  0.00    -0.060 I 
ATOM     10  F2  UNL d   1      -1.005   5.829  -0.906  0.00  0.00    -0.096 F 
ATOM     11  F3  UNL d   1       1.104   4.154  -1.189  0.00  0.00    -0.097 F 
ATOM     12  F4  UNL d   1       1.546   2.173   0.634  0.00  0.00    -0.092 F 
ENDROOT
TORSDOF 0
ENDMDL
