MODEL 1
REMARK minimizedAffinity 22.8962822
REMARK minimizedRMSD -1
REMARK  0 active torsions:
REMARK  status: ('A' for Active; 'I' for Inactive)
ROOT
ATOM      1  C   UNL d   1       5.466  -3.317  -0.957  0.00  0.00     0.124 A 
ATOM      2  C1  UNL d   1       5.649  -1.955  -1.153  0.00  0.00     0.062 A 
ATOM      3  C2  UNL d   1       5.802  -1.448  -2.440  0.00  0.00     0.162 A 
ATOM      4  C3  UNL d   1       5.772  -2.302  -3.542  0.00  0.00    -0.034 A 
ATOM      5  C4  UNL d   1       5.588  -3.671  -3.337  0.00  0.00     0.162 A 
ATOM      6  C5  UNL d   1       5.435  -4.173  -2.049  0.00  0.00     0.062 A 
ATOM      7  F   UNL d   1       5.258  -5.489  -1.861  0.00  0.00    -0.097 F 
ATOM      8  F1  UNL d   1       5.553  -4.521  -4.374  0.00  0.00    -0.096 F 
ATOM      9  I   UNL d   1       6.000  -1.547  -5.468  0.00  0.00    -0.060 I 
ATOM     10  F2  UNL d   1       5.978  -0.128  -2.600  0.00  0.00    -0.096 F 
ATOM     11  F3  UNL d   1       5.680  -1.126  -0.100  0.00  0.00    -0.097 F 
ATOM     12  F4  UNL d   1       5.320  -3.803   0.282  0.00  0.00    -0.092 F 
ENDROOT
TORSDOF 0
ENDMDL
