MODEL 1
REMARK minimizedAffinity 26.7860756
REMARK minimizedRMSD -1
REMARK  0 active torsions:
REMARK  status: ('A' for Active; 'I' for Inactive)
ROOT
ATOM      1  C   UNL d   1       4.119  -4.956  -2.663  0.00  0.00     0.124 A 
ATOM      2  C1  UNL d   1       5.071  -3.954  -2.795  0.00  0.00     0.062 A 
ATOM      3  C2  UNL d   1       5.069  -2.868  -1.925  0.00  0.00     0.162 A 
ATOM      4  C3  UNL d   1       4.112  -2.778  -0.914  0.00  0.00    -0.034 A 
ATOM      5  C4  UNL d   1       3.157  -3.789  -0.788  0.00  0.00     0.162 A 
ATOM      6  C5  UNL d   1       3.164  -4.873  -1.661  0.00  0.00     0.062 A 
ATOM      7  F   UNL d   1       2.244  -5.840  -1.532  0.00  0.00    -0.097 F 
ATOM      8  F1  UNL d   1       2.223  -3.735   0.172  0.00  0.00    -0.096 F 
ATOM      9  I   UNL d   1       4.105  -1.156   0.390  0.00  0.00    -0.060 I 
ATOM     10  F2  UNL d   1       6.000  -1.915  -2.075  0.00  0.00    -0.096 F 
ATOM     11  F3  UNL d   1       5.995  -4.032  -3.764  0.00  0.00    -0.097 F 
ATOM     12  F4  UNL d   1       4.123  -6.000  -3.503  0.00  0.00    -0.092 F 
ENDROOT
TORSDOF 0
ENDMDL
