MODEL 1
REMARK minimizedAffinity 18.490036
REMARK minimizedRMSD -1
REMARK  0 active torsions:
REMARK  status: ('A' for Active; 'I' for Inactive)
ROOT
ATOM      1  C   UNL d   1       5.139  -3.859  -2.914  0.00  0.00     0.124 A 
ATOM      2  C1  UNL d   1       5.137  -2.703  -2.145  0.00  0.00     0.062 A 
ATOM      3  C2  UNL d   1       4.243  -2.568  -1.086  0.00  0.00     0.162 A 
ATOM      4  C3  UNL d   1       3.345  -3.593  -0.789  0.00  0.00    -0.034 A 
ATOM      5  C4  UNL d   1       3.353  -4.752  -1.567  0.00  0.00     0.162 A 
ATOM      6  C5  UNL d   1       4.248  -4.882  -2.624  0.00  0.00     0.062 A 
ATOM      7  F   UNL d   1       4.249  -6.000  -3.365  0.00  0.00    -0.097 F 
ATOM      8  F1  UNL d   1       2.502  -5.757  -1.309  0.00  0.00    -0.096 F 
ATOM      9  I   UNL d   1       2.007  -3.396   0.793  0.00  0.00    -0.060 I 
ATOM     10  F2  UNL d   1       4.263  -1.441  -0.361  0.00  0.00    -0.096 F 
ATOM     11  F3  UNL d   1       5.997  -1.713  -2.423  0.00  0.00    -0.097 F 
ATOM     12  F4  UNL d   1       5.999  -3.986  -3.932  0.00  0.00    -0.092 F 
ENDROOT
TORSDOF 0
ENDMDL
