MODEL 1
REMARK minimizedAffinity 6.76174879
REMARK minimizedRMSD -1
REMARK  0 active torsions:
REMARK  status: ('A' for Active; 'I' for Inactive)
ROOT
ATOM      1  C   UNL d   1      -0.462  -4.709  -5.920  0.00  0.00     0.172 C 
ATOM      2  N   UNL d   1      -1.811  -4.195  -5.951  0.00  0.00    -0.070 N 
ATOM      3  C1  UNL d   1      -2.953  -4.950  -5.972  0.00  0.00    -0.004 A 
ATOM      4  C2  UNL d   1      -4.028  -4.088  -5.999  0.00  0.00    -0.047 A 
ATOM      5  C3  UNL d   1      -3.515  -2.770  -5.995  0.00  0.00    -0.047 A 
ATOM      6  C4  UNL d   1      -2.139  -2.865  -5.966  0.00  0.00    -0.004 A 
ENDROOT
TORSDOF 0
ENDMDL
