MODEL 1
REMARK minimizedAffinity 5.21901417
REMARK minimizedRMSD -1
REMARK  0 active torsions:
REMARK  status: ('A' for Active; 'I' for Inactive)
ROOT
ATOM      1  C   UNL d   1      -5.507  -5.041  -1.886  0.00  0.00     0.172 C 
ATOM      2  N   UNL d   1      -5.403  -3.662  -2.302  0.00  0.00    -0.070 N 
ATOM      3  C1  UNL d   1      -4.904  -3.225  -3.500  0.00  0.00    -0.004 A 
ATOM      4  C2  UNL d   1      -4.977  -1.849  -3.510  0.00  0.00    -0.047 A 
ATOM      5  C3  UNL d   1      -5.538  -1.445  -2.276  0.00  0.00    -0.047 A 
ATOM      6  C4  UNL d   1      -5.792  -2.588  -1.547  0.00  0.00    -0.004 A 
ENDROOT
TORSDOF 0
ENDMDL
