MODEL 1
REMARK minimizedAffinity 8.18989277
REMARK minimizedRMSD -1
REMARK  0 active torsions:
REMARK  status: ('A' for Active; 'I' for Inactive)
ROOT
ATOM      1  C   UNL d   1       5.409   3.817  -4.807  0.00  0.00     0.172 C 
ATOM      2  N   UNL d   1       4.168   4.551  -4.876  0.00  0.00    -0.070 N 
ATOM      3  C1  UNL d   1       3.700   5.420  -3.927  0.00  0.00    -0.004 A 
ATOM      4  C2  UNL d   1       2.490   5.912  -4.364  0.00  0.00    -0.047 A 
ATOM      5  C3  UNL d   1       2.219   5.317  -5.619  0.00  0.00    -0.047 A 
ATOM      6  C4  UNL d   1       3.275   4.479  -5.912  0.00  0.00    -0.004 A 
ENDROOT
TORSDOF 0
ENDMDL
