MODEL 1
REMARK minimizedAffinity 3.27388811
REMARK minimizedRMSD -1
REMARK  0 active torsions:
REMARK  status: ('A' for Active; 'I' for Inactive)
ROOT
ATOM      1  C   UNL d   1      -5.839  -2.602  -1.694  0.00  0.00     0.172 C 
ATOM      2  N   UNL d   1      -5.271  -3.843  -1.221  0.00  0.00    -0.070 N 
ATOM      3  C1  UNL d   1      -4.525  -3.998  -0.083  0.00  0.00    -0.004 A 
ATOM      4  C2  UNL d   1      -4.174  -5.327   0.014  0.00  0.00    -0.047 A 
ATOM      5  C3  UNL d   1      -4.727  -5.994  -1.104  0.00  0.00    -0.047 A 
ATOM      6  C4  UNL d   1      -5.401  -5.052  -1.852  0.00  0.00    -0.004 A 
ENDROOT
TORSDOF 0
ENDMDL
