MODEL 1
REMARK minimizedAffinity 3.53195381
REMARK minimizedRMSD -1
REMARK  0 active torsions:
REMARK  status: ('A' for Active; 'I' for Inactive)
ROOT
ATOM      1  C   UNL d   1       1.477  -0.759  -4.100  0.00  0.00     0.172 C 
ATOM      2  N   UNL d   1       1.718   0.233  -3.078  0.00  0.00    -0.070 N 
ATOM      3  C1  UNL d   1       0.783   0.726  -2.208  0.00  0.00    -0.004 A 
ATOM      4  C2  UNL d   1       1.407   1.647  -1.395  0.00  0.00    -0.047 A 
ATOM      5  C3  UNL d   1       2.764   1.710  -1.791  0.00  0.00    -0.047 A 
ATOM      6  C4  UNL d   1       2.929   0.824  -2.834  0.00  0.00    -0.004 A 
ENDROOT
TORSDOF 0
ENDMDL
