MODEL 1
REMARK minimizedAffinity 6.94332886
REMARK minimizedRMSD -1
REMARK  0 active torsions:
REMARK  status: ('A' for Active; 'I' for Inactive)
ROOT
ATOM      1  C   UNL d   1      -4.034  -4.047  -5.996  0.00  0.00     0.172 C 
ATOM      2  N   UNL d   1      -2.632  -3.702  -5.996  0.00  0.00    -0.070 N 
ATOM      3  C1  UNL d   1      -1.590  -4.591  -5.994  0.00  0.00    -0.004 A 
ATOM      4  C2  UNL d   1      -0.417  -3.867  -5.996  0.00  0.00    -0.047 A 
ATOM      5  C3  UNL d   1      -0.766  -2.496  -5.998  0.00  0.00    -0.047 A 
ATOM      6  C4  UNL d   1      -2.143  -2.422  -5.998  0.00  0.00    -0.004 A 
ENDROOT
TORSDOF 0
ENDMDL
