MODEL 1
REMARK minimizedAffinity 7.96396875
REMARK minimizedRMSD -1
REMARK  0 active torsions:
REMARK  status: ('A' for Active; 'I' for Inactive)
ROOT
ATOM      1  C   UNL d   1       3.381   2.644  -5.999  0.00  0.00     0.172 C 
ATOM      2  N   UNL d   1       3.295   3.939  -5.367  0.00  0.00    -0.070 N 
ATOM      3  C1  UNL d   1       2.302   4.861  -5.567  0.00  0.00    -0.004 A 
ATOM      4  C2  UNL d   1       2.582   5.960  -4.784  0.00  0.00    -0.047 A 
ATOM      5  C3  UNL d   1       3.785   5.690  -4.090  0.00  0.00    -0.047 A 
ATOM      6  C4  UNL d   1       4.205   4.433  -4.469  0.00  0.00    -0.004 A 
ENDROOT
TORSDOF 0
ENDMDL
