MODEL 1
REMARK minimizedAffinity 0.376216412
REMARK minimizedRMSD -1
REMARK  0 active torsions:
REMARK  status: ('A' for Active; 'I' for Inactive)
ROOT
ATOM      1  C   UNL d   1      -0.130  -2.874  -4.592  0.00  0.00     0.172 C 
ATOM      2  N   UNL d   1       0.522  -1.739  -3.982  0.00  0.00    -0.070 N 
ATOM      3  C1  UNL d   1       0.245  -1.232  -2.741  0.00  0.00    -0.004 A 
ATOM      4  C2  UNL d   1       1.079  -0.155  -2.530  0.00  0.00    -0.047 A 
ATOM      5  C3  UNL d   1       1.884  -0.010  -3.684  0.00  0.00    -0.047 A 
ATOM      6  C4  UNL d   1       1.518  -1.004  -4.568  0.00  0.00    -0.004 A 
ENDROOT
TORSDOF 0
ENDMDL
