MODEL 1
REMARK minimizedAffinity 4.6476512
REMARK minimizedRMSD -1
REMARK  0 active torsions:
REMARK  status: ('A' for Active; 'I' for Inactive)
ROOT
ATOM      1  C   UNL d   1      -4.148  -3.339  -5.898  0.00  0.00     0.172 C 
ATOM      2  N   UNL d   1      -2.985  -4.194  -5.929  0.00  0.00    -0.070 N 
ATOM      3  C1  UNL d   1      -3.001  -5.563  -5.986  0.00  0.00    -0.004 A 
ATOM      4  C2  UNL d   1      -1.694  -6.000  -6.000  0.00  0.00    -0.047 A 
ATOM      5  C3  UNL d   1      -0.864  -4.855  -5.948  0.00  0.00    -0.047 A 
ATOM      6  C4  UNL d   1      -1.689  -3.751  -5.905  0.00  0.00    -0.004 A 
ENDROOT
TORSDOF 0
ENDMDL
