MODEL 1
REMARK minimizedAffinity 7.35998154
REMARK minimizedRMSD -1
REMARK  0 active torsions:
REMARK  status: ('A' for Active; 'I' for Inactive)
ROOT
ATOM      1  C   UNL d   1       0.060  -2.812  -4.967  0.00  0.00     0.172 C 
ATOM      2  N   UNL d   1       0.854  -1.732  -4.430  0.00  0.00    -0.070 N 
ATOM      3  C1  UNL d   1       0.526  -0.961  -3.348  0.00  0.00    -0.004 A 
ATOM      4  C2  UNL d   1       1.539  -0.047  -3.158  0.00  0.00    -0.047 A 
ATOM      5  C3  UNL d   1       2.510  -0.275  -4.162  0.00  0.00    -0.047 A 
ATOM      6  C4  UNL d   1       2.060  -1.325  -4.936  0.00  0.00    -0.004 A 
ENDROOT
TORSDOF 0
ENDMDL
