MODEL 1
REMARK minimizedAffinity 5.71087408
REMARK minimizedRMSD -1
REMARK  0 active torsions:
REMARK  status: ('A' for Active; 'I' for Inactive)
ROOT
ATOM      1  C   UNL d   1       0.810   1.548  -1.529  0.00  0.00     0.172 C 
ATOM      2  N   UNL d   1       0.903   0.509  -2.527  0.00  0.00    -0.070 N 
ATOM      3  C1  UNL d   1       1.069  -0.827  -2.276  0.00  0.00    -0.004 A 
ATOM      4  C2  UNL d   1       1.110  -1.483  -3.488  0.00  0.00    -0.047 A 
ATOM      5  C3  UNL d   1       0.965  -0.507  -4.502  0.00  0.00    -0.047 A 
ATOM      6  C4  UNL d   1       0.839   0.717  -3.880  0.00  0.00    -0.004 A 
ENDROOT
TORSDOF 0
ENDMDL
