MODEL 1
REMARK minimizedAffinity 1.67872775
REMARK minimizedRMSD -1
REMARK  0 active torsions:
REMARK  status: ('A' for Active; 'I' for Inactive)
ROOT
ATOM      1  C   UNL d   1       1.995   3.182  -1.523  0.00  0.00     0.172 C 
ATOM      2  N   UNL d   1       2.732   3.787  -2.608  0.00  0.00    -0.070 N 
ATOM      3  C1  UNL d   1       3.879   3.291  -3.167  0.00  0.00    -0.004 A 
ATOM      4  C2  UNL d   1       4.268   4.155  -4.168  0.00  0.00    -0.047 A 
ATOM      5  C3  UNL d   1       3.322   5.207  -4.211  0.00  0.00    -0.047 A 
ATOM      6  C4  UNL d   1       2.382   4.954  -3.234  0.00  0.00    -0.004 A 
ENDROOT
TORSDOF 0
ENDMDL
