MODEL 1
REMARK minimizedAffinity 9.19758987
REMARK minimizedRMSD -1
REMARK  0 active torsions:
REMARK  status: ('A' for Active; 'I' for Inactive)
ROOT
ATOM      1  C   UNL d   1       1.004   0.762  -1.632  0.00  0.00     0.172 C 
ATOM      2  N   UNL d   1       1.234  -0.218  -2.668  0.00  0.00    -0.070 N 
ATOM      3  C1  UNL d   1       1.731   0.043  -3.917  0.00  0.00    -0.004 A 
ATOM      4  C2  UNL d   1       1.800  -1.151  -4.601  0.00  0.00    -0.047 A 
ATOM      5  C3  UNL d   1       1.326  -2.164  -3.735  0.00  0.00    -0.047 A 
ATOM      6  C4  UNL d   1       0.982  -1.559  -2.544  0.00  0.00    -0.004 A 
ENDROOT
TORSDOF 0
ENDMDL
