MODEL 1
REMARK minimizedAffinity 7.5947938
REMARK minimizedRMSD -1
REMARK  0 active torsions:
REMARK  status: ('A' for Active; 'I' for Inactive)
ROOT
ATOM      1  C   UNL d   1       1.697   2.400  -1.876  0.00  0.00     0.172 C 
ATOM      2  N   UNL d   1       1.853   1.201  -2.665  0.00  0.00    -0.070 N 
ATOM      3  C1  UNL d   1       0.870   0.286  -2.929  0.00  0.00    -0.004 A 
ATOM      4  C2  UNL d   1       1.417  -0.708  -3.712  0.00  0.00    -0.047 A 
ATOM      5  C3  UNL d   1       2.776  -0.379  -3.925  0.00  0.00    -0.047 A 
ATOM      6  C4  UNL d   1       3.020   0.808  -3.266  0.00  0.00    -0.004 A 
ENDROOT
TORSDOF 0
ENDMDL
