MODEL 1
REMARK minimizedAffinity 5.88491678
REMARK minimizedRMSD -1
REMARK  0 active torsions:
REMARK  status: ('A' for Active; 'I' for Inactive)
ROOT
ATOM      1  C   UNL d   1       0.862  -0.775  -3.409  0.00  0.00     0.172 C 
ATOM      2  N   UNL d   1      -0.011  -1.448  -4.343  0.00  0.00    -0.070 N 
ATOM      3  C1  UNL d   1      -0.231  -2.799  -4.398  0.00  0.00    -0.004 A 
ATOM      4  C2  UNL d   1      -1.124  -3.039  -5.420  0.00  0.00    -0.047 A 
ATOM      5  C3  UNL d   1      -1.450  -1.790  -6.000  0.00  0.00    -0.047 A 
ATOM      6  C4  UNL d   1      -0.748  -0.823  -5.313  0.00  0.00    -0.004 A 
ENDROOT
TORSDOF 0
ENDMDL
