MODEL 1
REMARK minimizedAffinity 6.24836683
REMARK minimizedRMSD -1
REMARK  0 active torsions:
REMARK  status: ('A' for Active; 'I' for Inactive)
ROOT
ATOM      1  C   UNL d   1      -4.502  -2.393   1.898  0.00  0.00     0.172 C 
ATOM      2  N   UNL d   1      -4.374  -3.828   1.814  0.00  0.00    -0.070 N 
ATOM      3  C1  UNL d   1      -5.258  -4.740   2.326  0.00  0.00    -0.004 A 
ATOM      4  C2  UNL d   1      -4.780  -6.000   2.038  0.00  0.00    -0.047 A 
ATOM      5  C3  UNL d   1      -3.565  -5.840   1.330  0.00  0.00    -0.047 A 
ATOM      6  C4  UNL d   1      -3.337  -4.486   1.206  0.00  0.00    -0.004 A 
ENDROOT
TORSDOF 0
ENDMDL
