MODEL 1
REMARK minimizedAffinity 6.91080713
REMARK minimizedRMSD -1
REMARK  0 active torsions:
REMARK  status: ('A' for Active; 'I' for Inactive)
ROOT
ATOM      1  C   UNL d   1       1.499  -1.162  -3.741  0.00  0.00     0.172 C 
ATOM      2  N   UNL d   1       2.289  -0.376  -4.660  0.00  0.00    -0.070 N 
ATOM      3  C1  UNL d   1       1.946   0.851  -5.160  0.00  0.00    -0.004 A 
ATOM      4  C2  UNL d   1       2.960   1.265  -5.997  0.00  0.00    -0.047 A 
ATOM      5  C3  UNL d   1       3.947   0.250  -6.000  0.00  0.00    -0.047 A 
ATOM      6  C4  UNL d   1       3.506  -0.754  -5.163  0.00  0.00    -0.004 A 
ENDROOT
TORSDOF 0
ENDMDL
