MODEL 1
REMARK minimizedAffinity 6.98343325
REMARK minimizedRMSD -1
REMARK  0 active torsions:
REMARK  status: ('A' for Active; 'I' for Inactive)
ROOT
ATOM      1  C   UNL d   1       2.249   2.939  -2.035  0.00  0.00     0.172 C 
ATOM      2  N   UNL d   1       2.830   3.472  -3.245  0.00  0.00    -0.070 N 
ATOM      3  C1  UNL d   1       2.196   3.582  -4.454  0.00  0.00    -0.004 A 
ATOM      4  C2  UNL d   1       3.085   4.137  -5.348  0.00  0.00    -0.047 A 
ATOM      5  C3  UNL d   1       4.296   4.367  -4.653  0.00  0.00    -0.047 A 
ATOM      6  C4  UNL d   1       4.111   3.947  -3.353  0.00  0.00    -0.004 A 
ENDROOT
TORSDOF 0
ENDMDL
