MODEL 1
REMARK minimizedAffinity -0.254573226
REMARK minimizedRMSD -1
REMARK  0 active torsions:
REMARK  status: ('A' for Active; 'I' for Inactive)
ROOT
ATOM      1  O1  BZF d   1      -0.306   0.109  -2.307  0.00  0.00    -0.204 OA
ATOM      2  C2  BZF d   1       1.051   0.080  -2.048  0.00  0.00     0.174 A 
ATOM      3  C3  BZF d   1       1.285   0.094  -0.720  0.00  0.00    -0.012 A 
ATOM      4  C3A BZF d   1      -0.008   0.039  -0.109  0.00  0.00    -0.107 A 
ATOM      5  C4  BZF d   1      -0.433   0.010   1.188  0.00  0.00     0.055 A 
ATOM      6  C5  BZF d   1      -1.767   0.032   1.447  0.00  0.00    -0.016 A 
ATOM      7  C6  BZF d   1      -2.702   0.090   0.434  0.00  0.00     0.022 A 
ATOM      8  C7  BZF d   1      -2.329   0.116  -0.868  0.00  0.00     0.029 A 
ATOM      9  C7A BZF d   1      -0.982   0.060  -1.134  0.00  0.00     0.058 A 
ENDROOT
TORSDOF 0
ENDMDL
