MODEL 1
REMARK minimizedAffinity -6.47207546
REMARK minimizedRMSD -1
REMARK  0 active torsions:
REMARK  status: ('A' for Active; 'I' for Inactive)
ROOT
ATOM      1  O1  BZF d   1      -0.329  -0.014  -0.460  0.00  0.00    -0.204 OA
ATOM      2  C2  BZF d   1       1.027   0.212  -0.322  0.00  0.00     0.174 A 
ATOM      3  C3  BZF d   1       1.375   0.253   0.980  0.00  0.00    -0.012 A 
ATOM      4  C3A BZF d   1       0.177  -0.052   1.700  0.00  0.00    -0.107 A 
ATOM      5  C4  BZF d   1      -0.114  -0.177   3.028  0.00  0.00     0.055 A 
ATOM      6  C5  BZF d   1      -1.400  -0.410   3.403  0.00  0.00    -0.016 A 
ATOM      7  C6  BZF d   1      -2.418  -0.517   2.478  0.00  0.00     0.022 A 
ATOM      8  C7  BZF d   1      -2.177  -0.405   1.149  0.00  0.00     0.029 A 
ATOM      9  C7A BZF d   1      -0.874  -0.203   0.765  0.00  0.00     0.058 A 
ENDROOT
TORSDOF 0
ENDMDL
