MODEL 1
REMARK minimizedAffinity 1.83282614
REMARK minimizedRMSD -1
REMARK  0 active torsions:
REMARK  status: ('A' for Active; 'I' for Inactive)
ROOT
ATOM      1  O1  BZF d   1      -0.855  -0.340  -2.530  0.00  0.00    -0.204 OA
ATOM      2  C2  BZF d   1      -0.479   0.722  -1.731  0.00  0.00     0.174 A 
ATOM      3  C3  BZF d   1       0.864   0.848  -1.702  0.00  0.00    -0.012 A 
ATOM      4  C3A BZF d   1       1.354  -0.144  -2.609  0.00  0.00    -0.107 A 
ATOM      5  C4  BZF d   1       2.605  -0.502  -3.022  0.00  0.00     0.055 A 
ATOM      6  C5  BZF d   1       2.746  -1.562  -3.860  0.00  0.00    -0.016 A 
ATOM      7  C6  BZF d   1       1.659  -2.289  -4.301  0.00  0.00     0.022 A 
ATOM      8  C7  BZF d   1       0.398  -1.968  -3.923  0.00  0.00     0.029 A 
ATOM      9  C7A BZF d   1       0.250  -0.877  -3.102  0.00  0.00     0.058 A 
ENDROOT
TORSDOF 0
ENDMDL
