MODEL 1
REMARK minimizedAffinity -5.32290554
REMARK minimizedRMSD -1
REMARK  0 active torsions:
REMARK  status: ('A' for Active; 'I' for Inactive)
ROOT
ATOM      1  O1  BZF d   1      -0.020   0.436  -0.821  0.00  0.00    -0.204 OA
ATOM      2  C2  BZF d   1      -1.327   0.800  -1.081  0.00  0.00     0.174 A 
ATOM      3  C3  BZF d   1      -2.106   0.590  -0.001  0.00  0.00    -0.012 A 
ATOM      4  C3A BZF d   1      -1.214   0.147   1.027  0.00  0.00    -0.107 A 
ATOM      5  C4  BZF d   1      -1.389  -0.206   2.334  0.00  0.00     0.055 A 
ATOM      6  C5  BZF d   1      -0.323  -0.662   3.043  0.00  0.00    -0.016 A 
ATOM      7  C6  BZF d   1       0.929  -0.782   2.476  0.00  0.00     0.022 A 
ATOM      8  C7  BZF d   1       1.152  -0.439   1.185  0.00  0.00     0.029 A 
ATOM      9  C7A BZF d   1       0.084   0.053   0.475  0.00  0.00     0.058 A 
ENDROOT
TORSDOF 0
ENDMDL
