MODEL 1
REMARK minimizedAffinity -3.39778566
REMARK minimizedRMSD -1
REMARK  0 active torsions:
REMARK  status: ('A' for Active; 'I' for Inactive)
ROOT
ATOM      1  O1  BZF d   1      -1.168  -0.909  -0.438  0.00  0.00    -0.204 OA
ATOM      2  C2  BZF d   1      -0.464  -0.319  -1.470  0.00  0.00     0.174 A 
ATOM      3  C3  BZF d   1       0.553   0.426  -0.990  0.00  0.00    -0.012 A 
ATOM      4  C3A BZF d   1       0.535   0.220   0.426  0.00  0.00    -0.107 A 
ATOM      5  C4  BZF d   1       1.311   0.680   1.451  0.00  0.00     0.055 A 
ATOM      6  C5  BZF d   1       0.983   0.348   2.728  0.00  0.00    -0.016 A 
ATOM      7  C6  BZF d   1      -0.114  -0.437   3.015  0.00  0.00     0.022 A 
ATOM      8  C7  BZF d   1      -0.911  -0.921   2.031  0.00  0.00     0.029 A 
ATOM      9  C7A BZF d   1      -0.563  -0.615   0.738  0.00  0.00     0.058 A 
ENDROOT
TORSDOF 0
ENDMDL
