MODEL 1
REMARK minimizedAffinity 5.78646517
REMARK minimizedRMSD -1
REMARK  0 active torsions:
REMARK  status: ('A' for Active; 'I' for Inactive)
ROOT
ATOM      1  O1  BZF d   1       5.492   0.987  -5.632  0.00  0.00    -0.204 OA
ATOM      2  C2  BZF d   1       5.264   2.347  -5.540  0.00  0.00     0.174 A 
ATOM      3  C3  BZF d   1       4.041   2.593  -5.027  0.00  0.00    -0.012 A 
ATOM      4  C3A BZF d   1       3.505   1.307  -4.699  0.00  0.00    -0.107 A 
ATOM      5  C4  BZF d   1       2.329   0.895  -4.142  0.00  0.00     0.055 A 
ATOM      6  C5  BZF d   1       2.085  -0.436  -4.023  0.00  0.00    -0.016 A 
ATOM      7  C6  BZF d   1       2.991  -1.382  -4.456  0.00  0.00     0.022 A 
ATOM      8  C7  BZF d   1       4.174  -1.021  -5.010  0.00  0.00     0.029 A 
ATOM      9  C7A BZF d   1       4.438   0.323  -5.101  0.00  0.00     0.058 A 
ENDROOT
TORSDOF 0
ENDMDL
