MODEL 1
REMARK minimizedAffinity -2.96741343
REMARK minimizedRMSD -1
REMARK  0 active torsions:
REMARK  status: ('A' for Active; 'I' for Inactive)
ROOT
ATOM      1  O1  BZF d   1      -2.436   0.951   0.523  0.00  0.00    -0.204 OA
ATOM      2  C2  BZF d   1      -3.069   1.126   1.739  0.00  0.00     0.174 A 
ATOM      3  C3  BZF d   1      -2.194   0.996   2.757  0.00  0.00    -0.012 A 
ATOM      4  C3A BZF d   1      -0.918   0.815   2.136  0.00  0.00    -0.107 A 
ATOM      5  C4  BZF d   1       0.347   0.646   2.622  0.00  0.00     0.055 A 
ATOM      6  C5  BZF d   1       1.365   0.423   1.750  0.00  0.00    -0.016 A 
ATOM      7  C6  BZF d   1       1.153   0.356   0.388  0.00  0.00     0.022 A 
ATOM      8  C7  BZF d   1      -0.083   0.523  -0.141  0.00  0.00     0.029 A 
ATOM      9  C7A BZF d   1      -1.109   0.782   0.735  0.00  0.00     0.058 A 
ENDROOT
TORSDOF 0
ENDMDL
