MODEL 1
REMARK minimizedAffinity -1.71033108
REMARK minimizedRMSD -1
REMARK  0 active torsions:
REMARK  status: ('A' for Active; 'I' for Inactive)
ROOT
ATOM      1  O1  BZF d   1       1.134   0.999  -0.376  0.00  0.00    -0.204 OA
ATOM      2  C2  BZF d   1       0.411   0.285  -1.312  0.00  0.00     0.174 A 
ATOM      3  C3  BZF d   1      -0.496  -0.511  -0.711  0.00  0.00    -0.012 A 
ATOM      4  C3A BZF d   1      -0.392  -0.212   0.685  0.00  0.00    -0.107 A 
ATOM      5  C4  BZF d   1      -1.045  -0.668   1.794  0.00  0.00     0.055 A 
ATOM      6  C5  BZF d   1      -0.656  -0.227   3.018  0.00  0.00    -0.016 A 
ATOM      7  C6  BZF d   1       0.385   0.666   3.171  0.00  0.00     0.022 A 
ATOM      8  C7  BZF d   1       1.060   1.151   2.100  0.00  0.00     0.029 A 
ATOM      9  C7A BZF d   1       0.646   0.732   0.859  0.00  0.00     0.058 A 
ENDROOT
TORSDOF 0
ENDMDL
