MODEL 1
REMARK minimizedAffinity 1.11558759
REMARK minimizedRMSD -1
REMARK  0 active torsions:
REMARK  status: ('A' for Active; 'I' for Inactive)
ROOT
ATOM      1  O1  BZF d   1      -1.667  -0.300   0.196  0.00  0.00    -0.204 OA
ATOM      2  C2  BZF d   1      -1.163  -0.269  -1.090  0.00  0.00     0.174 A 
ATOM      3  C3  BZF d   1       0.121   0.145  -1.090  0.00  0.00    -0.012 A 
ATOM      4  C3A BZF d   1       0.467   0.298   0.290  0.00  0.00    -0.107 A 
ATOM      5  C4  BZF d   1       1.611   0.671   0.934  0.00  0.00     0.055 A 
ATOM      6  C5  BZF d   1       1.598   0.791   2.288  0.00  0.00    -0.016 A 
ATOM      7  C6  BZF d   1       0.457   0.553   3.027  0.00  0.00     0.022 A 
ATOM      8  C7  BZF d   1      -0.701   0.175   2.432  0.00  0.00     0.029 A 
ATOM      9  C7A BZF d   1      -0.681   0.021   1.067  0.00  0.00     0.058 A 
ENDROOT
TORSDOF 0
ENDMDL
