MODEL 1
REMARK minimizedAffinity 0.489876896
REMARK minimizedRMSD -1
REMARK  0 active torsions:
REMARK  status: ('A' for Active; 'I' for Inactive)
ROOT
ATOM      1  O1  BZF d   1      -1.143  -1.396  -1.027  0.00  0.00    -0.204 OA
ATOM      2  C2  BZF d   1      -1.124  -0.156  -0.418  0.00  0.00     0.174 A 
ATOM      3  C3  BZF d   1      -0.232   0.658  -1.019  0.00  0.00    -0.012 A 
ATOM      4  C3A BZF d   1       0.276  -0.093  -2.126  0.00  0.00    -0.107 A 
ATOM      5  C4  BZF d   1       1.183   0.182  -3.109  0.00  0.00     0.055 A 
ATOM      6  C5  BZF d   1       1.511  -0.793  -3.997  0.00  0.00    -0.016 A 
ATOM      7  C6  BZF d   1       0.956  -2.054  -3.927  0.00  0.00     0.022 A 
ATOM      8  C7  BZF d   1       0.048  -2.373  -2.973  0.00  0.00     0.029 A 
ATOM      9  C7A BZF d   1      -0.310  -1.379  -2.094  0.00  0.00     0.058 A 
ENDROOT
TORSDOF 0
ENDMDL
