MODEL 1
REMARK minimizedAffinity -3.93501377
REMARK minimizedRMSD -1
REMARK  0 active torsions:
REMARK  status: ('A' for Active; 'I' for Inactive)
ROOT
ATOM      1  O1  BZF d   1      -0.956  -0.752  -0.667  0.00  0.00    -0.204 OA
ATOM      2  C2  BZF d   1      -0.008  -0.227  -1.525  0.00  0.00     0.174 A 
ATOM      3  C3  BZF d   1       0.980   0.377  -0.834  0.00  0.00    -0.012 A 
ATOM      4  C3A BZF d   1       0.676   0.140   0.544  0.00  0.00    -0.107 A 
ATOM      5  C4  BZF d   1       1.295   0.477   1.714  0.00  0.00     0.055 A 
ATOM      6  C5  BZF d   1       0.699   0.155   2.892  0.00  0.00    -0.016 A 
ATOM      7  C6  BZF d   1      -0.515  -0.497   2.938  0.00  0.00     0.022 A 
ATOM      8  C7  BZF d   1      -1.165  -0.857   1.804  0.00  0.00     0.029 A 
ATOM      9  C7A BZF d   1      -0.550  -0.562   0.612  0.00  0.00     0.058 A 
ENDROOT
TORSDOF 0
ENDMDL
