MODEL 1
REMARK minimizedAffinity 0.45581919
REMARK minimizedRMSD -1
REMARK  0 active torsions:
REMARK  status: ('A' for Active; 'I' for Inactive)
ROOT
ATOM      1  O1  BZF d   1      -0.389   0.263  -1.563  0.00  0.00    -0.204 OA
ATOM      2  C2  BZF d   1       0.395   0.720  -0.522  0.00  0.00     0.174 A 
ATOM      3  C3  BZF d   1       1.650   0.234  -0.620  0.00  0.00    -0.012 A 
ATOM      4  C3A BZF d   1       1.674  -0.503  -1.846  0.00  0.00    -0.107 A 
ATOM      5  C4  BZF d   1       2.645  -1.205  -2.500  0.00  0.00     0.055 A 
ATOM      6  C5  BZF d   1       2.324  -1.870  -3.641  0.00  0.00    -0.016 A 
ATOM      7  C6  BZF d   1       1.043  -1.858  -4.153  0.00  0.00     0.022 A 
ATOM      8  C7  BZF d   1       0.047  -1.171  -3.541  0.00  0.00     0.029 A 
ATOM      9  C7A BZF d   1       0.376  -0.472  -2.406  0.00  0.00     0.058 A 
ENDROOT
TORSDOF 0
ENDMDL
