MODEL 1
REMARK minimizedAffinity -5.97386932
REMARK minimizedRMSD -1
REMARK  0 active torsions:
REMARK  status: ('A' for Active; 'I' for Inactive)
ROOT
ATOM      1  O1  BZF d   1       1.395   1.033  -0.624  0.00  0.00    -0.204 OA
ATOM      2  C2  BZF d   1       0.373   0.880  -1.541  0.00  0.00     0.174 A 
ATOM      3  C3  BZF d   1      -0.624   0.133  -1.025  0.00  0.00    -0.012 A 
ATOM      4  C3A BZF d   1      -0.240  -0.125   0.329  0.00  0.00    -0.107 A 
ATOM      5  C4  BZF d   1      -0.827  -0.802   1.359  0.00  0.00     0.055 A 
ATOM      6  C5  BZF d   1      -0.156  -0.930   2.533  0.00  0.00    -0.016 A 
ATOM      7  C6  BZF d   1       1.105  -0.398   2.711  0.00  0.00     0.022 A 
ATOM      8  C7  BZF d   1       1.726   0.286   1.720  0.00  0.00     0.029 A 
ATOM      9  C7A BZF d   1       1.036   0.446   0.542  0.00  0.00     0.058 A 
ENDROOT
TORSDOF 0
ENDMDL
