MODEL 1
REMARK minimizedAffinity -4.52728176
REMARK minimizedRMSD -1
REMARK  0 active torsions:
REMARK  status: ('A' for Active; 'I' for Inactive)
ROOT
ATOM      1  O1  BZF d   1      -0.823  -0.331  -0.624  0.00  0.00    -0.204 OA
ATOM      2  C2  BZF d   1       0.160   0.160  -1.462  0.00  0.00     0.174 A 
ATOM      3  C3  BZF d   1       1.185   0.671  -0.750  0.00  0.00    -0.012 A 
ATOM      4  C3A BZF d   1       0.862   0.404   0.618  0.00  0.00    -0.107 A 
ATOM      5  C4  BZF d   1       1.500   0.655   1.800  0.00  0.00     0.055 A 
ATOM      6  C5  BZF d   1       0.881   0.332   2.966  0.00  0.00    -0.016 A 
ATOM      7  C6  BZF d   1      -0.375  -0.238   2.988  0.00  0.00     0.022 A 
ATOM      8  C7  BZF d   1      -1.044  -0.511   1.841  0.00  0.00     0.029 A 
ATOM      9  C7A BZF d   1      -0.408  -0.216   0.660  0.00  0.00     0.058 A 
ENDROOT
TORSDOF 0
ENDMDL
