MODEL 1
REMARK minimizedAffinity -3.60359168
REMARK minimizedRMSD -1
REMARK  0 active torsions:
REMARK  status: ('A' for Active; 'I' for Inactive)
ROOT
ATOM      1  O1  BZF d   1      -0.563  -1.230  -0.911  0.00  0.00    -0.204 OA
ATOM      2  C2  BZF d   1      -0.663   0.023  -0.339  0.00  0.00     0.174 A 
ATOM      3  C3  BZF d   1       0.226   0.873  -0.893  0.00  0.00    -0.012 A 
ATOM      4  C3A BZF d   1       0.861   0.127  -1.935  0.00  0.00    -0.107 A 
ATOM      5  C4  BZF d   1       1.826   0.431  -2.854  0.00  0.00     0.055 A 
ATOM      6  C5  BZF d   1       2.277  -0.545  -3.684  0.00  0.00    -0.016 A 
ATOM      7  C6  BZF d   1       1.792  -1.835  -3.621  0.00  0.00     0.022 A 
ATOM      8  C7  BZF d   1       0.832  -2.183  -2.730  0.00  0.00     0.029 A 
ATOM      9  C7A BZF d   1       0.349  -1.191  -1.911  0.00  0.00     0.058 A 
ENDROOT
TORSDOF 0
ENDMDL
