MODEL 1
REMARK minimizedAffinity -0.989937305
REMARK minimizedRMSD -1
REMARK  0 active torsions:
REMARK  status: ('A' for Active; 'I' for Inactive)
ROOT
ATOM      1  O1  BZF d   1       1.719   0.311  -0.487  0.00  0.00    -0.204 OA
ATOM      2  C2  BZF d   1       0.856  -0.278  -1.391  0.00  0.00     0.174 A 
ATOM      3  C3  BZF d   1      -0.331  -0.550  -0.812  0.00  0.00    -0.012 A 
ATOM      4  C3A BZF d   1      -0.234  -0.018   0.513  0.00  0.00    -0.107 A 
ATOM      5  C4  BZF d   1      -1.099   0.037   1.569  0.00  0.00     0.055 A 
ATOM      6  C5  BZF d   1      -0.670   0.559   2.748  0.00  0.00    -0.016 A 
ATOM      7  C6  BZF d   1       0.616   1.031   2.908  0.00  0.00     0.022 A 
ATOM      8  C7  BZF d   1       1.509   1.002   1.888  0.00  0.00     0.029 A 
ATOM      9  C7A BZF d   1       1.068   0.505   0.686  0.00  0.00     0.058 A 
ENDROOT
TORSDOF 0
ENDMDL
