MODEL 1
REMARK minimizedAffinity -1.30853295
REMARK minimizedRMSD -1
REMARK  0 active torsions:
REMARK  status: ('A' for Active; 'I' for Inactive)
ROOT
ATOM      1  O1  BZF d   1       0.038   1.139  -1.059  0.00  0.00    -0.204 OA
ATOM      2  C2  BZF d   1       0.379   0.162  -1.974  0.00  0.00     0.174 A 
ATOM      3  C3  BZF d   1       0.934  -0.900  -1.355  0.00  0.00    -0.012 A 
ATOM      4  C3A BZF d   1       0.857  -0.604   0.043  0.00  0.00    -0.107 A 
ATOM      5  C4  BZF d   1       1.231  -1.281   1.168  0.00  0.00     0.055 A 
ATOM      6  C5  BZF d   1       1.083  -0.683   2.379  0.00  0.00    -0.016 A 
ATOM      7  C6  BZF d   1       0.571   0.592   2.501  0.00  0.00     0.022 A 
ATOM      8  C7  BZF d   1       0.181   1.302   1.414  0.00  0.00     0.029 A 
ATOM      9  C7A BZF d   1       0.298   0.687   0.191  0.00  0.00     0.058 A 
ENDROOT
TORSDOF 0
ENDMDL
