MODEL 1
REMARK minimizedAffinity -5.51497269
REMARK minimizedRMSD -1
REMARK  2 active torsions:
REMARK  status: ('A' for Active; 'I' for Inactive)
REMARK    1  A    between atoms: C1_2  and  C2_3 
REMARK    2  A    between atoms: C2_3  and  C3_4 
ROOT
ATOM      1  C3  UNL d   1       0.608   0.164   1.315  0.00  0.00    -0.075 A 
ATOM      2  C4  UNL d   1       1.365   0.343   2.483  0.00  0.00     0.002 A 
ATOM      3  C5  UNL d   1       0.810   0.972   3.597  0.00  0.00     0.002 A 
ATOM      4  C6  UNL d   1      -0.502   1.440   3.555  0.00  0.00    -0.004 A 
ATOM      5  C7  UNL d   1      -1.257   1.283   2.395  0.00  0.00     0.002 A 
ATOM      6  C8  UNL d   1      -0.706   0.649   1.280  0.00  0.00     0.002 A 
ENDROOT
BRANCH   1   7
ATOM      7  C2  UNL d   1       1.193  -0.543   0.116  0.00  0.00     0.056 C 
BRANCH   7   8
ATOM      8  C1  UNL d   1       0.166  -0.885  -0.968  0.00  0.00     0.007 C 
ATOM      9  C   UNL d   1       0.578  -0.413  -2.356  0.00  0.00     0.009 C 
ENDBRANCH   7   8
ENDBRANCH   1   7
TORSDOF 2
ENDMDL
