MODEL 1
REMARK minimizedAffinity -3.48039842
REMARK minimizedRMSD -1
REMARK  2 active torsions:
REMARK  status: ('A' for Active; 'I' for Inactive)
REMARK    1  A    between atoms: C1_2  and  C2_3 
REMARK    2  A    between atoms: C2_3  and  C3_4 
ROOT
ATOM      1  C3  UNL d   1       0.212  -0.177  -0.281  0.00  0.00    -0.075 A 
ATOM      2  C4  UNL d   1      -1.183  -0.293  -0.187  0.00  0.00     0.002 A 
ATOM      3  C5  UNL d   1      -1.863   0.214   0.921  0.00  0.00     0.002 A 
ATOM      4  C6  UNL d   1      -1.158   0.834   1.951  0.00  0.00    -0.004 A 
ATOM      5  C7  UNL d   1       0.229   0.940   1.875  0.00  0.00     0.002 A 
ATOM      6  C8  UNL d   1       0.911   0.437   0.766  0.00  0.00     0.002 A 
ENDROOT
BRANCH   1   7
ATOM      7  C2  UNL d   1       0.950  -0.697  -1.491  0.00  0.00     0.056 C 
BRANCH   7   8
ATOM      8  C1  UNL d   1       0.257  -0.393  -2.823  0.00  0.00     0.007 C 
ATOM      9  C   UNL d   1       1.125   0.414  -3.781  0.00  0.00     0.009 C 
ENDBRANCH   7   8
ENDBRANCH   1   7
TORSDOF 2
ENDMDL
