MODEL 1
REMARK minimizedAffinity -5.69780779
REMARK minimizedRMSD -1
REMARK  2 active torsions:
REMARK  status: ('A' for Active; 'I' for Inactive)
REMARK    1  A    between atoms: C1_2  and  C2_3 
REMARK    2  A    between atoms: C2_3  and  C3_4 
ROOT
ATOM      1  C3  UNL d   1      -0.455   0.056  -0.310  0.00  0.00    -0.075 A 
ATOM      2  C4  UNL d   1       0.373   1.060   0.211  0.00  0.00     0.002 A 
ATOM      3  C5  UNL d   1       0.110   1.616   1.463  0.00  0.00     0.002 A 
ATOM      4  C6  UNL d   1      -0.989   1.185   2.203  0.00  0.00    -0.004 A 
ATOM      5  C7  UNL d   1      -1.829   0.200   1.687  0.00  0.00     0.002 A 
ATOM      6  C8  UNL d   1      -1.565  -0.362   0.437  0.00  0.00     0.002 A 
ENDROOT
BRANCH   1   7
ATOM      7  C2  UNL d   1      -0.158  -0.571  -1.652  0.00  0.00     0.056 C 
BRANCH   7   8
ATOM      8  C1  UNL d   1       0.688   0.309  -2.578  0.00  0.00     0.007 C 
ATOM      9  C   UNL d   1      -0.102   0.886  -3.745  0.00  0.00     0.009 C 
ENDBRANCH   7   8
ENDBRANCH   1   7
TORSDOF 2
ENDMDL
