MODEL 1
REMARK minimizedAffinity -1.72675848
REMARK minimizedRMSD -1
REMARK  2 active torsions:
REMARK  status: ('A' for Active; 'I' for Inactive)
REMARK    1  A    between atoms: C1_2  and  C2_3 
REMARK    2  A    between atoms: C2_3  and  C3_4 
ROOT
ATOM      1  C3  UNL d   1      -0.845   0.107   0.432  0.00  0.00    -0.075 A 
ATOM      2  C4  UNL d   1      -1.465   0.667   1.558  0.00  0.00     0.002 A 
ATOM      3  C5  UNL d   1      -0.800   1.617   2.334  0.00  0.00     0.002 A 
ATOM      4  C6  UNL d   1       0.495   2.011   2.001  0.00  0.00    -0.004 A 
ATOM      5  C7  UNL d   1       1.126   1.448   0.894  0.00  0.00     0.002 A 
ATOM      6  C8  UNL d   1       0.461   0.501   0.113  0.00  0.00     0.002 A 
ENDROOT
BRANCH   1   7
ATOM      7  C2  UNL d   1      -1.570  -0.900  -0.428  0.00  0.00     0.056 C 
BRANCH   7   8
ATOM      8  C1  UNL d   1      -3.094  -0.735  -0.431  0.00  0.00     0.007 C 
ATOM      9  C   UNL d   1      -3.837  -2.029  -0.734  0.00  0.00     0.009 C 
ENDBRANCH   7   8
ENDBRANCH   1   7
TORSDOF 2
ENDMDL
