MODEL 1
REMARK minimizedAffinity -5.1461072
REMARK minimizedRMSD -1
REMARK  2 active torsions:
REMARK  status: ('A' for Active; 'I' for Inactive)
REMARK    1  A    between atoms: C1_2  and  C2_3 
REMARK    2  A    between atoms: C2_3  and  C3_4 
ROOT
ATOM      1  C3  UNL d   1       0.119  -0.709  -1.899  0.00  0.00    -0.075 A 
ATOM      2  C4  UNL d   1       0.677   0.478  -2.395  0.00  0.00     0.002 A 
ATOM      3  C5  UNL d   1       0.538   0.818  -3.741  0.00  0.00     0.002 A 
ATOM      4  C6  UNL d   1      -0.149  -0.028  -4.609  0.00  0.00    -0.004 A 
ATOM      5  C7  UNL d   1      -0.693  -1.219  -4.130  0.00  0.00     0.002 A 
ATOM      6  C8  UNL d   1      -0.559  -1.559  -2.783  0.00  0.00     0.002 A 
ENDROOT
BRANCH   1   7
ATOM      7  C2  UNL d   1       0.240  -1.068  -0.437  0.00  0.00     0.056 C 
BRANCH   7   8
ATOM      8  C1  UNL d   1       0.654   0.103   0.460  0.00  0.00     0.007 C 
ATOM      9  C   UNL d   1      -0.481   0.622   1.332  0.00  0.00     0.009 C 
ENDBRANCH   7   8
ENDBRANCH   1   7
TORSDOF 2
ENDMDL
