MODEL 1
REMARK minimizedAffinity 6.38764334
REMARK minimizedRMSD -1
REMARK  2 active torsions:
REMARK  status: ('A' for Active; 'I' for Inactive)
REMARK    1  A    between atoms: C1_2  and  C2_3 
REMARK    2  A    between atoms: C2_3  and  C3_4 
ROOT
ATOM      1  C3  UNL d   1       2.285  -0.797  -1.807  0.00  0.00    -0.075 A 
ATOM      2  C4  UNL d   1       3.641  -0.884  -2.152  0.00  0.00     0.002 A 
ATOM      3  C5  UNL d   1       4.139  -0.184  -3.251  0.00  0.00     0.002 A 
ATOM      4  C6  UNL d   1       3.287   0.602  -4.024  0.00  0.00    -0.004 A 
ATOM      5  C7  UNL d   1       1.934   0.683  -3.700  0.00  0.00     0.002 A 
ATOM      6  C8  UNL d   1       1.434  -0.013  -2.598  0.00  0.00     0.002 A 
ENDROOT
BRANCH   1   7
ATOM      7  C2  UNL d   1       1.746  -1.528  -0.601  0.00  0.00     0.056 C 
BRANCH   7   8
ATOM      8  C1  UNL d   1       2.452  -1.172   0.712  0.00  0.00     0.007 C 
ATOM      9  C   UNL d   1       1.593  -0.331   1.647  0.00  0.00     0.009 C 
ENDBRANCH   7   8
ENDBRANCH   1   7
TORSDOF 2
ENDMDL
