MODEL 1
REMARK minimizedAffinity 14.5282278
REMARK minimizedRMSD -1
REMARK  0 active torsions:
REMARK  status: ('A' for Active; 'I' for Inactive)
ROOT
ATOM      1  C   UNL d   1      -0.784  -6.000  -1.429  0.00  0.00     0.124 A 
ATOM      2  C1  UNL d   1       0.247  -5.999  -2.359  0.00  0.00     0.062 A 
ATOM      3  C2  UNL d   1       1.572  -5.998  -1.936  0.00  0.00     0.162 A 
ATOM      4  C3  UNL d   1       1.876  -5.998  -0.574  0.00  0.00    -0.034 A 
ATOM      5  C4  UNL d   1       0.835  -5.998   0.355  0.00  0.00     0.162 A 
ATOM      6  C5  UNL d   1      -0.489  -5.999  -0.073  0.00  0.00     0.062 A 
ATOM      7  F   UNL d   1      -1.483  -5.999   0.827  0.00  0.00    -0.097 F 
ATOM      8  F1  UNL d   1       1.091  -5.998   1.672  0.00  0.00    -0.096 F 
ATOM      9  I   UNL d   1       3.857  -5.996   0.063  0.00  0.00    -0.060 I 
ATOM     10  F2  UNL d   1       2.547  -5.998  -2.857  0.00  0.00    -0.096 F 
ATOM     11  F3  UNL d   1      -0.036  -5.999  -3.670  0.00  0.00    -0.097 F 
ATOM     12  F4  UNL d   1      -2.058  -6.000  -1.840  0.00  0.00    -0.092 F 
ENDROOT
TORSDOF 0
ENDMDL
