MODEL 1
REMARK minimizedAffinity 7.8287487
REMARK minimizedRMSD -1
REMARK  0 active torsions:
REMARK  status: ('A' for Active; 'I' for Inactive)
ROOT
ATOM      1  C   UNL d   1       2.785  -1.734   2.731  0.00  0.00     0.124 A 
ATOM      2  C1  UNL d   1       3.695  -2.596   3.328  0.00  0.00     0.062 A 
ATOM      3  C2  UNL d   1       3.248  -3.625   4.152  0.00  0.00     0.162 A 
ATOM      4  C3  UNL d   1       1.884  -3.799   4.383  0.00  0.00    -0.034 A 
ATOM      5  C4  UNL d   1       0.974  -2.928   3.780  0.00  0.00     0.162 A 
ATOM      6  C5  UNL d   1       1.426  -1.901   2.958  0.00  0.00     0.062 A 
ATOM      7  F   UNL d   1       0.545  -1.070   2.382  0.00  0.00    -0.097 F 
ATOM      8  F1  UNL d   1      -0.345  -3.067   3.981  0.00  0.00    -0.096 F 
ATOM      9  I   UNL d   1       1.211  -5.336   5.615  0.00  0.00    -0.060 I 
ATOM     10  F2  UNL d   1       4.150  -4.442   4.716  0.00  0.00    -0.096 F 
ATOM     11  F3  UNL d   1       5.008  -2.436   3.112  0.00  0.00    -0.097 F 
ATOM     12  F4  UNL d   1       3.218  -0.744   1.940  0.00  0.00    -0.092 F 
ENDROOT
TORSDOF 0
ENDMDL
