MODEL 1
REMARK minimizedAffinity 12.0385056
REMARK minimizedRMSD -1
REMARK  0 active torsions:
REMARK  status: ('A' for Active; 'I' for Inactive)
ROOT
ATOM      1  C   UNL d   1      -2.711   1.182  -1.897  0.00  0.00     0.124 A 
ATOM      2  C1  UNL d   1      -3.823   1.678  -2.564  0.00  0.00     0.062 A 
ATOM      3  C2  UNL d   1      -4.673   2.581  -1.932  0.00  0.00     0.162 A 
ATOM      4  C3  UNL d   1      -4.414   2.995  -0.625  0.00  0.00    -0.034 A 
ATOM      5  C4  UNL d   1      -3.295   2.490   0.039  0.00  0.00     0.162 A 
ATOM      6  C5  UNL d   1      -2.448   1.588  -0.597  0.00  0.00     0.062 A 
ATOM      7  F   UNL d   1      -1.375   1.110   0.049  0.00  0.00    -0.097 F 
ATOM      8  F1  UNL d   1      -3.017   2.867   1.296  0.00  0.00    -0.096 F 
ATOM      9  I   UNL d   1      -5.683   4.344   0.323  0.00  0.00    -0.060 I 
ATOM     10  F2  UNL d   1      -5.740   3.044  -2.600  0.00  0.00    -0.096 F 
ATOM     11  F3  UNL d   1      -4.079   1.287  -3.821  0.00  0.00    -0.097 F 
ATOM     12  F4  UNL d   1      -1.895   0.313  -2.508  0.00  0.00    -0.092 F 
ENDROOT
TORSDOF 0
ENDMDL
