MODEL 1
REMARK minimizedAffinity 16.5436306
REMARK minimizedRMSD -1
REMARK  0 active torsions:
REMARK  status: ('A' for Active; 'I' for Inactive)
ROOT
ATOM      1  C   UNL d   1       2.860  -5.816  -4.665  0.00  0.00     0.124 A 
ATOM      2  C1  UNL d   1       1.859  -5.909  -3.708  0.00  0.00     0.062 A 
ATOM      3  C2  UNL d   1       2.183  -5.909  -2.354  0.00  0.00     0.162 A 
ATOM      4  C3  UNL d   1       3.514  -5.815  -1.949  0.00  0.00    -0.034 A 
ATOM      5  C4  UNL d   1       4.515  -5.723  -2.917  0.00  0.00     0.162 A 
ATOM      6  C5  UNL d   1       4.187  -5.723  -4.269  0.00  0.00     0.062 A 
ATOM      7  F   UNL d   1       5.155  -5.633  -5.192  0.00  0.00    -0.097 F 
ATOM      8  F1  UNL d   1       5.806  -5.631  -2.562  0.00  0.00    -0.096 F 
ATOM      9  I   UNL d   1       4.002  -5.814   0.074  0.00  0.00    -0.060 I 
ATOM     10  F2  UNL d   1       1.195  -6.000  -1.451  0.00  0.00    -0.096 F 
ATOM     11  F3  UNL d   1       0.576  -6.000  -4.088  0.00  0.00    -0.097 F 
ATOM     12  F4  UNL d   1       2.546  -5.817  -5.967  0.00  0.00    -0.092 F 
ENDROOT
TORSDOF 0
ENDMDL
