MODEL 1
REMARK minimizedAffinity 12.0550489
REMARK minimizedRMSD -1
REMARK  0 active torsions:
REMARK  status: ('A' for Active; 'I' for Inactive)
ROOT
ATOM      1  C   UNL d   1       4.058  -5.571  -1.927  0.00  0.00     0.124 A 
ATOM      2  C1  UNL d   1       4.664  -5.528  -3.176  0.00  0.00     0.062 A 
ATOM      3  C2  UNL d   1       3.895  -5.639  -4.331  0.00  0.00     0.162 A 
ATOM      4  C3  UNL d   1       2.512  -5.792  -4.244  0.00  0.00    -0.034 A 
ATOM      5  C4  UNL d   1       1.910  -5.835  -2.985  0.00  0.00     0.162 A 
ATOM      6  C5  UNL d   1       2.682  -5.724  -1.833  0.00  0.00     0.062 A 
ATOM      7  F   UNL d   1       2.095  -5.766  -0.628  0.00  0.00    -0.097 F 
ATOM      8  F1  UNL d   1       0.582  -5.982  -2.865  0.00  0.00    -0.096 F 
ATOM      9  I   UNL d   1       1.359  -5.958  -5.969  0.00  0.00    -0.060 I 
ATOM     10  F2  UNL d   1       4.508  -5.594  -5.523  0.00  0.00    -0.096 F 
ATOM     11  F3  UNL d   1       5.993  -5.381  -3.269  0.00  0.00    -0.097 F 
ATOM     12  F4  UNL d   1       4.800  -5.465  -0.818  0.00  0.00    -0.092 F 
ENDROOT
TORSDOF 0
ENDMDL
