MODEL 1
REMARK minimizedAffinity 18.8154659
REMARK minimizedRMSD -1
REMARK  0 active torsions:
REMARK  status: ('A' for Active; 'I' for Inactive)
ROOT
ATOM      1  C   UNL d   1       1.871  -2.303   3.088  0.00  0.00     0.124 A 
ATOM      2  C1  UNL d   1       3.100  -2.209   3.726  0.00  0.00     0.062 A 
ATOM      3  C2  UNL d   1       3.537  -3.236   4.558  0.00  0.00     0.162 A 
ATOM      4  C3  UNL d   1       2.745  -4.367   4.756  0.00  0.00    -0.034 A 
ATOM      5  C4  UNL d   1       1.509  -4.453   4.112  0.00  0.00     0.162 A 
ATOM      6  C5  UNL d   1       1.077  -3.425   3.281  0.00  0.00     0.062 A 
ATOM      7  F   UNL d   1      -0.110  -3.517   2.665  0.00  0.00    -0.097 F 
ATOM      8  F1  UNL d   1       0.723  -5.527   4.280  0.00  0.00    -0.096 F 
ATOM      9  I   UNL d   1       3.394  -5.904   6.000  0.00  0.00    -0.060 I 
ATOM     10  F2  UNL d   1       4.729  -3.118   5.162  0.00  0.00    -0.096 F 
ATOM     11  F3  UNL d   1       3.869  -1.126   3.542  0.00  0.00    -0.097 F 
ATOM     12  F4  UNL d   1       1.453  -1.313   2.289  0.00  0.00    -0.092 F 
ENDROOT
TORSDOF 0
ENDMDL
