MODEL 1
REMARK minimizedAffinity 8.43922043
REMARK minimizedRMSD -1
REMARK  0 active torsions:
REMARK  status: ('A' for Active; 'I' for Inactive)
ROOT
ATOM      1  C   UNL d   1       2.825  -3.610   3.746  0.00  0.00     0.124 A 
ATOM      2  C1  UNL d   1       4.096  -3.125   3.471  0.00  0.00     0.062 A 
ATOM      3  C2  UNL d   1       4.255  -1.934   2.769  0.00  0.00     0.162 A 
ATOM      4  C3  UNL d   1       3.138  -1.217   2.338  0.00  0.00    -0.034 A 
ATOM      5  C4  UNL d   1       1.863  -1.712   2.617  0.00  0.00     0.162 A 
ATOM      6  C5  UNL d   1       1.710  -2.903   3.319  0.00  0.00     0.062 A 
ATOM      7  F   UNL d   1       0.481  -3.370   3.583  0.00  0.00    -0.097 F 
ATOM      8  F1  UNL d   1       0.768  -1.048   2.217  0.00  0.00    -0.096 F 
ATOM      9  I   UNL d   1       3.371   0.565   1.289  0.00  0.00    -0.060 I 
ATOM     10  F2  UNL d   1       5.495  -1.489   2.518  0.00  0.00    -0.096 F 
ATOM     11  F3  UNL d   1       5.175  -3.807   3.882  0.00  0.00    -0.097 F 
ATOM     12  F4  UNL d   1       2.676  -4.757   4.420  0.00  0.00    -0.092 F 
ENDROOT
TORSDOF 0
ENDMDL
