MODEL 1
REMARK minimizedAffinity 1.71485853
REMARK minimizedRMSD -1
REMARK  0 active torsions:
REMARK  status: ('A' for Active; 'I' for Inactive)
ROOT
ATOM      1  C   UNL d   1       1.358  -2.391   3.620  0.00  0.00     0.124 A 
ATOM      2  C1  UNL d   1       1.676  -1.042   3.699  0.00  0.00     0.062 A 
ATOM      3  C2  UNL d   1       2.630  -0.496   2.844  0.00  0.00     0.162 A 
ATOM      4  C3  UNL d   1       3.272  -1.300   1.902  0.00  0.00    -0.034 A 
ATOM      5  C4  UNL d   1       2.948  -2.656   1.830  0.00  0.00     0.162 A 
ATOM      6  C5  UNL d   1       1.994  -3.196   2.686  0.00  0.00     0.062 A 
ATOM      7  F   UNL d   1       1.688  -4.500   2.609  0.00  0.00    -0.097 F 
ATOM      8  F1  UNL d   1       3.546  -3.457   0.936  0.00  0.00    -0.096 F 
ATOM      9  I   UNL d   1       4.699  -0.488   0.623  0.00  0.00    -0.060 I 
ATOM     10  F2  UNL d   1       2.917   0.810   2.943  0.00  0.00    -0.096 F 
ATOM     11  F3  UNL d   1       1.064  -0.262   4.601  0.00  0.00    -0.097 F 
ATOM     12  F4  UNL d   1       0.441  -2.913   4.445  0.00  0.00    -0.092 F 
ENDROOT
TORSDOF 0
ENDMDL
