MODEL 1
REMARK minimizedAffinity 4.39799166
REMARK minimizedRMSD -1
REMARK  0 active torsions:
REMARK  status: ('A' for Active; 'I' for Inactive)
ROOT
ATOM      1  C   UNL d   1       3.348  -1.602   2.367  0.00  0.00     0.124 A 
ATOM      2  C1  UNL d   1       2.047  -1.859   1.955  0.00  0.00     0.062 A 
ATOM      3  C2  UNL d   1       1.249  -2.747   2.670  0.00  0.00     0.162 A 
ATOM      4  C3  UNL d   1       1.748  -3.384   3.806  0.00  0.00    -0.034 A 
ATOM      5  C4  UNL d   1       3.057  -3.121   4.214  0.00  0.00     0.162 A 
ATOM      6  C5  UNL d   1       3.851  -2.233   3.496  0.00  0.00     0.062 A 
ATOM      7  F   UNL d   1       5.107  -1.986   3.895  0.00  0.00    -0.097 F 
ATOM      8  F1  UNL d   1       3.568  -3.716   5.302  0.00  0.00    -0.096 F 
ATOM      9  I   UNL d   1       0.557  -4.711   4.879  0.00  0.00    -0.060 I 
ATOM     10  F2  UNL d   1      -0.004  -2.976   2.249  0.00  0.00    -0.096 F 
ATOM     11  F3  UNL d   1       1.559  -1.252   0.864  0.00  0.00    -0.097 F 
ATOM     12  F4  UNL d   1       4.114  -0.749   1.676  0.00  0.00    -0.092 F 
ENDROOT
TORSDOF 0
ENDMDL
