MODEL 1
REMARK minimizedAffinity 8.42129993
REMARK minimizedRMSD -1
REMARK  1 active torsions:
REMARK  status: ('A' for Active; 'I' for Inactive)
REMARK    1  A    between atoms: C1_2  and  C2_3 
ROOT
ATOM      1  C2  UNL d   1       1.411  -4.396   2.491  0.00  0.00    -0.073 A 
ATOM      2  C3  UNL d   1       1.139  -3.025   2.553  0.00  0.00    -0.002 A 
ATOM      3  C4  UNL d   1       0.625  -2.460   3.721  0.00  0.00     0.004 A 
ATOM      4  C5  UNL d   1       0.384  -3.258   4.839  0.00  0.00    -0.004 A 
ATOM      5  C6  UNL d   1       0.660  -4.629   4.801  0.00  0.00    -0.075 A 
ATOM      6  C7  UNL d   1       0.405  -5.501   5.994  0.00  0.00     0.076 C 
ATOM      7  C8  UNL d   1       1.174  -5.189   3.623  0.00  0.00     0.001 A 
ENDROOT
BRANCH   1   8
ATOM      8  C1  UNL d   1       1.972  -5.009   1.234  0.00  0.00     0.053 C 
ATOM      9  C   UNL d   1       0.906  -5.733   0.427  0.00  0.00     0.018 C 
ENDBRANCH   1   8
TORSDOF 1
ENDMDL
