MODEL 1
REMARK minimizedAffinity 17.4201374
REMARK minimizedRMSD -1
REMARK  1 active torsions:
REMARK  status: ('A' for Active; 'I' for Inactive)
REMARK    1  A    between atoms: C1_2  and  C2_3 
ROOT
ATOM      1  C2  UNL d   1       1.558   0.478   1.702  0.00  0.00    -0.073 A 
ATOM      2  C3  UNL d   1       2.405  -0.259   0.868  0.00  0.00    -0.002 A 
ATOM      3  C4  UNL d   1       2.511  -1.643   1.017  0.00  0.00     0.004 A 
ATOM      4  C5  UNL d   1       1.767  -2.303   1.995  0.00  0.00    -0.004 A 
ATOM      5  C6  UNL d   1       0.905  -1.584   2.830  0.00  0.00    -0.075 A 
ATOM      6  C7  UNL d   1       0.099  -2.279   3.888  0.00  0.00     0.076 C 
ATOM      7  C8  UNL d   1       0.806  -0.195   2.676  0.00  0.00     0.001 A 
ENDROOT
BRANCH   1   8
ATOM      8  C1  UNL d   1       1.435   1.972   1.541  0.00  0.00     0.053 C 
ATOM      9  C   UNL d   1       1.148   2.666   2.863  0.00  0.00     0.018 C 
ENDBRANCH   1   8
TORSDOF 1
ENDMDL
