MODEL 1
REMARK minimizedAffinity 0.691619217
REMARK minimizedRMSD -1
REMARK  1 active torsions:
REMARK  status: ('A' for Active; 'I' for Inactive)
REMARK    1  A    between atoms: C1_2  and  C2_3 
ROOT
ATOM      1  C2  UNL d   1       4.803   4.230  -4.621  0.00  0.00    -0.073 A 
ATOM      2  C3  UNL d   1       5.879   4.894  -4.020  0.00  0.00    -0.002 A 
ATOM      3  C4  UNL d   1       5.747   5.434  -2.740  0.00  0.00     0.004 A 
ATOM      4  C5  UNL d   1       4.543   5.310  -2.046  0.00  0.00    -0.004 A 
ATOM      5  C6  UNL d   1       3.461   4.640  -2.625  0.00  0.00    -0.075 A 
ATOM      6  C7  UNL d   1       2.159   4.500  -1.892  0.00  0.00     0.076 C 
ATOM      7  C8  UNL d   1       3.600   4.102  -3.912  0.00  0.00     0.001 A 
ENDROOT
BRANCH   1   8
ATOM      8  C1  UNL d   1       4.943   3.639  -6.000  0.00  0.00     0.053 C 
ATOM      9  C   UNL d   1       4.728   2.134  -6.000  0.00  0.00     0.018 C 
ENDBRANCH   1   8
TORSDOF 1
ENDMDL
