MODEL 1
REMARK minimizedAffinity 17.9877987
REMARK minimizedRMSD -1
REMARK  1 active torsions:
REMARK  status: ('A' for Active; 'I' for Inactive)
REMARK    1  A    between atoms: C1_2  and  C2_3 
ROOT
ATOM      1  C2  UNL d   1      -4.909   3.423  -1.475  0.00  0.00    -0.073 A 
ATOM      2  C3  UNL d   1      -4.731   2.621  -2.608  0.00  0.00    -0.002 A 
ATOM      3  C4  UNL d   1      -3.743   1.636  -2.625  0.00  0.00     0.004 A 
ATOM      4  C5  UNL d   1      -2.930   1.436  -1.509  0.00  0.00    -0.004 A 
ATOM      5  C6  UNL d   1      -3.101   2.219  -0.363  0.00  0.00    -0.075 A 
ATOM      6  C7  UNL d   1      -2.234   2.019   0.844  0.00  0.00     0.076 C 
ATOM      7  C8  UNL d   1      -4.093   3.209  -0.354  0.00  0.00     0.001 A 
ENDROOT
BRANCH   1   8
ATOM      8  C1  UNL d   1      -5.979   4.485  -1.449  0.00  0.00     0.053 C 
ATOM      9  C   UNL d   1      -6.000   5.240  -0.129  0.00  0.00     0.018 C 
ENDBRANCH   1   8
TORSDOF 1
ENDMDL
