MODEL 1
REMARK minimizedAffinity 18.2781582
REMARK minimizedRMSD -1
REMARK  1 active torsions:
REMARK  status: ('A' for Active; 'I' for Inactive)
REMARK    1  A    between atoms: C1_2  and  C2_3 
ROOT
ATOM      1  C2  UNL d   1       0.454  -2.319   3.256  0.00  0.00    -0.073 A 
ATOM      2  C3  UNL d   1       1.228  -3.027   2.330  0.00  0.00    -0.002 A 
ATOM      3  C4  UNL d   1       1.739  -2.386   1.201  0.00  0.00     0.004 A 
ATOM      4  C5  UNL d   1       1.486  -1.031   0.989  0.00  0.00    -0.004 A 
ATOM      5  C6  UNL d   1       0.724  -0.303   1.908  0.00  0.00    -0.075 A 
ATOM      6  C7  UNL d   1       0.441   1.155   1.694  0.00  0.00     0.076 C 
ATOM      7  C8  UNL d   1       0.213  -0.955   3.039  0.00  0.00     0.001 A 
ENDROOT
BRANCH   1   8
ATOM      8  C1  UNL d   1      -0.094  -3.005   4.480  0.00  0.00     0.053 C 
ATOM      9  C   UNL d   1       0.525  -2.467   5.760  0.00  0.00     0.018 C 
ENDBRANCH   1   8
TORSDOF 1
ENDMDL
