MODEL 1
REMARK minimizedAffinity 7.9646697
REMARK minimizedRMSD -1
REMARK  1 active torsions:
REMARK  status: ('A' for Active; 'I' for Inactive)
REMARK    1  A    between atoms: C1_2  and  C2_3 
ROOT
ATOM      1  C2  UNL d   1      -3.676  -3.820  -1.790  0.00  0.00    -0.073 A 
ATOM      2  C3  UNL d   1      -4.043  -4.940  -1.035  0.00  0.00    -0.002 A 
ATOM      3  C4  UNL d   1      -4.727  -6.000  -1.633  0.00  0.00     0.004 A 
ATOM      4  C5  UNL d   1      -5.043  -5.954  -2.991  0.00  0.00    -0.004 A 
ATOM      5  C6  UNL d   1      -4.675  -4.848  -3.764  0.00  0.00    -0.075 A 
ATOM      6  C7  UNL d   1      -5.010  -4.783  -5.225  0.00  0.00     0.076 C 
ATOM      7  C8  UNL d   1      -3.991  -3.787  -3.156  0.00  0.00     0.001 A 
ENDROOT
BRANCH   1   8
ATOM      8  C1  UNL d   1      -2.933  -2.676  -1.150  0.00  0.00     0.053 C 
ATOM      9  C   UNL d   1      -2.185  -3.111   0.100  0.00  0.00     0.018 C 
ENDBRANCH   1   8
TORSDOF 1
ENDMDL
