MODEL 1
REMARK minimizedAffinity 4.02720499
REMARK minimizedRMSD -1
REMARK  1 active torsions:
REMARK  status: ('A' for Active; 'I' for Inactive)
REMARK    1  A    between atoms: C1_2  and  C2_3 
ROOT
ATOM      1  C2  UNL d   1       3.220   0.408   0.568  0.00  0.00    -0.073 A 
ATOM      2  C3  UNL d   1       3.941  -0.773   0.775  0.00  0.00    -0.002 A 
ATOM      3  C4  UNL d   1       5.323  -0.731   0.964  0.00  0.00     0.004 A 
ATOM      4  C5  UNL d   1       5.996   0.491   0.956  0.00  0.00    -0.004 A 
ATOM      5  C6  UNL d   1       5.291   1.684   0.764  0.00  0.00    -0.075 A 
ATOM      6  C7  UNL d   1       6.000   3.006   0.750  0.00  0.00     0.076 C 
ATOM      7  C8  UNL d   1       3.904   1.633   0.571  0.00  0.00     0.001 A 
ENDROOT
BRANCH   1   8
ATOM      8  C1  UNL d   1       1.727   0.368   0.370  0.00  0.00     0.053 C 
ATOM      9  C   UNL d   1       0.989   0.041   1.658  0.00  0.00     0.018 C 
ENDBRANCH   1   8
TORSDOF 1
ENDMDL
