MODEL 1
REMARK minimizedAffinity 4.07844067
REMARK minimizedRMSD -1
REMARK  1 active torsions:
REMARK  status: ('A' for Active; 'I' for Inactive)
REMARK    1  A    between atoms: C1_2  and  C2_3 
ROOT
ATOM      1  C2  UNL d   1      -3.601  -4.830  -4.786  0.00  0.00    -0.073 A 
ATOM      2  C3  UNL d   1      -4.826  -4.179  -4.978  0.00  0.00    -0.002 A 
ATOM      3  C4  UNL d   1      -5.763  -4.124  -3.946  0.00  0.00     0.004 A 
ATOM      4  C5  UNL d   1      -5.485  -4.712  -2.712  0.00  0.00    -0.004 A 
ATOM      5  C6  UNL d   1      -4.262  -5.356  -2.497  0.00  0.00    -0.075 A 
ATOM      6  C7  UNL d   1      -3.947  -5.994  -1.176  0.00  0.00     0.076 C 
ATOM      7  C8  UNL d   1      -3.326  -5.409  -3.539  0.00  0.00     0.001 A 
ENDROOT
BRANCH   1   8
ATOM      8  C1  UNL d   1      -2.583  -4.886  -5.895  0.00  0.00     0.053 C 
ATOM      9  C   UNL d   1      -1.604  -3.724  -5.830  0.00  0.00     0.018 C 
ENDBRANCH   1   8
TORSDOF 1
ENDMDL
