MODEL 1
REMARK minimizedAffinity 12.5889797
REMARK minimizedRMSD -1
REMARK  1 active torsions:
REMARK  status: ('A' for Active; 'I' for Inactive)
REMARK    1  A    between atoms: C1_2  and  C2_3 
ROOT
ATOM      1  C2  UNL d   1       3.536   0.190   1.751  0.00  0.00    -0.073 A 
ATOM      2  C3  UNL d   1       4.667  -0.634   1.754  0.00  0.00    -0.002 A 
ATOM      3  C4  UNL d   1       5.887  -0.159   1.271  0.00  0.00     0.004 A 
ATOM      4  C5  UNL d   1       5.991   1.145   0.788  0.00  0.00    -0.004 A 
ATOM      5  C6  UNL d   1       4.875   1.988   0.787  0.00  0.00    -0.075 A 
ATOM      6  C7  UNL d   1       4.969   3.393   0.269  0.00  0.00     0.076 C 
ATOM      7  C8  UNL d   1       3.652   1.502   1.271  0.00  0.00     0.001 A 
ENDROOT
BRANCH   1   8
ATOM      8  C1  UNL d   1       2.218  -0.317   2.277  0.00  0.00     0.053 C 
ATOM      9  C   UNL d   1       2.207  -0.406   3.795  0.00  0.00     0.018 C 
ENDBRANCH   1   8
TORSDOF 1
ENDMDL
