MODEL 1
REMARK minimizedAffinity -1.10581112
REMARK minimizedRMSD -1
REMARK  1 active torsions:
REMARK  status: ('A' for Active; 'I' for Inactive)
REMARK    1  A    between atoms: C1_2  and  C2_3 
ROOT
ATOM      1  C2  UNL d   1      -1.237  -2.382  -0.009  0.00  0.00    -0.073 A 
ATOM      2  C3  UNL d   1      -1.861  -1.495  -0.893  0.00  0.00    -0.002 A 
ATOM      3  C4  UNL d   1      -2.295  -1.934  -2.144  0.00  0.00     0.004 A 
ATOM      4  C5  UNL d   1      -2.116  -3.265  -2.521  0.00  0.00    -0.004 A 
ATOM      5  C6  UNL d   1      -1.505  -4.170  -1.647  0.00  0.00    -0.075 A 
ATOM      6  C7  UNL d   1      -1.303  -5.604  -2.038  0.00  0.00     0.076 C 
ATOM      7  C8  UNL d   1      -1.070  -3.720  -0.393  0.00  0.00     0.001 A 
ENDROOT
BRANCH   1   8
ATOM      8  C1  UNL d   1      -0.773  -1.913   1.346  0.00  0.00     0.053 C 
ATOM      9  C   UNL d   1       0.004  -0.609   1.262  0.00  0.00     0.018 C 
ENDBRANCH   1   8
TORSDOF 1
ENDMDL
