MODEL 1
REMARK minimizedAffinity 7.77222729
REMARK minimizedRMSD -1
REMARK  1 active torsions:
REMARK  status: ('A' for Active; 'I' for Inactive)
REMARK    1  A    between atoms: C1_2  and  C2_3 
ROOT
ATOM      1  C2  UNL d   1       5.544   0.013   1.607  0.00  0.00    -0.073 A 
ATOM      2  C3  UNL d   1       5.688  -0.698   0.410  0.00  0.00    -0.002 A 
ATOM      3  C4  UNL d   1       5.912  -0.021  -0.789  0.00  0.00     0.004 A 
ATOM      4  C5  UNL d   1       6.000   1.371  -0.804  0.00  0.00    -0.004 A 
ATOM      5  C6  UNL d   1       5.870   2.098   0.383  0.00  0.00    -0.075 A 
ATOM      6  C7  UNL d   1       5.960   3.596   0.384  0.00  0.00     0.076 C 
ATOM      7  C8  UNL d   1       5.643   1.411   1.584  0.00  0.00     0.001 A 
ENDROOT
BRANCH   1   8
ATOM      8  C1  UNL d   1       5.309  -0.715   2.906  0.00  0.00     0.053 C 
ATOM      9  C   UNL d   1       3.830  -0.813   3.244  0.00  0.00     0.018 C 
ENDBRANCH   1   8
TORSDOF 1
ENDMDL
