MODEL 1
REMARK minimizedAffinity 6.77439451
REMARK minimizedRMSD -1
REMARK  1 active torsions:
REMARK  status: ('A' for Active; 'I' for Inactive)
REMARK    1  A    between atoms: C1_2  and  C2_3 
ROOT
ATOM      1  C2  UNL d   1      -5.659   5.194   1.302  0.00  0.00    -0.073 A 
ATOM      2  C3  UNL d   1      -5.064   3.928   1.351  0.00  0.00    -0.002 A 
ATOM      3  C4  UNL d   1      -4.764   3.337   2.579  0.00  0.00     0.004 A 
ATOM      4  C5  UNL d   1      -5.061   4.001   3.769  0.00  0.00    -0.004 A 
ATOM      5  C6  UNL d   1      -5.667   5.261   3.741  0.00  0.00    -0.075 A 
ATOM      6  C7  UNL d   1      -5.992   5.990   5.012  0.00  0.00     0.076 C 
ATOM      7  C8  UNL d   1      -5.963   5.849   2.504  0.00  0.00     0.001 A 
ENDROOT
BRANCH   1   8
ATOM      8  C1  UNL d   1      -5.991   5.833  -0.021  0.00  0.00     0.053 C 
ATOM      9  C   UNL d   1      -5.096   5.325  -1.140  0.00  0.00     0.018 C 
ENDBRANCH   1   8
TORSDOF 1
ENDMDL
