MODEL 1
REMARK minimizedAffinity 2.74775696
REMARK minimizedRMSD -1
REMARK  1 active torsions:
REMARK  status: ('A' for Active; 'I' for Inactive)
REMARK    1  A    between atoms: C1_2  and  C2_3 
ROOT
ATOM      1  C2  UNL d   1      -2.869  -3.587  -4.364  0.00  0.00    -0.073 A 
ATOM      2  C3  UNL d   1      -2.426  -2.755  -3.330  0.00  0.00    -0.002 A 
ATOM      3  C4  UNL d   1      -3.009  -2.832  -2.064  0.00  0.00     0.004 A 
ATOM      4  C5  UNL d   1      -4.033  -3.746  -1.818  0.00  0.00    -0.004 A 
ATOM      5  C6  UNL d   1      -4.481  -4.595  -2.835  0.00  0.00    -0.075 A 
ATOM      6  C7  UNL d   1      -5.584  -5.582  -2.587  0.00  0.00     0.076 C 
ATOM      7  C8  UNL d   1      -3.893  -4.509  -4.104  0.00  0.00     0.001 A 
ENDROOT
BRANCH   1   8
ATOM      8  C1  UNL d   1      -2.238  -3.512  -5.731  0.00  0.00     0.053 C 
ATOM      9  C   UNL d   1      -1.499  -2.200  -5.946  0.00  0.00     0.018 C 
ENDBRANCH   1   8
TORSDOF 1
ENDMDL
