MODEL 1
REMARK minimizedAffinity 7.58958817
REMARK minimizedRMSD -1
REMARK  1 active torsions:
REMARK  status: ('A' for Active; 'I' for Inactive)
REMARK    1  A    between atoms: C1_2  and  C2_3 
ROOT
ATOM      1  C2  UNL d   1       0.165  -2.761  -5.968  0.00  0.00    -0.073 A 
ATOM      2  C3  UNL d   1       0.445  -4.132  -5.964  0.00  0.00    -0.002 A 
ATOM      3  C4  UNL d   1       1.765  -4.582  -5.929  0.00  0.00     0.004 A 
ATOM      4  C5  UNL d   1       2.818  -3.668  -5.890  0.00  0.00    -0.004 A 
ATOM      5  C6  UNL d   1       2.558  -2.293  -5.881  0.00  0.00    -0.075 A 
ATOM      6  C7  UNL d   1       3.679  -1.297  -5.842  0.00  0.00     0.076 C 
ATOM      7  C8  UNL d   1       1.229  -1.849  -5.920  0.00  0.00     0.001 A 
ENDROOT
BRANCH   1   8
ATOM      8  C1  UNL d   1      -1.260  -2.271  -6.000  0.00  0.00     0.053 C 
ATOM      9  C   UNL d   1      -1.780  -1.942  -4.610  0.00  0.00     0.018 C 
ENDBRANCH   1   8
TORSDOF 1
ENDMDL
