MODEL 1
REMARK minimizedAffinity -1.64278948
REMARK minimizedRMSD -1
REMARK  1 active torsions:
REMARK  status: ('A' for Active; 'I' for Inactive)
REMARK    1  A    between atoms: C1_2  and  C2_3 
ROOT
ATOM      1  C2  UNL d   1       5.461   4.313   2.901  0.00  0.00    -0.073 A 
ATOM      2  C3  UNL d   1       4.572   4.840   1.957  0.00  0.00    -0.002 A 
ATOM      3  C4  UNL d   1       4.075   4.036   0.931  0.00  0.00     0.004 A 
ATOM      4  C5  UNL d   1       4.456   2.697   0.841  0.00  0.00    -0.004 A 
ATOM      5  C6  UNL d   1       5.334   2.149   1.781  0.00  0.00    -0.075 A 
ATOM      6  C7  UNL d   1       5.755   0.711   1.698  0.00  0.00     0.076 C 
ATOM      7  C8  UNL d   1       5.831   2.964   2.808  0.00  0.00     0.001 A 
ENDROOT
BRANCH   1   8
ATOM      8  C1  UNL d   1       5.995   5.176   4.015  0.00  0.00     0.053 C 
ATOM      9  C   UNL d   1       4.900   6.000   4.673  0.00  0.00     0.018 C 
ENDBRANCH   1   8
TORSDOF 1
ENDMDL
