MODEL 1
REMARK minimizedAffinity -1.53117108
REMARK minimizedRMSD -1
REMARK  2 active torsions:
REMARK  status: ('A' for Active; 'I' for Inactive)
REMARK    1  A    between atoms: C1_2  and  C2_3 
REMARK    2  A    between atoms: C2_3  and  C3_4 
ROOT
ATOM      1  C3  UNL d   1      -4.882   4.173  -3.593  0.00  0.00    -0.075 A 
ATOM      2  C4  UNL d   1      -6.000   4.932  -3.970  0.00  0.00     0.002 A 
ATOM      3  C5  UNL d   1      -5.999   5.645  -5.170  0.00  0.00     0.002 A 
ATOM      4  C6  UNL d   1      -4.881   5.617  -6.000  0.00  0.00    -0.004 A 
ATOM      5  C7  UNL d   1      -3.759   4.880  -5.627  0.00  0.00     0.002 A 
ATOM      6  C8  UNL d   1      -3.759   4.162  -4.430  0.00  0.00     0.002 A 
ENDROOT
BRANCH   1   7
ATOM      7  C2  UNL d   1      -4.887   3.376  -2.311  0.00  0.00     0.056 C 
BRANCH   7   8
ATOM      8  C1  UNL d   1      -5.931   2.255  -2.278  0.00  0.00     0.007 C 
ATOM      9  C   UNL d   1      -5.996   1.457  -3.573  0.00  0.00     0.009 C 
ENDBRANCH   7   8
ENDBRANCH   1   7
TORSDOF 2
ENDMDL
