MODEL 1
REMARK minimizedAffinity 8.74522591
REMARK minimizedRMSD -1
REMARK  2 active torsions:
REMARK  status: ('A' for Active; 'I' for Inactive)
REMARK    1  A    between atoms: C1_2  and  C2_3 
REMARK    2  A    between atoms: C2_3  and  C3_4 
ROOT
ATOM      1  C3  UNL d   1       0.070   0.028   4.175  0.00  0.00    -0.075 A 
ATOM      2  C4  UNL d   1       1.209  -0.734   3.880  0.00  0.00     0.002 A 
ATOM      3  C5  UNL d   1       1.515  -1.871   4.629  0.00  0.00     0.002 A 
ATOM      4  C6  UNL d   1       0.693  -2.253   5.687  0.00  0.00    -0.004 A 
ATOM      5  C7  UNL d   1      -0.433  -1.494   6.000  0.00  0.00     0.002 A 
ATOM      6  C8  UNL d   1      -0.743  -0.358   5.249  0.00  0.00     0.002 A 
ENDROOT
BRANCH   1   7
ATOM      7  C2  UNL d   1      -0.282   1.243   3.350  0.00  0.00     0.056 C 
BRANCH   7   8
ATOM      8  C1  UNL d   1       0.686   1.512   2.193  0.00  0.00     0.007 C 
ATOM      9  C   UNL d   1      -0.016   1.922   0.905  0.00  0.00     0.009 C 
ENDBRANCH   7   8
ENDBRANCH   1   7
TORSDOF 2
ENDMDL
