MODEL 1
REMARK minimizedAffinity 6.11013842
REMARK minimizedRMSD -1
REMARK  2 active torsions:
REMARK  status: ('A' for Active; 'I' for Inactive)
REMARK    1  A    between atoms: C1_2  and  C2_3 
REMARK    2  A    between atoms: C2_3  and  C3_4 
ROOT
ATOM      1  C3  UNL d   1      -0.833  -2.627  -5.265  0.00  0.00    -0.075 A 
ATOM      2  C4  UNL d   1      -0.846  -1.281  -5.658  0.00  0.00     0.002 A 
ATOM      3  C5  UNL d   1      -0.057  -0.341  -4.994  0.00  0.00     0.002 A 
ATOM      4  C6  UNL d   1       0.745  -0.732  -3.924  0.00  0.00    -0.004 A 
ATOM      5  C7  UNL d   1       0.753  -2.063  -3.514  0.00  0.00     0.002 A 
ATOM      6  C8  UNL d   1      -0.031  -3.007  -4.180  0.00  0.00     0.002 A 
ENDROOT
BRANCH   1   7
ATOM      7  C2  UNL d   1      -1.661  -3.654  -5.998  0.00  0.00     0.056 C 
BRANCH   7   8
ATOM      8  C1  UNL d   1      -1.763  -5.003  -5.278  0.00  0.00     0.007 C 
ATOM      9  C   UNL d   1      -2.676  -5.995  -5.987  0.00  0.00     0.009 C 
ENDBRANCH   7   8
ENDBRANCH   1   7
TORSDOF 2
ENDMDL
