MODEL 1
REMARK minimizedAffinity 8.99403191
REMARK minimizedRMSD -1
REMARK  2 active torsions:
REMARK  status: ('A' for Active; 'I' for Inactive)
REMARK    1  A    between atoms: C1_2  and  C2_3 
REMARK    2  A    between atoms: C2_3  and  C3_4 
ROOT
ATOM      1  C3  UNL d   1      -1.685  -4.865  -5.261  0.00  0.00    -0.075 A 
ATOM      2  C4  UNL d   1      -2.285  -3.695  -5.749  0.00  0.00     0.002 A 
ATOM      3  C5  UNL d   1      -3.657  -3.654  -6.000  0.00  0.00     0.002 A 
ATOM      4  C6  UNL d   1      -4.443  -4.781  -5.775  0.00  0.00    -0.004 A 
ATOM      5  C7  UNL d   1      -3.856  -5.954  -5.305  0.00  0.00     0.002 A 
ATOM      6  C8  UNL d   1      -2.484  -5.997  -5.049  0.00  0.00     0.002 A 
ENDROOT
BRANCH   1   7
ATOM      7  C2  UNL d   1      -0.206  -4.907  -4.960  0.00  0.00     0.056 C 
BRANCH   7   8
ATOM      8  C1  UNL d   1       0.632  -3.951  -5.815  0.00  0.00     0.007 C 
ATOM      9  C   UNL d   1       0.000  -2.574  -5.969  0.00  0.00     0.009 C 
ENDBRANCH   7   8
ENDBRANCH   1   7
TORSDOF 2
ENDMDL
