MODEL 1
REMARK minimizedAffinity -0.237367958
REMARK minimizedRMSD -1
REMARK  2 active torsions:
REMARK  status: ('A' for Active; 'I' for Inactive)
REMARK    1  A    between atoms: C1_2  and  C2_3 
REMARK    2  A    between atoms: C2_3  and  C3_4 
ROOT
ATOM      1  C3  UNL d   1      -0.492   5.053  -2.646  0.00  0.00    -0.075 A 
ATOM      2  C4  UNL d   1       0.903   5.192  -2.614  0.00  0.00     0.002 A 
ATOM      3  C5  UNL d   1       1.687   4.297  -1.886  0.00  0.00     0.002 A 
ATOM      4  C6  UNL d   1       1.088   3.260  -1.174  0.00  0.00    -0.004 A 
ATOM      5  C7  UNL d   1      -0.298   3.122  -1.186  0.00  0.00     0.002 A 
ATOM      6  C8  UNL d   1      -1.085   4.013  -1.917  0.00  0.00     0.002 A 
ENDROOT
BRANCH   1   7
ATOM      7  C2  UNL d   1      -1.345   6.000  -3.456  0.00  0.00     0.056 C 
BRANCH   7   8
ATOM      8  C1  UNL d   1      -2.131   5.323  -4.584  0.00  0.00     0.007 C 
ATOM      9  C   UNL d   1      -3.564   4.982  -4.197  0.00  0.00     0.009 C 
ENDBRANCH   7   8
ENDBRANCH   1   7
TORSDOF 2
ENDMDL
