MODEL 1
REMARK minimizedAffinity 5.14142132
REMARK minimizedRMSD -1
REMARK  2 active torsions:
REMARK  status: ('A' for Active; 'I' for Inactive)
REMARK    1  A    between atoms: C1_2  and  C2_3 
REMARK    2  A    between atoms: C2_3  and  C3_4 
ROOT
ATOM      1  C3  UNL d   1      -0.944   3.887  -0.896  0.00  0.00    -0.075 A 
ATOM      2  C4  UNL d   1      -2.208   4.435  -0.630  0.00  0.00     0.002 A 
ATOM      3  C5  UNL d   1      -3.198   4.442  -1.614  0.00  0.00     0.002 A 
ATOM      4  C6  UNL d   1      -2.934   3.911  -2.875  0.00  0.00    -0.004 A 
ATOM      5  C7  UNL d   1      -1.677   3.380  -3.155  0.00  0.00     0.002 A 
ATOM      6  C8  UNL d   1      -0.687   3.367  -2.171  0.00  0.00     0.002 A 
ENDROOT
BRANCH   1   7
ATOM      7  C2  UNL d   1       0.121   3.850   0.174  0.00  0.00     0.056 C 
BRANCH   7   8
ATOM      8  C1  UNL d   1       0.348   2.461   0.780  0.00  0.00     0.007 C 
ATOM      9  C   UNL d   1       0.351   2.465   2.303  0.00  0.00     0.009 C 
ENDBRANCH   7   8
ENDBRANCH   1   7
TORSDOF 2
ENDMDL
