MODEL 1
REMARK minimizedAffinity -2.6473577
REMARK minimizedRMSD -1
REMARK  2 active torsions:
REMARK  status: ('A' for Active; 'I' for Inactive)
REMARK    1  A    between atoms: C1_2  and  C2_3 
REMARK    2  A    between atoms: C2_3  and  C3_4 
ROOT
ATOM      1  C3  UNL d   1       1.250   0.330   1.329  0.00  0.00    -0.075 A 
ATOM      2  C4  UNL d   1       1.406   0.834   2.629  0.00  0.00     0.002 A 
ATOM      3  C5  UNL d   1       1.148   2.178   2.902  0.00  0.00     0.002 A 
ATOM      4  C6  UNL d   1       0.741   3.034   1.882  0.00  0.00    -0.004 A 
ATOM      5  C7  UNL d   1       0.599   2.547   0.584  0.00  0.00     0.002 A 
ATOM      6  C8  UNL d   1       0.852   1.203   0.308  0.00  0.00     0.002 A 
ENDROOT
BRANCH   1   7
ATOM      7  C2  UNL d   1       1.499  -1.130   1.032  0.00  0.00     0.056 C 
BRANCH   7   8
ATOM      8  C1  UNL d   1       1.067  -1.563  -0.373  0.00  0.00     0.007 C 
ATOM      9  C   UNL d   1       2.241  -1.859  -1.297  0.00  0.00     0.009 C 
ENDBRANCH   7   8
ENDBRANCH   1   7
TORSDOF 2
ENDMDL
