MODEL 1
REMARK minimizedAffinity -3.52074695
REMARK minimizedRMSD -1
REMARK  2 active torsions:
REMARK  status: ('A' for Active; 'I' for Inactive)
REMARK    1  A    between atoms: C1_2  and  C2_3 
REMARK    2  A    between atoms: C2_3  and  C3_4 
ROOT
ATOM      1  C3  UNL d   1       1.107   0.677   0.900  0.00  0.00    -0.075 A 
ATOM      2  C4  UNL d   1       1.314  -0.247   1.935  0.00  0.00     0.002 A 
ATOM      3  C5  UNL d   1       1.016   0.090   3.255  0.00  0.00     0.002 A 
ATOM      4  C6  UNL d   1       0.518   1.355   3.559  0.00  0.00    -0.004 A 
ATOM      5  C7  UNL d   1       0.325   2.287   2.542  0.00  0.00     0.002 A 
ATOM      6  C8  UNL d   1       0.618   1.951   1.219  0.00  0.00     0.002 A 
ENDROOT
BRANCH   1   7
ATOM      7  C2  UNL d   1       1.400   0.308  -0.535  0.00  0.00     0.056 C 
BRANCH   7   8
ATOM      8  C1  UNL d   1       2.558  -0.681  -0.701  0.00  0.00     0.007 C 
ATOM      9  C   UNL d   1       2.105  -2.067  -1.140  0.00  0.00     0.009 C 
ENDBRANCH   7   8
ENDBRANCH   1   7
TORSDOF 2
ENDMDL
