MODEL 1
REMARK minimizedAffinity 11.1190434
REMARK minimizedRMSD -1
REMARK  1 active torsions:
REMARK  status: ('A' for Active; 'I' for Inactive)
REMARK    1  A    between atoms: C1_2  and  C2_3 
ROOT
ATOM      1  C2  UNL d   1       2.373   1.150   0.723  0.00  0.00    -0.077 A 
ATOM      2  C3  UNL d   1       1.456   1.471   1.733  0.00  0.00     0.002 A 
ATOM      3  C4  UNL d   1       1.730   1.152   3.065  0.00  0.00     0.002 A 
ATOM      4  C5  UNL d   1       2.924   0.516   3.399  0.00  0.00    -0.004 A 
ATOM      5  C6  UNL d   1       3.843   0.191   2.401  0.00  0.00     0.002 A 
ATOM      6  C7  UNL d   1       3.569   0.507   1.070  0.00  0.00     0.002 A 
ENDROOT
BRANCH   1   7
ATOM      7  C1  UNL d   1       2.101   1.537  -0.707  0.00  0.00     0.055 C 
ATOM      8  C   UNL d   1       3.385   1.907  -1.434  0.00  0.00     0.019 C 
ENDBRANCH   1   7
TORSDOF 1
ENDMDL
