MODEL 1
REMARK minimizedAffinity 8.0533514
REMARK minimizedRMSD -1
REMARK  1 active torsions:
REMARK  status: ('A' for Active; 'I' for Inactive)
REMARK    1  A    between atoms: C1_2  and  C2_3 
ROOT
ATOM      1  C2  UNL d   1      -3.767  -4.945  -2.226  0.00  0.00    -0.077 A 
ATOM      2  C3  UNL d   1      -3.745  -3.567  -2.485  0.00  0.00     0.002 A 
ATOM      3  C4  UNL d   1      -2.638  -2.983  -3.104  0.00  0.00     0.002 A 
ATOM      4  C5  UNL d   1      -1.548  -3.769  -3.472  0.00  0.00    -0.004 A 
ATOM      5  C6  UNL d   1      -1.560  -5.139  -3.217  0.00  0.00     0.002 A 
ATOM      6  C7  UNL d   1      -2.665  -5.725  -2.597  0.00  0.00     0.002 A 
ENDROOT
BRANCH   1   7
ATOM      7  C1  UNL d   1      -4.981  -5.585  -1.603  0.00  0.00     0.055 C 
ATOM      8  C   UNL d   1      -5.998  -5.989  -2.661  0.00  0.00     0.019 C 
ENDBRANCH   1   7
TORSDOF 1
ENDMDL
