MODEL 1
REMARK minimizedAffinity 12.0334215
REMARK minimizedRMSD -1
REMARK  1 active torsions:
REMARK  status: ('A' for Active; 'I' for Inactive)
REMARK    1  A    between atoms: C1_2  and  C2_3 
ROOT
ATOM      1  C2  UNL d   1      -3.315  -3.843  -2.749  0.00  0.00    -0.077 A 
ATOM      2  C3  UNL d   1      -3.776  -5.088  -2.298  0.00  0.00     0.002 A 
ATOM      3  C4  UNL d   1      -5.114  -5.449  -2.468  0.00  0.00     0.002 A 
ATOM      4  C5  UNL d   1      -6.000  -4.574  -3.092  0.00  0.00    -0.004 A 
ATOM      5  C6  UNL d   1      -5.552  -3.333  -3.543  0.00  0.00     0.002 A 
ATOM      6  C7  UNL d   1      -4.215  -2.970  -3.373  0.00  0.00     0.002 A 
ENDROOT
BRANCH   1   7
ATOM      7  C1  UNL d   1      -1.862  -3.471  -2.611  0.00  0.00     0.055 C 
ATOM      8  C   UNL d   1      -0.990  -4.288  -3.553  0.00  0.00     0.019 C 
ENDBRANCH   1   7
TORSDOF 1
ENDMDL
