MODEL 1
REMARK minimizedAffinity 8.32802677
REMARK minimizedRMSD -1
REMARK  1 active torsions:
REMARK  status: ('A' for Active; 'I' for Inactive)
REMARK    1  A    between atoms: C1_2  and  C2_3 
ROOT
ATOM      1  C2  UNL d   1      -4.178   2.191   3.938  0.00  0.00    -0.077 A 
ATOM      2  C3  UNL d   1      -4.400   3.128   4.957  0.00  0.00     0.002 A 
ATOM      3  C4  UNL d   1      -5.309   2.856   5.982  0.00  0.00     0.002 A 
ATOM      4  C5  UNL d   1      -5.999   1.646   6.000  0.00  0.00    -0.004 A 
ATOM      5  C6  UNL d   1      -5.787   0.708   4.990  0.00  0.00     0.002 A 
ATOM      6  C7  UNL d   1      -4.880   0.979   3.965  0.00  0.00     0.002 A 
ENDROOT
BRANCH   1   7
ATOM      7  C1  UNL d   1      -3.163   2.462   2.860  0.00  0.00     0.055 C 
ATOM      8  C   UNL d   1      -1.743   2.372   3.401  0.00  0.00     0.019 C 
ENDBRANCH   1   7
TORSDOF 1
ENDMDL
