MODEL 1
REMARK minimizedAffinity 6.7655673
REMARK minimizedRMSD -1
REMARK  1 active torsions:
REMARK  status: ('A' for Active; 'I' for Inactive)
REMARK    1  A    between atoms: C1_2  and  C2_3 
ROOT
ATOM      1  C2  UNL d   1       3.001   0.523   1.094  0.00  0.00    -0.077 A 
ATOM      2  C3  UNL d   1       3.453   0.819  -0.200  0.00  0.00     0.002 A 
ATOM      3  C4  UNL d   1       4.635   0.254  -0.682  0.00  0.00     0.002 A 
ATOM      4  C5  UNL d   1       5.372  -0.614   0.121  0.00  0.00    -0.004 A 
ATOM      5  C6  UNL d   1       4.932  -0.913   1.410  0.00  0.00     0.002 A 
ATOM      6  C7  UNL d   1       3.751  -0.348   1.894  0.00  0.00     0.002 A 
ENDROOT
BRANCH   1   7
ATOM      7  C1  UNL d   1       1.701   1.094   1.598  0.00  0.00     0.055 C 
ATOM      8  C   UNL d   1       0.917   0.063   2.398  0.00  0.00     0.019 C 
ENDBRANCH   1   7
TORSDOF 1
ENDMDL
