MODEL 1
REMARK minimizedAffinity 12.9065809
REMARK minimizedRMSD -1
REMARK  1 active torsions:
REMARK  status: ('A' for Active; 'I' for Inactive)
REMARK    1  A    between atoms: C1_2  and  C2_3 
ROOT
ATOM      1  C2  UNL d   1      -1.109  -1.474   1.532  0.00  0.00    -0.077 A 
ATOM      2  C3  UNL d   1      -0.302  -0.547   0.858  0.00  0.00     0.002 A 
ATOM      3  C4  UNL d   1       0.629   0.221   1.560  0.00  0.00     0.002 A 
ATOM      4  C5  UNL d   1       0.765   0.067   2.938  0.00  0.00    -0.004 A 
ATOM      5  C6  UNL d   1      -0.035  -0.851   3.618  0.00  0.00     0.002 A 
ATOM      6  C7  UNL d   1      -0.967  -1.618   2.918  0.00  0.00     0.002 A 
ENDROOT
BRANCH   1   7
ATOM      7  C1  UNL d   1      -2.080  -2.338   0.770  0.00  0.00     0.055 C 
ATOM      8  C   UNL d   1      -2.000  -2.073  -0.726  0.00  0.00     0.019 C 
ENDBRANCH   1   7
TORSDOF 1
ENDMDL
