MODEL 1
REMARK minimizedAffinity 8.55565548
REMARK minimizedRMSD -1
REMARK  1 active torsions:
REMARK  status: ('A' for Active; 'I' for Inactive)
REMARK    1  A    between atoms: C1_2  and  C2_3 
ROOT
ATOM      1  C2  UNL d   1       3.036   1.633  -0.351  0.00  0.00    -0.077 A 
ATOM      2  C3  UNL d   1       3.667   0.410  -0.082  0.00  0.00     0.002 A 
ATOM      3  C4  UNL d   1       3.082  -0.509   0.791  0.00  0.00     0.002 A 
ATOM      4  C5  UNL d   1       1.862  -0.219   1.397  0.00  0.00    -0.004 A 
ATOM      5  C6  UNL d   1       1.227   0.995   1.136  0.00  0.00     0.002 A 
ATOM      6  C7  UNL d   1       1.811   1.916   0.266  0.00  0.00     0.002 A 
ENDROOT
BRANCH   1   7
ATOM      7  C1  UNL d   1       3.641   2.605  -1.330  0.00  0.00     0.055 C 
ATOM      8  C   UNL d   1       2.911   2.574  -2.665  0.00  0.00     0.019 C 
ENDBRANCH   1   7
TORSDOF 1
ENDMDL
