MODEL 1
REMARK minimizedAffinity 19.1362457
REMARK minimizedRMSD -1
REMARK  1 active torsions:
REMARK  status: ('A' for Active; 'I' for Inactive)
REMARK    1  A    between atoms: C1_2  and  C2_3 
ROOT
ATOM      1  C2  UNL d   1      -3.736  -3.730  -2.459  0.00  0.00    -0.077 A 
ATOM      2  C3  UNL d   1      -4.956  -3.471  -3.100  0.00  0.00     0.002 A 
ATOM      3  C4  UNL d   1      -5.926  -4.470  -3.200  0.00  0.00     0.002 A 
ATOM      4  C5  UNL d   1      -5.689  -5.732  -2.660  0.00  0.00    -0.004 A 
ATOM      5  C6  UNL d   1      -4.477  -5.999  -2.023  0.00  0.00     0.002 A 
ATOM      6  C7  UNL d   1      -3.506  -5.003  -1.923  0.00  0.00     0.002 A 
ENDROOT
BRANCH   1   7
ATOM      7  C1  UNL d   1      -2.708  -2.639  -2.306  0.00  0.00     0.055 C 
ATOM      8  C   UNL d   1      -2.388  -2.381  -0.841  0.00  0.00     0.019 C 
ENDBRANCH   1   7
TORSDOF 1
ENDMDL
