MODEL 1
REMARK minimizedAffinity 10.052289
REMARK minimizedRMSD -1
REMARK  1 active torsions:
REMARK  status: ('A' for Active; 'I' for Inactive)
REMARK    1  A    between atoms: C1_2  and  C2_3 
ROOT
ATOM      1  C2  UNL d   1       3.483  -0.253   1.126  0.00  0.00    -0.077 A 
ATOM      2  C3  UNL d   1       4.055  -0.743   2.308  0.00  0.00     0.002 A 
ATOM      3  C4  UNL d   1       3.364  -0.655   3.517  0.00  0.00     0.002 A 
ATOM      4  C5  UNL d   1       2.095  -0.081   3.556  0.00  0.00    -0.004 A 
ATOM      5  C6  UNL d   1       1.518   0.412   2.386  0.00  0.00     0.002 A 
ATOM      6  C7  UNL d   1       2.208   0.326   1.176  0.00  0.00     0.002 A 
ENDROOT
BRANCH   1   7
ATOM      7  C1  UNL d   1       4.207  -0.391  -0.188  0.00  0.00     0.055 C 
ATOM      8  C   UNL d   1       5.542  -1.100  -0.012  0.00  0.00     0.019 C 
ENDBRANCH   1   7
TORSDOF 1
ENDMDL
