MODEL 1
REMARK minimizedAffinity 13.0907669
REMARK minimizedRMSD -1
REMARK  1 active torsions:
REMARK  status: ('A' for Active; 'I' for Inactive)
REMARK    1  A    between atoms: C1_2  and  C2_3 
ROOT
ATOM      1  C2  UNL d   1       3.141   1.660  -0.794  0.00  0.00    -0.077 A 
ATOM      2  C3  UNL d   1       2.120   2.257  -0.041  0.00  0.00     0.002 A 
ATOM      3  C4  UNL d   1       1.569   1.591   1.055  0.00  0.00     0.002 A 
ATOM      4  C5  UNL d   1       2.034   0.327   1.411  0.00  0.00    -0.004 A 
ATOM      5  C6  UNL d   1       3.047  -0.277   0.667  0.00  0.00     0.002 A 
ATOM      6  C7  UNL d   1       3.599   0.387  -0.430  0.00  0.00     0.002 A 
ENDROOT
BRANCH   1   7
ATOM      7  C1  UNL d   1       3.771   2.397  -1.947  0.00  0.00     0.055 C 
ATOM      8  C   UNL d   1       2.743   3.229  -2.700  0.00  0.00     0.019 C 
ENDBRANCH   1   7
TORSDOF 1
ENDMDL
