MODEL 1
REMARK minimizedAffinity 10.9584475
REMARK minimizedRMSD -1
REMARK  1 active torsions:
REMARK  status: ('A' for Active; 'I' for Inactive)
REMARK    1  A    between atoms: C1_2  and  C2_3 
ROOT
ATOM      1  C2  UNL d   1      -4.619   3.281   3.785  0.00  0.00    -0.077 A 
ATOM      2  C3  UNL d   1      -5.298   3.734   2.645  0.00  0.00     0.002 A 
ATOM      3  C4  UNL d   1      -5.981   4.951   2.666  0.00  0.00     0.002 A 
ATOM      4  C5  UNL d   1      -5.989   5.727   3.823  0.00  0.00    -0.004 A 
ATOM      5  C6  UNL d   1      -5.319   5.285   4.963  0.00  0.00     0.002 A 
ATOM      6  C7  UNL d   1      -4.636   4.067   4.944  0.00  0.00     0.002 A 
ENDROOT
BRANCH   1   7
ATOM      7  C1  UNL d   1      -3.841   1.992   3.749  0.00  0.00     0.055 C 
ATOM      8  C   UNL d   1      -4.766   0.785   3.796  0.00  0.00     0.019 C 
ENDBRANCH   1   7
TORSDOF 1
ENDMDL
