MODEL 1
REMARK minimizedAffinity 14.6367311
REMARK minimizedRMSD -1
REMARK  1 active torsions:
REMARK  status: ('A' for Active; 'I' for Inactive)
REMARK    1  A    between atoms: C1_2  and  C2_3 
ROOT
ATOM      1  C2  UNL d   1       3.805   0.480   0.791  0.00  0.00    -0.077 A 
ATOM      2  C3  UNL d   1       4.903  -0.386   0.892  0.00  0.00     0.002 A 
ATOM      3  C4  UNL d   1       5.992  -0.249   0.030  0.00  0.00     0.002 A 
ATOM      4  C5  UNL d   1       5.997   0.756  -0.936  0.00  0.00    -0.004 A 
ATOM      5  C6  UNL d   1       4.909   1.621  -1.045  0.00  0.00     0.002 A 
ATOM      6  C7  UNL d   1       3.819   1.484  -0.185  0.00  0.00     0.002 A 
ENDROOT
BRANCH   1   7
ATOM      7  C1  UNL d   1       2.651   0.365   1.752  0.00  0.00     0.055 C 
ATOM      8  C   UNL d   1       1.938   1.698   1.923  0.00  0.00     0.019 C 
ENDBRANCH   1   7
TORSDOF 1
ENDMDL
