MODEL 1
REMARK minimizedAffinity 13.095809
REMARK minimizedRMSD -1
REMARK  1 active torsions:
REMARK  status: ('A' for Active; 'I' for Inactive)
REMARK    1  A    between atoms: C1_2  and  C2_3 
ROOT
ATOM      1  C2  UNL d   1      -2.300  -3.529  -2.344  0.00  0.00    -0.077 A 
ATOM      2  C3  UNL d   1      -2.867  -4.724  -1.882  0.00  0.00     0.002 A 
ATOM      3  C4  UNL d   1      -2.425  -5.953  -2.377  0.00  0.00     0.002 A 
ATOM      4  C5  UNL d   1      -1.413  -5.998  -3.333  0.00  0.00    -0.004 A 
ATOM      5  C6  UNL d   1      -0.845  -4.814  -3.801  0.00  0.00     0.002 A 
ATOM      6  C7  UNL d   1      -1.285  -3.585  -3.308  0.00  0.00     0.002 A 
ENDROOT
BRANCH   1   7
ATOM      7  C1  UNL d   1      -2.740  -2.205  -1.776  0.00  0.00     0.055 C 
ATOM      8  C   UNL d   1      -2.456  -2.121  -0.283  0.00  0.00     0.019 C 
ENDBRANCH   1   7
TORSDOF 1
ENDMDL
