MODEL 1
REMARK minimizedAffinity 10.8499632
REMARK minimizedRMSD -1
REMARK  0 active torsions:
REMARK  status: ('A' for Active; 'I' for Inactive)
ROOT
ATOM      1  C   UNL d   1       2.945   3.368   4.469  0.00  0.00     0.077 C 
ATOM      2  C1  UNL d   1       2.162   3.559   3.204  0.00  0.00    -0.074 A 
ATOM      3  C2  UNL d   1       2.102   4.808   2.578  0.00  0.00    -0.005 A 
ATOM      4  C3  UNL d   1       1.378   4.969   1.397  0.00  0.00     0.006 A 
ATOM      5  C4  UNL d   1       0.708   3.883   0.831  0.00  0.00    -0.005 A 
ATOM      6  C5  UNL d   1       0.758   2.626   1.442  0.00  0.00    -0.074 A 
ATOM      7  C6  UNL d   1       0.051   1.447   0.842  0.00  0.00     0.077 C 
ATOM      8  C7  UNL d   1       1.493   2.472   2.625  0.00  0.00    -0.001 A 
ENDROOT
TORSDOF 0
ENDMDL
