MODEL 1
REMARK minimizedAffinity 7.89283562
REMARK minimizedRMSD -1
REMARK  0 active torsions:
REMARK  status: ('A' for Active; 'I' for Inactive)
ROOT
ATOM      1  C   UNL d   1       0.781   5.394   1.238  0.00  0.00     0.077 C 
ATOM      2  C1  UNL d   1       1.153   4.141   1.975  0.00  0.00    -0.074 A 
ATOM      3  C2  UNL d   1       2.105   4.167   2.999  0.00  0.00    -0.005 A 
ATOM      4  C3  UNL d   1       2.434   2.996   3.682  0.00  0.00     0.006 A 
ATOM      5  C4  UNL d   1       1.817   1.790   3.348  0.00  0.00    -0.005 A 
ATOM      6  C5  UNL d   1       0.862   1.746   2.327  0.00  0.00    -0.074 A 
ATOM      7  C6  UNL d   1       0.181   0.460   1.962  0.00  0.00     0.077 C 
ATOM      8  C7  UNL d   1       0.531   2.928   1.650  0.00  0.00    -0.001 A 
ENDROOT
TORSDOF 0
ENDMDL
