MODEL 1
REMARK minimizedAffinity -5.75282383
REMARK minimizedRMSD -1
REMARK  0 active torsions:
REMARK  status: ('A' for Active; 'I' for Inactive)
ROOT
ATOM      1  C   UNL d   1      -1.669   3.923   0.825  0.00  0.00     0.077 C 
ATOM      2  C1  UNL d   1      -1.329   2.791  -0.098  0.00  0.00    -0.074 A 
ATOM      3  C2  UNL d   1      -1.068   3.021  -1.452  0.00  0.00    -0.005 A 
ATOM      4  C3  UNL d   1      -0.744   1.959  -2.296  0.00  0.00     0.006 A 
ATOM      5  C4  UNL d   1      -0.679   0.658  -1.796  0.00  0.00    -0.005 A 
ATOM      6  C5  UNL d   1      -0.937   0.409  -0.444  0.00  0.00    -0.074 A 
ATOM      7  C6  UNL d   1      -0.861  -0.982   0.112  0.00  0.00     0.077 C 
ATOM      8  C7  UNL d   1      -1.254   1.482   0.399  0.00  0.00    -0.001 A 
ENDROOT
TORSDOF 0
ENDMDL
