MODEL 1
REMARK minimizedAffinity -2.00544
REMARK minimizedRMSD -1
REMARK  0 active torsions:
REMARK  status: ('A' for Active; 'I' for Inactive)
ROOT
ATOM      1  C   UNL d   1      -1.564   3.879   1.153  0.00  0.00     0.077 C 
ATOM      2  C1  UNL d   1      -1.193   2.975   0.015  0.00  0.00    -0.074 A 
ATOM      3  C2  UNL d   1      -1.025   3.479  -1.279  0.00  0.00    -0.005 A 
ATOM      4  C3  UNL d   1      -0.671   2.628  -2.325  0.00  0.00     0.006 A 
ATOM      5  C4  UNL d   1      -0.481   1.266  -2.089  0.00  0.00    -0.005 A 
ATOM      6  C5  UNL d   1      -0.643   0.743  -0.802  0.00  0.00    -0.074 A 
ATOM      7  C6  UNL d   1      -0.434  -0.716  -0.529  0.00  0.00     0.077 C 
ATOM      8  C7  UNL d   1      -0.993   1.606   0.246  0.00  0.00    -0.001 A 
ENDROOT
TORSDOF 0
ENDMDL
