MODEL 1
REMARK minimizedAffinity -3.45512414
REMARK minimizedRMSD -1
REMARK  0 active torsions:
REMARK  status: ('A' for Active; 'I' for Inactive)
ROOT
ATOM      1  C   UNL d   1       2.062   2.899   3.118  0.00  0.00     0.077 C 
ATOM      2  C1  UNL d   1       0.845   2.886   2.242  0.00  0.00    -0.074 A 
ATOM      3  C2  UNL d   1      -0.027   3.979   2.207  0.00  0.00    -0.005 A 
ATOM      4  C3  UNL d   1      -1.150   3.956   1.380  0.00  0.00     0.006 A 
ATOM      5  C4  UNL d   1      -1.412   2.842   0.582  0.00  0.00    -0.005 A 
ATOM      6  C5  UNL d   1      -0.551   1.740   0.603  0.00  0.00    -0.074 A 
ATOM      7  C6  UNL d   1      -0.813   0.539  -0.256  0.00  0.00     0.077 C 
ATOM      8  C7  UNL d   1       0.579   1.774   1.431  0.00  0.00    -0.001 A 
ENDROOT
TORSDOF 0
ENDMDL
