MODEL 1
REMARK minimizedAffinity -4.61054611
REMARK minimizedRMSD -1
REMARK  0 active torsions:
REMARK  status: ('A' for Active; 'I' for Inactive)
ROOT
ATOM      1  C   UNL d   1      -1.786   3.433   0.110  0.00  0.00     0.077 C 
ATOM      2  C1  UNL d   1      -0.838   2.346   0.522  0.00  0.00    -0.074 A 
ATOM      3  C2  UNL d   1       0.026   2.520   1.608  0.00  0.00    -0.005 A 
ATOM      4  C3  UNL d   1       0.895   1.497   1.986  0.00  0.00     0.006 A 
ATOM      5  C4  UNL d   1       0.909   0.291   1.283  0.00  0.00    -0.005 A 
ATOM      6  C5  UNL d   1       0.051   0.099   0.195  0.00  0.00    -0.074 A 
ATOM      7  C6  UNL d   1       0.047  -1.194  -0.565  0.00  0.00     0.077 C 
ATOM      8  C7  UNL d   1      -0.824   1.130  -0.174  0.00  0.00    -0.001 A 
ENDROOT
TORSDOF 0
ENDMDL
