MODEL 1
REMARK minimizedAffinity -0.713150918
REMARK minimizedRMSD -1
REMARK  0 active torsions:
REMARK  status: ('A' for Active; 'I' for Inactive)
ROOT
ATOM      1  C   UNL d   1       0.393   0.115  -0.010  0.00  0.00     0.077 C 
ATOM      2  C1  UNL d   1       0.524   1.561   0.365  0.00  0.00    -0.074 A 
ATOM      3  C2  UNL d   1       0.738   1.943   1.694  0.00  0.00    -0.005 A 
ATOM      4  C3  UNL d   1       0.867   3.291   2.026  0.00  0.00     0.006 A 
ATOM      5  C4  UNL d   1       0.784   4.270   1.036  0.00  0.00    -0.005 A 
ATOM      6  C5  UNL d   1       0.571   3.908  -0.298  0.00  0.00    -0.074 A 
ATOM      7  C6  UNL d   1       0.489   4.947  -1.377  0.00  0.00     0.077 C 
ATOM      8  C7  UNL d   1       0.449   2.550  -0.626  0.00  0.00    -0.001 A 
ENDROOT
TORSDOF 0
ENDMDL
