MODEL 1
REMARK minimizedAffinity 3.32804537
REMARK minimizedRMSD -1
REMARK  0 active torsions:
REMARK  status: ('A' for Active; 'I' for Inactive)
ROOT
ATOM      1  C   UNL d   1      -2.250   0.543   0.243  0.00  0.00     0.077 C 
ATOM      2  C1  UNL d   1      -0.870   0.221  -0.249  0.00  0.00    -0.074 A 
ATOM      3  C2  UNL d   1      -0.503   0.470  -1.576  0.00  0.00    -0.005 A 
ATOM      4  C3  UNL d   1       0.787   0.175  -2.016  0.00  0.00     0.006 A 
ATOM      5  C4  UNL d   1       1.722  -0.371  -1.137  0.00  0.00    -0.005 A 
ATOM      6  C5  UNL d   1       1.374  -0.627   0.194  0.00  0.00    -0.074 A 
ATOM      7  C6  UNL d   1       2.370  -1.205   1.155  0.00  0.00     0.077 C 
ATOM      8  C7  UNL d   1       0.078  -0.321   0.631  0.00  0.00    -0.001 A 
ENDROOT
TORSDOF 0
ENDMDL
