MODEL 1
REMARK minimizedAffinity -0.687074602
REMARK minimizedRMSD -1
REMARK  0 active torsions:
REMARK  status: ('A' for Active; 'I' for Inactive)
ROOT
ATOM      1  C   UNL d   1       1.830   6.000  -0.644  0.00  0.00     0.077 C 
ATOM      2  C1  UNL d   1       1.573   4.812   0.235  0.00  0.00    -0.074 A 
ATOM      3  C2  UNL d   1       0.713   3.787  -0.175  0.00  0.00    -0.005 A 
ATOM      4  C3  UNL d   1       0.491   2.684   0.649  0.00  0.00     0.006 A 
ATOM      5  C4  UNL d   1       1.125   2.594   1.889  0.00  0.00    -0.005 A 
ATOM      6  C5  UNL d   1       1.989   3.608   2.315  0.00  0.00    -0.074 A 
ATOM      7  C6  UNL d   1       2.686   3.522   3.640  0.00  0.00     0.077 C 
ATOM      8  C7  UNL d   1       2.212   4.710   1.478  0.00  0.00    -0.001 A 
ENDROOT
TORSDOF 0
ENDMDL
