MODEL 1
REMARK minimizedAffinity 2.98478317
REMARK minimizedRMSD -1
REMARK  0 active torsions:
REMARK  status: ('A' for Active; 'I' for Inactive)
ROOT
ATOM      1  C   UNL d   1       1.119   5.438  -0.584  0.00  0.00     0.077 C 
ATOM      2  C1  UNL d   1       0.975   4.178   0.217  0.00  0.00    -0.074 A 
ATOM      3  C2  UNL d   1       0.956   4.213   1.615  0.00  0.00    -0.005 A 
ATOM      4  C3  UNL d   1       0.812   3.034   2.347  0.00  0.00     0.006 A 
ATOM      5  C4  UNL d   1       0.686   1.810   1.689  0.00  0.00    -0.005 A 
ATOM      6  C5  UNL d   1       0.702   1.755   0.291  0.00  0.00    -0.074 A 
ATOM      7  C6  UNL d   1       0.558   0.449  -0.432  0.00  0.00     0.077 C 
ATOM      8  C7  UNL d   1       0.840   2.945  -0.437  0.00  0.00    -0.001 A 
ENDROOT
TORSDOF 0
ENDMDL
