MODEL 1
REMARK minimizedAffinity -1.23162258
REMARK minimizedRMSD -1
REMARK  0 active torsions:
REMARK  status: ('A' for Active; 'I' for Inactive)
ROOT
ATOM      1  C   UNL d   1       0.654   4.107  -0.502  0.00  0.00     0.077 C 
ATOM      2  C1  UNL d   1       0.773   2.802   0.227  0.00  0.00    -0.074 A 
ATOM      3  C2  UNL d   1       0.720   2.751   1.624  0.00  0.00    -0.005 A 
ATOM      4  C3  UNL d   1       0.822   1.528   2.287  0.00  0.00     0.006 A 
ATOM      5  C4  UNL d   1       0.977   0.346   1.562  0.00  0.00    -0.005 A 
ATOM      6  C5  UNL d   1       1.030   0.377   0.165  0.00  0.00    -0.074 A 
ATOM      7  C6  UNL d   1       1.186  -0.885  -0.630  0.00  0.00     0.077 C 
ATOM      8  C7  UNL d   1       0.920   1.609  -0.495  0.00  0.00    -0.001 A 
ENDROOT
TORSDOF 0
ENDMDL
