MODEL 1
REMARK minimizedAffinity 1.43211639
REMARK minimizedRMSD -1
REMARK  1 active torsions:
REMARK  status: ('A' for Active; 'I' for Inactive)
REMARK    1  A    between atoms: C3_4  and  O_7 
ROOT
ATOM      1  C   UNL d   1      -5.999  -5.871  -3.914  0.00  0.00    -0.033 A 
ATOM      2  C1  UNL d   1      -5.812  -5.999  -5.292  0.00  0.00     0.039 A 
ATOM      3  C2  UNL d   1      -5.126  -5.010  -6.000  0.00  0.00    -0.080 A 
ATOM      4  C3  UNL d   1      -4.632  -3.901  -5.319  0.00  0.00     0.150 A 
ATOM      5  C4  UNL d   1      -4.810  -3.769  -3.946  0.00  0.00    -0.007 A 
ATOM      6  C5  UNL d   1      -5.496  -4.757  -3.241  0.00  0.00     0.039 A 
ENDROOT
BRANCH   4   7
ATOM      7  O   UNL d   1      -3.960  -2.908  -5.968  0.00  0.00    -0.526 OA
ATOM      8  H5  UNL d   1      -3.938  -3.120  -6.916  0.00  0.00     0.418 HD
ENDBRANCH   4   7
TORSDOF 1
ENDMDL
