MODEL 1
REMARK minimizedAffinity -2.17578244
REMARK minimizedRMSD -1
REMARK  1 active torsions:
REMARK  status: ('A' for Active; 'I' for Inactive)
REMARK    1  A    between atoms: C3_4  and  O_7 
ROOT
ATOM      1  C   UNL d   1      -5.999  -3.945  -2.554  0.00  0.00    -0.033 A 
ATOM      2  C1  UNL d   1      -5.874  -3.247  -3.757  0.00  0.00     0.039 A 
ATOM      3  C2  UNL d   1      -5.516  -3.924  -4.925  0.00  0.00    -0.080 A 
ATOM      4  C3  UNL d   1      -5.288  -5.297  -4.876  0.00  0.00     0.150 A 
ATOM      5  C4  UNL d   1      -5.415  -5.999  -3.682  0.00  0.00    -0.007 A 
ATOM      6  C5  UNL d   1      -5.771  -5.321  -2.517  0.00  0.00     0.039 A 
ENDROOT
BRANCH   4   7
ATOM      7  O   UNL d   1      -4.932  -6.000  -5.989  0.00  0.00    -0.526 OA
ATOM      8  H5  UNL d   1      -4.854  -5.379  -6.733  0.00  0.00     0.418 HD
ENDBRANCH   4   7
TORSDOF 1
ENDMDL
