MODEL 1
REMARK minimizedAffinity -0.70122844
REMARK minimizedRMSD -1
REMARK  1 active torsions:
REMARK  status: ('A' for Active; 'I' for Inactive)
REMARK    1  A    between atoms: C3_4  and  O_7 
ROOT
ATOM      1  C   UNL d   1      -5.595  -4.924  -6.000  0.00  0.00    -0.033 A 
ATOM      2  C1  UNL d   1      -5.960  -5.990  -5.175  0.00  0.00     0.039 A 
ATOM      3  C2  UNL d   1      -5.597  -5.987  -3.827  0.00  0.00    -0.080 A 
ATOM      4  C3  UNL d   1      -4.872  -4.914  -3.316  0.00  0.00     0.150 A 
ATOM      5  C4  UNL d   1      -4.509  -3.847  -4.132  0.00  0.00    -0.007 A 
ATOM      6  C5  UNL d   1      -4.871  -3.852  -5.478  0.00  0.00     0.039 A 
ENDROOT
BRANCH   4   7
ATOM      7  O   UNL d   1      -4.491  -4.869  -2.008  0.00  0.00    -0.526 OA
ATOM      8  H5  UNL d   1      -4.787  -5.686  -1.573  0.00  0.00     0.418 HD
ENDBRANCH   4   7
TORSDOF 1
ENDMDL
