MODEL 1
REMARK minimizedAffinity -3.17423034
REMARK minimizedRMSD -1
REMARK  1 active torsions:
REMARK  status: ('A' for Active; 'I' for Inactive)
REMARK    1  A    between atoms: C3_4  and  O_7 
ROOT
ATOM      1  C   UNL d   1      -5.366  -4.943  -5.750  0.00  0.00    -0.033 A 
ATOM      2  C1  UNL d   1      -5.983  -3.905  -5.051  0.00  0.00     0.039 A 
ATOM      3  C2  UNL d   1      -5.998  -3.913  -3.655  0.00  0.00    -0.080 A 
ATOM      4  C3  UNL d   1      -5.392  -4.964  -2.971  0.00  0.00     0.150 A 
ATOM      5  C4  UNL d   1      -4.772  -6.000  -3.662  0.00  0.00    -0.007 A 
ATOM      6  C5  UNL d   1      -4.759  -5.990  -5.056  0.00  0.00     0.039 A 
ENDROOT
BRANCH   4   7
ATOM      7  O   UNL d   1      -5.386  -5.018  -1.609  0.00  0.00    -0.526 OA
ATOM      8  H5  UNL d   1      -5.876  -4.251  -1.268  0.00  0.00     0.418 HD
ENDBRANCH   4   7
TORSDOF 1
ENDMDL
