MODEL 1
REMARK minimizedAffinity -4.46409416
REMARK minimizedRMSD -1
REMARK  1 active torsions:
REMARK  status: ('A' for Active; 'I' for Inactive)
REMARK    1  A    between atoms: C3_4  and  O_7 
ROOT
ATOM      1  C   UNL d   1      -5.297  -4.816  -5.988  0.00  0.00    -0.033 A 
ATOM      2  C1  UNL d   1      -5.674  -3.648  -5.322  0.00  0.00     0.039 A 
ATOM      3  C2  UNL d   1      -5.839  -3.654  -3.936  0.00  0.00    -0.080 A 
ATOM      4  C3  UNL d   1      -5.624  -4.833  -3.228  0.00  0.00     0.150 A 
ATOM      5  C4  UNL d   1      -5.245  -6.000  -3.883  0.00  0.00    -0.007 A 
ATOM      6  C5  UNL d   1      -5.081  -5.992  -5.268  0.00  0.00     0.039 A 
ENDROOT
BRANCH   4   7
ATOM      7  O   UNL d   1      -5.778  -4.889  -1.874  0.00  0.00    -0.526 OA
ATOM      8  H5  UNL d   1      -6.070  -4.017  -1.561  0.00  0.00     0.418 HD
ENDBRANCH   4   7
TORSDOF 1
ENDMDL
