MODEL 1
REMARK minimizedAffinity -2.61335039
REMARK minimizedRMSD -1
REMARK  1 active torsions:
REMARK  status: ('A' for Active; 'I' for Inactive)
REMARK    1  A    between atoms: C3_4  and  O_7 
ROOT
ATOM      1  C   UNL d   1      -5.244  -4.963  -5.999  0.00  0.00    -0.033 A 
ATOM      2  C1  UNL d   1      -4.621  -5.999  -5.301  0.00  0.00     0.039 A 
ATOM      3  C2  UNL d   1      -4.601  -5.988  -3.905  0.00  0.00    -0.080 A 
ATOM      4  C3  UNL d   1      -5.207  -4.938  -3.220  0.00  0.00     0.150 A 
ATOM      5  C4  UNL d   1      -5.832  -3.905  -3.910  0.00  0.00    -0.007 A 
ATOM      6  C5  UNL d   1      -5.851  -3.917  -5.304  0.00  0.00     0.039 A 
ENDROOT
BRANCH   4   7
ATOM      7  O   UNL d   1      -5.208  -4.882  -1.858  0.00  0.00    -0.526 OA
ATOM      8  H5  UNL d   1      -4.715  -5.647  -1.518  0.00  0.00     0.418 HD
ENDBRANCH   4   7
TORSDOF 1
ENDMDL
