MODEL 1
REMARK minimizedAffinity -3.75505853
REMARK minimizedRMSD -1
REMARK  1 active torsions:
REMARK  status: ('A' for Active; 'I' for Inactive)
REMARK    1  A    between atoms: C3_4  and  O_7 
ROOT
ATOM      1  C   UNL d   1       4.037   2.771  -5.459  0.00  0.00    -0.033 A 
ATOM      2  C1  UNL d   1       5.321   2.674  -6.000  0.00  0.00     0.039 A 
ATOM      3  C2  UNL d   1       5.996   1.452  -5.985  0.00  0.00    -0.080 A 
ATOM      4  C3  UNL d   1       5.377   0.336  -5.429  0.00  0.00     0.150 A 
ATOM      5  C4  UNL d   1       4.097   0.424  -4.892  0.00  0.00    -0.007 A 
ATOM      6  C5  UNL d   1       3.425   1.646  -4.907  0.00  0.00     0.039 A 
ENDROOT
BRANCH   4   7
ATOM      7  O   UNL d   1       5.998  -0.877  -5.388  0.00  0.00    -0.526 OA
ATOM      8  H5  UNL d   1       6.887  -0.780  -5.768  0.00  0.00     0.418 HD
ENDBRANCH   4   7
TORSDOF 1
ENDMDL
