MODEL 1
REMARK minimizedAffinity -2.81569481
REMARK minimizedRMSD -1
REMARK  1 active torsions:
REMARK  status: ('A' for Active; 'I' for Inactive)
REMARK    1  A    between atoms: C3_4  and  O_7 
ROOT
ATOM      1  C   UNL d   1      -5.565  -4.061  -5.708  0.00  0.00    -0.033 A 
ATOM      2  C1  UNL d   1      -5.247  -5.412  -5.550  0.00  0.00     0.039 A 
ATOM      3  C2  UNL d   1      -5.299  -6.000  -4.285  0.00  0.00    -0.080 A 
ATOM      4  C3  UNL d   1      -5.671  -5.228  -3.188  0.00  0.00     0.150 A 
ATOM      5  C4  UNL d   1      -5.994  -3.883  -3.338  0.00  0.00    -0.007 A 
ATOM      6  C5  UNL d   1      -5.940  -3.298  -4.602  0.00  0.00     0.039 A 
ENDROOT
BRANCH   4   7
ATOM      7  O   UNL d   1      -5.732  -5.757  -1.933  0.00  0.00    -0.526 OA
ATOM      8  H5  UNL d   1      -5.455  -6.687  -1.977  0.00  0.00     0.418 HD
ENDBRANCH   4   7
TORSDOF 1
ENDMDL
