MODEL 1
REMARK minimizedAffinity -3.7906065
REMARK minimizedRMSD -1
REMARK  1 active torsions:
REMARK  status: ('A' for Active; 'I' for Inactive)
REMARK    1  A    between atoms: C3_4  and  O_7 
ROOT
ATOM      1  C   UNL d   1      -4.632  -5.039  -5.500  0.00  0.00    -0.033 A 
ATOM      2  C1  UNL d   1      -5.543  -4.066  -5.085  0.00  0.00     0.039 A 
ATOM      3  C2  UNL d   1      -6.000  -4.052  -3.766  0.00  0.00    -0.080 A 
ATOM      4  C3  UNL d   1      -5.539  -5.016  -2.873  0.00  0.00     0.150 A 
ATOM      5  C4  UNL d   1      -4.629  -5.986  -3.279  0.00  0.00    -0.007 A 
ATOM      6  C5  UNL d   1      -4.174  -5.999  -4.597  0.00  0.00     0.039 A 
ENDROOT
BRANCH   4   7
ATOM      7  O   UNL d   1      -5.960  -5.046  -1.577  0.00  0.00    -0.526 OA
ATOM      8  H5  UNL d   1      -6.609  -4.334  -1.447  0.00  0.00     0.418 HD
ENDBRANCH   4   7
TORSDOF 1
ENDMDL
