MODEL 1
REMARK minimizedAffinity -4.90595913
REMARK minimizedRMSD -1
REMARK  0 active torsions:
REMARK  status: ('A' for Active; 'I' for Inactive)
ROOT
ATOM      1  C   UNL d   1       1.114   1.083  -2.322  0.00  0.00    -0.002 A 
ATOM      2  C1  UNL d   1       1.839  -0.042  -1.956  0.00  0.00     0.010 A 
ATOM      3  C2  UNL d   1       1.447  -0.814  -0.861  0.00  0.00     0.041 A 
ATOM      4  C3  UNL d   1       0.301  -0.435  -0.135  0.00  0.00    -0.075 A 
ATOM      5  S   UNL d   1      -0.368  -1.230   1.241  0.00  0.00     0.015 SA
ATOM      6  C4  UNL d   1      -1.633  -0.095   1.375  0.00  0.00     0.022 A 
ATOM      7  C5  UNL d   1      -1.562   0.873   0.402  0.00  0.00     0.026 A 
ATOM      8  C6  UNL d   1      -0.446   0.693  -0.484  0.00  0.00    -0.082 A 
ATOM      9  C7  UNL d   1      -0.022   1.457  -1.599  0.00  0.00     0.045 A 
ENDROOT
TORSDOF 0
ENDMDL
