MODEL 1
REMARK minimizedAffinity -1.66224861
REMARK minimizedRMSD -1
REMARK  0 active torsions:
REMARK  status: ('A' for Active; 'I' for Inactive)
ROOT
ATOM      1  C   UNL d   1       2.800  -0.590  -2.356  0.00  0.00    -0.002 A 
ATOM      2  C1  UNL d   1       2.684  -1.921  -1.980  0.00  0.00     0.010 A 
ATOM      3  C2  UNL d   1       1.726  -2.313  -1.042  0.00  0.00     0.041 A 
ATOM      4  C3  UNL d   1       0.878  -1.336  -0.485  0.00  0.00    -0.075 A 
ATOM      5  S   UNL d   1      -0.369  -1.584   0.680  0.00  0.00     0.015 SA
ATOM      6  C4  UNL d   1      -0.777   0.070   0.706  0.00  0.00     0.022 A 
ATOM      7  C5  UNL d   1       0.008   0.808  -0.148  0.00  0.00     0.026 A 
ATOM      8  C6  UNL d   1       0.975   0.010  -0.848  0.00  0.00    -0.082 A 
ATOM      9  C7  UNL d   1       1.956   0.376  -1.801  0.00  0.00     0.045 A 
ENDROOT
TORSDOF 0
ENDMDL
