MODEL 1
REMARK minimizedAffinity 1.41371143
REMARK minimizedRMSD -1
REMARK  0 active torsions:
REMARK  status: ('A' for Active; 'I' for Inactive)
ROOT
ATOM      1  C   UNL d   1      -0.789   0.634   0.748  0.00  0.00    -0.002 A 
ATOM      2  C1  UNL d   1       0.155   1.403   0.082  0.00  0.00     0.010 A 
ATOM      3  C2  UNL d   1       1.212   0.796  -0.598  0.00  0.00     0.041 A 
ATOM      4  C3  UNL d   1       1.305  -0.609  -0.600  0.00  0.00    -0.075 A 
ATOM      5  S   UNL d   1       2.514  -1.571  -1.367  0.00  0.00     0.015 SA
ATOM      6  C4  UNL d   1       1.805  -3.024  -0.829  0.00  0.00     0.022 A 
ATOM      7  C5  UNL d   1       0.673  -2.800  -0.081  0.00  0.00     0.026 A 
ATOM      8  C6  UNL d   1       0.366  -1.405   0.063  0.00  0.00    -0.082 A 
ATOM      9  C7  UNL d   1      -0.694  -0.760   0.745  0.00  0.00     0.045 A 
ENDROOT
TORSDOF 0
ENDMDL
