MODEL 1
REMARK minimizedAffinity -2.2401545
REMARK minimizedRMSD -1
REMARK  0 active torsions:
REMARK  status: ('A' for Active; 'I' for Inactive)
ROOT
ATOM      1  C   UNL d   1       1.606   0.991  -1.050  0.00  0.00    -0.002 A 
ATOM      2  C1  UNL d   1       0.575   1.763  -1.565  0.00  0.00     0.010 A 
ATOM      3  C2  UNL d   1      -0.701   1.712  -1.001  0.00  0.00     0.041 A 
ATOM      4  C3  UNL d   1      -0.925   0.866   0.103  0.00  0.00    -0.075 A 
ATOM      5  S   UNL d   1      -2.405   0.641   0.958  0.00  0.00     0.015 SA
ATOM      6  C4  UNL d   1      -1.703  -0.484   2.028  0.00  0.00     0.022 A 
ATOM      7  C5  UNL d   1      -0.373  -0.696   1.754  0.00  0.00     0.026 A 
ATOM      8  C6  UNL d   1       0.098   0.079   0.640  0.00  0.00    -0.082 A 
ATOM      9  C7  UNL d   1       1.381   0.152   0.045  0.00  0.00     0.045 A 
ENDROOT
TORSDOF 0
ENDMDL
