MODEL 1
REMARK minimizedAffinity -0.802685559
REMARK minimizedRMSD -1
REMARK  0 active torsions:
REMARK  status: ('A' for Active; 'I' for Inactive)
ROOT
ATOM      1  C   UNL d   1       1.344  -0.990  -3.007  0.00  0.00    -0.002 A 
ATOM      2  C1  UNL d   1       0.555  -1.699  -2.111  0.00  0.00     0.010 A 
ATOM      3  C2  UNL d   1       0.196  -1.139  -0.884  0.00  0.00     0.041 A 
ATOM      4  C3  UNL d   1       0.645   0.159  -0.569  0.00  0.00    -0.075 A 
ATOM      5  S   UNL d   1       0.329   1.046   0.875  0.00  0.00     0.015 SA
ATOM      6  C4  UNL d   1       1.233   2.388   0.337  0.00  0.00     0.022 A 
ATOM      7  C5  UNL d   1       1.770   2.180  -0.912  0.00  0.00     0.026 A 
ATOM      8  C6  UNL d   1       1.439   0.892  -1.454  0.00  0.00    -0.082 A 
ATOM      9  C7  UNL d   1       1.788   0.297  -2.691  0.00  0.00     0.045 A 
ENDROOT
TORSDOF 0
ENDMDL
