MODEL 1
REMARK minimizedAffinity -1.29522216
REMARK minimizedRMSD -1
REMARK  0 active torsions:
REMARK  status: ('A' for Active; 'I' for Inactive)
ROOT
ATOM      1  C   UNL d   1       1.381  -1.122  -1.954  0.00  0.00    -0.002 A 
ATOM      2  C1  UNL d   1       0.918  -2.122  -1.110  0.00  0.00     0.010 A 
ATOM      3  C2  UNL d   1      -0.047  -1.843  -0.141  0.00  0.00     0.041 A 
ATOM      4  C3  UNL d   1      -0.545  -0.529  -0.034  0.00  0.00    -0.075 A 
ATOM      5  S   UNL d   1      -1.731   0.045   1.078  0.00  0.00     0.015 SA
ATOM      6  C4  UNL d   1      -1.651   1.631   0.459  0.00  0.00     0.022 A 
ATOM      7  C5  UNL d   1      -0.748   1.738  -0.572  0.00  0.00     0.026 A 
ATOM      8  C6  UNL d   1      -0.095   0.494  -0.873  0.00  0.00    -0.082 A 
ATOM      9  C7  UNL d   1       0.884   0.179  -1.845  0.00  0.00     0.045 A 
ENDROOT
TORSDOF 0
ENDMDL
