MODEL 1
REMARK minimizedAffinity 0.938543081
REMARK minimizedRMSD -1
REMARK  0 active torsions:
REMARK  status: ('A' for Active; 'I' for Inactive)
ROOT
ATOM      1  C   UNL d   1       0.189  -2.352  -1.165  0.00  0.00    -0.002 A 
ATOM      2  C1  UNL d   1      -0.275  -1.463  -2.124  0.00  0.00     0.010 A 
ATOM      3  C2  UNL d   1      -0.775  -0.214  -1.752  0.00  0.00     0.041 A 
ATOM      4  C3  UNL d   1      -0.799   0.132  -0.387  0.00  0.00    -0.075 A 
ATOM      5  S   UNL d   1      -1.365   1.607   0.303  0.00  0.00     0.015 SA
ATOM      6  C4  UNL d   1      -1.004   1.093   1.887  0.00  0.00     0.022 A 
ATOM      7  C5  UNL d   1      -0.464  -0.171   1.908  0.00  0.00     0.026 A 
ATOM      8  C6  UNL d   1      -0.336  -0.746   0.598  0.00  0.00    -0.082 A 
ATOM      9  C7  UNL d   1       0.164  -2.006   0.189  0.00  0.00     0.045 A 
ENDROOT
TORSDOF 0
ENDMDL
