MODEL 1
REMARK minimizedAffinity 0.0646916032
REMARK minimizedRMSD -1
REMARK  0 active torsions:
REMARK  status: ('A' for Active; 'I' for Inactive)
ROOT
ATOM      1  C   UNL d   1       2.627  -2.686  -1.835  0.00  0.00    -0.002 A 
ATOM      2  C1  UNL d   1       1.585  -3.153  -1.047  0.00  0.00     0.010 A 
ATOM      3  C2  UNL d   1       0.707  -2.261  -0.428  0.00  0.00     0.041 A 
ATOM      4  C3  UNL d   1       0.895  -0.878  -0.617  0.00  0.00    -0.075 A 
ATOM      5  S   UNL d   1      -0.056   0.400   0.041  0.00  0.00     0.015 SA
ATOM      6  C4  UNL d   1       0.898   1.597  -0.708  0.00  0.00     0.022 A 
ATOM      7  C5  UNL d   1       1.922   1.053  -1.447  0.00  0.00     0.026 A 
ATOM      8  C6  UNL d   1       1.937  -0.383  -1.407  0.00  0.00    -0.082 A 
ATOM      9  C7  UNL d   1       2.810  -1.313  -2.020  0.00  0.00     0.045 A 
ENDROOT
TORSDOF 0
ENDMDL
