MODEL 1
REMARK minimizedAffinity -4.2956996
REMARK minimizedRMSD -1
REMARK  0 active torsions:
REMARK  status: ('A' for Active; 'I' for Inactive)
ROOT
ATOM      1  C   UNL d   1       2.472  -2.619  -1.820  0.00  0.00    -0.002 A 
ATOM      2  C1  UNL d   1       1.716  -3.174  -0.797  0.00  0.00     0.010 A 
ATOM      3  C2  UNL d   1       0.913  -2.368   0.012  0.00  0.00     0.041 A 
ATOM      4  C3  UNL d   1       0.880  -0.980  -0.228  0.00  0.00    -0.075 A 
ATOM      5  S   UNL d   1      -0.031   0.203   0.634  0.00  0.00     0.015 SA
ATOM      6  C4  UNL d   1       0.561   1.473  -0.336  0.00  0.00     0.022 A 
ATOM      7  C5  UNL d   1       1.433   1.024  -1.298  0.00  0.00     0.026 A 
ATOM      8  C6  UNL d   1       1.631  -0.397  -1.253  0.00  0.00    -0.082 A 
ATOM      9  C7  UNL d   1       2.437  -1.242  -2.055  0.00  0.00     0.045 A 
ENDROOT
TORSDOF 0
ENDMDL
