MODEL 1
REMARK minimizedAffinity 0.705420613
REMARK minimizedRMSD -1
REMARK  0 active torsions:
REMARK  status: ('A' for Active; 'I' for Inactive)
ROOT
ATOM      1  C   UNL d   1       2.902  -1.300  -1.710  0.00  0.00    -0.002 A 
ATOM      2  C1  UNL d   1       2.228  -2.382  -1.161  0.00  0.00     0.010 A 
ATOM      3  C2  UNL d   1       1.080  -2.188  -0.391  0.00  0.00     0.041 A 
ATOM      4  C3  UNL d   1       0.614  -0.875  -0.182  0.00  0.00    -0.075 A 
ATOM      5  S   UNL d   1      -0.772  -0.396   0.725  0.00  0.00     0.015 SA
ATOM      6  C4  UNL d   1      -0.503   1.256   0.405  0.00  0.00     0.022 A 
ATOM      7  C5  UNL d   1       0.613   1.456  -0.373  0.00  0.00     0.026 A 
ATOM      8  C6  UNL d   1       1.275   0.231  -0.725  0.00  0.00    -0.082 A 
ATOM      9  C7  UNL d   1       2.437   0.001  -1.500  0.00  0.00     0.045 A 
ENDROOT
TORSDOF 0
ENDMDL
