MODEL 1
REMARK minimizedAffinity -0.0709406808
REMARK minimizedRMSD -1
REMARK  0 active torsions:
REMARK  status: ('A' for Active; 'I' for Inactive)
ROOT
ATOM      1  C   UNL d   1       2.690   0.264  -2.132  0.00  0.00    -0.002 A 
ATOM      2  C1  UNL d   1       2.788  -1.121  -2.109  0.00  0.00     0.010 A 
ATOM      3  C2  UNL d   1       1.919  -1.881  -1.324  0.00  0.00     0.041 A 
ATOM      4  C3  UNL d   1       0.939  -1.220  -0.557  0.00  0.00    -0.075 A 
ATOM      5  S   UNL d   1      -0.234  -1.944   0.479  0.00  0.00     0.015 SA
ATOM      6  C4  UNL d   1      -0.892  -0.434   0.913  0.00  0.00     0.022 A 
ATOM      7  C5  UNL d   1      -0.245   0.609   0.293  0.00  0.00     0.026 A 
ATOM      8  C6  UNL d   1       0.821   0.173  -0.564  0.00  0.00    -0.082 A 
ATOM      9  C7  UNL d   1       1.717   0.915  -1.370  0.00  0.00     0.045 A 
ENDROOT
TORSDOF 0
ENDMDL
