MODEL 1
REMARK minimizedAffinity 0.535889983
REMARK minimizedRMSD -1
REMARK  0 active torsions:
REMARK  status: ('A' for Active; 'I' for Inactive)
ROOT
ATOM      1  C   UNL d   1       0.470   0.146   0.096  0.00  0.00    -0.002 A 
ATOM      2  C1  UNL d   1      -0.254   0.627  -0.985  0.00  0.00     0.010 A 
ATOM      3  C2  UNL d   1      -1.622   0.884  -0.866  0.00  0.00     0.041 A 
ATOM      4  C3  UNL d   1      -2.255   0.649   0.370  0.00  0.00    -0.075 A 
ATOM      5  S   UNL d   1      -3.919   0.893   0.749  0.00  0.00     0.015 SA
ATOM      6  C4  UNL d   1      -3.707   0.365   2.356  0.00  0.00     0.022 A 
ATOM      7  C5  UNL d   1      -2.405   0.007   2.614  0.00  0.00     0.026 A 
ATOM      8  C6  UNL d   1      -1.546   0.166   1.474  0.00  0.00    -0.082 A 
ATOM      9  C7  UNL d   1      -0.161  -0.086   1.321  0.00  0.00     0.045 A 
ENDROOT
TORSDOF 0
ENDMDL
