MODEL 1
REMARK minimizedAffinity -2.97183013
REMARK minimizedRMSD -1
REMARK  0 active torsions:
REMARK  status: ('A' for Active; 'I' for Inactive)
ROOT
ATOM      1  C   UNL d   1      -2.930   0.797   1.265  0.00  0.00    -0.002 A 
ATOM      2  C1  UNL d   1      -2.088  -0.122   1.874  0.00  0.00     0.010 A 
ATOM      3  C2  UNL d   1      -0.807  -0.355   1.368  0.00  0.00     0.041 A 
ATOM      4  C3  UNL d   1      -0.383   0.359   0.231  0.00  0.00    -0.075 A 
ATOM      5  S   UNL d   1       1.143   0.239  -0.563  0.00  0.00     0.015 SA
ATOM      6  C4  UNL d   1       0.712   1.406  -1.729  0.00  0.00     0.022 A 
ATOM      7  C5  UNL d   1      -0.561   1.885  -1.532  0.00  0.00     0.026 A 
ATOM      8  C6  UNL d   1      -1.213   1.290  -0.399  0.00  0.00    -0.082 A 
ATOM      9  C7  UNL d   1      -2.506   1.503   0.136  0.00  0.00     0.045 A 
ENDROOT
TORSDOF 0
ENDMDL
