MODEL 1
REMARK minimizedAffinity -4.9348731
REMARK minimizedRMSD -1
REMARK  0 active torsions:
REMARK  status: ('A' for Active; 'I' for Inactive)
ROOT
ATOM      1  C   UNL d   1       2.258  -0.134  -3.007  0.00  0.00    -0.002 A 
ATOM      2  C1  UNL d   1       2.237  -1.444  -2.553  0.00  0.00     0.010 A 
ATOM      3  C2  UNL d   1       1.439  -1.806  -1.465  0.00  0.00     0.041 A 
ATOM      4  C3  UNL d   1       0.654  -0.819  -0.837  0.00  0.00    -0.075 A 
ATOM      5  S   UNL d   1      -0.400  -1.030   0.510  0.00  0.00     0.015 SA
ATOM      6  C4  UNL d   1      -0.847   0.615   0.514  0.00  0.00     0.022 A 
ATOM      7  C5  UNL d   1      -0.217   1.322  -0.482  0.00  0.00     0.026 A 
ATOM      8  C6  UNL d   1       0.658   0.508  -1.278  0.00  0.00    -0.082 A 
ATOM      9  C7  UNL d   1       1.478   0.843  -2.382  0.00  0.00     0.045 A 
ENDROOT
TORSDOF 0
ENDMDL
