MODEL 1
REMARK minimizedAffinity -0.950221956
REMARK minimizedRMSD -1
REMARK  0 active torsions:
REMARK  status: ('A' for Active; 'I' for Inactive)
ROOT
ATOM      1  C   UNL d   1       1.781   2.065  -1.217  0.00  0.00    -0.002 A 
ATOM      2  C1  UNL d   1       2.107   0.735  -1.445  0.00  0.00     0.010 A 
ATOM      3  C2  UNL d   1       1.315  -0.290  -0.925  0.00  0.00     0.041 A 
ATOM      4  C3  UNL d   1       0.176   0.046  -0.166  0.00  0.00    -0.075 A 
ATOM      5  S   UNL d   1      -0.941  -1.041   0.569  0.00  0.00     0.015 SA
ATOM      6  C4  UNL d   1      -1.879   0.233   1.203  0.00  0.00     0.022 A 
ATOM      7  C5  UNL d   1      -1.366   1.465   0.872  0.00  0.00     0.026 A 
ATOM      8  C6  UNL d   1      -0.173   1.378   0.077  0.00  0.00    -0.082 A 
ATOM      9  C7  UNL d   1       0.651   2.394  -0.463  0.00  0.00     0.045 A 
ENDROOT
TORSDOF 0
ENDMDL
