MODEL 1
REMARK minimizedAffinity 0.841920674
REMARK minimizedRMSD -1
REMARK  1 active torsions:
REMARK  status: ('A' for Active; 'I' for Inactive)
REMARK    1  A    between atoms: C1_2  and  C2_3 
ROOT
ATOM      1  C2  UNL d   1       5.038  -2.946   5.392  0.00  0.00    -0.076 A 
ATOM      2  C3  UNL d   1       5.871  -1.990   6.000  0.00  0.00     0.004 A 
ATOM      3  C4  UNL d   1       6.000  -0.709   5.467  0.00  0.00    -0.003 A 
ATOM      4  C5  UNL d   1       5.297  -0.362   4.318  0.00  0.00     0.000 A 
ATOM      5  C6  UNL d   1       4.453  -1.292   3.713  0.00  0.00     0.000 A 
ATOM      6  C7  UNL d   1       4.299  -2.583   4.246  0.00  0.00    -0.073 A 
ATOM      7  C8  UNL d   1       3.380  -3.548   3.548  0.00  0.00     0.078 C 
ENDROOT
BRANCH   1   8
ATOM      8  C1  UNL d   1       4.959  -4.329   6.000  0.00  0.00     0.053 C 
ATOM      9  C   UNL d   1       5.898  -5.316   5.324  0.00  0.00     0.018 C 
ENDBRANCH   1   8
TORSDOF 1
ENDMDL
