MODEL 1
REMARK minimizedAffinity -0.580577195
REMARK minimizedRMSD -1
REMARK  1 active torsions:
REMARK  status: ('A' for Active; 'I' for Inactive)
REMARK    1  A    between atoms: C1_2  and  C2_3 
ROOT
ATOM      1  C2  UNL d   1       4.306  -1.941   4.616  0.00  0.00    -0.076 A 
ATOM      2  C3  UNL d   1       3.785  -3.202   4.277  0.00  0.00     0.004 A 
ATOM      3  C4  UNL d   1       4.349  -4.371   4.784  0.00  0.00    -0.003 A 
ATOM      4  C5  UNL d   1       5.444  -4.299   5.639  0.00  0.00     0.000 A 
ATOM      5  C6  UNL d   1       5.963  -3.056   5.999  0.00  0.00     0.000 A 
ATOM      6  C7  UNL d   1       5.395  -1.867   5.510  0.00  0.00    -0.073 A 
ATOM      7  C8  UNL d   1       5.999  -0.554   5.927  0.00  0.00     0.078 C 
ENDROOT
BRANCH   1   8
ATOM      8  C1  UNL d   1       3.669  -0.709   4.014  0.00  0.00     0.053 C 
ATOM      9  C   UNL d   1       4.528  -0.082   2.926  0.00  0.00     0.018 C 
ENDBRANCH   1   8
TORSDOF 1
ENDMDL
