MODEL 1
REMARK minimizedAffinity 0.301955998
REMARK minimizedRMSD -1
REMARK  1 active torsions:
REMARK  status: ('A' for Active; 'I' for Inactive)
REMARK    1  A    between atoms: C1_2  and  C2_3 
ROOT
ATOM      1  C2  UNL d   1       5.338   0.416   4.690  0.00  0.00    -0.076 A 
ATOM      2  C3  UNL d   1       5.833   1.147   5.784  0.00  0.00     0.004 A 
ATOM      3  C4  UNL d   1       6.000   2.528   5.708  0.00  0.00    -0.003 A 
ATOM      4  C5  UNL d   1       5.673   3.203   4.537  0.00  0.00     0.000 A 
ATOM      5  C6  UNL d   1       5.164   2.497   3.448  0.00  0.00     0.000 A 
ATOM      6  C7  UNL d   1       4.974   1.106   3.513  0.00  0.00    -0.073 A 
ATOM      7  C8  UNL d   1       4.427   0.394   2.306  0.00  0.00     0.078 C 
ENDROOT
BRANCH   1   8
ATOM      8  C1  UNL d   1       5.204  -1.084   4.821  0.00  0.00     0.053 C 
ATOM      9  C   UNL d   1       5.999  -1.640   5.992  0.00  0.00     0.018 C 
ENDBRANCH   1   8
TORSDOF 1
ENDMDL
