MODEL 1
REMARK minimizedAffinity -1.56386459
REMARK minimizedRMSD -1
REMARK  1 active torsions:
REMARK  status: ('A' for Active; 'I' for Inactive)
REMARK    1  A    between atoms: C1_2  and  C2_3 
ROOT
ATOM      1  C2  UNL d   1       5.440  -0.332   4.711  0.00  0.00    -0.076 A 
ATOM      2  C3  UNL d   1       5.795   0.283   5.925  0.00  0.00     0.004 A 
ATOM      3  C4  UNL d   1       5.996   1.660   6.000  0.00  0.00    -0.003 A 
ATOM      4  C5  UNL d   1       5.845   2.446   4.862  0.00  0.00     0.000 A 
ATOM      5  C6  UNL d   1       5.475   1.855   3.654  0.00  0.00     0.000 A 
ATOM      6  C7  UNL d   1       5.253   0.470   3.565  0.00  0.00    -0.073 A 
ATOM      7  C8  UNL d   1       4.862  -0.114   2.235  0.00  0.00     0.078 C 
ENDROOT
BRANCH   1   8
ATOM      8  C1  UNL d   1       5.262  -1.833   4.684  0.00  0.00     0.053 C 
ATOM      9  C   UNL d   1       5.791  -2.505   5.942  0.00  0.00     0.018 C 
ENDBRANCH   1   8
TORSDOF 1
ENDMDL
