MODEL 1
REMARK minimizedAffinity 0.341289937
REMARK minimizedRMSD -1
REMARK  1 active torsions:
REMARK  status: ('A' for Active; 'I' for Inactive)
REMARK    1  A    between atoms: C1_2  and  C2_3 
ROOT
ATOM      1  C2  UNL d   1       5.769   1.601   3.852  0.00  0.00    -0.076 A 
ATOM      2  C3  UNL d   1       5.608   0.352   3.228  0.00  0.00     0.004 A 
ATOM      3  C4  UNL d   1       5.548  -0.822   3.976  0.00  0.00    -0.003 A 
ATOM      4  C5  UNL d   1       5.649  -0.767   5.362  0.00  0.00     0.000 A 
ATOM      5  C6  UNL d   1       5.793   0.465   6.000  0.00  0.00     0.000 A 
ATOM      6  C7  UNL d   1       5.838   1.660   5.261  0.00  0.00    -0.073 A 
ATOM      7  C8  UNL d   1       5.999   2.960   6.000  0.00  0.00     0.078 C 
ENDROOT
BRANCH   1   8
ATOM      8  C1  UNL d   1       5.854   2.838   2.987  0.00  0.00     0.053 C 
ATOM      9  C   UNL d   1       5.235   2.632   1.613  0.00  0.00     0.018 C 
ENDBRANCH   1   8
TORSDOF 1
ENDMDL
