MODEL 1
REMARK minimizedAffinity -1.79376447
REMARK minimizedRMSD -1
REMARK  1 active torsions:
REMARK  status: ('A' for Active; 'I' for Inactive)
REMARK    1  A    between atoms: C1_2  and  C2_3 
ROOT
ATOM      1  C2  UNL d   1       5.980   2.971   4.523  0.00  0.00    -0.076 A 
ATOM      2  C3  UNL d   1       5.990   3.879   5.596  0.00  0.00     0.004 A 
ATOM      3  C4  UNL d   1       5.998   5.255   5.372  0.00  0.00    -0.003 A 
ATOM      4  C5  UNL d   1       5.996   5.745   4.071  0.00  0.00     0.000 A 
ATOM      5  C6  UNL d   1       5.968   4.859   2.994  0.00  0.00     0.000 A 
ATOM      6  C7  UNL d   1       5.943   3.469   3.203  0.00  0.00    -0.073 A 
ATOM      7  C8  UNL d   1       5.920   2.559   2.005  0.00  0.00     0.078 C 
ENDROOT
BRANCH   1   8
ATOM      8  C1  UNL d   1       5.999   1.490   4.827  0.00  0.00     0.053 C 
ATOM      9  C   UNL d   1       5.075   1.119   5.977  0.00  0.00     0.018 C 
ENDBRANCH   1   8
TORSDOF 1
ENDMDL
