MODEL 1
REMARK minimizedAffinity 3.9201076
REMARK minimizedRMSD -1
REMARK  1 active torsions:
REMARK  status: ('A' for Active; 'I' for Inactive)
REMARK    1  A    between atoms: C1_2  and  C2_3 
ROOT
ATOM      1  C2  UNL d   1       0.809  -1.653  -1.314  0.00  0.00    -0.076 A 
ATOM      2  C3  UNL d   1       0.938  -0.307  -1.698  0.00  0.00     0.004 A 
ATOM      3  C4  UNL d   1       0.021   0.652  -1.272  0.00  0.00    -0.003 A 
ATOM      4  C5  UNL d   1      -1.041   0.280  -0.454  0.00  0.00     0.000 A 
ATOM      5  C6  UNL d   1      -1.175  -1.047  -0.049  0.00  0.00     0.000 A 
ATOM      6  C7  UNL d   1      -0.249  -2.024  -0.457  0.00  0.00    -0.073 A 
ATOM      7  C8  UNL d   1      -0.445  -3.442   0.005  0.00  0.00     0.078 C 
ENDROOT
BRANCH   1   8
ATOM      8  C1  UNL d   1       1.819  -2.653  -1.829  0.00  0.00     0.053 C 
ATOM      9  C   UNL d   1       3.241  -2.116  -1.794  0.00  0.00     0.018 C 
ENDBRANCH   1   8
TORSDOF 1
ENDMDL
