MODEL 1
REMARK minimizedAffinity -0.606670558
REMARK minimizedRMSD -1
REMARK  1 active torsions:
REMARK  status: ('A' for Active; 'I' for Inactive)
REMARK    1  A    between atoms: C1_2  and  C2_3 
ROOT
ATOM      1  C2  UNL d   1       5.558  -0.076   4.711  0.00  0.00    -0.076 A 
ATOM      2  C3  UNL d   1       5.991   0.575   5.879  0.00  0.00     0.004 A 
ATOM      3  C4  UNL d   1       6.000   1.966   5.964  0.00  0.00    -0.003 A 
ATOM      4  C5  UNL d   1       5.574   2.729   4.882  0.00  0.00     0.000 A 
ATOM      5  C6  UNL d   1       5.124   2.100   3.722  0.00  0.00     0.000 A 
ATOM      6  C7  UNL d   1       5.094   0.698   3.625  0.00  0.00    -0.073 A 
ATOM      7  C8  UNL d   1       4.605   0.072   2.348  0.00  0.00     0.078 C 
ENDROOT
BRANCH   1   8
ATOM      8  C1  UNL d   1       5.597  -1.587   4.667  0.00  0.00     0.053 C 
ATOM      9  C   UNL d   1       6.000  -2.199   6.000  0.00  0.00     0.018 C 
ENDBRANCH   1   8
TORSDOF 1
ENDMDL
