MODEL 1
REMARK minimizedAffinity 9.22550964
REMARK minimizedRMSD -1
REMARK  1 active torsions:
REMARK  status: ('A' for Active; 'I' for Inactive)
REMARK    1  A    between atoms: C1_2  and  C2_3 
ROOT
ATOM      1  C2  UNL d   1       0.917   0.117  -0.258  0.00  0.00    -0.076 A 
ATOM      2  C3  UNL d   1       2.304  -0.074  -0.381  0.00  0.00     0.004 A 
ATOM      3  C4  UNL d   1       2.892  -1.295  -0.052  0.00  0.00    -0.003 A 
ATOM      4  C5  UNL d   1       2.102  -2.344   0.405  0.00  0.00     0.000 A 
ATOM      5  C6  UNL d   1       0.722  -2.177   0.517  0.00  0.00     0.000 A 
ATOM      6  C7  UNL d   1       0.112  -0.958   0.173  0.00  0.00    -0.073 A 
ATOM      7  C8  UNL d   1      -1.380  -0.832   0.319  0.00  0.00     0.078 C 
ENDROOT
BRANCH   1   8
ATOM      8  C1  UNL d   1       0.339   1.471  -0.604  0.00  0.00     0.053 C 
ATOM      9  C   UNL d   1       0.700   2.537   0.419  0.00  0.00     0.018 C 
ENDBRANCH   1   8
TORSDOF 1
ENDMDL
