MODEL 1
REMARK minimizedAffinity 10.9866037
REMARK minimizedRMSD -1
REMARK  1 active torsions:
REMARK  status: ('A' for Active; 'I' for Inactive)
REMARK    1  A    between atoms: C1_2  and  C2_3 
ROOT
ATOM      1  C2  UNL d   1       0.911  -0.251  -0.418  0.00  0.00    -0.076 A 
ATOM      2  C3  UNL d   1      -0.415  -0.550  -0.058  0.00  0.00     0.004 A 
ATOM      3  C4  UNL d   1      -0.809  -1.862   0.199  0.00  0.00    -0.003 A 
ATOM      4  C5  UNL d   1       0.116  -2.896   0.102  0.00  0.00     0.000 A 
ATOM      5  C6  UNL d   1       1.439  -2.615  -0.236  0.00  0.00     0.000 A 
ATOM      6  C7  UNL d   1       1.857  -1.295  -0.483  0.00  0.00    -0.073 A 
ATOM      7  C8  UNL d   1       3.295  -1.050  -0.849  0.00  0.00     0.078 C 
ENDROOT
BRANCH   1   8
ATOM      8  C1  UNL d   1       1.274   1.188  -0.711  0.00  0.00     0.053 C 
ATOM      9  C   UNL d   1       0.725   2.151   0.329  0.00  0.00     0.018 C 
ENDBRANCH   1   8
TORSDOF 1
ENDMDL
