MODEL 1
REMARK minimizedAffinity 0.0396858901
REMARK minimizedRMSD -1
REMARK  1 active torsions:
REMARK  status: ('A' for Active; 'I' for Inactive)
REMARK    1  A    between atoms: C1_2  and  C2_3 
ROOT
ATOM      1  C2  UNL d   1       5.709   0.641   4.750  0.00  0.00    -0.076 A 
ATOM      2  C3  UNL d   1       5.951   1.375   5.925  0.00  0.00     0.004 A 
ATOM      3  C4  UNL d   1       5.728   2.750   5.970  0.00  0.00    -0.003 A 
ATOM      4  C5  UNL d   1       5.260   3.414   4.842  0.00  0.00     0.000 A 
ATOM      5  C6  UNL d   1       4.998   2.699   3.673  0.00  0.00     0.000 A 
ATOM      6  C7  UNL d   1       5.201   1.310   3.616  0.00  0.00    -0.073 A 
ATOM      7  C8  UNL d   1       4.908   0.590   2.328  0.00  0.00     0.078 C 
ENDROOT
BRANCH   1   8
ATOM      8  C1  UNL d   1       5.995  -0.843   4.752  0.00  0.00     0.053 C 
ATOM      9  C   UNL d   1       4.998  -1.628   5.592  0.00  0.00     0.018 C 
ENDBRANCH   1   8
TORSDOF 1
ENDMDL
