MODEL 1
REMARK minimizedAffinity -0.929668188
REMARK minimizedRMSD -1
REMARK  1 active torsions:
REMARK  status: ('A' for Active; 'I' for Inactive)
REMARK    1  A    between atoms: C1_2  and  C2_3 
ROOT
ATOM      1  C2  UNL d   1       5.938  -0.750   4.526  0.00  0.00    -0.076 A 
ATOM      2  C3  UNL d   1       5.966  -1.308   5.816  0.00  0.00     0.004 A 
ATOM      3  C4  UNL d   1       5.996  -2.689   6.000  0.00  0.00    -0.003 A 
ATOM      4  C5  UNL d   1       6.000  -3.535   4.896  0.00  0.00     0.000 A 
ATOM      5  C6  UNL d   1       5.990  -2.999   3.609  0.00  0.00     0.000 A 
ATOM      6  C7  UNL d   1       5.976  -1.608   3.406  0.00  0.00    -0.073 A 
ATOM      7  C8  UNL d   1       5.960  -1.085   1.996  0.00  0.00     0.078 C 
ENDROOT
BRANCH   1   8
ATOM      8  C1  UNL d   1       5.879   0.755   4.388  0.00  0.00     0.053 C 
ATOM      9  C   UNL d   1       5.949   1.466   5.731  0.00  0.00     0.018 C 
ENDBRANCH   1   8
TORSDOF 1
ENDMDL
