MODEL 1
REMARK minimizedAffinity -2.83465624
REMARK minimizedRMSD -1
REMARK  1 active torsions:
REMARK  status: ('A' for Active; 'I' for Inactive)
REMARK    1  A    between atoms: C1_2  and  C2_3 
ROOT
ATOM      1  C2  UNL d   1       5.621   2.002   4.703  0.00  0.00    -0.076 A 
ATOM      2  C3  UNL d   1       5.914   1.355   5.916  0.00  0.00     0.004 A 
ATOM      3  C4  UNL d   1       5.966  -0.035   5.995  0.00  0.00    -0.003 A 
ATOM      4  C5  UNL d   1       5.726  -0.803   4.860  0.00  0.00     0.000 A 
ATOM      5  C6  UNL d   1       5.451  -0.178   3.644  0.00  0.00     0.000 A 
ATOM      6  C7  UNL d   1       5.411   1.223   3.544  0.00  0.00    -0.073 A 
ATOM      7  C8  UNL d   1       5.104   1.844   2.209  0.00  0.00     0.078 C 
ENDROOT
BRANCH   1   8
ATOM      8  C1  UNL d   1       5.552   3.512   4.685  0.00  0.00     0.053 C 
ATOM      9  C   UNL d   1       5.999   4.131   6.000  0.00  0.00     0.018 C 
ENDBRANCH   1   8
TORSDOF 1
ENDMDL
