MODEL 1
REMARK minimizedAffinity 4.64554644
REMARK minimizedRMSD -1
REMARK  1 active torsions:
REMARK  status: ('A' for Active; 'I' for Inactive)
REMARK    1  A    between atoms: C1_2  and  C2_3 
ROOT
ATOM      1  C2  UNL d   1      -0.541   0.546   1.232  0.00  0.00    -0.076 A 
ATOM      2  C3  UNL d   1      -0.458   1.946   1.143  0.00  0.00     0.004 A 
ATOM      3  C4  UNL d   1       0.125   2.561   0.036  0.00  0.00    -0.003 A 
ATOM      4  C5  UNL d   1       0.633   1.785  -1.000  0.00  0.00     0.000 A 
ATOM      5  C6  UNL d   1       0.542   0.395  -0.937  0.00  0.00     0.000 A 
ATOM      6  C7  UNL d   1      -0.057  -0.240   0.165  0.00  0.00    -0.073 A 
ATOM      7  C8  UNL d   1      -0.122  -1.742   0.184  0.00  0.00     0.078 C 
ENDROOT
BRANCH   1   8
ATOM      8  C1  UNL d   1      -1.160  -0.065   2.469  0.00  0.00     0.053 C 
ATOM      9  C   UNL d   1      -1.766   0.979   3.394  0.00  0.00     0.018 C 
ENDBRANCH   1   8
TORSDOF 1
ENDMDL
