MODEL 1
REMARK minimizedAffinity 6.20954466
REMARK minimizedRMSD -1
REMARK  0 active torsions:
REMARK  status: ('A' for Active; 'I' for Inactive)
ROOT
ATOM      1  C   UNL d   1      -2.658   1.179  -2.619  0.00  0.00     0.077 C 
ATOM      2  C1  UNL d   1      -3.007  -0.277  -2.531  0.00  0.00    -0.074 A 
ATOM      3  C2  UNL d   1      -3.349  -0.862  -1.307  0.00  0.00    -0.005 A 
ATOM      4  C3  UNL d   1      -3.681  -2.215  -1.243  0.00  0.00     0.006 A 
ATOM      5  C4  UNL d   1      -3.674  -2.996  -2.399  0.00  0.00    -0.005 A 
ATOM      6  C5  UNL d   1      -3.336  -2.428  -3.632  0.00  0.00    -0.074 A 
ATOM      7  C6  UNL d   1      -3.333  -3.251  -4.886  0.00  0.00     0.077 C 
ATOM      8  C7  UNL d   1      -3.010  -1.066  -3.689  0.00  0.00    -0.001 A 
ENDROOT
TORSDOF 0
ENDMDL
