MODEL 1
REMARK minimizedAffinity 9.40034294
REMARK minimizedRMSD -1
REMARK  0 active torsions:
REMARK  status: ('A' for Active; 'I' for Inactive)
ROOT
ATOM      1  C   UNL d   1       1.211   4.038  -0.818  0.00  0.00     0.077 C 
ATOM      2  C1  UNL d   1       1.883   2.967  -0.012  0.00  0.00    -0.074 A 
ATOM      3  C2  UNL d   1       3.080   2.386  -0.444  0.00  0.00    -0.005 A 
ATOM      4  C3  UNL d   1       3.698   1.398   0.321  0.00  0.00     0.006 A 
ATOM      5  C4  UNL d   1       3.128   0.980   1.524  0.00  0.00    -0.005 A 
ATOM      6  C5  UNL d   1       1.932   1.550   1.973  0.00  0.00    -0.074 A 
ATOM      7  C6  UNL d   1       1.310   1.119   3.268  0.00  0.00     0.077 C 
ATOM      8  C7  UNL d   1       1.320   2.547   1.202  0.00  0.00    -0.001 A 
ENDROOT
TORSDOF 0
ENDMDL
