MODEL 1
REMARK minimizedAffinity -2.62301326
REMARK minimizedRMSD -1
REMARK  0 active torsions:
REMARK  status: ('A' for Active; 'I' for Inactive)
ROOT
ATOM      1  C   UNL d   1       5.958  -6.000  -2.625  0.00  0.00     0.077 C 
ATOM      2  C1  UNL d   1       4.568  -5.991  -2.061  0.00  0.00    -0.074 A 
ATOM      3  C2  UNL d   1       3.451  -5.993  -2.903  0.00  0.00    -0.005 A 
ATOM      4  C3  UNL d   1       2.164  -5.994  -2.364  0.00  0.00     0.006 A 
ATOM      5  C4  UNL d   1       1.982  -5.993  -0.980  0.00  0.00    -0.005 A 
ATOM      6  C5  UNL d   1       3.087  -5.991  -0.123  0.00  0.00    -0.074 A 
ATOM      7  C6  UNL d   1       2.909  -6.000   1.366  0.00  0.00     0.077 C 
ATOM      8  C7  UNL d   1       4.376  -5.997  -0.672  0.00  0.00    -0.001 A 
ENDROOT
TORSDOF 0
ENDMDL
