MODEL 1
REMARK minimizedAffinity 2.47912359
REMARK minimizedRMSD -1
REMARK  0 active torsions:
REMARK  status: ('A' for Active; 'I' for Inactive)
ROOT
ATOM      1  C   UNL d   1       4.493  -5.915  -2.250  0.00  0.00     0.077 C 
ATOM      2  C1  UNL d   1       3.423  -5.885  -1.199  0.00  0.00    -0.074 A 
ATOM      3  C2  UNL d   1       2.073  -6.000  -1.544  0.00  0.00    -0.005 A 
ATOM      4  C3  UNL d   1       1.090  -5.980  -0.554  0.00  0.00     0.006 A 
ATOM      5  C4  UNL d   1       1.447  -5.844   0.788  0.00  0.00    -0.005 A 
ATOM      6  C5  UNL d   1       2.792  -5.729   1.152  0.00  0.00    -0.074 A 
ATOM      7  C6  UNL d   1       3.193  -5.593   2.591  0.00  0.00     0.077 C 
ATOM      8  C7  UNL d   1       3.774  -5.757   0.153  0.00  0.00    -0.001 A 
ENDROOT
TORSDOF 0
ENDMDL
