MODEL 1
REMARK minimizedAffinity 4.56515741
REMARK minimizedRMSD -1
REMARK  0 active torsions:
REMARK  status: ('A' for Active; 'I' for Inactive)
ROOT
ATOM      1  C   UNL d   1       2.355   2.648   1.559  0.00  0.00     0.077 C 
ATOM      2  C1  UNL d   1       2.526   1.206   1.934  0.00  0.00    -0.074 A 
ATOM      3  C2  UNL d   1       3.394   0.375   1.219  0.00  0.00    -0.005 A 
ATOM      4  C3  UNL d   1       3.549  -0.962   1.585  0.00  0.00     0.006 A 
ATOM      5  C4  UNL d   1       2.840  -1.480   2.669  0.00  0.00    -0.005 A 
ATOM      6  C5  UNL d   1       1.968  -0.664   3.397  0.00  0.00    -0.074 A 
ATOM      7  C6  UNL d   1       1.205  -1.203   4.571  0.00  0.00     0.077 C 
ATOM      8  C7  UNL d   1       1.822   0.680   3.027  0.00  0.00    -0.001 A 
ENDROOT
TORSDOF 0
ENDMDL
