MODEL 1
REMARK minimizedAffinity 3.98869443
REMARK minimizedRMSD -1
REMARK  0 active torsions:
REMARK  status: ('A' for Active; 'I' for Inactive)
ROOT
ATOM      1  C   UNL d   1       3.409  -5.997  -5.734  0.00  0.00     0.077 C 
ATOM      2  C1  UNL d   1       4.037  -5.998  -4.372  0.00  0.00    -0.074 A 
ATOM      3  C2  UNL d   1       5.428  -5.992  -4.222  0.00  0.00    -0.005 A 
ATOM      4  C3  UNL d   1       5.998  -5.984  -2.949  0.00  0.00     0.006 A 
ATOM      5  C4  UNL d   1       5.185  -5.982  -1.816  0.00  0.00    -0.005 A 
ATOM      6  C5  UNL d   1       3.792  -5.988  -1.946  0.00  0.00    -0.074 A 
ATOM      7  C6  UNL d   1       2.904  -5.976  -0.738  0.00  0.00     0.077 C 
ATOM      8  C7  UNL d   1       3.227  -5.989  -3.228  0.00  0.00    -0.001 A 
ENDROOT
TORSDOF 0
ENDMDL
