MODEL 1
REMARK minimizedAffinity 2.44012403
REMARK minimizedRMSD -1
REMARK  0 active torsions:
REMARK  status: ('A' for Active; 'I' for Inactive)
ROOT
ATOM      1  C   UNL d   1       5.749  -6.000  -3.000  0.00  0.00     0.077 C 
ATOM      2  C1  UNL d   1       4.320  -5.818  -2.586  0.00  0.00    -0.074 A 
ATOM      3  C2  UNL d   1       3.333  -5.503  -3.526  0.00  0.00    -0.005 A 
ATOM      4  C3  UNL d   1       2.006  -5.347  -3.127  0.00  0.00     0.006 A 
ATOM      5  C4  UNL d   1       1.652  -5.503  -1.786  0.00  0.00    -0.005 A 
ATOM      6  C5  UNL d   1       2.624  -5.819  -0.832  0.00  0.00    -0.074 A 
ATOM      7  C6  UNL d   1       2.259  -6.000   0.611  0.00  0.00     0.077 C 
ATOM      8  C7  UNL d   1       3.955  -5.981  -1.242  0.00  0.00    -0.001 A 
ENDROOT
TORSDOF 0
ENDMDL
