MODEL 1
REMARK minimizedAffinity -2.34015179
REMARK minimizedRMSD -1
REMARK  0 active torsions:
REMARK  status: ('A' for Active; 'I' for Inactive)
ROOT
ATOM      1  C   UNL d   1       5.595   1.514  -5.994  0.00  0.00     0.077 C 
ATOM      2  C1  UNL d   1       5.559   0.215  -5.246  0.00  0.00    -0.074 A 
ATOM      3  C2  UNL d   1       5.284   0.182  -3.875  0.00  0.00    -0.005 A 
ATOM      4  C3  UNL d   1       5.244  -1.035  -3.195  0.00  0.00     0.006 A 
ATOM      5  C4  UNL d   1       5.478  -2.230  -3.877  0.00  0.00    -0.005 A 
ATOM      6  C5  UNL d   1       5.754  -2.217  -5.248  0.00  0.00    -0.074 A 
ATOM      7  C6  UNL d   1       5.998  -3.492  -5.999  0.00  0.00     0.077 C 
ATOM      8  C7  UNL d   1       5.785  -0.990  -5.926  0.00  0.00    -0.001 A 
ENDROOT
TORSDOF 0
ENDMDL
