MODEL 1
REMARK minimizedAffinity -5.7360363
REMARK minimizedRMSD -1
REMARK  0 active torsions:
REMARK  status: ('A' for Active; 'I' for Inactive)
ROOT
ATOM      1  C2' OXE d   1       1.426  -1.941   0.333  0.00  0.00     0.078 C 
ATOM      2  C1' OXE d   1       0.321   0.536  -0.390  0.00  0.00     0.078 C 
ATOM      3  C1  OXE d   1      -0.506  -0.375   0.482  0.00  0.00    -0.078 A 
ATOM      4  C2  OXE d   1       0.024  -1.604   0.793  0.00  0.00    -0.078 A 
ATOM      5  C3  OXE d   1      -0.674  -2.461   1.639  0.00  0.00     0.003 A 
ATOM      6  C4  OXE d   1      -1.974  -2.147   2.052  0.00  0.00    -0.002 A 
ATOM      7  C5  OXE d   1      -2.548  -0.916   1.714  0.00  0.00    -0.002 A 
ATOM      8  C6  OXE d   1      -1.812  -0.003   0.967  0.00  0.00     0.003 A 
ENDROOT
TORSDOF 0
ENDMDL
