MODEL 1
REMARK minimizedAffinity 0.0290648211
REMARK minimizedRMSD -1
REMARK  0 active torsions:
REMARK  status: ('A' for Active; 'I' for Inactive)
ROOT
ATOM      1  C2' OXE d   1       1.671  -0.858   0.594  0.00  0.00     0.078 C 
ATOM      2  C1' OXE d   1       0.269   1.126  -0.813  0.00  0.00     0.078 C 
ATOM      3  C1  OXE d   1      -0.514  -0.051  -0.289  0.00  0.00    -0.078 A 
ATOM      4  C2  OXE d   1       0.187  -1.040   0.357  0.00  0.00    -0.078 A 
ATOM      5  C3  OXE d   1      -0.495  -2.122   0.908  0.00  0.00     0.003 A 
ATOM      6  C4  OXE d   1      -1.865  -2.288   0.676  0.00  0.00    -0.002 A 
ATOM      7  C5  OXE d   1      -2.592  -1.312  -0.015  0.00  0.00    -0.002 A 
ATOM      8  C6  OXE d   1      -1.941  -0.170  -0.466  0.00  0.00     0.003 A 
ENDROOT
TORSDOF 0
ENDMDL
