MODEL 1
REMARK minimizedAffinity -4.84871769
REMARK minimizedRMSD -1
REMARK  0 active torsions:
REMARK  status: ('A' for Active; 'I' for Inactive)
ROOT
ATOM      1  C2' OXE d   1       0.738   0.643  -0.291  0.00  0.00     0.078 C 
ATOM      2  C1' OXE d   1       1.785  -1.909   0.230  0.00  0.00     0.078 C 
ATOM      3  C1  OXE d   1       0.357  -1.639   0.634  0.00  0.00    -0.078 A 
ATOM      4  C2  OXE d   1      -0.132  -0.373   0.418  0.00  0.00    -0.078 A 
ATOM      5  C3  OXE d   1      -1.460  -0.086   0.722  0.00  0.00     0.003 A 
ATOM      6  C4  OXE d   1      -2.255  -1.028   1.386  0.00  0.00    -0.002 A 
ATOM      7  C5  OXE d   1      -1.764  -2.310   1.652  0.00  0.00    -0.002 A 
ATOM      8  C6  OXE d   1      -0.477  -2.645   1.245  0.00  0.00     0.003 A 
ENDROOT
TORSDOF 0
ENDMDL
