MODEL 1
REMARK minimizedAffinity -3.68358731
REMARK minimizedRMSD -1
REMARK  0 active torsions:
REMARK  status: ('A' for Active; 'I' for Inactive)
ROOT
ATOM      1  C2' OXE d   1      -1.676  -2.456   1.209  0.00  0.00     0.078 C 
ATOM      2  C1' OXE d   1       1.089  -2.846   0.915  0.00  0.00     0.078 C 
ATOM      3  C1  OXE d   1       0.526  -1.494   0.554  0.00  0.00    -0.078 A 
ATOM      4  C2  OXE d   1      -0.834  -1.327   0.656  0.00  0.00    -0.078 A 
ATOM      5  C3  OXE d   1      -1.398  -0.083   0.388  0.00  0.00     0.003 A 
ATOM      6  C4  OXE d   1      -0.613   0.954  -0.133  0.00  0.00    -0.002 A 
ATOM      7  C5  OXE d   1       0.768   0.792  -0.282  0.00  0.00    -0.002 A 
ATOM      8  C6  OXE d   1       1.359  -0.409   0.096  0.00  0.00     0.003 A 
ENDROOT
TORSDOF 0
ENDMDL
