MODEL 1
REMARK minimizedAffinity -1.3187474
REMARK minimizedRMSD -1
REMARK  0 active torsions:
REMARK  status: ('A' for Active; 'I' for Inactive)
ROOT
ATOM      1  C2' OXE d   1      -3.316   0.325   1.418  0.00  0.00     0.078 C 
ATOM      2  C1' OXE d   1      -2.174  -2.147   0.735  0.00  0.00     0.078 C 
ATOM      3  C1  OXE d   1      -1.356  -0.903   0.491  0.00  0.00    -0.078 A 
ATOM      4  C2  OXE d   1      -1.941   0.305   0.785  0.00  0.00    -0.078 A 
ATOM      5  C3  OXE d   1      -1.210   1.480   0.630  0.00  0.00     0.003 A 
ATOM      6  C4  OXE d   1       0.056   1.454   0.035  0.00  0.00    -0.002 A 
ATOM      7  C5  OXE d   1       0.654   0.237  -0.309  0.00  0.00    -0.002 A 
ATOM      8  C6  OXE d   1      -0.020  -0.951  -0.048  0.00  0.00     0.003 A 
ENDROOT
TORSDOF 0
ENDMDL
