MODEL 1
REMARK minimizedAffinity -2.24386978
REMARK minimizedRMSD -1
REMARK  0 active torsions:
REMARK  status: ('A' for Active; 'I' for Inactive)
ROOT
ATOM      1  C2' OXE d   1       1.745  -1.657   0.427  0.00  0.00     0.078 C 
ATOM      2  C1' OXE d   1      -0.881  -2.333   1.155  0.00  0.00     0.078 C 
ATOM      3  C1  OXE d   1      -0.608  -0.905   0.752  0.00  0.00    -0.078 A 
ATOM      4  C2  OXE d   1       0.689  -0.573   0.442  0.00  0.00    -0.078 A 
ATOM      5  C3  OXE d   1       0.986   0.717   0.011  0.00  0.00     0.003 A 
ATOM      6  C4  OXE d   1       0.006   1.717   0.038  0.00  0.00    -0.002 A 
ATOM      7  C5  OXE d   1      -1.313   1.408   0.389  0.00  0.00    -0.002 A 
ATOM      8  C6  OXE d   1      -1.645   0.096   0.707  0.00  0.00     0.003 A 
ENDROOT
TORSDOF 0
ENDMDL
