MODEL 1
REMARK minimizedAffinity -4.6374054
REMARK minimizedRMSD -1
REMARK  0 active torsions:
REMARK  status: ('A' for Active; 'I' for Inactive)
ROOT
ATOM      1  C2' OXE d   1       0.653   1.316  -0.124  0.00  0.00     0.078 C 
ATOM      2  C1' OXE d   1      -1.917   0.435   0.584  0.00  0.00     0.078 C 
ATOM      3  C1  OXE d   1      -0.808  -0.587   0.547  0.00  0.00    -0.078 A 
ATOM      4  C2  OXE d   1       0.436  -0.156   0.154  0.00  0.00    -0.078 A 
ATOM      5  C3  OXE d   1       1.506  -1.046   0.154  0.00  0.00     0.003 A 
ATOM      6  C4  OXE d   1       1.295  -2.408   0.403  0.00  0.00    -0.002 A 
ATOM      7  C5  OXE d   1       0.027  -2.875   0.767  0.00  0.00    -0.002 A 
ATOM      8  C6  OXE d   1      -1.024  -1.972   0.884  0.00  0.00     0.003 A 
ENDROOT
TORSDOF 0
ENDMDL
