MODEL 1
REMARK minimizedAffinity -4.31097555
REMARK minimizedRMSD -1
REMARK  0 active torsions:
REMARK  status: ('A' for Active; 'I' for Inactive)
ROOT
ATOM      1  C2' OXE d   1      -2.927   0.639   1.169  0.00  0.00     0.078 C 
ATOM      2  C1' OXE d   1      -1.720  -1.831   0.600  0.00  0.00     0.078 C 
ATOM      3  C1  OXE d   1      -0.992  -0.579   0.181  0.00  0.00    -0.078 A 
ATOM      4  C2  OXE d   1      -1.611   0.624   0.421  0.00  0.00    -0.078 A 
ATOM      5  C3  OXE d   1      -0.958   1.811   0.104  0.00  0.00     0.003 A 
ATOM      6  C4  OXE d   1       0.254   1.788  -0.596  0.00  0.00    -0.002 A 
ATOM      7  C5  OXE d   1       0.883   0.573  -0.886  0.00  0.00    -0.002 A 
ATOM      8  C6  OXE d   1       0.296  -0.616  -0.468  0.00  0.00     0.003 A 
ENDROOT
TORSDOF 0
ENDMDL
