MODEL 1
REMARK minimizedAffinity -5.1851511
REMARK minimizedRMSD -1
REMARK  0 active torsions:
REMARK  status: ('A' for Active; 'I' for Inactive)
ROOT
ATOM      1  C2' OXE d   1       1.200  -1.713   0.007  0.00  0.00     0.078 C 
ATOM      2  C1' OXE d   1       0.544   1.015   0.099  0.00  0.00     0.078 C 
ATOM      3  C1  OXE d   1      -0.453   0.032   0.660  0.00  0.00    -0.078 A 
ATOM      4  C2  OXE d   1      -0.144  -1.304   0.569  0.00  0.00    -0.078 A 
ATOM      5  C3  OXE d   1      -1.004  -2.249   1.120  0.00  0.00     0.003 A 
ATOM      6  C4  OXE d   1      -2.250  -1.863   1.629  0.00  0.00    -0.002 A 
ATOM      7  C5  OXE d   1      -2.601  -0.511   1.695  0.00  0.00    -0.002 A 
ATOM      8  C6  OXE d   1      -1.698   0.450   1.255  0.00  0.00     0.003 A 
ENDROOT
TORSDOF 0
ENDMDL
