MODEL 1
REMARK minimizedAffinity -1.34391296
REMARK minimizedRMSD -1
REMARK  0 active torsions:
REMARK  status: ('A' for Active; 'I' for Inactive)
ROOT
ATOM      1  C2' OXE d   1      -1.973  -2.993   1.465  0.00  0.00     0.078 C 
ATOM      2  C1' OXE d   1       0.666  -3.102   2.416  0.00  0.00     0.078 C 
ATOM      3  C1  OXE d   1       0.312  -2.001   1.447  0.00  0.00    -0.078 A 
ATOM      4  C2  OXE d   1      -0.969  -1.984   0.951  0.00  0.00    -0.078 A 
ATOM      5  C3  OXE d   1      -1.364  -0.958   0.097  0.00  0.00     0.003 A 
ATOM      6  C4  OXE d   1      -0.427  -0.034  -0.382  0.00  0.00    -0.002 A 
ATOM      7  C5  OXE d   1       0.894  -0.058   0.080  0.00  0.00    -0.002 A 
ATOM      8  C6  OXE d   1       1.268  -1.007   1.025  0.00  0.00     0.003 A 
ENDROOT
TORSDOF 0
ENDMDL
