MODEL 1
REMARK minimizedAffinity -3.37690616
REMARK minimizedRMSD -1
REMARK  0 active torsions:
REMARK  status: ('A' for Active; 'I' for Inactive)
ROOT
ATOM      1  C2' OXE d   1      -1.536  -1.415   0.762  0.00  0.00     0.078 C 
ATOM      2  C1' OXE d   1      -2.597   1.184   0.776  0.00  0.00     0.078 C 
ATOM      3  C1  OXE d   1      -1.140   1.020   0.420  0.00  0.00    -0.078 A 
ATOM      4  C2  OXE d   1      -0.618  -0.250   0.461  0.00  0.00    -0.078 A 
ATOM      5  C3  OXE d   1       0.706  -0.464   0.089  0.00  0.00     0.003 A 
ATOM      6  C4  OXE d   1       1.551   0.620  -0.178  0.00  0.00    -0.002 A 
ATOM      7  C5  OXE d   1       1.049   1.926  -0.186  0.00  0.00    -0.002 A 
ATOM      8  C6  OXE d   1      -0.301   2.139   0.068  0.00  0.00     0.003 A 
ENDROOT
TORSDOF 0
ENDMDL
