MODEL 1
REMARK minimizedAffinity -4.45556402
REMARK minimizedRMSD -1
REMARK  0 active torsions:
REMARK  status: ('A' for Active; 'I' for Inactive)
ROOT
ATOM      1  C2' OXE d   1       1.483  -1.250   0.164  0.00  0.00     0.078 C 
ATOM      2  C1' OXE d   1       0.406   1.321  -0.167  0.00  0.00     0.078 C 
ATOM      3  C1  OXE d   1      -0.331   0.360   0.731  0.00  0.00    -0.078 A 
ATOM      4  C2  OXE d   1       0.178  -0.911   0.851  0.00  0.00    -0.078 A 
ATOM      5  C3  OXE d   1      -0.433  -1.820   1.710  0.00  0.00     0.003 A 
ATOM      6  C4  OXE d   1      -1.645  -1.503   2.333  0.00  0.00    -0.002 A 
ATOM      7  C5  OXE d   1      -2.202  -0.227   2.194  0.00  0.00    -0.002 A 
ATOM      8  C6  OXE d   1      -1.537   0.728   1.432  0.00  0.00     0.003 A 
ENDROOT
TORSDOF 0
ENDMDL
