MODEL 1
REMARK minimizedAffinity -3.50142956
REMARK minimizedRMSD -1
REMARK  0 active torsions:
REMARK  status: ('A' for Active; 'I' for Inactive)
ROOT
ATOM      1  C2' OXE d   1       0.051   1.300  -0.549  0.00  0.00     0.078 C 
ATOM      2  C1' OXE d   1      -2.398   1.052   0.800  0.00  0.00     0.078 C 
ATOM      3  C1  OXE d   1      -1.462  -0.130   0.819  0.00  0.00    -0.078 A 
ATOM      4  C2  OXE d   1      -0.286  -0.017   0.117  0.00  0.00    -0.078 A 
ATOM      5  C3  OXE d   1       0.638  -1.058   0.146  0.00  0.00     0.003 A 
ATOM      6  C4  OXE d   1       0.314  -2.276   0.756  0.00  0.00    -0.002 A 
ATOM      7  C5  OXE d   1      -0.896  -2.427   1.443  0.00  0.00    -0.002 A 
ATOM      8  C6  OXE d   1      -1.774  -1.351   1.520  0.00  0.00     0.003 A 
ENDROOT
TORSDOF 0
ENDMDL
