MODEL 1
REMARK minimizedAffinity -3.65055513
REMARK minimizedRMSD -1
REMARK  0 active torsions:
REMARK  status: ('A' for Active; 'I' for Inactive)
ROOT
ATOM      1  C2' OXE d   1      -2.893   0.031   2.186  0.00  0.00     0.078 C 
ATOM      2  C1' OXE d   1      -1.607  -0.699   4.572  0.00  0.00     0.078 C 
ATOM      3  C1  OXE d   1      -1.190  -1.402   3.304  0.00  0.00    -0.078 A 
ATOM      4  C2  OXE d   1      -1.857  -1.071   2.150  0.00  0.00    -0.078 A 
ATOM      5  C3  OXE d   1      -1.474  -1.650   0.943  0.00  0.00     0.003 A 
ATOM      6  C4  OXE d   1      -0.522  -2.676   0.919  0.00  0.00    -0.002 A 
ATOM      7  C5  OXE d   1       0.141  -3.056   2.090  0.00  0.00    -0.002 A 
ATOM      8  C6  OXE d   1      -0.150  -2.401   3.282  0.00  0.00     0.003 A 
ENDROOT
TORSDOF 0
ENDMDL
