MODEL 1
REMARK minimizedAffinity -0.265626341
REMARK minimizedRMSD -1
REMARK  0 active torsions:
REMARK  status: ('A' for Active; 'I' for Inactive)
ROOT
ATOM      1  C2' OXE d   1       1.039  -0.231   0.129  0.00  0.00     0.078 C 
ATOM      2  C1' OXE d   1      -0.547   2.058   0.483  0.00  0.00     0.078 C 
ATOM      3  C1  OXE d   1       0.115   1.861  -0.858  0.00  0.00    -0.078 A 
ATOM      4  C2  OXE d   1       0.927   0.763  -1.007  0.00  0.00    -0.078 A 
ATOM      5  C3  OXE d   1       1.517   0.504  -2.240  0.00  0.00     0.003 A 
ATOM      6  C4  OXE d   1       1.416   1.433  -3.283  0.00  0.00    -0.002 A 
ATOM      7  C5  OXE d   1       0.627   2.579  -3.139  0.00  0.00    -0.002 A 
ATOM      8  C6  OXE d   1      -0.064   2.786  -1.950  0.00  0.00     0.003 A 
ENDROOT
TORSDOF 0
ENDMDL
