MODEL 1
REMARK minimizedAffinity -2.48153615
REMARK minimizedRMSD -1
REMARK  0 active torsions:
REMARK  status: ('A' for Active; 'I' for Inactive)
ROOT
ATOM      1  C2' OXE d   1      -2.202   0.909   1.195  0.00  0.00     0.078 C 
ATOM      2  C1' OXE d   1      -1.060  -1.641   0.937  0.00  0.00     0.078 C 
ATOM      3  C1  OXE d   1      -0.482  -0.524   0.105  0.00  0.00    -0.078 A 
ATOM      4  C2  OXE d   1      -1.077   0.710   0.203  0.00  0.00    -0.078 A 
ATOM      5  C3  OXE d   1      -0.549   1.789  -0.502  0.00  0.00     0.003 A 
ATOM      6  C4  OXE d   1       0.485   1.594  -1.425  0.00  0.00    -0.002 A 
ATOM      7  C5  OXE d   1       1.080   0.336  -1.570  0.00  0.00    -0.002 A 
ATOM      8  C6  OXE d   1       0.638  -0.722  -0.783  0.00  0.00     0.003 A 
ENDROOT
TORSDOF 0
ENDMDL
