MODEL 1
REMARK minimizedAffinity 10.5478563
REMARK minimizedRMSD -1
REMARK  1 active torsions:
REMARK  status: ('A' for Active; 'I' for Inactive)
REMARK    1  A    between atoms: C1_2  and  C2_3 
ROOT
ATOM      1  C2  UNL d   1       2.836  -3.591  -0.476  0.00  0.00    -0.073 A 
ATOM      2  C3  UNL d   1       2.987  -2.209  -0.322  0.00  0.00    -0.002 A 
ATOM      3  C4  UNL d   1       2.254  -1.327  -1.117  0.00  0.00     0.004 A 
ATOM      4  C5  UNL d   1       1.359  -1.817  -2.068  0.00  0.00    -0.004 A 
ATOM      5  C6  UNL d   1       1.186  -3.195  -2.229  0.00  0.00    -0.075 A 
ATOM      6  C7  UNL d   1       0.229  -3.738  -3.249  0.00  0.00     0.076 C 
ATOM      7  C8  UNL d   1       1.927  -4.074  -1.429  0.00  0.00     0.001 A 
ENDROOT
BRANCH   1   8
ATOM      8  C1  UNL d   1       3.620  -4.548   0.385  0.00  0.00     0.053 C 
ATOM      9  C   UNL d   1       3.332  -5.999   0.032  0.00  0.00     0.018 C 
ENDBRANCH   1   8
TORSDOF 1
ENDMDL
