MODEL 1
REMARK minimizedAffinity 13.5944662
REMARK minimizedRMSD -1
REMARK  1 active torsions:
REMARK  status: ('A' for Active; 'I' for Inactive)
REMARK    1  A    between atoms: C1_2  and  C2_3 
ROOT
ATOM      1  C2  UNL d   1       3.269   0.476   0.466  0.00  0.00    -0.073 A 
ATOM      2  C3  UNL d   1       2.092   0.085  -0.183  0.00  0.00    -0.002 A 
ATOM      3  C4  UNL d   1       1.892  -1.249  -0.539  0.00  0.00     0.004 A 
ATOM      4  C5  UNL d   1       2.862  -2.207  -0.244  0.00  0.00    -0.004 A 
ATOM      5  C6  UNL d   1       4.040  -1.839   0.415  0.00  0.00    -0.075 A 
ATOM      6  C7  UNL d   1       5.094  -2.857   0.737  0.00  0.00     0.076 C 
ATOM      7  C8  UNL d   1       4.234  -0.496   0.766  0.00  0.00     0.001 A 
ENDROOT
BRANCH   1   8
ATOM      8  C1  UNL d   1       3.487   1.914   0.857  0.00  0.00     0.053 C 
ATOM      9  C   UNL d   1       4.961   2.239   1.038  0.00  0.00     0.018 C 
ENDBRANCH   1   8
TORSDOF 1
ENDMDL
