MODEL 1
REMARK minimizedAffinity 14.6185017
REMARK minimizedRMSD -1
REMARK  1 active torsions:
REMARK  status: ('A' for Active; 'I' for Inactive)
REMARK    1  A    between atoms: C1_2  and  C2_3 
ROOT
ATOM      1  C2  UNL d   1       2.564  -3.542  -0.627  0.00  0.00    -0.073 A 
ATOM      2  C3  UNL d   1       1.636  -3.783  -1.646  0.00  0.00    -0.002 A 
ATOM      3  C4  UNL d   1       0.976  -2.720  -2.264  0.00  0.00     0.004 A 
ATOM      4  C5  UNL d   1       1.242  -1.407  -1.875  0.00  0.00    -0.004 A 
ATOM      5  C6  UNL d   1       2.176  -1.146  -0.867  0.00  0.00    -0.075 A 
ATOM      6  C7  UNL d   1       2.473   0.261  -0.436  0.00  0.00     0.076 C 
ATOM      7  C8  UNL d   1       2.832  -2.219  -0.250  0.00  0.00     0.001 A 
ENDROOT
BRANCH   1   8
ATOM      8  C1  UNL d   1       3.284  -4.687   0.039  0.00  0.00     0.053 C 
ATOM      9  C   UNL d   1       3.070  -6.000  -0.697  0.00  0.00     0.018 C 
ENDBRANCH   1   8
TORSDOF 1
ENDMDL
