MODEL 1
REMARK minimizedAffinity 11.1682234
REMARK minimizedRMSD -1
REMARK  1 active torsions:
REMARK  status: ('A' for Active; 'I' for Inactive)
REMARK    1  A    between atoms: C1_2  and  C2_3 
ROOT
ATOM      1  C2  UNL d   1       1.346  -3.451  -2.017  0.00  0.00    -0.073 A 
ATOM      2  C3  UNL d   1       2.190  -4.197  -1.186  0.00  0.00    -0.002 A 
ATOM      3  C4  UNL d   1       2.995  -3.556  -0.243  0.00  0.00     0.004 A 
ATOM      4  C5  UNL d   1       2.959  -2.168  -0.116  0.00  0.00    -0.004 A 
ATOM      5  C6  UNL d   1       2.113  -1.407  -0.929  0.00  0.00    -0.075 A 
ATOM      6  C7  UNL d   1       2.064   0.088  -0.806  0.00  0.00     0.076 C 
ATOM      7  C8  UNL d   1       1.309  -2.057  -1.875  0.00  0.00     0.001 A 
ENDROOT
BRANCH   1   8
ATOM      8  C1  UNL d   1       0.470  -4.139  -3.032  0.00  0.00     0.053 C 
ATOM      9  C   UNL d   1      -0.993  -4.138  -2.617  0.00  0.00     0.018 C 
ENDBRANCH   1   8
TORSDOF 1
ENDMDL
