MODEL 1
REMARK minimizedAffinity 8.90465164
REMARK minimizedRMSD -1
REMARK  1 active torsions:
REMARK  status: ('A' for Active; 'I' for Inactive)
REMARK    1  A    between atoms: C1_2  and  C2_3 
ROOT
ATOM      1  C2  UNL d   1       1.616   1.549   1.995  0.00  0.00    -0.073 A 
ATOM      2  C3  UNL d   1       1.081   0.707   1.015  0.00  0.00    -0.002 A 
ATOM      3  C4  UNL d   1       1.767   0.492  -0.182  0.00  0.00     0.004 A 
ATOM      4  C5  UNL d   1       2.996   1.111  -0.406  0.00  0.00    -0.004 A 
ATOM      5  C6  UNL d   1       3.554   1.947   0.567  0.00  0.00    -0.075 A 
ATOM      6  C7  UNL d   1       4.874   2.622   0.339  0.00  0.00     0.076 C 
ATOM      7  C8  UNL d   1       2.857   2.160   1.764  0.00  0.00     0.001 A 
ENDROOT
BRANCH   1   8
ATOM      8  C1  UNL d   1       0.882   1.779   3.291  0.00  0.00     0.053 C 
ATOM      9  C   UNL d   1       1.724   1.397   4.498  0.00  0.00     0.018 C 
ENDBRANCH   1   8
TORSDOF 1
ENDMDL
