MODEL 1
REMARK minimizedAffinity 7.17164516
REMARK minimizedRMSD -1
REMARK  1 active torsions:
REMARK  status: ('A' for Active; 'I' for Inactive)
REMARK    1  A    between atoms: C1_2  and  C2_3 
ROOT
ATOM      1  C2  UNL d   1       1.103  -3.867  -2.481  0.00  0.00    -0.073 A 
ATOM      2  C3  UNL d   1       0.975  -2.501  -2.756  0.00  0.00    -0.002 A 
ATOM      3  C4  UNL d   1       1.735  -1.566  -2.053  0.00  0.00     0.004 A 
ATOM      4  C5  UNL d   1       2.635  -1.986  -1.074  0.00  0.00    -0.004 A 
ATOM      5  C6  UNL d   1       2.786  -3.348  -0.792  0.00  0.00    -0.075 A 
ATOM      6  C7  UNL d   1       3.748  -3.817   0.259  0.00  0.00     0.076 C 
ATOM      7  C8  UNL d   1       2.017  -4.281  -1.501  0.00  0.00     0.001 A 
ENDROOT
BRANCH   1   8
ATOM      8  C1  UNL d   1       0.288  -4.881  -3.242  0.00  0.00     0.053 C 
ATOM      9  C   UNL d   1      -1.142  -4.962  -2.732  0.00  0.00     0.018 C 
ENDBRANCH   1   8
TORSDOF 1
ENDMDL
