MODEL 1
REMARK minimizedAffinity 12.1441307
REMARK minimizedRMSD -1
REMARK  1 active torsions:
REMARK  status: ('A' for Active; 'I' for Inactive)
REMARK    1  A    between atoms: C1_2  and  C2_3 
ROOT
ATOM      1  C2  UNL d   1      -3.900   0.571   3.970  0.00  0.00    -0.073 A 
ATOM      2  C3  UNL d   1      -3.192   1.104   5.053  0.00  0.00    -0.002 A 
ATOM      3  C4  UNL d   1      -2.607   0.260   5.998  0.00  0.00     0.004 A 
ATOM      4  C5  UNL d   1      -2.718  -1.124   5.866  0.00  0.00    -0.004 A 
ATOM      5  C6  UNL d   1      -3.410  -1.677   4.784  0.00  0.00    -0.075 A 
ATOM      6  C7  UNL d   1      -3.540  -3.163   4.629  0.00  0.00     0.076 C 
ATOM      7  C8  UNL d   1      -3.997  -0.822   3.841  0.00  0.00     0.001 A 
ENDROOT
BRANCH   1   8
ATOM      8  C1  UNL d   1      -4.527   1.478   2.944  0.00  0.00     0.053 C 
ATOM      9  C   UNL d   1      -5.310   2.611   3.588  0.00  0.00     0.018 C 
ENDBRANCH   1   8
TORSDOF 1
ENDMDL
