MODEL 1
REMARK minimizedAffinity 16.5558014
REMARK minimizedRMSD -1
REMARK  1 active torsions:
REMARK  status: ('A' for Active; 'I' for Inactive)
REMARK    1  A    between atoms: C1_2  and  C2_3 
ROOT
ATOM      1  C2  UNL d   1       0.049   0.876   3.645  0.00  0.00    -0.073 A 
ATOM      2  C3  UNL d   1       0.212   0.268   2.396  0.00  0.00    -0.002 A 
ATOM      3  C4  UNL d   1      -0.894   0.029   1.579  0.00  0.00     0.004 A 
ATOM      4  C5  UNL d   1      -2.171   0.401   1.999  0.00  0.00    -0.004 A 
ATOM      5  C6  UNL d   1      -2.352   1.020   3.240  0.00  0.00    -0.075 A 
ATOM      6  C7  UNL d   1      -3.719   1.424   3.708  0.00  0.00     0.076 C 
ATOM      7  C8  UNL d   1      -1.237   1.255   4.056  0.00  0.00     0.001 A 
ENDROOT
BRANCH   1   8
ATOM      8  C1  UNL d   1       1.241   1.142   4.528  0.00  0.00     0.053 C 
ATOM      9  C   UNL d   1       0.861   1.194   5.999  0.00  0.00     0.018 C 
ENDBRANCH   1   8
TORSDOF 1
ENDMDL
