MODEL 1
REMARK minimizedAffinity -4.97949743
REMARK minimizedRMSD -1
REMARK  0 active torsions:
REMARK  status: ('A' for Active; 'I' for Inactive)
ROOT
ATOM      1  C   UNL d   1       0.394   0.157  -1.422  0.00  0.00     0.078 C 
ATOM      2  C1  UNL d   1       0.120  -0.138   0.022  0.00  0.00    -0.077 A 
ATOM      3  C2  UNL d   1      -1.124  -0.629   0.435  0.00  0.00    -0.001 A 
ATOM      4  C3  UNL d   1      -1.368  -0.889   1.784  0.00  0.00     0.003 A 
ATOM      5  C4  UNL d   1      -0.373  -0.660   2.732  0.00  0.00    -0.005 A 
ATOM      6  C5  UNL d   1       0.868  -0.169   2.332  0.00  0.00     0.003 A 
ATOM      7  C6  UNL d   1       1.114   0.092   0.983  0.00  0.00    -0.001 A 
ENDROOT
TORSDOF 0
ENDMDL
