MODEL 1
REMARK minimizedAffinity -2.3695302
REMARK minimizedRMSD -1
REMARK  0 active torsions:
REMARK  status: ('A' for Active; 'I' for Inactive)
ROOT
ATOM      1  C   UNL d   1       0.278   0.149   2.980  0.00  0.00     0.078 C 
ATOM      2  C1  UNL d   1      -0.132   0.421   1.564  0.00  0.00    -0.077 A 
ATOM      3  C2  UNL d   1       0.824   0.659   0.569  0.00  0.00    -0.001 A 
ATOM      4  C3  UNL d   1       0.427   0.920  -0.743  0.00  0.00     0.003 A 
ATOM      5  C4  UNL d   1      -0.927   0.948  -1.073  0.00  0.00    -0.005 A 
ATOM      6  C5  UNL d   1      -1.886   0.715  -0.089  0.00  0.00     0.003 A 
ATOM      7  C6  UNL d   1      -1.491   0.453   1.224  0.00  0.00    -0.001 A 
ENDROOT
TORSDOF 0
ENDMDL
