MODEL 1
REMARK minimizedAffinity -5.08564568
REMARK minimizedRMSD -1
REMARK  0 active torsions:
REMARK  status: ('A' for Active; 'I' for Inactive)
ROOT
ATOM      1  C   UNL d   1       0.940  -0.378  -0.890  0.00  0.00     0.078 C 
ATOM      2  C1  UNL d   1       0.516  -0.458   0.546  0.00  0.00    -0.077 A 
ATOM      3  C2  UNL d   1      -0.011  -1.641   1.078  0.00  0.00    -0.001 A 
ATOM      4  C3  UNL d   1      -0.410  -1.698   2.414  0.00  0.00     0.003 A 
ATOM      5  C4  UNL d   1      -0.288  -0.575   3.229  0.00  0.00    -0.005 A 
ATOM      6  C5  UNL d   1       0.233   0.608   2.708  0.00  0.00     0.003 A 
ATOM      7  C6  UNL d   1       0.633   0.667   1.372  0.00  0.00    -0.001 A 
ENDROOT
TORSDOF 0
ENDMDL
