MODEL 1
REMARK minimizedAffinity -5.33074999
REMARK minimizedRMSD -1
REMARK  0 active torsions:
REMARK  status: ('A' for Active; 'I' for Inactive)
ROOT
ATOM      1  C   UNL d   1       0.433  -0.018  -1.580  0.00  0.00     0.078 C 
ATOM      2  C1  UNL d   1       0.170  -0.086  -0.105  0.00  0.00    -0.077 A 
ATOM      3  C2  UNL d   1      -1.119   0.107   0.407  0.00  0.00    -0.001 A 
ATOM      4  C3  UNL d   1      -1.347   0.050   1.783  0.00  0.00     0.003 A 
ATOM      5  C4  UNL d   1      -0.291  -0.197   2.658  0.00  0.00    -0.005 A 
ATOM      6  C5  UNL d   1       0.996  -0.387   2.157  0.00  0.00     0.003 A 
ATOM      7  C6  UNL d   1       1.226  -0.331   0.782  0.00  0.00    -0.001 A 
ENDROOT
TORSDOF 0
ENDMDL
