MODEL 1
REMARK minimizedAffinity -2.17796731
REMARK minimizedRMSD -1
REMARK  0 active torsions:
REMARK  status: ('A' for Active; 'I' for Inactive)
ROOT
ATOM      1  C   UNL d   1      -0.622  -0.735   3.180  0.00  0.00     0.078 C 
ATOM      2  C1  UNL d   1      -0.393  -0.382   1.741  0.00  0.00    -0.077 A 
ATOM      3  C2  UNL d   1      -1.450  -0.376   0.823  0.00  0.00    -0.001 A 
ATOM      4  C3  UNL d   1      -1.220  -0.055  -0.516  0.00  0.00     0.003 A 
ATOM      5  C4  UNL d   1       0.066   0.261  -0.949  0.00  0.00    -0.005 A 
ATOM      6  C5  UNL d   1       1.125   0.255  -0.043  0.00  0.00     0.003 A 
ATOM      7  C6  UNL d   1       0.897  -0.066   1.296  0.00  0.00    -0.001 A 
ENDROOT
TORSDOF 0
ENDMDL
