MODEL 1
REMARK minimizedAffinity -3.83130169
REMARK minimizedRMSD -1
REMARK  0 active torsions:
REMARK  status: ('A' for Active; 'I' for Inactive)
ROOT
ATOM      1  C   UNL d   1       0.298  -0.302  -0.116  0.00  0.00     0.078 C 
ATOM      2  C1  UNL d   1      -0.767  -0.239   0.938  0.00  0.00    -0.077 A 
ATOM      3  C2  UNL d   1      -2.119  -0.128   0.591  0.00  0.00    -0.001 A 
ATOM      4  C3  UNL d   1      -3.099  -0.060   1.582  0.00  0.00     0.003 A 
ATOM      5  C4  UNL d   1      -2.737  -0.101   2.927  0.00  0.00    -0.005 A 
ATOM      6  C5  UNL d   1      -1.394  -0.209   3.282  0.00  0.00     0.003 A 
ATOM      7  C6  UNL d   1      -0.413  -0.277   2.292  0.00  0.00    -0.001 A 
ENDROOT
TORSDOF 0
ENDMDL
