MODEL 1
REMARK minimizedAffinity -4.87583447
REMARK minimizedRMSD -1
REMARK  0 active torsions:
REMARK  status: ('A' for Active; 'I' for Inactive)
ROOT
ATOM      1  C   UNL d   1      -3.323   0.224   0.742  0.00  0.00     0.078 C 
ATOM      2  C1  UNL d   1      -2.098   0.090   1.596  0.00  0.00    -0.077 A 
ATOM      3  C2  UNL d   1      -2.197   0.000   2.990  0.00  0.00    -0.001 A 
ATOM      4  C3  UNL d   1      -1.048  -0.114   3.773  0.00  0.00     0.003 A 
ATOM      5  C4  UNL d   1       0.209  -0.139   3.172  0.00  0.00    -0.005 A 
ATOM      6  C5  UNL d   1       0.318  -0.048   1.786  0.00  0.00     0.003 A 
ATOM      7  C6  UNL d   1      -0.831   0.067   1.001  0.00  0.00    -0.001 A 
ENDROOT
TORSDOF 0
ENDMDL
