MODEL 1
REMARK minimizedAffinity -4.45208788
REMARK minimizedRMSD -1
REMARK  0 active torsions:
REMARK  status: ('A' for Active; 'I' for Inactive)
ROOT
ATOM      1  C   UNL d   1      -0.767  -1.113   2.466  0.00  0.00     0.078 C 
ATOM      2  C1  UNL d   1      -0.738  -0.444   1.124  0.00  0.00    -0.077 A 
ATOM      3  C2  UNL d   1       0.467  -0.255   0.438  0.00  0.00    -0.001 A 
ATOM      4  C3  UNL d   1       0.480   0.377  -0.806  0.00  0.00     0.003 A 
ATOM      5  C4  UNL d   1      -0.710   0.827  -1.374  0.00  0.00    -0.005 A 
ATOM      6  C5  UNL d   1      -1.915   0.646  -0.698  0.00  0.00     0.003 A 
ATOM      7  C6  UNL d   1      -1.929   0.013   0.546  0.00  0.00    -0.001 A 
ENDROOT
TORSDOF 0
ENDMDL
