MODEL 1
REMARK minimizedAffinity -2.6819818
REMARK minimizedRMSD -1
REMARK  0 active torsions:
REMARK  status: ('A' for Active; 'I' for Inactive)
ROOT
ATOM      1  C   UNL d   1       0.001   0.566  -1.905  0.00  0.00     0.078 C 
ATOM      2  C1  UNL d   1       0.005   0.316  -0.426  0.00  0.00    -0.077 A 
ATOM      3  C2  UNL d   1      -1.005  -0.441   0.180  0.00  0.00    -0.001 A 
ATOM      4  C3  UNL d   1      -0.994  -0.657   1.559  0.00  0.00     0.003 A 
ATOM      5  C4  UNL d   1       0.024  -0.119   2.344  0.00  0.00    -0.005 A 
ATOM      6  C5  UNL d   1       1.032   0.638   1.750  0.00  0.00     0.003 A 
ATOM      7  C6  UNL d   1       1.023   0.855   0.371  0.00  0.00    -0.001 A 
ENDROOT
TORSDOF 0
ENDMDL
