MODEL 1
REMARK minimizedAffinity -0.743504643
REMARK minimizedRMSD -1
REMARK  0 active torsions:
REMARK  status: ('A' for Active; 'I' for Inactive)
ROOT
ATOM      1  C   UNL d   1      -0.703  -0.083  -0.356  0.00  0.00     0.078 C 
ATOM      2  C1  UNL d   1       0.062  -0.434  -1.597  0.00  0.00    -0.077 A 
ATOM      3  C2  UNL d   1      -0.371  -1.460  -2.446  0.00  0.00    -0.001 A 
ATOM      4  C3  UNL d   1       0.357  -1.783  -3.592  0.00  0.00     0.003 A 
ATOM      5  C4  UNL d   1       1.523  -1.085  -3.899  0.00  0.00    -0.005 A 
ATOM      6  C5  UNL d   1       1.964  -0.065  -3.059  0.00  0.00     0.003 A 
ATOM      7  C6  UNL d   1       1.237   0.259  -1.912  0.00  0.00    -0.001 A 
ENDROOT
TORSDOF 0
ENDMDL
