MODEL 1
REMARK minimizedAffinity -5.79602289
REMARK minimizedRMSD -1
REMARK  0 active torsions:
REMARK  status: ('A' for Active; 'I' for Inactive)
ROOT
ATOM      1  C   UNL d   1      -0.216   0.223  -1.105  0.00  0.00     0.078 C 
ATOM      2  C1  UNL d   1      -0.580   0.019   0.335  0.00  0.00    -0.077 A 
ATOM      3  C2  UNL d   1      -1.904  -0.236   0.716  0.00  0.00    -0.001 A 
ATOM      4  C3  UNL d   1      -2.230  -0.414   2.061  0.00  0.00     0.003 A 
ATOM      5  C4  UNL d   1      -1.238  -0.338   3.037  0.00  0.00    -0.005 A 
ATOM      6  C5  UNL d   1       0.081  -0.083   2.668  0.00  0.00     0.003 A 
ATOM      7  C6  UNL d   1       0.409   0.096   1.324  0.00  0.00    -0.001 A 
ENDROOT
TORSDOF 0
ENDMDL
