MODEL 1
REMARK minimizedAffinity -3.20260572
REMARK minimizedRMSD -1
REMARK  0 active torsions:
REMARK  status: ('A' for Active; 'I' for Inactive)
ROOT
ATOM      1  C   UNL d   1      -2.071  -0.769   1.110  0.00  0.00     0.078 C 
ATOM      2  C1  UNL d   1      -0.821  -0.178   0.528  0.00  0.00    -0.077 A 
ATOM      3  C2  UNL d   1       0.329  -0.012   1.309  0.00  0.00    -0.001 A 
ATOM      4  C3  UNL d   1       1.482   0.549   0.757  0.00  0.00     0.003 A 
ATOM      5  C4  UNL d   1       1.495   0.949  -0.578  0.00  0.00    -0.005 A 
ATOM      6  C5  UNL d   1       0.354   0.790  -1.362  0.00  0.00     0.003 A 
ATOM      7  C6  UNL d   1      -0.799   0.230  -0.811  0.00  0.00    -0.001 A 
ENDROOT
TORSDOF 0
ENDMDL
