MODEL 1
REMARK minimizedAffinity -4.02708673
REMARK minimizedRMSD -1
REMARK  0 active torsions:
REMARK  status: ('A' for Active; 'I' for Inactive)
ROOT
ATOM      1  C   UNL d   1       0.391  -0.100  -1.497  0.00  0.00     0.078 C 
ATOM      2  C1  UNL d   1       0.289  -0.158  -0.002  0.00  0.00    -0.077 A 
ATOM      3  C2  UNL d   1       1.436  -0.134   0.801  0.00  0.00    -0.001 A 
ATOM      4  C3  UNL d   1       1.326  -0.199   2.191  0.00  0.00     0.003 A 
ATOM      5  C4  UNL d   1       0.071  -0.289   2.790  0.00  0.00    -0.005 A 
ATOM      6  C5  UNL d   1      -1.076  -0.316   1.999  0.00  0.00     0.003 A 
ATOM      7  C6  UNL d   1      -0.968  -0.251   0.609  0.00  0.00    -0.001 A 
ENDROOT
TORSDOF 0
ENDMDL
