MODEL 1
REMARK minimizedAffinity -3.68414259
REMARK minimizedRMSD -1
REMARK  0 active torsions:
REMARK  status: ('A' for Active; 'I' for Inactive)
ROOT
ATOM      1  C   UNL d   1      -1.355  -0.616   3.092  0.00  0.00     0.078 C 
ATOM      2  C1  UNL d   1      -0.898  -0.252   1.711  0.00  0.00    -0.077 A 
ATOM      3  C2  UNL d   1       0.465  -0.168   1.401  0.00  0.00    -0.001 A 
ATOM      4  C3  UNL d   1       0.876   0.181   0.114  0.00  0.00     0.003 A 
ATOM      5  C4  UNL d   1      -0.069   0.452  -0.873  0.00  0.00    -0.005 A 
ATOM      6  C5  UNL d   1      -1.428   0.374  -0.574  0.00  0.00     0.003 A 
ATOM      7  C6  UNL d   1      -1.841   0.024   0.713  0.00  0.00    -0.001 A 
ENDROOT
TORSDOF 0
ENDMDL
