MODEL 1
REMARK minimizedAffinity -2.09337139
REMARK minimizedRMSD -1
REMARK  0 active torsions:
REMARK  status: ('A' for Active; 'I' for Inactive)
ROOT
ATOM      1  C   UNL d   1       2.339  -2.625   1.653  0.00  0.00     0.078 C 
ATOM      2  C1  UNL d   1       1.171  -2.500   0.721  0.00  0.00    -0.077 A 
ATOM      3  C2  UNL d   1       1.319  -2.718  -0.655  0.00  0.00    -0.001 A 
ATOM      4  C3  UNL d   1       0.226  -2.589  -1.512  0.00  0.00     0.003 A 
ATOM      5  C4  UNL d   1      -1.024  -2.240  -1.004  0.00  0.00    -0.005 A 
ATOM      6  C5  UNL d   1      -1.181  -2.019   0.363  0.00  0.00     0.003 A 
ATOM      7  C6  UNL d   1      -0.088  -2.148   1.222  0.00  0.00    -0.001 A 
ENDROOT
TORSDOF 0
ENDMDL
