MODEL 1
REMARK minimizedAffinity 1.58350968
REMARK minimizedRMSD -1
REMARK  0 active torsions:
REMARK  status: ('A' for Active; 'I' for Inactive)
ROOT
ATOM      1  C   UNL d   1      -0.118  -1.761  -2.597  0.00  0.00     0.078 C 
ATOM      2  C1  UNL d   1       0.019  -1.976  -1.120  0.00  0.00    -0.077 A 
ATOM      3  C2  UNL d   1      -1.017  -1.634  -0.242  0.00  0.00    -0.001 A 
ATOM      4  C3  UNL d   1      -0.872  -1.831   1.132  0.00  0.00     0.003 A 
ATOM      5  C4  UNL d   1       0.308  -2.370   1.641  0.00  0.00    -0.005 A 
ATOM      6  C5  UNL d   1       1.345  -2.712   0.776  0.00  0.00     0.003 A 
ATOM      7  C6  UNL d   1       1.202  -2.515  -0.599  0.00  0.00    -0.001 A 
ENDROOT
TORSDOF 0
ENDMDL
