MODEL 1
REMARK minimizedAffinity -0.96484977
REMARK minimizedRMSD -1
REMARK  0 active torsions:
REMARK  status: ('A' for Active; 'I' for Inactive)
ROOT
ATOM      1  C   UNL d   1       2.922   0.448   0.415  0.00  0.00     0.078 C 
ATOM      2  C1  UNL d   1       2.532  -0.787   1.170  0.00  0.00    -0.077 A 
ATOM      3  C2  UNL d   1       1.345  -1.467   0.876  0.00  0.00    -0.001 A 
ATOM      4  C3  UNL d   1       0.989  -2.610   1.594  0.00  0.00     0.003 A 
ATOM      5  C4  UNL d   1       1.815  -3.082   2.612  0.00  0.00    -0.005 A 
ATOM      6  C5  UNL d   1       2.998  -2.410   2.914  0.00  0.00     0.003 A 
ATOM      7  C6  UNL d   1       3.355  -1.267   2.197  0.00  0.00    -0.001 A 
ENDROOT
TORSDOF 0
ENDMDL
