MODEL 1
REMARK minimizedAffinity -0.157107398
REMARK minimizedRMSD -1
REMARK  0 active torsions:
REMARK  status: ('A' for Active; 'I' for Inactive)
ROOT
ATOM      1  C   UNL d   1       2.478   1.025   0.855  0.00  0.00     0.078 C 
ATOM      2  C1  UNL d   1       1.782  -0.226   1.303  0.00  0.00    -0.077 A 
ATOM      3  C2  UNL d   1       2.437  -1.165   2.110  0.00  0.00    -0.001 A 
ATOM      4  C3  UNL d   1       1.780  -2.329   2.512  0.00  0.00     0.003 A 
ATOM      5  C4  UNL d   1       0.467  -2.566   2.111  0.00  0.00    -0.005 A 
ATOM      6  C5  UNL d   1      -0.192  -1.638   1.307  0.00  0.00     0.003 A 
ATOM      7  C6  UNL d   1       0.463  -0.473   0.904  0.00  0.00    -0.001 A 
ENDROOT
TORSDOF 0
ENDMDL
