MODEL 1
REMARK minimizedAffinity 4.19997978
REMARK minimizedRMSD -1
REMARK  0 active torsions:
REMARK  status: ('A' for Active; 'I' for Inactive)
ROOT
ATOM      1  C   UNL d   1       1.747  -2.090   1.662  0.00  0.00     0.078 C 
ATOM      2  C1  UNL d   1       2.340  -0.813   1.146  0.00  0.00    -0.077 A 
ATOM      3  C2  UNL d   1       1.696   0.414   1.346  0.00  0.00    -0.001 A 
ATOM      4  C3  UNL d   1       2.255   1.594   0.851  0.00  0.00     0.003 A 
ATOM      5  C4  UNL d   1       3.459   1.557   0.151  0.00  0.00    -0.005 A 
ATOM      6  C5  UNL d   1       4.106   0.341  -0.056  0.00  0.00     0.003 A 
ATOM      7  C6  UNL d   1       3.549  -0.840   0.439  0.00  0.00    -0.001 A 
ENDROOT
TORSDOF 0
ENDMDL
