MODEL 1
REMARK minimizedAffinity 1.98760521
REMARK minimizedRMSD -1
REMARK  0 active torsions:
REMARK  status: ('A' for Active; 'I' for Inactive)
ROOT
ATOM      1  C   UNL d   1      -3.388   2.699  -1.855  0.00  0.00     0.078 C 
ATOM      2  C1  UNL d   1      -3.995   2.665  -0.485  0.00  0.00    -0.077 A 
ATOM      3  C2  UNL d   1      -3.369   1.983   0.565  0.00  0.00    -0.001 A 
ATOM      4  C3  UNL d   1      -3.951   1.952   1.834  0.00  0.00     0.003 A 
ATOM      5  C4  UNL d   1      -5.163   2.601   2.064  0.00  0.00    -0.005 A 
ATOM      6  C5  UNL d   1      -5.794   3.281   1.024  0.00  0.00     0.003 A 
ATOM      7  C6  UNL d   1      -5.214   3.313  -0.245  0.00  0.00    -0.001 A 
ENDROOT
TORSDOF 0
ENDMDL
