MODEL 1
REMARK minimizedAffinity 0.893951654
REMARK minimizedRMSD -1
REMARK  0 active torsions:
REMARK  status: ('A' for Active; 'I' for Inactive)
ROOT
ATOM      1  C   UNL d   1      -1.085  -1.495   1.248  0.00  0.00     0.078 C 
ATOM      2  C1  UNL d   1       0.397  -1.273   1.196  0.00  0.00    -0.077 A 
ATOM      3  C2  UNL d   1       1.261  -2.274   0.735  0.00  0.00    -0.001 A 
ATOM      4  C3  UNL d   1       2.639  -2.057   0.701  0.00  0.00     0.003 A 
ATOM      5  C4  UNL d   1       3.166  -0.841   1.129  0.00  0.00    -0.005 A 
ATOM      6  C5  UNL d   1       2.315   0.161   1.592  0.00  0.00     0.003 A 
ATOM      7  C6  UNL d   1       0.937  -0.055   1.627  0.00  0.00    -0.001 A 
ENDROOT
TORSDOF 0
ENDMDL
