MODEL 1
REMARK minimizedAffinity -5.11735487
REMARK minimizedRMSD -1
REMARK  0 active torsions:
REMARK  status: ('A' for Active; 'I' for Inactive)
ROOT
ATOM      1  C   UNL d   1      -0.760  -0.413  -0.209  0.00  0.00     0.078 C 
ATOM      2  C1  UNL d   1       0.585  -0.654   0.407  0.00  0.00    -0.077 A 
ATOM      3  C2  UNL d   1       1.548   0.362   0.456  0.00  0.00    -0.001 A 
ATOM      4  C3  UNL d   1       2.801   0.120   1.024  0.00  0.00     0.003 A 
ATOM      5  C4  UNL d   1       3.102  -1.136   1.545  0.00  0.00    -0.005 A 
ATOM      6  C5  UNL d   1       2.151  -2.154   1.499  0.00  0.00     0.003 A 
ATOM      7  C6  UNL d   1       0.898  -1.914   0.932  0.00  0.00    -0.001 A 
ENDROOT
TORSDOF 0
ENDMDL
