MODEL 1
REMARK minimizedAffinity 7.40997887
REMARK minimizedRMSD -1
REMARK  0 active torsions:
REMARK  status: ('A' for Active; 'I' for Inactive)
ROOT
ATOM      1  C2' OXE d   1       0.244  -3.478   3.220  0.00  0.00     0.078 C 
ATOM      2  C1' OXE d   1       1.557  -1.141   2.387  0.00  0.00     0.078 C 
ATOM      3  C1  OXE d   1       2.383  -2.211   3.056  0.00  0.00    -0.078 A 
ATOM      4  C2  OXE d   1       1.724  -3.331   3.503  0.00  0.00    -0.078 A 
ATOM      5  C3  OXE d   1       2.447  -4.372   4.078  0.00  0.00     0.003 A 
ATOM      6  C4  OXE d   1       3.813  -4.224   4.345  0.00  0.00    -0.002 A 
ATOM      7  C5  OXE d   1       4.496  -3.074   3.934  0.00  0.00    -0.002 A 
ATOM      8  C6  OXE d   1       3.805  -2.078   3.252  0.00  0.00     0.003 A 
ENDROOT
TORSDOF 0
ENDMDL
