MODEL 1
REMARK minimizedAffinity 8.33811474
REMARK minimizedRMSD -1
REMARK  0 active torsions:
REMARK  status: ('A' for Active; 'I' for Inactive)
ROOT
ATOM      1  C2' OXE d   1       1.134  -2.961  -0.314  0.00  0.00     0.078 C 
ATOM      2  C1' OXE d   1       2.132  -5.037   1.290  0.00  0.00     0.078 C 
ATOM      3  C1  OXE d   1       1.893  -3.697   1.941  0.00  0.00    -0.078 A 
ATOM      4  C2  OXE d   1       1.449  -2.674   1.138  0.00  0.00    -0.078 A 
ATOM      5  C3  OXE d   1       1.160  -1.433   1.698  0.00  0.00     0.003 A 
ATOM      6  C4  OXE d   1       1.464  -1.174   3.040  0.00  0.00    -0.002 A 
ATOM      7  C5  OXE d   1       1.955  -2.190   3.867  0.00  0.00    -0.002 A 
ATOM      8  C6  OXE d   1       2.134  -3.466   3.344  0.00  0.00     0.003 A 
ENDROOT
TORSDOF 0
ENDMDL
