MODEL 1
REMARK minimizedAffinity 18.6856689
REMARK minimizedRMSD -1
REMARK  0 active torsions:
REMARK  status: ('A' for Active; 'I' for Inactive)
ROOT
ATOM      1  C2' OXE d   1      -3.359  -1.245  -2.737  0.00  0.00     0.078 C 
ATOM      2  C1' OXE d   1      -5.324  -2.994  -1.757  0.00  0.00     0.078 C 
ATOM      3  C1  OXE d   1      -5.184  -2.860  -3.253  0.00  0.00    -0.078 A 
ATOM      4  C2  OXE d   1      -4.252  -1.966  -3.723  0.00  0.00    -0.078 A 
ATOM      5  C3  OXE d   1      -4.044  -1.844  -5.094  0.00  0.00     0.003 A 
ATOM      6  C4  OXE d   1      -4.881  -2.508  -6.000  0.00  0.00    -0.002 A 
ATOM      7  C5  OXE d   1      -5.863  -3.392  -5.542  0.00  0.00    -0.002 A 
ATOM      8  C6  OXE d   1      -5.999  -3.611  -4.175  0.00  0.00     0.003 A 
ENDROOT
TORSDOF 0
ENDMDL
