MODEL 1
REMARK minimizedAffinity 11.6252289
REMARK minimizedRMSD -1
REMARK  0 active torsions:
REMARK  status: ('A' for Active; 'I' for Inactive)
ROOT
ATOM      1  C2' OXE d   1      -4.097   2.063  -3.386  0.00  0.00     0.078 C 
ATOM      2  C1' OXE d   1      -2.516   2.272  -1.077  0.00  0.00     0.078 C 
ATOM      3  C1  OXE d   1      -2.730   0.898  -1.661  0.00  0.00    -0.078 A 
ATOM      4  C2  OXE d   1      -3.543   0.800  -2.764  0.00  0.00    -0.078 A 
ATOM      5  C3  OXE d   1      -3.730  -0.437  -3.374  0.00  0.00     0.003 A 
ATOM      6  C4  OXE d   1      -3.222  -1.602  -2.786  0.00  0.00    -0.002 A 
ATOM      7  C5  OXE d   1      -2.424  -1.528  -1.640  0.00  0.00    -0.002 A 
ATOM      8  C6  OXE d   1      -2.133  -0.285  -1.090  0.00  0.00     0.003 A 
ENDROOT
TORSDOF 0
ENDMDL
