MODEL 1
REMARK minimizedAffinity 5.36297703
REMARK minimizedRMSD -1
REMARK  1 active torsions:
REMARK  status: ('A' for Active; 'I' for Inactive)
REMARK    1  A    between atoms: C1_2  and  C2_3 
ROOT
ATOM      1  C2  UNL d   1       1.238  -2.159   2.275  0.00  0.00    -0.081 A 
ATOM      2  C3  UNL d   1       1.028  -3.521   2.524  0.00  0.00     0.006 A 
ATOM      3  C4  UNL d   1       1.610  -4.489   1.701  0.00  0.00     0.002 A 
ATOM      4  C5  UNL d   1       2.416  -4.111   0.622  0.00  0.00    -0.080 A 
ATOM      5  C6  UNL d   1       3.071  -5.140  -0.251  0.00  0.00     0.076 C 
ATOM      6  C7  UNL d   1       2.611  -2.750   0.363  0.00  0.00     0.002 A 
ATOM      7  C8  UNL d   1       2.029  -1.783   1.185  0.00  0.00     0.006 A 
ENDROOT
BRANCH   1   8
ATOM      8  C1  UNL d   1       0.665  -1.115   3.199  0.00  0.00     0.054 C 
ATOM      9  C   UNL d   1      -0.850  -1.229   3.291  0.00  0.00     0.018 C 
ENDBRANCH   1   8
TORSDOF 1
ENDMDL
