MODEL 1
REMARK minimizedAffinity 5.80027771
REMARK minimizedRMSD -1
REMARK  1 active torsions:
REMARK  status: ('A' for Active; 'I' for Inactive)
REMARK    1  A    between atoms: C1_2  and  C2_3 
ROOT
ATOM      1  C2  UNL d   1       1.780  -2.970   1.746  0.00  0.00    -0.081 A 
ATOM      2  C3  UNL d   1       1.307  -4.278   1.588  0.00  0.00     0.006 A 
ATOM      3  C4  UNL d   1       0.089  -4.663   2.152  0.00  0.00     0.002 A 
ATOM      4  C5  UNL d   1      -0.680  -3.746   2.877  0.00  0.00    -0.080 A 
ATOM      5  C6  UNL d   1      -2.003  -4.139   3.463  0.00  0.00     0.076 C 
ATOM      6  C7  UNL d   1      -0.198  -2.444   3.051  0.00  0.00     0.002 A 
ATOM      7  C8  UNL d   1       1.020  -2.058   2.487  0.00  0.00     0.006 A 
ENDROOT
BRANCH   1   8
ATOM      8  C1  UNL d   1       3.062  -2.533   1.084  0.00  0.00     0.054 C 
ATOM      9  C   UNL d   1       4.251  -3.331   1.600  0.00  0.00     0.018 C 
ENDBRANCH   1   8
TORSDOF 1
ENDMDL
