MODEL 1
REMARK minimizedAffinity -0.770925939
REMARK minimizedRMSD -1
REMARK  1 active torsions:
REMARK  status: ('A' for Active; 'I' for Inactive)
REMARK    1  A    between atoms: C1_2  and  C2_3 
ROOT
ATOM      1  C2  UNL d   1       1.418  -2.041   2.413  0.00  0.00    -0.081 A 
ATOM      2  C3  UNL d   1       1.553  -1.011   3.352  0.00  0.00     0.006 A 
ATOM      3  C4  UNL d   1       0.443  -0.258   3.741  0.00  0.00     0.002 A 
ATOM      4  C5  UNL d   1      -0.821  -0.527   3.205  0.00  0.00    -0.080 A 
ATOM      5  C6  UNL d   1      -2.027   0.253   3.637  0.00  0.00     0.076 C 
ATOM      6  C7  UNL d   1      -0.953  -1.545   2.254  0.00  0.00     0.002 A 
ATOM      7  C8  UNL d   1       0.157  -2.298   1.864  0.00  0.00     0.006 A 
ENDROOT
BRANCH   1   8
ATOM      8  C1  UNL d   1       2.602  -2.897   2.040  0.00  0.00     0.054 C 
ATOM      9  C   UNL d   1       3.708  -2.066   1.406  0.00  0.00     0.018 C 
ENDBRANCH   1   8
TORSDOF 1
ENDMDL
