MODEL 1
REMARK minimizedAffinity 10.0219269
REMARK minimizedRMSD -1
REMARK  1 active torsions:
REMARK  status: ('A' for Active; 'I' for Inactive)
REMARK    1  A    between atoms: C1_2  and  C2_3 
ROOT
ATOM      1  C2  UNL d   1       4.012  -1.890   0.355  0.00  0.00    -0.081 A 
ATOM      2  C3  UNL d   1       2.934  -1.074  -0.008  0.00  0.00     0.006 A 
ATOM      3  C4  UNL d   1       1.668  -1.285   0.545  0.00  0.00     0.002 A 
ATOM      4  C5  UNL d   1       1.462  -2.310   1.475  0.00  0.00    -0.080 A 
ATOM      5  C6  UNL d   1       0.116  -2.528   2.098  0.00  0.00     0.076 C 
ATOM      6  C7  UNL d   1       2.536  -3.136   1.825  0.00  0.00     0.002 A 
ATOM      7  C8  UNL d   1       3.801  -2.926   1.272  0.00  0.00     0.006 A 
ENDROOT
BRANCH   1   8
ATOM      8  C1  UNL d   1       5.392  -1.624  -0.190  0.00  0.00     0.054 C 
ATOM      9  C   UNL d   1       5.781  -0.162  -0.022  0.00  0.00     0.018 C 
ENDBRANCH   1   8
TORSDOF 1
ENDMDL
