MODEL 1
REMARK minimizedAffinity 3.16189861
REMARK minimizedRMSD -1
REMARK  1 active torsions:
REMARK  status: ('A' for Active; 'I' for Inactive)
REMARK    1  A    between atoms: C1_2  and  C2_3 
ROOT
ATOM      1  C2  UNL d   1      -0.414  -1.513   2.310  0.00  0.00    -0.081 A 
ATOM      2  C3  UNL d   1      -1.338  -1.201   1.305  0.00  0.00     0.006 A 
ATOM      3  C4  UNL d   1      -2.454  -0.410   1.589  0.00  0.00     0.002 A 
ATOM      4  C5  UNL d   1      -2.660   0.089   2.880  0.00  0.00    -0.080 A 
ATOM      5  C6  UNL d   1      -3.838   0.964   3.191  0.00  0.00     0.076 C 
ATOM      6  C7  UNL d   1      -1.747  -0.237   3.888  0.00  0.00     0.002 A 
ATOM      7  C8  UNL d   1      -0.631  -1.029   3.604  0.00  0.00     0.006 A 
ENDROOT
BRANCH   1   8
ATOM      8  C1  UNL d   1       0.824  -2.312   1.992  0.00  0.00     0.054 C 
ATOM      9  C   UNL d   1       1.364  -1.968   0.611  0.00  0.00     0.018 C 
ENDBRANCH   1   8
TORSDOF 1
ENDMDL
