MODEL 1
REMARK minimizedAffinity 5.49696255
REMARK minimizedRMSD -1
REMARK  1 active torsions:
REMARK  status: ('A' for Active; 'I' for Inactive)
REMARK    1  A    between atoms: C1_2  and  C2_3 
ROOT
ATOM      1  C2  UNL d   1      -0.672  -0.520  -0.040  0.00  0.00    -0.081 A 
ATOM      2  C3  UNL d   1       0.572  -0.768  -0.632  0.00  0.00     0.006 A 
ATOM      3  C4  UNL d   1       1.511  -1.581   0.009  0.00  0.00     0.002 A 
ATOM      4  C5  UNL d   1       1.217  -2.165   1.246  0.00  0.00    -0.080 A 
ATOM      5  C6  UNL d   1       2.204  -3.064   1.929  0.00  0.00     0.076 C 
ATOM      6  C7  UNL d   1      -0.020  -1.903   1.845  0.00  0.00     0.002 A 
ATOM      7  C8  UNL d   1      -0.958  -1.089   1.205  0.00  0.00     0.006 A 
ENDROOT
BRANCH   1   8
ATOM      8  C1  UNL d   1      -1.711   0.304  -0.758  0.00  0.00     0.054 C 
ATOM      9  C   UNL d   1      -1.080   1.492  -1.470  0.00  0.00     0.018 C 
ENDBRANCH   1   8
TORSDOF 1
ENDMDL
