MODEL 1
REMARK minimizedAffinity 8.00440788
REMARK minimizedRMSD -1
REMARK  1 active torsions:
REMARK  status: ('A' for Active; 'I' for Inactive)
REMARK    1  A    between atoms: C1_2  and  C2_3 
ROOT
ATOM      1  C2  UNL d   1       1.584  -1.620   2.130  0.00  0.00    -0.081 A 
ATOM      2  C3  UNL d   1       1.321  -2.051   0.824  0.00  0.00     0.006 A 
ATOM      3  C4  UNL d   1       1.910  -3.218   0.331  0.00  0.00     0.002 A 
ATOM      4  C5  UNL d   1       2.764  -3.977   1.138  0.00  0.00    -0.080 A 
ATOM      5  C6  UNL d   1       3.379  -5.248   0.632  0.00  0.00     0.076 C 
ATOM      6  C7  UNL d   1       3.041  -3.537   2.437  0.00  0.00     0.002 A 
ATOM      7  C8  UNL d   1       2.454  -2.370   2.930  0.00  0.00     0.006 A 
ENDROOT
BRANCH   1   8
ATOM      8  C1  UNL d   1       0.901  -0.397   2.685  0.00  0.00     0.054 C 
ATOM      9  C   UNL d   1      -0.576  -0.658   2.945  0.00  0.00     0.018 C 
ENDBRANCH   1   8
TORSDOF 1
ENDMDL
