MODEL 1
REMARK minimizedAffinity 6.0108943
REMARK minimizedRMSD -1
REMARK  1 active torsions:
REMARK  status: ('A' for Active; 'I' for Inactive)
REMARK    1  A    between atoms: C1_2  and  C2_3 
ROOT
ATOM      1  C2  UNL d   1      -0.044  -1.694   2.465  0.00  0.00    -0.081 A 
ATOM      2  C3  UNL d   1      -1.137  -1.748   1.592  0.00  0.00     0.006 A 
ATOM      3  C4  UNL d   1      -2.253  -0.934   1.804  0.00  0.00     0.002 A 
ATOM      4  C5  UNL d   1      -2.291  -0.049   2.886  0.00  0.00    -0.080 A 
ATOM      5  C6  UNL d   1      -3.469   0.852   3.107  0.00  0.00     0.076 C 
ATOM      6  C7  UNL d   1      -1.205  -0.007   3.768  0.00  0.00     0.002 A 
ATOM      7  C8  UNL d   1      -0.090  -0.821   3.557  0.00  0.00     0.006 A 
ENDROOT
BRANCH   1   8
ATOM      8  C1  UNL d   1       1.188  -2.523   2.202  0.00  0.00     0.054 C 
ATOM      9  C   UNL d   1       1.753  -2.251   0.816  0.00  0.00     0.018 C 
ENDBRANCH   1   8
TORSDOF 1
ENDMDL
