MODEL 1
REMARK minimizedAffinity 0.030727163
REMARK minimizedRMSD -1
REMARK  0 active torsions:
REMARK  status: ('A' for Active; 'I' for Inactive)
ROOT
ATOM      1  C1  BNZ d   1      -1.513   2.118  -0.418  0.00  0.00     0.000 A 
ATOM      2  C2  BNZ d   1      -0.592   2.792  -1.175  0.00  0.00     0.000 A 
ATOM      3  C3  BNZ d   1      -0.579   2.667  -2.536  0.00  0.00     0.000 A 
ATOM      4  C4  BNZ d   1      -1.459   1.839  -3.135  0.00  0.00     0.000 A 
ATOM      5  C5  BNZ d   1      -2.388   1.146  -2.384  0.00  0.00     0.000 A 
ATOM      6  C6  BNZ d   1      -2.424   1.304  -1.018  0.00  0.00     0.000 A 
ENDROOT
TORSDOF 0
ENDMDL
