MODEL 1
REMARK minimizedAffinity -0.832765222
REMARK minimizedRMSD -1
REMARK  0 active torsions:
REMARK  status: ('A' for Active; 'I' for Inactive)
ROOT
ATOM      1  C1  BNZ d   1      -0.074  -0.409   1.428  0.00  0.00     0.000 A 
ATOM      2  C2  BNZ d   1      -0.646  -1.608   1.096  0.00  0.00     0.000 A 
ATOM      3  C3  BNZ d   1      -0.013  -2.476   0.251  0.00  0.00     0.000 A 
ATOM      4  C4  BNZ d   1       1.171  -2.127  -0.293  0.00  0.00     0.000 A 
ATOM      5  C5  BNZ d   1       1.756  -0.917   0.025  0.00  0.00     0.000 A 
ATOM      6  C6  BNZ d   1       1.135  -0.064   0.907  0.00  0.00     0.000 A 
ENDROOT
TORSDOF 0
ENDMDL
