MODEL 1
REMARK minimizedAffinity -2.21971631
REMARK minimizedRMSD -1
REMARK  0 active torsions:
REMARK  status: ('A' for Active; 'I' for Inactive)
ROOT
ATOM      1  C1  BNZ d   1      -0.174  -2.608   0.236  0.00  0.00     0.000 A 
ATOM      2  C2  BNZ d   1       0.625  -1.621   0.750  0.00  0.00     0.000 A 
ATOM      3  C3  BNZ d   1       1.982  -1.665   0.590  0.00  0.00     0.000 A 
ATOM      4  C4  BNZ d   1       2.541  -2.713  -0.048  0.00  0.00     0.000 A 
ATOM      5  C5  BNZ d   1       1.750  -3.721  -0.563  0.00  0.00     0.000 A 
ATOM      6  C6  BNZ d   1       0.382  -3.654  -0.434  0.00  0.00     0.000 A 
ENDROOT
TORSDOF 0
ENDMDL
