MODEL 1
REMARK minimizedAffinity -1.36688828
REMARK minimizedRMSD -1
REMARK  0 active torsions:
REMARK  status: ('A' for Active; 'I' for Inactive)
ROOT
ATOM      1  C1  BNZ d   1      -0.561  -0.681   1.358  0.00  0.00     0.000 A 
ATOM      2  C2  BNZ d   1      -0.632  -1.502   0.264  0.00  0.00     0.000 A 
ATOM      3  C3  BNZ d   1       0.504  -1.922  -0.370  0.00  0.00     0.000 A 
ATOM      4  C4  BNZ d   1       1.705  -1.490   0.065  0.00  0.00     0.000 A 
ATOM      5  C5  BNZ d   1       1.792  -0.654   1.161  0.00  0.00     0.000 A 
ATOM      6  C6  BNZ d   1       0.649  -0.264   1.820  0.00  0.00     0.000 A 
ENDROOT
TORSDOF 0
ENDMDL
