MODEL 1
REMARK minimizedAffinity 2.08233523
REMARK minimizedRMSD -1
REMARK  0 active torsions:
REMARK  status: ('A' for Active; 'I' for Inactive)
ROOT
ATOM      1  C1  BNZ d   1       0.880  -0.167   2.149  0.00  0.00     0.000 A 
ATOM      2  C2  BNZ d   1      -0.270  -0.653   1.586  0.00  0.00     0.000 A 
ATOM      3  C3  BNZ d   1      -0.263  -1.178   0.324  0.00  0.00     0.000 A 
ATOM      4  C4  BNZ d   1       0.883  -1.181  -0.387  0.00  0.00     0.000 A 
ATOM      5  C5  BNZ d   1       2.048  -0.686   0.163  0.00  0.00     0.000 A 
ATOM      6  C6  BNZ d   1       2.046  -0.193   1.448  0.00  0.00     0.000 A 
ENDROOT
TORSDOF 0
ENDMDL
