MODEL 1
REMARK minimizedAffinity 0.422279716
REMARK minimizedRMSD -1
REMARK  0 active torsions:
REMARK  status: ('A' for Active; 'I' for Inactive)
ROOT
ATOM      1  C1  BNZ d   1      -0.999  -0.041   1.347  0.00  0.00     0.000 A 
ATOM      2  C2  BNZ d   1      -1.476  -1.095   0.615  0.00  0.00     0.000 A 
ATOM      3  C3  BNZ d   1      -0.643  -2.103   0.215  0.00  0.00     0.000 A 
ATOM      4  C4  BNZ d   1       0.670  -2.036   0.512  0.00  0.00     0.000 A 
ATOM      5  C5  BNZ d   1       1.168  -0.974   1.242  0.00  0.00     0.000 A 
ATOM      6  C6  BNZ d   1       0.320   0.019   1.676  0.00  0.00     0.000 A 
ENDROOT
TORSDOF 0
ENDMDL
