MODEL 1
REMARK minimizedAffinity -0.326799303
REMARK minimizedRMSD -1
REMARK  0 active torsions:
REMARK  status: ('A' for Active; 'I' for Inactive)
ROOT
ATOM      1  C1  BNZ d   1       1.455  -1.281  -0.233  0.00  0.00     0.000 A 
ATOM      2  C2  BNZ d   1       0.116  -1.370   0.036  0.00  0.00     0.000 A 
ATOM      3  C3  BNZ d   1      -0.444  -0.643   1.050  0.00  0.00     0.000 A 
ATOM      4  C4  BNZ d   1       0.342   0.138   1.818  0.00  0.00     0.000 A 
ATOM      5  C5  BNZ d   1       1.696   0.231   1.565  0.00  0.00     0.000 A 
ATOM      6  C6  BNZ d   1       2.249  -0.471   0.519  0.00  0.00     0.000 A 
ENDROOT
TORSDOF 0
ENDMDL
