MODEL 1
REMARK minimizedAffinity -2.75367975
REMARK minimizedRMSD -1
REMARK  0 active torsions:
REMARK  status: ('A' for Active; 'I' for Inactive)
ROOT
ATOM      1  C1  BNZ d   1       0.484  -2.771   0.432  0.00  0.00     0.000 A 
ATOM      2  C2  BNZ d   1      -0.745  -2.167   0.406  0.00  0.00     0.000 A 
ATOM      3  C3  BNZ d   1      -0.858  -0.805   0.455  0.00  0.00     0.000 A 
ATOM      4  C4  BNZ d   1       0.255  -0.052   0.571  0.00  0.00     0.000 A 
ATOM      5  C5  BNZ d   1       1.501  -0.647   0.608  0.00  0.00     0.000 A 
ATOM      6  C6  BNZ d   1       1.612  -2.015   0.519  0.00  0.00     0.000 A 
ENDROOT
TORSDOF 0
ENDMDL
