MODEL 1
REMARK minimizedAffinity -4.81806993
REMARK minimizedRMSD -1
REMARK  0 active torsions:
REMARK  status: ('A' for Active; 'I' for Inactive)
ROOT
ATOM      1  C1  BNZ d   1       0.196  -2.945   0.263  0.00  0.00     0.000 A 
ATOM      2  C2  BNZ d   1      -0.427  -1.760   0.556  0.00  0.00     0.000 A 
ATOM      3  C3  BNZ d   1       0.273  -0.586   0.565  0.00  0.00     0.000 A 
ATOM      4  C4  BNZ d   1       1.599  -0.602   0.321  0.00  0.00     0.000 A 
ATOM      5  C5  BNZ d   1       2.243  -1.789   0.034  0.00  0.00     0.000 A 
ATOM      6  C6  BNZ d   1       1.528  -2.964  -0.012  0.00  0.00     0.000 A 
ENDROOT
TORSDOF 0
ENDMDL
