MODEL 1
REMARK minimizedAffinity 3.10225725
REMARK minimizedRMSD -1
REMARK  0 active torsions:
REMARK  status: ('A' for Active; 'I' for Inactive)
ROOT
ATOM      1  C1  BNZ d   1      -0.785  -0.708   0.673  0.00  0.00     0.000 A 
ATOM      2  C2  BNZ d   1       0.187  -0.158   1.465  0.00  0.00     0.000 A 
ATOM      3  C3  BNZ d   1       1.469  -0.632   1.432  0.00  0.00     0.000 A 
ATOM      4  C4  BNZ d   1       1.768  -1.680   0.638  0.00  0.00     0.000 A 
ATOM      5  C5  BNZ d   1       0.797  -2.251  -0.160  0.00  0.00     0.000 A 
ATOM      6  C6  BNZ d   1      -0.483  -1.746  -0.153  0.00  0.00     0.000 A 
ENDROOT
TORSDOF 0
ENDMDL
