MODEL 1
REMARK minimizedAffinity -3.4899509
REMARK minimizedRMSD -1
REMARK  0 active torsions:
REMARK  status: ('A' for Active; 'I' for Inactive)
ROOT
ATOM      1  C1  BNZ d   1      -0.106  -0.353   1.401  0.00  0.00     0.000 A 
ATOM      2  C2  BNZ d   1       1.219  -0.389   1.055  0.00  0.00     0.000 A 
ATOM      3  C3  BNZ d   1       1.712  -1.399   0.277  0.00  0.00     0.000 A 
ATOM      4  C4  BNZ d   1       0.890  -2.392  -0.120  0.00  0.00     0.000 A 
ATOM      5  C5  BNZ d   1      -0.446  -2.375   0.229  0.00  0.00     0.000 A 
ATOM      6  C6  BNZ d   1      -0.947  -1.336   0.979  0.00  0.00     0.000 A 
ENDROOT
TORSDOF 0
ENDMDL
