MODEL 1
REMARK minimizedAffinity -4.44945335
REMARK minimizedRMSD -1
REMARK  0 active torsions:
REMARK  status: ('A' for Active; 'I' for Inactive)
ROOT
ATOM      1  C1  BNZ d   1       0.196  -2.775   0.124  0.00  0.00     0.000 A 
ATOM      2  C2  BNZ d   1      -0.566  -1.880   0.826  0.00  0.00     0.000 A 
ATOM      3  C3  BNZ d   1      -0.105  -0.619   1.082  0.00  0.00     0.000 A 
ATOM      4  C4  BNZ d   1       1.130  -0.268   0.671  0.00  0.00     0.000 A 
ATOM      5  C5  BNZ d   1       1.914  -1.162  -0.030  0.00  0.00     0.000 A 
ATOM      6  C6  BNZ d   1       1.432  -2.418  -0.320  0.00  0.00     0.000 A 
ENDROOT
TORSDOF 0
ENDMDL
