MODEL 1
REMARK minimizedAffinity -4.55032587
REMARK minimizedRMSD -1
REMARK  0 active torsions:
REMARK  status: ('A' for Active; 'I' for Inactive)
ROOT
ATOM      1  C1  BNZ d   1       1.584  -0.545   0.080  0.00  0.00     0.000 A 
ATOM      2  C2  BNZ d   1       1.960  -1.801  -0.316  0.00  0.00     0.000 A 
ATOM      3  C3  BNZ d   1       1.183  -2.888  -0.027  0.00  0.00     0.000 A 
ATOM      4  C4  BNZ d   1       0.054  -2.723   0.691  0.00  0.00     0.000 A 
ATOM      5  C5  BNZ d   1      -0.334  -1.465   1.105  0.00  0.00     0.000 A 
ATOM      6  C6  BNZ d   1       0.430  -0.368   0.779  0.00  0.00     0.000 A 
ENDROOT
TORSDOF 0
ENDMDL
