MODEL 1
REMARK minimizedAffinity -2.6776731
REMARK minimizedRMSD -1
REMARK  0 active torsions:
REMARK  status: ('A' for Active; 'I' for Inactive)
ROOT
ATOM      1  C1  BNZ d   1      -0.027  -0.719   1.736  0.00  0.00     0.000 A 
ATOM      2  C2  BNZ d   1       1.034  -0.348   0.954  0.00  0.00     0.000 A 
ATOM      3  C3  BNZ d   1       1.401  -1.098  -0.129  0.00  0.00     0.000 A 
ATOM      4  C4  BNZ d   1       0.733  -2.237  -0.403  0.00  0.00     0.000 A 
ATOM      5  C5  BNZ d   1      -0.332  -2.630   0.382  0.00  0.00     0.000 A 
ATOM      6  C6  BNZ d   1      -0.724  -1.852   1.448  0.00  0.00     0.000 A 
ENDROOT
TORSDOF 0
ENDMDL
