MODEL 1
REMARK minimizedAffinity -1.44054687
REMARK minimizedRMSD -1
REMARK  0 active torsions:
REMARK  status: ('A' for Active; 'I' for Inactive)
ROOT
ATOM      1  C1  BNZ d   1       0.823  -2.862   0.524  0.00  0.00     0.000 A 
ATOM      2  C2  BNZ d   1      -0.350  -2.341   1.001  0.00  0.00     0.000 A 
ATOM      3  C3  BNZ d   1      -0.517  -0.991   1.128  0.00  0.00     0.000 A 
ATOM      4  C4  BNZ d   1       0.503  -0.165   0.817  0.00  0.00     0.000 A 
ATOM      5  C5  BNZ d   1       1.696  -0.675   0.344  0.00  0.00     0.000 A 
ATOM      6  C6  BNZ d   1       1.846  -2.032   0.180  0.00  0.00     0.000 A 
ENDROOT
TORSDOF 0
ENDMDL
