MODEL 1
REMARK minimizedAffinity -1.56391871
REMARK minimizedRMSD -1
REMARK  0 active torsions:
REMARK  status: ('A' for Active; 'I' for Inactive)
ROOT
ATOM      1  C1  BNZ d   1       0.374  -2.715  -0.040  0.00  0.00     0.000 A 
ATOM      2  C2  BNZ d   1      -0.469  -1.990   0.759  0.00  0.00     0.000 A 
ATOM      3  C3  BNZ d   1      -0.201  -0.682   1.054  0.00  0.00     0.000 A 
ATOM      4  C4  BNZ d   1       0.928  -0.114   0.583  0.00  0.00     0.000 A 
ATOM      5  C5  BNZ d   1       1.792  -0.835  -0.217  0.00  0.00     0.000 A 
ATOM      6  C6  BNZ d   1       1.500  -2.139  -0.543  0.00  0.00     0.000 A 
ENDROOT
TORSDOF 0
ENDMDL
