MODEL 1
REMARK minimizedAffinity 19.3845119
REMARK minimizedRMSD -1
REMARK  0 active torsions:
REMARK  status: ('A' for Active; 'I' for Inactive)
ROOT
ATOM      1  N1  IND d   1       5.241   5.976   2.497  0.00  0.00    -0.196 N 
ATOM      2  C2  IND d   1       5.725   6.000   3.775  0.00  0.00     0.054 A 
ATOM      3  C3  IND d   1       5.503   4.814   4.384  0.00  0.00    -0.031 A 
ATOM      4  C4  IND d   1       4.454   2.661   3.440  0.00  0.00     0.051 A 
ATOM      5  C5  IND d   1       3.828   2.164   2.331  0.00  0.00    -0.031 A 
ATOM      6  C6  IND d   1       3.640   2.927   1.196  0.00  0.00     0.015 A 
ATOM      7  C7  IND d   1       4.083   4.218   1.125  0.00  0.00    -0.016 A 
ATOM      8  C8  IND d   1       4.712   4.728   2.251  0.00  0.00    -0.047 A 
ATOM      9  C9  IND d   1       4.868   3.972   3.420  0.00  0.00    -0.096 A 
ATOM     10  HN1 IND d   1       5.262   6.631   1.940  0.00  0.00     0.298 HD
ENDROOT
TORSDOF 0
ENDMDL
