MODEL 1
REMARK minimizedAffinity 16.193161
REMARK minimizedRMSD -1
REMARK  0 active torsions:
REMARK  status: ('A' for Active; 'I' for Inactive)
ROOT
ATOM      1  N1  IND d   1       4.258   2.519   4.458  0.00  0.00    -0.196 N 
ATOM      2  C2  IND d   1       4.028   1.257   3.985  0.00  0.00     0.054 A 
ATOM      3  C3  IND d   1       3.867   1.281   2.643  0.00  0.00    -0.031 A 
ATOM      4  C4  IND d   1       4.040   3.263   1.009  0.00  0.00     0.051 A 
ATOM      5  C5  IND d   1       4.197   4.620   0.975  0.00  0.00    -0.031 A 
ATOM      6  C6  IND d   1       4.390   5.361   2.123  0.00  0.00     0.015 A 
ATOM      7  C7  IND d   1       4.443   4.768   3.353  0.00  0.00    -0.016 A 
ATOM      8  C8  IND d   1       4.277   3.391   3.392  0.00  0.00    -0.047 A 
ATOM      9  C9  IND d   1       4.039   2.639   2.234  0.00  0.00    -0.096 A 
ATOM     10  HN1 IND d   1       4.371   2.732   5.283  0.00  0.00     0.298 HD
ENDROOT
TORSDOF 0
ENDMDL
