MODEL 1
REMARK minimizedAffinity 5.72394323
REMARK minimizedRMSD -1
REMARK  0 active torsions:
REMARK  status: ('A' for Active; 'I' for Inactive)
ROOT
ATOM      1  N1  IND d   1       5.166   2.655   4.500  0.00  0.00    -0.196 N 
ATOM      2  C2  IND d   1       4.950   1.546   3.730  0.00  0.00     0.054 A 
ATOM      3  C3  IND d   1       4.461   1.901   2.521  0.00  0.00    -0.031 A 
ATOM      4  C4  IND d   1       4.035   4.248   1.553  0.00  0.00     0.051 A 
ATOM      5  C5  IND d   1       4.048   5.572   1.893  0.00  0.00    -0.031 A 
ATOM      6  C6  IND d   1       4.445   6.000   3.143  0.00  0.00     0.015 A 
ATOM      7  C7  IND d   1       4.856   5.117   4.101  0.00  0.00    -0.016 A 
ATOM      8  C8  IND d   1       4.838   3.771   3.762  0.00  0.00    -0.047 A 
ATOM      9  C9  IND d   1       4.395   3.328   2.509  0.00  0.00    -0.096 A 
ATOM     10  HN1 IND d   1       5.458   2.656   5.308  0.00  0.00     0.298 HD
ENDROOT
TORSDOF 0
ENDMDL
