MODEL 1
REMARK minimizedAffinity 9.63374519
REMARK minimizedRMSD -1
REMARK  0 active torsions:
REMARK  status: ('A' for Active; 'I' for Inactive)
ROOT
ATOM      1  N1  IND d   1       2.386   3.892   5.861  0.00  0.00    -0.196 N 
ATOM      2  C2  IND d   1       1.486   2.873   6.000  0.00  0.00     0.054 A 
ATOM      3  C3  IND d   1       2.053   1.694   5.659  0.00  0.00    -0.031 A 
ATOM      4  C4  IND d   1       4.475   1.191   4.944  0.00  0.00     0.051 A 
ATOM      5  C5  IND d   1       5.657   1.805   4.638  0.00  0.00    -0.031 A 
ATOM      6  C6  IND d   1       5.814   3.173   4.729  0.00  0.00     0.015 A 
ATOM      7  C7  IND d   1       4.792   3.981   5.142  0.00  0.00    -0.016 A 
ATOM      8  C8  IND d   1       3.588   3.362   5.446  0.00  0.00    -0.047 A 
ATOM      9  C9  IND d   1       3.411   1.978   5.315  0.00  0.00    -0.096 A 
ATOM     10  HN1 IND d   1       2.228   4.724   6.009  0.00  0.00     0.298 HD
ENDROOT
TORSDOF 0
ENDMDL
