MODEL 1
REMARK minimizedAffinity 10.8011246
REMARK minimizedRMSD -1
REMARK  0 active torsions:
REMARK  status: ('A' for Active; 'I' for Inactive)
ROOT
ATOM      1  N1  IND d   1       3.979   4.397   2.049  0.00  0.00    -0.196 N 
ATOM      2  C2  IND d   1       4.317   3.612   0.982  0.00  0.00     0.054 A 
ATOM      3  C3  IND d   1       4.411   2.317   1.361  0.00  0.00    -0.031 A 
ATOM      4  C4  IND d   1       3.953   1.249   3.659  0.00  0.00     0.051 A 
ATOM      5  C5  IND d   1       3.653   1.566   4.953  0.00  0.00    -0.031 A 
ATOM      6  C6  IND d   1       3.438   2.869   5.354  0.00  0.00     0.015 A 
ATOM      7  C7  IND d   1       3.506   3.907   4.468  0.00  0.00    -0.016 A 
ATOM      8  C8  IND d   1       3.818   3.589   3.154  0.00  0.00    -0.047 A 
ATOM      9  C9  IND d   1       4.078   2.273   2.750  0.00  0.00    -0.096 A 
ATOM     10  HN1 IND d   1       3.883   5.251   2.033  0.00  0.00     0.298 HD
ENDROOT
TORSDOF 0
ENDMDL
