MODEL 1
REMARK minimizedAffinity 7.21228456
REMARK minimizedRMSD -1
REMARK  0 active torsions:
REMARK  status: ('A' for Active; 'I' for Inactive)
ROOT
ATOM      1  N1  IND d   1       0.958  -2.686   3.748  0.00  0.00    -0.196 N 
ATOM      2  C2  IND d   1       1.803  -2.610   4.820  0.00  0.00     0.054 A 
ATOM      3  C3  IND d   1       2.032  -1.319   5.148  0.00  0.00    -0.031 A 
ATOM      4  C4  IND d   1       1.045   0.828   4.127  0.00  0.00     0.051 A 
ATOM      5  C5  IND d   1       0.254   1.269   3.104  0.00  0.00    -0.031 A 
ATOM      6  C6  IND d   1      -0.358   0.396   2.227  0.00  0.00     0.015 A 
ATOM      7  C7  IND d   1      -0.209  -0.956   2.348  0.00  0.00    -0.016 A 
ATOM      8  C8  IND d   1       0.599  -1.407   3.382  0.00  0.00    -0.047 A 
ATOM      9  C9  IND d   1       1.256  -0.525   4.249  0.00  0.00    -0.096 A 
ATOM     10  HN1 IND d   1       0.694  -3.410   3.367  0.00  0.00     0.298 HD
ENDROOT
TORSDOF 0
ENDMDL
