MODEL 1
REMARK minimizedAffinity 7.35257339
REMARK minimizedRMSD -1
REMARK  0 active torsions:
REMARK  status: ('A' for Active; 'I' for Inactive)
ROOT
ATOM      1  N1  IND d   1       2.258  -1.800   4.604  0.00  0.00    -0.196 N 
ATOM      2  C2  IND d   1       1.648  -3.004   4.825  0.00  0.00     0.054 A 
ATOM      3  C3  IND d   1       0.409  -3.009   4.284  0.00  0.00    -0.031 A 
ATOM      4  C4  IND d   1      -0.781  -1.190   2.905  0.00  0.00     0.051 A 
ATOM      5  C5  IND d   1      -0.639   0.098   2.470  0.00  0.00    -0.031 A 
ATOM      6  C6  IND d   1       0.500   0.833   2.728  0.00  0.00     0.015 A 
ATOM      7  C7  IND d   1       1.549   0.301   3.423  0.00  0.00    -0.016 A 
ATOM      8  C8  IND d   1       1.405  -1.004   3.872  0.00  0.00    -0.047 A 
ATOM      9  C9  IND d   1       0.234  -1.740   3.650  0.00  0.00    -0.096 A 
ATOM     10  HN1 IND d   1       3.042  -1.578   4.877  0.00  0.00     0.298 HD
ENDROOT
TORSDOF 0
ENDMDL
