MODEL 1
REMARK minimizedAffinity -4.45525265
REMARK minimizedRMSD -1
REMARK  1 active torsions:
REMARK  status: ('A' for Active; 'I' for Inactive)
REMARK    1  A    between atoms: C1_2  and  C2_3 
ROOT
ATOM      1  C2  UNL d   1       0.123   0.323   0.135  0.00  0.00    -0.073 A 
ATOM      2  C3  UNL d   1       0.552  -0.948  -0.265  0.00  0.00    -0.002 A 
ATOM      3  C4  UNL d   1       0.125  -2.085   0.421  0.00  0.00     0.004 A 
ATOM      4  C5  UNL d   1      -0.740  -1.964   1.509  0.00  0.00    -0.004 A 
ATOM      5  C6  UNL d   1      -1.190  -0.704   1.916  0.00  0.00    -0.075 A 
ATOM      6  C7  UNL d   1      -2.118  -0.557   3.086  0.00  0.00     0.076 C 
ATOM      7  C8  UNL d   1      -0.754   0.433   1.223  0.00  0.00     0.001 A 
ENDROOT
BRANCH   1   8
ATOM      8  C1  UNL d   1       0.577   1.553  -0.608  0.00  0.00     0.053 C 
ATOM      9  C   UNL d   1       1.701   2.275   0.118  0.00  0.00     0.018 C 
ENDBRANCH   1   8
TORSDOF 1
ENDMDL
