MODEL 1
REMARK minimizedAffinity -1.07393754
REMARK minimizedRMSD -1
REMARK  1 active torsions:
REMARK  status: ('A' for Active; 'I' for Inactive)
REMARK    1  A    between atoms: C1_2  and  C2_3 
ROOT
ATOM      1  C2  UNL d   1      -0.481  -0.172  -0.102  0.00  0.00    -0.073 A 
ATOM      2  C3  UNL d   1      -0.939  -0.264   1.218  0.00  0.00    -0.002 A 
ATOM      3  C4  UNL d   1      -1.447  -1.469   1.705  0.00  0.00     0.004 A 
ATOM      4  C5  UNL d   1      -1.495  -2.594   0.882  0.00  0.00    -0.004 A 
ATOM      5  C6  UNL d   1      -1.032  -2.525  -0.435  0.00  0.00    -0.075 A 
ATOM      6  C7  UNL d   1      -1.079  -3.726  -1.334  0.00  0.00     0.076 C 
ATOM      7  C8  UNL d   1      -0.526  -1.311  -0.918  0.00  0.00     0.001 A 
ENDROOT
BRANCH   1   8
ATOM      8  C1  UNL d   1       0.074   1.125  -0.630  0.00  0.00     0.053 C 
ATOM      9  C   UNL d   1       0.787   1.923   0.450  0.00  0.00     0.018 C 
ENDBRANCH   1   8
TORSDOF 1
ENDMDL
