MODEL 1
REMARK minimizedAffinity -2.97670293
REMARK minimizedRMSD -1
REMARK  1 active torsions:
REMARK  status: ('A' for Active; 'I' for Inactive)
REMARK    1  A    between atoms: C1_2  and  C2_3 
ROOT
ATOM      1  C2  UNL d   1       0.861   1.368  -1.052  0.00  0.00    -0.073 A 
ATOM      2  C3  UNL d   1       2.253   1.488  -1.147  0.00  0.00    -0.002 A 
ATOM      3  C4  UNL d   1       2.927   2.471  -0.421  0.00  0.00     0.004 A 
ATOM      4  C5  UNL d   1       2.219   3.337   0.412  0.00  0.00    -0.004 A 
ATOM      5  C6  UNL d   1       0.830   3.226   0.530  0.00  0.00    -0.075 A 
ATOM      6  C7  UNL d   1       0.055   4.152   1.420  0.00  0.00     0.076 C 
ATOM      7  C8  UNL d   1       0.160   2.238  -0.205  0.00  0.00     0.001 A 
ENDROOT
BRANCH   1   8
ATOM      8  C1  UNL d   1       0.130   0.305  -1.829  0.00  0.00     0.053 C 
ATOM      9  C   UNL d   1       0.985  -0.934  -2.045  0.00  0.00     0.018 C 
ENDBRANCH   1   8
TORSDOF 1
ENDMDL
