MODEL 1
REMARK minimizedAffinity 1.60348988
REMARK minimizedRMSD -1
REMARK  1 active torsions:
REMARK  status: ('A' for Active; 'I' for Inactive)
REMARK    1  A    between atoms: C1_2  and  C2_3 
ROOT
ATOM      1  C2  UNL d   1      -0.296   1.279   0.306  0.00  0.00    -0.073 A 
ATOM      2  C3  UNL d   1       0.586   1.026  -0.751  0.00  0.00    -0.002 A 
ATOM      3  C4  UNL d   1       0.764  -0.275  -1.224  0.00  0.00     0.004 A 
ATOM      4  C5  UNL d   1       0.059  -1.333  -0.651  0.00  0.00    -0.004 A 
ATOM      5  C6  UNL d   1      -0.836  -1.098   0.398  0.00  0.00    -0.075 A 
ATOM      6  C7  UNL d   1      -1.601  -2.226   1.026  0.00  0.00     0.076 C 
ATOM      7  C8  UNL d   1      -1.008   0.211   0.869  0.00  0.00     0.001 A 
ENDROOT
BRANCH   1   8
ATOM      8  C1  UNL d   1      -0.497   2.683   0.816  0.00  0.00     0.053 C 
ATOM      9  C   UNL d   1       0.822   3.359   1.157  0.00  0.00     0.018 C 
ENDBRANCH   1   8
TORSDOF 1
ENDMDL
