MODEL 1
REMARK minimizedAffinity -5.42362309
REMARK minimizedRMSD -1
REMARK  1 active torsions:
REMARK  status: ('A' for Active; 'I' for Inactive)
REMARK    1  A    between atoms: C1_2  and  C2_3 
ROOT
ATOM      1  C2  UNL d   1       0.017   0.113  -0.738  0.00  0.00    -0.073 A 
ATOM      2  C3  UNL d   1       0.384  -0.184  -2.055  0.00  0.00    -0.002 A 
ATOM      3  C4  UNL d   1       0.548  -1.509  -2.460  0.00  0.00     0.004 A 
ATOM      4  C5  UNL d   1       0.341  -2.550  -1.555  0.00  0.00    -0.004 A 
ATOM      5  C6  UNL d   1      -0.037  -2.274  -0.237  0.00  0.00    -0.075 A 
ATOM      6  C7  UNL d   1      -0.261  -3.383   0.750  0.00  0.00     0.076 C 
ATOM      7  C8  UNL d   1      -0.198  -0.941   0.162  0.00  0.00     0.001 A 
ENDROOT
BRANCH   1   8
ATOM      8  C1  UNL d   1      -0.169   1.542  -0.298  0.00  0.00     0.053 C 
ATOM      9  C   UNL d   1       1.155   2.211   0.038  0.00  0.00     0.018 C 
ENDBRANCH   1   8
TORSDOF 1
ENDMDL
