MODEL 1
REMARK minimizedAffinity -4.41684771
REMARK minimizedRMSD -1
REMARK  1 active torsions:
REMARK  status: ('A' for Active; 'I' for Inactive)
REMARK    1  A    between atoms: C1_2  and  C2_3 
ROOT
ATOM      1  C2  UNL d   1      -0.155   0.072  -0.236  0.00  0.00    -0.073 A 
ATOM      2  C3  UNL d   1      -0.687  -0.480   0.935  0.00  0.00    -0.002 A 
ATOM      3  C4  UNL d   1      -0.770  -1.864   1.087  0.00  0.00     0.004 A 
ATOM      4  C5  UNL d   1      -0.317  -2.710   0.075  0.00  0.00    -0.004 A 
ATOM      5  C6  UNL d   1       0.229  -2.178  -1.097  0.00  0.00    -0.075 A 
ATOM      6  C7  UNL d   1       0.719  -3.075  -2.196  0.00  0.00     0.076 C 
ATOM      7  C8  UNL d   1       0.307  -0.787  -1.244  0.00  0.00     0.001 A 
ENDROOT
BRANCH   1   8
ATOM      8  C1  UNL d   1      -0.057   1.566  -0.402  0.00  0.00     0.053 C 
ATOM      9  C   UNL d   1       0.642   2.226   0.776  0.00  0.00     0.018 C 
ENDBRANCH   1   8
TORSDOF 1
ENDMDL
