MODEL 1
REMARK minimizedAffinity -3.57673264
REMARK minimizedRMSD -1
REMARK  1 active torsions:
REMARK  status: ('A' for Active; 'I' for Inactive)
REMARK    1  A    between atoms: C1_2  and  C2_3 
ROOT
ATOM      1  C2  UNL d   1      -0.047   0.907   0.249  0.00  0.00    -0.073 A 
ATOM      2  C3  UNL d   1      -0.519   0.091   1.283  0.00  0.00    -0.002 A 
ATOM      3  C4  UNL d   1      -0.547  -1.296   1.130  0.00  0.00     0.004 A 
ATOM      4  C5  UNL d   1      -0.096  -1.881  -0.054  0.00  0.00    -0.004 A 
ATOM      5  C6  UNL d   1       0.390  -1.083  -1.094  0.00  0.00    -0.075 A 
ATOM      6  C7  UNL d   1       0.877  -1.696  -2.374  0.00  0.00     0.076 C 
ATOM      7  C8  UNL d   1       0.412   0.310  -0.934  0.00  0.00     0.001 A 
ENDROOT
BRANCH   1   8
ATOM      8  C1  UNL d   1      -0.010   2.405   0.412  0.00  0.00     0.053 C 
ATOM      9  C   UNL d   1       1.413   2.935   0.485  0.00  0.00     0.018 C 
ENDBRANCH   1   8
TORSDOF 1
ENDMDL
