MODEL 1
REMARK minimizedAffinity -3.09676051
REMARK minimizedRMSD -1
REMARK  1 active torsions:
REMARK  status: ('A' for Active; 'I' for Inactive)
REMARK    1  A    between atoms: C1_2  and  C2_3 
ROOT
ATOM      1  C2  UNL d   1      -0.638  -2.068  -0.793  0.00  0.00    -0.073 A 
ATOM      2  C3  UNL d   1      -1.062  -2.651   0.407  0.00  0.00    -0.002 A 
ATOM      3  C4  UNL d   1      -0.940  -1.956   1.610  0.00  0.00     0.004 A 
ATOM      4  C5  UNL d   1      -0.399  -0.670   1.627  0.00  0.00    -0.004 A 
ATOM      5  C6  UNL d   1       0.020  -0.066   0.437  0.00  0.00    -0.075 A 
ATOM      6  C7  UNL d   1       0.605   1.315   0.437  0.00  0.00     0.076 C 
ATOM      7  C8  UNL d   1      -0.104  -0.772  -0.768  0.00  0.00     0.001 A 
ENDROOT
BRANCH   1   8
ATOM      8  C1  UNL d   1      -0.774  -2.813  -2.096  0.00  0.00     0.053 C 
ATOM      9  C   UNL d   1      -0.137  -2.059  -3.252  0.00  0.00     0.018 C 
ENDBRANCH   1   8
TORSDOF 1
ENDMDL
