MODEL 1
REMARK minimizedAffinity 7.45126581
REMARK minimizedRMSD -1
REMARK  1 active torsions:
REMARK  status: ('A' for Active; 'I' for Inactive)
REMARK    1  A    between atoms: C1_2  and  C2_3 
ROOT
ATOM      1  C2  UNL d   1      -0.010   4.277   2.075  0.00  0.00    -0.073 A 
ATOM      2  C3  UNL d   1      -0.937   3.591   1.282  0.00  0.00    -0.002 A 
ATOM      3  C4  UNL d   1      -0.527   2.525   0.480  0.00  0.00     0.004 A 
ATOM      4  C5  UNL d   1       0.811   2.130   0.468  0.00  0.00    -0.004 A 
ATOM      5  C6  UNL d   1       1.750   2.795   1.262  0.00  0.00    -0.075 A 
ATOM      6  C7  UNL d   1       3.193   2.384   1.259  0.00  0.00     0.076 C 
ATOM      7  C8  UNL d   1       1.331   3.866   2.063  0.00  0.00     0.001 A 
ENDROOT
BRANCH   1   8
ATOM      8  C1  UNL d   1      -0.450   5.424   2.947  0.00  0.00     0.053 C 
ATOM      9  C   UNL d   1      -1.902   5.803   2.702  0.00  0.00     0.018 C 
ENDBRANCH   1   8
TORSDOF 1
ENDMDL
