MODEL 1
REMARK minimizedAffinity -4.76342344
REMARK minimizedRMSD -1
REMARK  0 active torsions:
REMARK  status: ('A' for Active; 'I' for Inactive)
ROOT
ATOM      1  O1  BZF d   1      -1.348   2.447  -0.917  0.00  0.00    -0.204 OA
ATOM      2  C2  BZF d   1      -1.088   1.769  -2.092  0.00  0.00     0.174 A 
ATOM      3  C3  BZF d   1      -0.267   0.723  -1.868  0.00  0.00    -0.012 A 
ATOM      4  C3A BZF d   1      -0.071   0.694  -0.451  0.00  0.00    -0.107 A 
ATOM      5  C4  BZF d   1       0.635  -0.125   0.383  0.00  0.00     0.055 A 
ATOM      6  C5  BZF d   1       0.680   0.164   1.710  0.00  0.00    -0.016 A 
ATOM      7  C6  BZF d   1       0.036   1.265   2.236  0.00  0.00     0.022 A 
ATOM      8  C7  BZF d   1      -0.681   2.104   1.449  0.00  0.00     0.029 A 
ATOM      9  C7A BZF d   1      -0.755   1.796   0.112  0.00  0.00     0.058 A 
ENDROOT
TORSDOF 0
ENDMDL
