MODEL 1
REMARK minimizedAffinity -3.52830791
REMARK minimizedRMSD -1
REMARK  0 active torsions:
REMARK  status: ('A' for Active; 'I' for Inactive)
ROOT
ATOM      1  O1  BZF d   1      -0.803   1.704  -1.649  0.00  0.00    -0.204 OA
ATOM      2  C2  BZF d   1      -0.280   0.644  -2.364  0.00  0.00     0.174 A 
ATOM      3  C3  BZF d   1       0.267  -0.268  -1.535  0.00  0.00    -0.012 A 
ATOM      4  C3A BZF d   1      -0.008   0.210  -0.215  0.00  0.00    -0.107 A 
ATOM      5  C4  BZF d   1       0.268  -0.270   1.034  0.00  0.00     0.055 A 
ATOM      6  C5  BZF d   1      -0.075   0.474   2.118  0.00  0.00    -0.016 A 
ATOM      7  C6  BZF d   1      -0.689   1.703   1.990  0.00  0.00     0.022 A 
ATOM      8  C7  BZF d   1      -0.987   2.218   0.773  0.00  0.00     0.029 A 
ATOM      9  C7A BZF d   1      -0.672   1.453  -0.324  0.00  0.00     0.058 A 
ENDROOT
TORSDOF 0
ENDMDL
