MODEL 1
REMARK minimizedAffinity -3.04193974
REMARK minimizedRMSD -1
REMARK  0 active torsions:
REMARK  status: ('A' for Active; 'I' for Inactive)
ROOT
ATOM      1  O1  BZF d   1       0.281   1.459   0.096  0.00  0.00    -0.204 OA
ATOM      2  C2  BZF d   1      -0.234   1.137   1.337  0.00  0.00     0.174 A 
ATOM      3  C3  BZF d   1      -0.483  -0.186   1.422  0.00  0.00    -0.012 A 
ATOM      4  C3A BZF d   1      -0.015  -0.738   0.188  0.00  0.00    -0.107 A 
ATOM      5  C4  BZF d   1       0.028  -2.006  -0.317  0.00  0.00     0.055 A 
ATOM      6  C5  BZF d   1       0.480  -2.197  -1.584  0.00  0.00    -0.016 A 
ATOM      7  C6  BZF d   1       0.893  -1.144  -2.375  0.00  0.00     0.022 A 
ATOM      8  C7  BZF d   1       0.874   0.130  -1.915  0.00  0.00     0.029 A 
ATOM      9  C7A BZF d   1       0.448   0.323  -0.624  0.00  0.00     0.058 A 
ENDROOT
TORSDOF 0
ENDMDL
