MODEL 1
REMARK minimizedAffinity 2.07473969
REMARK minimizedRMSD -1
REMARK  0 active torsions:
REMARK  status: ('A' for Active; 'I' for Inactive)
ROOT
ATOM      1  O1  BZF d   1       0.336   1.385  -0.668  0.00  0.00    -0.204 OA
ATOM      2  C2  BZF d   1       0.836   0.170  -1.093  0.00  0.00     0.174 A 
ATOM      3  C3  BZF d   1       1.051  -0.652  -0.046  0.00  0.00    -0.012 A 
ATOM      4  C3A BZF d   1       0.575   0.064   1.098  0.00  0.00    -0.107 A 
ATOM      5  C4  BZF d   1       0.503  -0.234   2.429  0.00  0.00     0.055 A 
ATOM      6  C5  BZF d   1       0.052   0.712   3.294  0.00  0.00    -0.016 A 
ATOM      7  C6  BZF d   1      -0.330   1.966   2.864  0.00  0.00     0.022 A 
ATOM      8  C7  BZF d   1      -0.281   2.306   1.553  0.00  0.00     0.029 A 
ATOM      9  C7A BZF d   1       0.143   1.341   0.672  0.00  0.00     0.058 A 
ENDROOT
TORSDOF 0
ENDMDL
