MODEL 1
REMARK minimizedAffinity 1.01270258
REMARK minimizedRMSD -1
REMARK  0 active torsions:
REMARK  status: ('A' for Active; 'I' for Inactive)
ROOT
ATOM      1  O1  BZF d   1       0.625  -0.859   3.797  0.00  0.00    -0.204 OA
ATOM      2  C2  BZF d   1      -0.725  -0.608   3.947  0.00  0.00     0.174 A 
ATOM      3  C3  BZF d   1      -1.227  -0.011   2.847  0.00  0.00    -0.012 A 
ATOM      4  C3A BZF d   1      -0.140   0.036   1.916  0.00  0.00    -0.107 A 
ATOM      5  C4  BZF d   1      -0.019   0.500   0.638  0.00  0.00     0.055 A 
ATOM      6  C5  BZF d   1       1.199   0.464   0.035  0.00  0.00    -0.016 A 
ATOM      7  C6  BZF d   1       2.315  -0.024   0.682  0.00  0.00     0.022 A 
ATOM      8  C7  BZF d   1       2.243  -0.500   1.949  0.00  0.00     0.029 A 
ATOM      9  C7A BZF d   1       1.007  -0.495   2.549  0.00  0.00     0.058 A 
ENDROOT
TORSDOF 0
ENDMDL
