MODEL 1
REMARK minimizedAffinity -1.13254154
REMARK minimizedRMSD -1
REMARK  0 active torsions:
REMARK  status: ('A' for Active; 'I' for Inactive)
ROOT
ATOM      1  O1  BZF d   1       0.667   0.833  -0.455  0.00  0.00    -0.204 OA
ATOM      2  C2  BZF d   1       1.205  -0.399  -0.772  0.00  0.00     0.174 A 
ATOM      3  C3  BZF d   1       1.406  -1.134   0.341  0.00  0.00    -0.012 A 
ATOM      4  C3A BZF d   1       0.881  -0.345   1.413  0.00  0.00    -0.107 A 
ATOM      5  C4  BZF d   1       0.775  -0.542   2.760  0.00  0.00     0.055 A 
ATOM      6  C5  BZF d   1       0.279   0.456   3.537  0.00  0.00    -0.016 A 
ATOM      7  C6  BZF d   1      -0.116   1.664   3.002  0.00  0.00     0.022 A 
ATOM      8  C7  BZF d   1      -0.035   1.905   1.671  0.00  0.00     0.029 A 
ATOM      9  C7A BZF d   1       0.435   0.886   0.879  0.00  0.00     0.058 A 
ENDROOT
TORSDOF 0
ENDMDL
