MODEL 1
REMARK minimizedAffinity 2.29579592
REMARK minimizedRMSD -1
REMARK  0 active torsions:
REMARK  status: ('A' for Active; 'I' for Inactive)
ROOT
ATOM      1  O1  BZF d   1      -0.226   1.889   2.804  0.00  0.00    -0.204 OA
ATOM      2  C2  BZF d   1      -0.118   2.672   1.671  0.00  0.00     0.174 A 
ATOM      3  C3  BZF d   1       0.465   1.985   0.667  0.00  0.00    -0.012 A 
ATOM      4  C3A BZF d   1       0.654   0.662   1.178  0.00  0.00    -0.107 A 
ATOM      5  C4  BZF d   1       1.173  -0.484   0.647  0.00  0.00     0.055 A 
ATOM      6  C5  BZF d   1       1.282  -1.587   1.434  0.00  0.00    -0.016 A 
ATOM      7  C6  BZF d   1       0.886  -1.578   2.755  0.00  0.00     0.022 A 
ATOM      8  C7  BZF d   1       0.361  -0.466   3.325  0.00  0.00     0.029 A 
ATOM      9  C7A BZF d   1       0.219   0.640   2.523  0.00  0.00     0.058 A 
ENDROOT
TORSDOF 0
ENDMDL
