MODEL 1
REMARK minimizedAffinity 0.811877608
REMARK minimizedRMSD -1
REMARK  0 active torsions:
REMARK  status: ('A' for Active; 'I' for Inactive)
ROOT
ATOM      1  O1  BZF d   1       0.424  -0.600  -1.014  0.00  0.00    -0.204 OA
ATOM      2  C2  BZF d   1       1.143  -1.177   0.014  0.00  0.00     0.174 A 
ATOM      3  C3  BZF d   1       0.876  -0.566   1.187  0.00  0.00    -0.012 A 
ATOM      4  C3A BZF d   1      -0.139   0.397   0.886  0.00  0.00    -0.107 A 
ATOM      5  C4  BZF d   1      -0.826   1.303   1.642  0.00  0.00     0.055 A 
ATOM      6  C5  BZF d   1      -1.699   2.147   1.031  0.00  0.00    -0.016 A 
ATOM      7  C6  BZF d   1      -1.904   2.116  -0.333  0.00  0.00     0.022 A 
ATOM      8  C7  BZF d   1      -1.248   1.231  -1.124  0.00  0.00     0.029 A 
ATOM      9  C7A BZF d   1      -0.391   0.355  -0.505  0.00  0.00     0.058 A 
ENDROOT
TORSDOF 0
ENDMDL
