MODEL 1
REMARK minimizedAffinity -4.49759626
REMARK minimizedRMSD -1
REMARK  0 active torsions:
REMARK  status: ('A' for Active; 'I' for Inactive)
ROOT
ATOM      1  O1  BZF d   1       1.250  -0.134   0.839  0.00  0.00    -0.204 OA
ATOM      2  C2  BZF d   1       0.918  -1.063  -0.128  0.00  0.00     0.174 A 
ATOM      3  C3  BZF d   1      -0.347  -0.877  -0.557  0.00  0.00    -0.012 A 
ATOM      4  C3A BZF d   1      -0.805   0.296   0.123  0.00  0.00    -0.107 A 
ATOM      5  C4  BZF d   1      -1.979   0.995   0.102  0.00  0.00     0.055 A 
ATOM      6  C5  BZF d   1      -2.131   2.054   0.940  0.00  0.00    -0.016 A 
ATOM      7  C6  BZF d   1      -1.135   2.439   1.813  0.00  0.00     0.022 A 
ATOM      8  C7  BZF d   1       0.049   1.780   1.865  0.00  0.00     0.029 A 
ATOM      9  C7A BZF d   1       0.218   0.729   0.997  0.00  0.00     0.058 A 
ENDROOT
TORSDOF 0
ENDMDL
