MODEL 1
REMARK minimizedAffinity 7.91896009
REMARK minimizedRMSD -1
REMARK  0 active torsions:
REMARK  status: ('A' for Active; 'I' for Inactive)
ROOT
ATOM      1  C   UNL d   1      -2.013   1.557  -5.837  0.00  0.00     0.124 A 
ATOM      2  C1  UNL d   1      -1.888   2.938  -5.896  0.00  0.00     0.062 A 
ATOM      3  C2  UNL d   1      -3.024   3.742  -5.943  0.00  0.00     0.162 A 
ATOM      4  C3  UNL d   1      -4.294   3.166  -5.930  0.00  0.00    -0.034 A 
ATOM      5  C4  UNL d   1      -4.411   1.776  -5.872  0.00  0.00     0.162 A 
ATOM      6  C5  UNL d   1      -3.273   0.978  -5.825  0.00  0.00     0.062 A 
ATOM      7  F   UNL d   1      -3.395  -0.357  -5.769  0.00  0.00    -0.097 F 
ATOM      8  F1  UNL d   1      -5.618   1.190  -5.858  0.00  0.00    -0.096 F 
ATOM      9  I   UNL d   1      -5.995   4.364  -6.000  0.00  0.00    -0.060 I 
ATOM     10  F2  UNL d   1      -2.874   5.074  -5.999  0.00  0.00    -0.096 F 
ATOM     11  F3  UNL d   1      -0.671   3.501  -5.909  0.00  0.00    -0.097 F 
ATOM     12  F4  UNL d   1      -0.918   0.786  -5.793  0.00  0.00    -0.092 F 
ENDROOT
TORSDOF 0
ENDMDL
