MODEL 1
REMARK minimizedAffinity 8.41544437
REMARK minimizedRMSD -1
REMARK  0 active torsions:
REMARK  status: ('A' for Active; 'I' for Inactive)
ROOT
ATOM      1  C   UNL d   1      -3.260   3.903  -5.993  0.00  0.00     0.124 A 
ATOM      2  C1  UNL d   1      -4.543   3.371  -5.992  0.00  0.00     0.062 A 
ATOM      3  C2  UNL d   1      -4.728   1.992  -5.993  0.00  0.00     0.162 A 
ATOM      4  C3  UNL d   1      -3.628   1.133  -5.996  0.00  0.00    -0.034 A 
ATOM      5  C4  UNL d   1      -2.342   1.676  -5.998  0.00  0.00     0.162 A 
ATOM      6  C5  UNL d   1      -2.162   3.055  -5.996  0.00  0.00     0.062 A 
ATOM      7  F   UNL d   1      -0.922   3.567  -5.997  0.00  0.00    -0.097 F 
ATOM      8  F1  UNL d   1      -1.263   0.880  -6.000  0.00  0.00    -0.096 F 
ATOM      9  I   UNL d   1      -3.902  -0.930  -5.999  0.00  0.00    -0.060 I 
ATOM     10  F2  UNL d   1      -5.978   1.505  -5.992  0.00  0.00    -0.096 F 
ATOM     11  F3  UNL d   1      -5.606   4.188  -5.989  0.00  0.00    -0.097 F 
ATOM     12  F4  UNL d   1      -3.085   5.230  -5.992  0.00  0.00    -0.092 F 
ENDROOT
TORSDOF 0
ENDMDL
