MODEL 1
REMARK minimizedAffinity 1.81910968
REMARK minimizedRMSD -1
REMARK  0 active torsions:
REMARK  status: ('A' for Active; 'I' for Inactive)
ROOT
ATOM      1  C   UNL d   1      -3.212   4.036  -5.977  0.00  0.00     0.124 A 
ATOM      2  C1  UNL d   1      -2.121   3.178  -5.979  0.00  0.00     0.062 A 
ATOM      3  C2  UNL d   1      -2.316   1.799  -5.984  0.00  0.00     0.162 A 
ATOM      4  C3  UNL d   1      -3.607   1.271  -5.990  0.00  0.00    -0.034 A 
ATOM      5  C4  UNL d   1      -4.698   2.141  -5.988  0.00  0.00     0.162 A 
ATOM      6  C5  UNL d   1      -4.499   3.518  -5.982  0.00  0.00     0.062 A 
ATOM      7  F   UNL d   1      -5.553   4.346  -5.981  0.00  0.00    -0.097 F 
ATOM      8  F1  UNL d   1      -5.953   1.667  -5.993  0.00  0.00    -0.096 F 
ATOM      9  I   UNL d   1      -3.902  -0.789  -5.999  0.00  0.00    -0.060 I 
ATOM     10  F2  UNL d   1      -1.244   0.993  -5.986  0.00  0.00    -0.096 F 
ATOM     11  F3  UNL d   1      -0.877   3.676  -5.973  0.00  0.00    -0.097 F 
ATOM     12  F4  UNL d   1      -3.021   5.362  -5.971  0.00  0.00    -0.092 F 
ENDROOT
TORSDOF 0
ENDMDL
