MODEL 1
REMARK minimizedAffinity 4.77339935
REMARK minimizedRMSD -1
REMARK  0 active torsions:
REMARK  status: ('A' for Active; 'I' for Inactive)
ROOT
ATOM      1  C   UNL d   1      -3.221   4.596  -5.957  0.00  0.00     0.124 A 
ATOM      2  C1  UNL d   1      -4.513   4.090  -5.954  0.00  0.00     0.062 A 
ATOM      3  C2  UNL d   1      -4.726   2.714  -5.965  0.00  0.00     0.162 A 
ATOM      4  C3  UNL d   1      -3.643   1.835  -5.978  0.00  0.00    -0.034 A 
ATOM      5  C4  UNL d   1      -2.346   2.352  -5.982  0.00  0.00     0.162 A 
ATOM      6  C5  UNL d   1      -2.139   3.727  -5.971  0.00  0.00     0.062 A 
ATOM      7  F   UNL d   1      -0.890   4.215  -5.974  0.00  0.00    -0.097 F 
ATOM      8  F1  UNL d   1      -1.283   1.534  -5.995  0.00  0.00    -0.096 F 
ATOM      9  I   UNL d   1      -3.957  -0.223  -5.996  0.00  0.00    -0.060 I 
ATOM     10  F2  UNL d   1      -5.985   2.253  -5.962  0.00  0.00    -0.096 F 
ATOM     11  F3  UNL d   1      -5.560   4.927  -5.941  0.00  0.00    -0.097 F 
ATOM     12  F4  UNL d   1      -3.019   5.920  -5.946  0.00  0.00    -0.092 F 
ENDROOT
TORSDOF 0
ENDMDL
