MODEL 1
REMARK minimizedAffinity 20.1767998
REMARK minimizedRMSD -1
REMARK  0 active torsions:
REMARK  status: ('A' for Active; 'I' for Inactive)
ROOT
ATOM      1  C   UNL d   1      -4.678  -3.526  -4.518  0.00  0.00     0.124 A 
ATOM      2  C1  UNL d   1      -4.134  -4.575  -5.246  0.00  0.00     0.062 A 
ATOM      3  C2  UNL d   1      -2.765  -4.825  -5.197  0.00  0.00     0.162 A 
ATOM      4  C3  UNL d   1      -1.931  -4.025  -4.416  0.00  0.00    -0.034 A 
ATOM      5  C4  UNL d   1      -2.486  -2.972  -3.687  0.00  0.00     0.162 A 
ATOM      6  C5  UNL d   1      -3.854  -2.726  -3.739  0.00  0.00     0.062 A 
ATOM      7  F   UNL d   1      -4.378  -1.712  -3.035  0.00  0.00    -0.097 F 
ATOM      8  F1  UNL d   1      -1.713  -2.183  -2.926  0.00  0.00    -0.096 F 
ATOM      9  I   UNL d   1       0.116  -4.396  -4.341  0.00  0.00    -0.060 I 
ATOM     10  F2  UNL d   1      -2.267  -5.845  -5.911  0.00  0.00    -0.096 F 
ATOM     11  F3  UNL d   1      -4.928  -5.349  -6.000  0.00  0.00    -0.097 F 
ATOM     12  F4  UNL d   1      -5.995  -3.287  -4.567  0.00  0.00    -0.092 F 
ENDROOT
TORSDOF 0
ENDMDL
