MODEL 1
REMARK minimizedAffinity 2.11028504
REMARK minimizedRMSD -1
REMARK  0 active torsions:
REMARK  status: ('A' for Active; 'I' for Inactive)
ROOT
ATOM      1  C   UNL d   1      -3.232   4.265  -5.943  0.00  0.00     0.124 A 
ATOM      2  C1  UNL d   1      -2.146   3.401  -5.936  0.00  0.00     0.062 A 
ATOM      3  C2  UNL d   1      -2.347   2.024  -5.948  0.00  0.00     0.162 A 
ATOM      4  C3  UNL d   1      -3.640   1.501  -5.967  0.00  0.00    -0.034 A 
ATOM      5  C4  UNL d   1      -4.728   2.377  -5.973  0.00  0.00     0.162 A 
ATOM      6  C5  UNL d   1      -4.522   3.752  -5.961  0.00  0.00     0.062 A 
ATOM      7  F   UNL d   1      -5.573   4.585  -5.968  0.00  0.00    -0.097 F 
ATOM      8  F1  UNL d   1      -5.984   1.908  -5.991  0.00  0.00    -0.096 F 
ATOM      9  I   UNL d   1      -3.944  -0.557  -5.984  0.00  0.00    -0.060 I 
ATOM     10  F2  UNL d   1      -1.278   1.213  -5.941  0.00  0.00    -0.096 F 
ATOM     11  F3  UNL d   1      -0.899   3.894  -5.917  0.00  0.00    -0.097 F 
ATOM     12  F4  UNL d   1      -3.036   5.590  -5.930  0.00  0.00    -0.092 F 
ENDROOT
TORSDOF 0
ENDMDL
