MODEL 1
REMARK minimizedAffinity 9.9514904
REMARK minimizedRMSD -1
REMARK  0 active torsions:
REMARK  status: ('A' for Active; 'I' for Inactive)
ROOT
ATOM      1  C   UNL d   1       3.084  -1.262  -1.850  0.00  0.00     0.124 A 
ATOM      2  C1  UNL d   1       1.810  -1.542  -2.325  0.00  0.00     0.062 A 
ATOM      3  C2  UNL d   1       0.728  -0.760  -1.931  0.00  0.00     0.162 A 
ATOM      4  C3  UNL d   1       0.915   0.310  -1.056  0.00  0.00    -0.034 A 
ATOM      5  C4  UNL d   1       2.199   0.585  -0.581  0.00  0.00     0.162 A 
ATOM      6  C5  UNL d   1       3.277  -0.199  -0.979  0.00  0.00     0.062 A 
ATOM      7  F   UNL d   1       4.507   0.073  -0.518  0.00  0.00    -0.097 F 
ATOM      8  F1  UNL d   1       2.414   1.606   0.261  0.00  0.00    -0.096 F 
ATOM      9  I   UNL d   1      -0.700   1.481  -0.463  0.00  0.00    -0.060 I 
ATOM     10  F2  UNL d   1      -0.491  -1.054  -2.406  0.00  0.00    -0.096 F 
ATOM     11  F3  UNL d   1       1.621  -2.568  -3.167  0.00  0.00    -0.097 F 
ATOM     12  F4  UNL d   1       4.123  -2.016  -2.231  0.00  0.00    -0.092 F 
ENDROOT
TORSDOF 0
ENDMDL
