MODEL 1
REMARK minimizedAffinity 1.43414509
REMARK minimizedRMSD -1
REMARK  0 active torsions:
REMARK  status: ('A' for Active; 'I' for Inactive)
ROOT
ATOM      1  C   UNL d   1      -2.942  -4.171  -5.985  0.00  0.00     0.124 A 
ATOM      2  C1  UNL d   1      -1.988  -3.163  -5.984  0.00  0.00     0.062 A 
ATOM      3  C2  UNL d   1      -2.381  -1.828  -5.988  0.00  0.00     0.162 A 
ATOM      4  C3  UNL d   1      -3.735  -1.493  -5.993  0.00  0.00    -0.034 A 
ATOM      5  C4  UNL d   1      -4.689  -2.512  -5.995  0.00  0.00     0.162 A 
ATOM      6  C5  UNL d   1      -4.291  -3.845  -5.991  0.00  0.00     0.062 A 
ATOM      7  F   UNL d   1      -5.214  -4.818  -5.992  0.00  0.00    -0.097 F 
ATOM      8  F1  UNL d   1      -5.999  -2.225  -5.999  0.00  0.00    -0.096 F 
ATOM      9  I   UNL d   1      -4.327   0.503  -6.000  0.00  0.00    -0.060 I 
ATOM     10  F2  UNL d   1      -1.438  -0.874  -5.987  0.00  0.00    -0.096 F 
ATOM     11  F3  UNL d   1      -0.684  -3.475  -5.980  0.00  0.00    -0.097 F 
ATOM     12  F4  UNL d   1      -2.561  -5.455  -5.982  0.00  0.00    -0.092 F 
ENDROOT
TORSDOF 0
ENDMDL
