MODEL 1
REMARK minimizedAffinity 0.0174492914
REMARK minimizedRMSD -1
REMARK  0 active torsions:
REMARK  status: ('A' for Active; 'I' for Inactive)
ROOT
ATOM      1  C   UNL d   1      -2.361   2.737  -5.998  0.00  0.00     0.124 A 
ATOM      2  C1  UNL d   1      -2.081   1.377  -5.999  0.00  0.00     0.062 A 
ATOM      3  C2  UNL d   1      -3.118   0.449  -5.999  0.00  0.00     0.162 A 
ATOM      4  C3  UNL d   1      -4.445   0.876  -5.999  0.00  0.00    -0.034 A 
ATOM      5  C4  UNL d   1      -4.720   2.245  -5.998  0.00  0.00     0.162 A 
ATOM      6  C5  UNL d   1      -3.680   3.169  -5.998  0.00  0.00     0.062 A 
ATOM      7  F   UNL d   1      -3.953   4.482  -5.997  0.00  0.00    -0.097 F 
ATOM      8  F1  UNL d   1      -5.985   2.691  -5.998  0.00  0.00    -0.096 F 
ATOM      9  I   UNL d   1      -5.999  -0.509  -5.999  0.00  0.00    -0.060 I 
ATOM     10  F2  UNL d   1      -2.817  -0.859  -6.000  0.00  0.00    -0.096 F 
ATOM     11  F3  UNL d   1      -0.808   0.957  -5.999  0.00  0.00    -0.097 F 
ATOM     12  F4  UNL d   1      -1.362   3.628  -5.998  0.00  0.00    -0.092 F 
ENDROOT
TORSDOF 0
ENDMDL
