MODEL 1
REMARK minimizedAffinity 16.9168339
REMARK minimizedRMSD -1
REMARK  0 active torsions:
REMARK  status: ('A' for Active; 'I' for Inactive)
ROOT
ATOM      1  C   UNL d   1      -2.622   1.863  -4.701  0.00  0.00     0.124 A 
ATOM      2  C1  UNL d   1      -3.879   2.213  -5.174  0.00  0.00     0.062 A 
ATOM      3  C2  UNL d   1      -4.787   1.225  -5.545  0.00  0.00     0.162 A 
ATOM      4  C3  UNL d   1      -4.442  -0.122  -5.443  0.00  0.00    -0.034 A 
ATOM      5  C4  UNL d   1      -3.176  -0.466  -4.967  0.00  0.00     0.162 A 
ATOM      6  C5  UNL d   1      -2.272   0.524  -4.598  0.00  0.00     0.062 A 
ATOM      7  F   UNL d   1      -1.058   0.185  -4.141  0.00  0.00    -0.097 F 
ATOM      8  F1  UNL d   1      -2.811  -1.752  -4.856  0.00  0.00    -0.096 F 
ATOM      9  I   UNL d   1      -5.797  -1.602  -5.996  0.00  0.00    -0.060 I 
ATOM     10  F2  UNL d   1      -5.995   1.592  -5.999  0.00  0.00    -0.096 F 
ATOM     11  F3  UNL d   1      -4.220   3.506  -5.276  0.00  0.00    -0.097 F 
ATOM     12  F4  UNL d   1      -1.750   2.815  -4.346  0.00  0.00    -0.092 F 
ENDROOT
TORSDOF 0
ENDMDL
