MODEL 1
REMARK minimizedAffinity 1.78178167
REMARK minimizedRMSD -1
REMARK  0 active torsions:
REMARK  status: ('A' for Active; 'I' for Inactive)
ROOT
ATOM      1  C   UNL d   1      -3.651   0.950  -5.458  0.00  0.00     0.124 A 
ATOM      2  C1  UNL d   1      -2.453   1.649  -5.402  0.00  0.00     0.062 A 
ATOM      3  C2  UNL d   1      -2.443   3.033  -5.548  0.00  0.00     0.162 A 
ATOM      4  C3  UNL d   1      -3.635   3.728  -5.750  0.00  0.00    -0.034 A 
ATOM      5  C4  UNL d   1      -4.836   3.019  -5.806  0.00  0.00     0.162 A 
ATOM      6  C5  UNL d   1      -4.841   1.635  -5.660  0.00  0.00     0.062 A 
ATOM      7  F   UNL d   1      -5.999   0.962  -5.714  0.00  0.00    -0.097 F 
ATOM      8  F1  UNL d   1      -6.000   3.656  -5.999  0.00  0.00    -0.096 F 
ATOM      9  I   UNL d   1      -3.623   5.798  -5.969  0.00  0.00    -0.060 I 
ATOM     10  F2  UNL d   1      -1.270   3.682  -5.490  0.00  0.00    -0.096 F 
ATOM     11  F3  UNL d   1      -1.302   0.989  -5.208  0.00  0.00    -0.097 F 
ATOM     12  F4  UNL d   1      -3.658  -0.382  -5.318  0.00  0.00    -0.092 F 
ENDROOT
TORSDOF 0
ENDMDL
