MODEL 1
REMARK minimizedAffinity 5.11313009
REMARK minimizedRMSD -1
REMARK  0 active torsions:
REMARK  status: ('A' for Active; 'I' for Inactive)
ROOT
ATOM      1  C   UNL d   1      -3.479   3.657  -5.964  0.00  0.00     0.124 A 
ATOM      2  C1  UNL d   1      -4.715   3.024  -5.963  0.00  0.00     0.062 A 
ATOM      3  C2  UNL d   1      -4.789   1.634  -5.974  0.00  0.00     0.162 A 
ATOM      4  C3  UNL d   1      -3.624   0.867  -5.984  0.00  0.00    -0.034 A 
ATOM      5  C4  UNL d   1      -2.385   1.511  -5.985  0.00  0.00     0.162 A 
ATOM      6  C5  UNL d   1      -2.316   2.900  -5.975  0.00  0.00     0.062 A 
ATOM      7  F   UNL d   1      -1.122   3.510  -5.976  0.00  0.00    -0.097 F 
ATOM      8  F1  UNL d   1      -1.245   0.804  -5.995  0.00  0.00    -0.096 F 
ATOM      9  I   UNL d   1      -3.730  -1.211  -5.999  0.00  0.00    -0.060 I 
ATOM     10  F2  UNL d   1      -5.996   1.049  -5.972  0.00  0.00    -0.096 F 
ATOM     11  F3  UNL d   1      -5.840   3.753  -5.953  0.00  0.00    -0.097 F 
ATOM     12  F4  UNL d   1      -3.411   4.994  -5.955  0.00  0.00    -0.092 F 
ENDROOT
TORSDOF 0
ENDMDL
