MODEL 1
REMARK minimizedAffinity 4.1639657
REMARK minimizedRMSD -1
REMARK  0 active torsions:
REMARK  status: ('A' for Active; 'I' for Inactive)
ROOT
ATOM      1  C   UNL d   1      -3.639   3.286  -5.785  0.00  0.00     0.124 A 
ATOM      2  C1  UNL d   1      -2.434   2.596  -5.782  0.00  0.00     0.062 A 
ATOM      3  C2  UNL d   1      -2.424   1.206  -5.843  0.00  0.00     0.162 A 
ATOM      4  C3  UNL d   1      -3.622   0.495  -5.909  0.00  0.00    -0.034 A 
ATOM      5  C4  UNL d   1      -4.830   1.195  -5.910  0.00  0.00     0.162 A 
ATOM      6  C5  UNL d   1      -4.835   2.585  -5.849  0.00  0.00     0.062 A 
ATOM      7  F   UNL d   1      -6.000   3.250  -5.853  0.00  0.00    -0.097 F 
ATOM      8  F1  UNL d   1      -6.000   0.543  -5.973  0.00  0.00    -0.096 F 
ATOM      9  I   UNL d   1      -3.610  -1.584  -6.000  0.00  0.00    -0.060 I 
ATOM     10  F2  UNL d   1      -1.245   0.566  -5.838  0.00  0.00    -0.096 F 
ATOM     11  F3  UNL d   1      -1.278   3.271  -5.718  0.00  0.00    -0.097 F 
ATOM     12  F4  UNL d   1      -3.647   4.624  -5.725  0.00  0.00    -0.092 F 
ENDROOT
TORSDOF 0
ENDMDL
