MODEL 1
REMARK minimizedAffinity 10.678484
REMARK minimizedRMSD -1
REMARK  0 active torsions:
REMARK  status: ('A' for Active; 'I' for Inactive)
ROOT
ATOM      1  C   UNL d   1      -4.882   2.091  -5.660  0.00  0.00     0.124 A 
ATOM      2  C1  UNL d   1      -3.740   2.798  -5.310  0.00  0.00     0.062 A 
ATOM      3  C2  UNL d   1      -2.576   2.119  -4.958  0.00  0.00     0.162 A 
ATOM      4  C3  UNL d   1      -2.549   0.725  -4.955  0.00  0.00    -0.034 A 
ATOM      5  C4  UNL d   1      -3.701   0.020  -5.307  0.00  0.00     0.162 A 
ATOM      6  C5  UNL d   1      -4.862   0.703  -5.658  0.00  0.00     0.062 A 
ATOM      7  F   UNL d   1      -5.964   0.018  -5.996  0.00  0.00    -0.097 F 
ATOM      8  F1  UNL d   1      -3.710  -1.321  -5.315  0.00  0.00    -0.096 F 
ATOM      9  I   UNL d   1      -0.811  -0.294  -4.430  0.00  0.00    -0.060 I 
ATOM     10  F2  UNL d   1      -1.488   2.828  -4.625  0.00  0.00    -0.096 F 
ATOM     11  F3  UNL d   1      -3.757   4.139  -5.310  0.00  0.00    -0.097 F 
ATOM     12  F4  UNL d   1      -6.000   2.746  -5.997  0.00  0.00    -0.092 F 
ENDROOT
TORSDOF 0
ENDMDL
