MODEL 1
REMARK minimizedAffinity 8.72789955
REMARK minimizedRMSD -1
REMARK  0 active torsions:
REMARK  status: ('A' for Active; 'I' for Inactive)
ROOT
ATOM      1  C   UNL d   1      -3.633   2.695   4.114  0.00  0.00     0.124 A 
ATOM      2  C1  UNL d   1      -4.636   1.769   4.369  0.00  0.00     0.062 A 
ATOM      3  C2  UNL d   1      -4.895   0.749   3.459  0.00  0.00     0.162 A 
ATOM      4  C3  UNL d   1      -4.149   0.647   2.285  0.00  0.00    -0.034 A 
ATOM      5  C4  UNL d   1      -3.143   1.581   2.034  0.00  0.00     0.162 A 
ATOM      6  C5  UNL d   1      -2.888   2.600   2.947  0.00  0.00     0.062 A 
ATOM      7  F   UNL d   1      -1.919   3.493   2.699  0.00  0.00    -0.097 F 
ATOM      8  F1  UNL d   1      -2.407   1.513   0.915  0.00  0.00    -0.096 F 
ATOM      9  I   UNL d   1      -4.534  -0.878   0.922  0.00  0.00    -0.060 I 
ATOM     10  F2  UNL d   1      -5.870  -0.131   3.732  0.00  0.00    -0.096 F 
ATOM     11  F3  UNL d   1      -5.358   1.859   5.496  0.00  0.00    -0.097 F 
ATOM     12  F4  UNL d   1      -3.387   3.676   4.991  0.00  0.00    -0.092 F 
ENDROOT
TORSDOF 0
ENDMDL
