MODEL 1
REMARK minimizedAffinity -0.336246133
REMARK minimizedRMSD -1
REMARK  0 active torsions:
REMARK  status: ('A' for Active; 'I' for Inactive)
ROOT
ATOM      1  N1  IND d   1       0.583  -1.606   0.364  0.00  0.00    -0.196 N 
ATOM      2  C2  IND d   1       0.110  -1.785  -0.906  0.00  0.00     0.054 A 
ATOM      3  C3  IND d   1      -0.679  -0.747  -1.265  0.00  0.00    -0.031 A 
ATOM      4  C4  IND d   1      -1.249   1.401   0.036  0.00  0.00     0.051 A 
ATOM      5  C5  IND d   1      -1.080   1.999   1.253  0.00  0.00    -0.031 A 
ATOM      6  C6  IND d   1      -0.332   1.417   2.255  0.00  0.00     0.015 A 
ATOM      7  C7  IND d   1       0.289   0.213   2.073  0.00  0.00    -0.016 A 
ATOM      8  C8  IND d   1       0.114  -0.401   0.841  0.00  0.00    -0.047 A 
ATOM      9  C9  IND d   1      -0.679   0.165  -0.165  0.00  0.00    -0.096 A 
ATOM     10  HN1 IND d   1       1.088  -2.153   0.793  0.00  0.00     0.298 HD
ENDROOT
TORSDOF 0
ENDMDL
