MODEL 1
REMARK minimizedAffinity -5.51827812
REMARK minimizedRMSD -1
REMARK  0 active torsions:
REMARK  status: ('A' for Active; 'I' for Inactive)
ROOT
ATOM      1  N1  IND d   1       0.272   0.368  -1.097  0.00  0.00    -0.196 N 
ATOM      2  C2  IND d   1       0.618  -0.574  -0.169  0.00  0.00     0.054 A 
ATOM      3  C3  IND d   1       0.250  -0.173   1.068  0.00  0.00    -0.031 A 
ATOM      4  C4  IND d   1      -1.023   1.945   1.790  0.00  0.00     0.051 A 
ATOM      5  C5  IND d   1      -1.520   3.121   1.303  0.00  0.00    -0.031 A 
ATOM      6  C6  IND d   1      -1.447   3.445  -0.036  0.00  0.00     0.015 A 
ATOM      7  C7  IND d   1      -0.881   2.596  -0.944  0.00  0.00    -0.016 A 
ATOM      8  C8  IND d   1      -0.368   1.404  -0.452  0.00  0.00    -0.047 A 
ATOM      9  C9  IND d   1      -0.402   1.089   0.912  0.00  0.00    -0.096 A 
ATOM     10  HN1 IND d   1       0.428   0.322  -1.941  0.00  0.00     0.298 HD
ENDROOT
TORSDOF 0
ENDMDL
