MODEL 1
REMARK minimizedAffinity -5.99485731
REMARK minimizedRMSD -1
REMARK  0 active torsions:
REMARK  status: ('A' for Active; 'I' for Inactive)
ROOT
ATOM      1  N1  IND d   1       0.030   0.519  -1.454  0.00  0.00    -0.196 N 
ATOM      2  C2  IND d   1       0.714  -0.431  -0.749  0.00  0.00     0.054 A 
ATOM      3  C3  IND d   1       0.672  -0.156   0.574  0.00  0.00    -0.031 A 
ATOM      4  C4  IND d   1      -0.547   1.744   1.812  0.00  0.00     0.051 A 
ATOM      5  C5  IND d   1      -1.274   2.880   1.592  0.00  0.00    -0.031 A 
ATOM      6  C6  IND d   1      -1.613   3.294   0.320  0.00  0.00     0.015 A 
ATOM      7  C7  IND d   1      -1.245   2.578  -0.784  0.00  0.00    -0.016 A 
ATOM      8  C8  IND d   1      -0.500   1.428  -0.565  0.00  0.00    -0.047 A 
ATOM      9  C9  IND d   1      -0.117   1.025   0.721  0.00  0.00    -0.096 A 
ATOM     10  HN1 IND d   1      -0.054   0.546  -2.309  0.00  0.00     0.298 HD
ENDROOT
TORSDOF 0
ENDMDL
