MODEL 1
REMARK minimizedAffinity -5.53633118
REMARK minimizedRMSD -1
REMARK  0 active torsions:
REMARK  status: ('A' for Active; 'I' for Inactive)
ROOT
ATOM      1  N1  IND d   1       0.262   0.852  -2.001  0.00  0.00    -0.196 N 
ATOM      2  C2  IND d   1       0.600  -0.439  -1.706  0.00  0.00     0.054 A 
ATOM      3  C3  IND d   1       0.472  -0.668  -0.380  0.00  0.00    -0.031 A 
ATOM      4  C4  IND d   1      -0.373   0.903   1.476  0.00  0.00     0.051 A 
ATOM      5  C5  IND d   1      -0.764   2.194   1.700  0.00  0.00    -0.031 A 
ATOM      6  C6  IND d   1      -0.837   3.121   0.680  0.00  0.00     0.015 A 
ATOM      7  C7  IND d   1      -0.531   2.788  -0.609  0.00  0.00    -0.016 A 
ATOM      8  C8  IND d   1      -0.127   1.480  -0.839  0.00  0.00    -0.047 A 
ATOM      9  C9  IND d   1      -0.011   0.546   0.199  0.00  0.00    -0.096 A 
ATOM     10  HN1 IND d   1       0.288   1.212  -2.782  0.00  0.00     0.298 HD
ENDROOT
TORSDOF 0
ENDMDL
