MODEL 1
REMARK minimizedAffinity -6.33739138
REMARK minimizedRMSD -1
REMARK  0 active torsions:
REMARK  status: ('A' for Active; 'I' for Inactive)
ROOT
ATOM      1  N1  IND d   1       0.487   1.169  -1.775  0.00  0.00    -0.196 N 
ATOM      2  C2  IND d   1       0.865  -0.059  -1.308  0.00  0.00     0.054 A 
ATOM      3  C3  IND d   1       0.697  -0.124   0.032  0.00  0.00    -0.031 A 
ATOM      4  C4  IND d   1      -0.279   1.628   1.645  0.00  0.00     0.051 A 
ATOM      5  C5  IND d   1      -0.729   2.918   1.691  0.00  0.00    -0.031 A 
ATOM      6  C6  IND d   1      -0.801   3.706   0.560  0.00  0.00     0.015 A 
ATOM      7  C7  IND d   1      -0.434   3.227  -0.666  0.00  0.00    -0.016 A 
ATOM      8  C8  IND d   1       0.030   1.920  -0.715  0.00  0.00    -0.047 A 
ATOM      9  C9  IND d   1       0.145   1.130   0.436  0.00  0.00    -0.096 A 
ATOM     10  HN1 IND d   1       0.528   1.428  -2.594  0.00  0.00     0.298 HD
ENDROOT
TORSDOF 0
ENDMDL
