MODEL 1
REMARK minimizedAffinity -4.9933176
REMARK minimizedRMSD -1
REMARK  0 active torsions:
REMARK  status: ('A' for Active; 'I' for Inactive)
ROOT
ATOM      1  N1  IND d   1       0.304   0.479  -0.982  0.00  0.00    -0.196 N 
ATOM      2  C2  IND d   1       0.392  -0.517  -0.049  0.00  0.00     0.054 A 
ATOM      3  C3  IND d   1      -0.133  -0.107   1.127  0.00  0.00    -0.031 A 
ATOM      4  C4  IND d   1      -1.282   2.120   1.718  0.00  0.00     0.051 A 
ATOM      5  C5  IND d   1      -1.567   3.354   1.205  0.00  0.00    -0.031 A 
ATOM      6  C6  IND d   1      -1.238   3.699  -0.090  0.00  0.00     0.015 A 
ATOM      7  C7  IND d   1      -0.620   2.814  -0.928  0.00  0.00    -0.016 A 
ATOM      8  C8  IND d   1      -0.323   1.563  -0.408  0.00  0.00    -0.047 A 
ATOM      9  C9  IND d   1      -0.615   1.221   0.919  0.00  0.00    -0.096 A 
ATOM     10  HN1 IND d   1       0.593   0.435  -1.791  0.00  0.00     0.298 HD
ENDROOT
TORSDOF 0
ENDMDL
