MODEL 1
REMARK minimizedAffinity 4.00341177
REMARK minimizedRMSD -1
REMARK  0 active torsions:
REMARK  status: ('A' for Active; 'I' for Inactive)
ROOT
ATOM      1  C1  BNZ d   1       0.316  -3.016   2.069  0.00  0.00     0.000 A 
ATOM      2  C2  BNZ d   1       1.503  -3.659   1.839  0.00  0.00     0.000 A 
ATOM      3  C3  BNZ d   1       2.476  -3.079   1.075  0.00  0.00     0.000 A 
ATOM      4  C4  BNZ d   1       2.247  -1.877   0.509  0.00  0.00     0.000 A 
ATOM      5  C5  BNZ d   1       1.051  -1.220   0.723  0.00  0.00     0.000 A 
ATOM      6  C6  BNZ d   1       0.089  -1.789   1.525  0.00  0.00     0.000 A 
ENDROOT
TORSDOF 0
ENDMDL
