MODEL 1
REMARK minimizedAffinity 2.96951795
REMARK minimizedRMSD -1
REMARK  0 active torsions:
REMARK  status: ('A' for Active; 'I' for Inactive)
ROOT
ATOM      1  C1  BNZ d   1       3.457   3.633  -5.933  0.00  0.00     0.000 A 
ATOM      2  C2  BNZ d   1       4.826   3.654  -5.898  0.00  0.00     0.000 A 
ATOM      3  C3  BNZ d   1       5.508   4.839  -5.885  0.00  0.00     0.000 A 
ATOM      4  C4  BNZ d   1       4.823   5.999  -5.947  0.00  0.00     0.000 A 
ATOM      5  C5  BNZ d   1       3.443   5.994  -5.992  0.00  0.00     0.000 A 
ATOM      6  C6  BNZ d   1       2.759   4.800  -5.966  0.00  0.00     0.000 A 
ENDROOT
TORSDOF 0
ENDMDL
