MODEL 1
REMARK minimizedAffinity 5.79685736
REMARK minimizedRMSD -1
REMARK  0 active torsions:
REMARK  status: ('A' for Active; 'I' for Inactive)
ROOT
ATOM      1  C1  BNZ d   1       1.850  -1.599   2.870  0.00  0.00     0.000 A 
ATOM      2  C2  BNZ d   1       2.782  -2.323   2.175  0.00  0.00     0.000 A 
ATOM      3  C3  BNZ d   1       2.417  -3.088   1.103  0.00  0.00     0.000 A 
ATOM      4  C4  BNZ d   1       1.117  -3.162   0.753  0.00  0.00     0.000 A 
ATOM      5  C5  BNZ d   1       0.164  -2.446   1.450  0.00  0.00     0.000 A 
ATOM      6  C6  BNZ d   1       0.540  -1.645   2.503  0.00  0.00     0.000 A 
ENDROOT
TORSDOF 0
ENDMDL
