MODEL 1
REMARK minimizedAffinity 2.17865515
REMARK minimizedRMSD -1
REMARK  0 active torsions:
REMARK  status: ('A' for Active; 'I' for Inactive)
ROOT
ATOM      1  C1  BNZ d   1       1.091  -1.885   0.862  0.00  0.00     0.000 A 
ATOM      2  C2  BNZ d   1       0.808  -3.145   0.407  0.00  0.00     0.000 A 
ATOM      3  C3  BNZ d   1       1.767  -4.119   0.404  0.00  0.00     0.000 A 
ATOM      4  C4  BNZ d   1       3.016  -3.822   0.817  0.00  0.00     0.000 A 
ATOM      5  C5  BNZ d   1       3.319  -2.553   1.270  0.00  0.00     0.000 A 
ATOM      6  C6  BNZ d   1       2.341  -1.586   1.308  0.00  0.00     0.000 A 
ENDROOT
TORSDOF 0
ENDMDL
