MODEL 1
REMARK minimizedAffinity 7.46961451
REMARK minimizedRMSD -1
REMARK  0 active torsions:
REMARK  status: ('A' for Active; 'I' for Inactive)
ROOT
ATOM      1  C1  BNZ d   1      -0.430   2.679  -3.746  0.00  0.00     0.000 A 
ATOM      2  C2  BNZ d   1      -0.374   1.888  -2.629  0.00  0.00     0.000 A 
ATOM      3  C3  BNZ d   1      -1.516   1.505  -1.984  0.00  0.00     0.000 A 
ATOM      4  C4  BNZ d   1      -2.710   1.947  -2.430  0.00  0.00     0.000 A 
ATOM      5  C5  BNZ d   1      -2.783   2.753  -3.549  0.00  0.00     0.000 A 
ATOM      6  C6  BNZ d   1      -1.633   3.103  -4.220  0.00  0.00     0.000 A 
ENDROOT
TORSDOF 0
ENDMDL
