MODEL 1
REMARK minimizedAffinity 3.8565495
REMARK minimizedRMSD -1
REMARK  0 active torsions:
REMARK  status: ('A' for Active; 'I' for Inactive)
ROOT
ATOM      1  C1  BNZ d   1       0.170   3.652  -4.952  0.00  0.00     0.000 A 
ATOM      2  C2  BNZ d   1      -0.558   3.882  -3.815  0.00  0.00     0.000 A 
ATOM      3  C3  BNZ d   1      -1.528   3.007  -3.415  0.00  0.00     0.000 A 
ATOM      4  C4  BNZ d   1      -1.798   1.925  -4.174  0.00  0.00     0.000 A 
ATOM      5  C5  BNZ d   1      -1.080   1.683  -5.328  0.00  0.00     0.000 A 
ATOM      6  C6  BNZ d   1      -0.077   2.546  -5.706  0.00  0.00     0.000 A 
ENDROOT
TORSDOF 0
ENDMDL
