MODEL 1
REMARK minimizedAffinity -5.11686373
REMARK minimizedRMSD -1
REMARK  2 active torsions:
REMARK  status: ('A' for Active; 'I' for Inactive)
REMARK    1  A    between atoms: C1_2  and  C2_3 
REMARK    2  A    between atoms: C2_3  and  C3_4 
ROOT
ATOM      1  C3  UNL d   1       0.168   0.248  -0.114  0.00  0.00    -0.075 A 
ATOM      2  C4  UNL d   1      -1.052  -0.441  -0.053  0.00  0.00     0.002 A 
ATOM      3  C5  UNL d   1      -1.167  -1.613   0.694  0.00  0.00     0.002 A 
ATOM      4  C6  UNL d   1      -0.064  -2.118   1.379  0.00  0.00    -0.004 A 
ATOM      5  C7  UNL d   1       1.158  -1.451   1.312  0.00  0.00     0.002 A 
ATOM      6  C8  UNL d   1       1.274  -0.275   0.569  0.00  0.00     0.002 A 
ENDROOT
BRANCH   1   7
ATOM      7  C2  UNL d   1       0.292   1.533  -0.897  0.00  0.00     0.056 C 
BRANCH   7   8
ATOM      8  C1  UNL d   1       1.495   1.573  -1.844  0.00  0.00     0.007 C 
ATOM      9  C   UNL d   1       1.220   2.338  -3.132  0.00  0.00     0.009 C 
ENDBRANCH   7   8
ENDBRANCH   1   7
TORSDOF 2
ENDMDL
