MODEL 1
REMARK minimizedAffinity -4.40552044
REMARK minimizedRMSD -1
REMARK  2 active torsions:
REMARK  status: ('A' for Active; 'I' for Inactive)
REMARK    1  A    between atoms: C1_2  and  C2_3 
REMARK    2  A    between atoms: C2_3  and  C3_4 
ROOT
ATOM      1  C3  UNL d   1      -0.078   0.405  -0.462  0.00  0.00    -0.075 A 
ATOM      2  C4  UNL d   1       0.519  -0.803  -0.071  0.00  0.00     0.002 A 
ATOM      3  C5  UNL d   1      -0.231  -1.787   0.574  0.00  0.00     0.002 A 
ATOM      4  C6  UNL d   1      -1.581  -1.572   0.846  0.00  0.00    -0.004 A 
ATOM      5  C7  UNL d   1      -2.179  -0.370   0.476  0.00  0.00     0.002 A 
ATOM      6  C8  UNL d   1      -1.433   0.615  -0.173  0.00  0.00     0.002 A 
ENDROOT
BRANCH   1   7
ATOM      7  C2  UNL d   1       0.721   1.462  -1.187  0.00  0.00     0.056 C 
BRANCH   7   8
ATOM      8  C1  UNL d   1       0.139   1.858  -2.549  0.00  0.00     0.007 C 
ATOM      9  C   UNL d   1       1.043   1.488  -3.718  0.00  0.00     0.009 C 
ENDBRANCH   7   8
ENDBRANCH   1   7
TORSDOF 2
ENDMDL
