MODEL 1
REMARK minimizedAffinity -5.47102928
REMARK minimizedRMSD -1
REMARK  2 active torsions:
REMARK  status: ('A' for Active; 'I' for Inactive)
REMARK    1  A    between atoms: C1_2  and  C2_3 
REMARK    2  A    between atoms: C2_3  and  C3_4 
ROOT
ATOM      1  C3  UNL d   1      -0.341  -0.414   0.165  0.00  0.00    -0.075 A 
ATOM      2  C4  UNL d   1      -1.477   0.009   0.870  0.00  0.00     0.002 A 
ATOM      3  C5  UNL d   1      -2.255  -0.909   1.575  0.00  0.00     0.002 A 
ATOM      4  C6  UNL d   1      -1.915  -2.260   1.576  0.00  0.00    -0.004 A 
ATOM      5  C7  UNL d   1      -0.797  -2.694   0.866  0.00  0.00     0.002 A 
ATOM      6  C8  UNL d   1      -0.014  -1.777   0.163  0.00  0.00     0.002 A 
ENDROOT
BRANCH   1   7
ATOM      7  C2  UNL d   1       0.522   0.579  -0.577  0.00  0.00     0.056 C 
BRANCH   7   8
ATOM      8  C1  UNL d   1       0.183   0.711  -2.065  0.00  0.00     0.007 C 
ATOM      9  C   UNL d   1       1.241   1.469  -2.857  0.00  0.00     0.009 C 
ENDBRANCH   7   8
ENDBRANCH   1   7
TORSDOF 2
ENDMDL
