MODEL 1
REMARK minimizedAffinity -4.25205088
REMARK minimizedRMSD -1
REMARK  2 active torsions:
REMARK  status: ('A' for Active; 'I' for Inactive)
REMARK    1  A    between atoms: C1_2  and  C2_3 
REMARK    2  A    between atoms: C2_3  and  C3_4 
ROOT
ATOM      1  C3  UNL d   1       0.134   0.268  -0.164  0.00  0.00    -0.075 A 
ATOM      2  C4  UNL d   1      -1.210  -0.102  -0.008  0.00  0.00     0.002 A 
ATOM      3  C5  UNL d   1      -1.545  -1.378   0.445  0.00  0.00     0.002 A 
ATOM      4  C6  UNL d   1      -0.545  -2.302   0.738  0.00  0.00    -0.004 A 
ATOM      5  C7  UNL d   1       0.793  -1.951   0.570  0.00  0.00     0.002 A 
ATOM      6  C8  UNL d   1       1.132  -0.673   0.121  0.00  0.00     0.002 A 
ENDROOT
BRANCH   1   7
ATOM      7  C2  UNL d   1       0.505   1.657  -0.626  0.00  0.00     0.056 C 
BRANCH   7   8
ATOM      8  C1  UNL d   1       1.065   1.712  -2.051  0.00  0.00     0.007 C 
ATOM      9  C   UNL d   1       0.170   2.474  -3.019  0.00  0.00     0.009 C 
ENDBRANCH   7   8
ENDBRANCH   1   7
TORSDOF 2
ENDMDL
