MODEL 1
REMARK minimizedAffinity -3.40057659
REMARK minimizedRMSD -1
REMARK  2 active torsions:
REMARK  status: ('A' for Active; 'I' for Inactive)
REMARK    1  A    between atoms: C1_2  and  C2_3 
REMARK    2  A    between atoms: C2_3  and  C3_4 
ROOT
ATOM      1  C3  UNL d   1       0.174  -0.117   0.038  0.00  0.00    -0.075 A 
ATOM      2  C4  UNL d   1       0.867  -1.326  -0.117  0.00  0.00     0.002 A 
ATOM      3  C5  UNL d   1       0.306  -2.526   0.320  0.00  0.00     0.002 A 
ATOM      4  C6  UNL d   1      -0.948  -2.532   0.926  0.00  0.00    -0.004 A 
ATOM      5  C7  UNL d   1      -1.639  -1.335   1.101  0.00  0.00     0.002 A 
ATOM      6  C8  UNL d   1      -1.082  -0.133   0.660  0.00  0.00     0.002 A 
ENDROOT
BRANCH   1   7
ATOM      7  C2  UNL d   1       0.763   1.181  -0.460  0.00  0.00     0.056 C 
BRANCH   7   8
ATOM      8  C1  UNL d   1       0.412   1.507  -1.916  0.00  0.00     0.007 C 
ATOM      9  C   UNL d   1       1.623   1.902  -2.750  0.00  0.00     0.009 C 
ENDBRANCH   7   8
ENDBRANCH   1   7
TORSDOF 2
ENDMDL
