MODEL 1
REMARK minimizedAffinity -3.85733461
REMARK minimizedRMSD -1
REMARK  2 active torsions:
REMARK  status: ('A' for Active; 'I' for Inactive)
REMARK    1  A    between atoms: C1_2  and  C2_3 
REMARK    2  A    between atoms: C2_3  and  C3_4 
ROOT
ATOM      1  C3  UNL d   1       0.269   0.619  -0.262  0.00  0.00    -0.075 A 
ATOM      2  C4  UNL d   1       1.134  -0.458  -0.019  0.00  0.00     0.002 A 
ATOM      3  C5  UNL d   1       0.644  -1.655   0.506  0.00  0.00     0.002 A 
ATOM      4  C6  UNL d   1      -0.710  -1.786   0.804  0.00  0.00    -0.004 A 
ATOM      5  C7  UNL d   1      -1.575  -0.717   0.582  0.00  0.00     0.002 A 
ATOM      6  C8  UNL d   1      -1.089   0.480   0.052  0.00  0.00     0.002 A 
ENDROOT
BRANCH   1   7
ATOM      7  C2  UNL d   1       0.787   1.906  -0.859  0.00  0.00     0.056 C 
BRANCH   7   8
ATOM      8  C1  UNL d   1       0.461   2.080  -2.346  0.00  0.00     0.007 C 
ATOM      9  C   UNL d   1       1.557   2.798  -3.121  0.00  0.00     0.009 C 
ENDBRANCH   7   8
ENDBRANCH   1   7
TORSDOF 2
ENDMDL
