MODEL 1
REMARK minimizedAffinity -4.92789078
REMARK minimizedRMSD -1
REMARK  2 active torsions:
REMARK  status: ('A' for Active; 'I' for Inactive)
REMARK    1  A    between atoms: C1_2  and  C2_3 
REMARK    2  A    between atoms: C2_3  and  C3_4 
ROOT
ATOM      1  C3  UNL d   1       0.969   0.813  -0.517  0.00  0.00    -0.075 A 
ATOM      2  C4  UNL d   1      -0.130   1.685  -0.529  0.00  0.00     0.002 A 
ATOM      3  C5  UNL d   1      -0.190   2.736  -1.444  0.00  0.00     0.002 A 
ATOM      4  C6  UNL d   1       0.850   2.935  -2.350  0.00  0.00    -0.004 A 
ATOM      5  C7  UNL d   1       1.954   2.085  -2.336  0.00  0.00     0.002 A 
ATOM      6  C8  UNL d   1       2.014   1.030  -1.424  0.00  0.00     0.002 A 
ENDROOT
BRANCH   1   7
ATOM      7  C2  UNL d   1       1.026  -0.344   0.452  0.00  0.00     0.056 C 
BRANCH   7   8
ATOM      8  C1  UNL d   1       0.370  -1.627  -0.070  0.00  0.00     0.007 C 
ATOM      9  C   UNL d   1      -0.549  -2.289   0.948  0.00  0.00     0.009 C 
ENDBRANCH   7   8
ENDBRANCH   1   7
TORSDOF 2
ENDMDL
