MODEL 1
REMARK minimizedAffinity -3.59339333
REMARK minimizedRMSD -1
REMARK  2 active torsions:
REMARK  status: ('A' for Active; 'I' for Inactive)
REMARK    1  A    between atoms: C1_2  and  C2_3 
REMARK    2  A    between atoms: C2_3  and  C3_4 
ROOT
ATOM      1  C3  UNL d   1       0.669   0.853  -0.664  0.00  0.00    -0.075 A 
ATOM      2  C4  UNL d   1       1.536  -0.191  -0.308  0.00  0.00     0.002 A 
ATOM      3  C5  UNL d   1       1.038  -1.357   0.274  0.00  0.00     0.002 A 
ATOM      4  C6  UNL d   1      -0.328  -1.490   0.516  0.00  0.00    -0.004 A 
ATOM      5  C7  UNL d   1      -1.195  -0.453   0.181  0.00  0.00     0.002 A 
ATOM      6  C8  UNL d   1      -0.700   0.713  -0.405  0.00  0.00     0.002 A 
ENDROOT
BRANCH   1   7
ATOM      7  C2  UNL d   1       1.198   2.105  -1.322  0.00  0.00     0.056 C 
BRANCH   7   8
ATOM      8  C1  UNL d   1       0.767   2.273  -2.782  0.00  0.00     0.007 C 
ATOM      9  C   UNL d   1       1.450   1.293  -3.727  0.00  0.00     0.009 C 
ENDBRANCH   7   8
ENDBRANCH   1   7
TORSDOF 2
ENDMDL
