MODEL 1
REMARK minimizedAffinity -4.13801146
REMARK minimizedRMSD -1
REMARK  2 active torsions:
REMARK  status: ('A' for Active; 'I' for Inactive)
REMARK    1  A    between atoms: C1_2  and  C2_3 
REMARK    2  A    between atoms: C2_3  and  C3_4 
ROOT
ATOM      1  C3  UNL d   1       0.025  -0.017  -0.147  0.00  0.00    -0.075 A 
ATOM      2  C4  UNL d   1      -1.373  -0.051  -0.251  0.00  0.00     0.002 A 
ATOM      3  C5  UNL d   1      -2.100  -1.101   0.311  0.00  0.00     0.002 A 
ATOM      4  C6  UNL d   1      -1.439  -2.133   0.974  0.00  0.00    -0.004 A 
ATOM      5  C7  UNL d   1      -0.049  -2.118   1.069  0.00  0.00     0.002 A 
ATOM      6  C8  UNL d   1       0.680  -1.066   0.511  0.00  0.00     0.002 A 
ENDROOT
BRANCH   1   7
ATOM      7  C2  UNL d   1       0.815   1.132  -0.728  0.00  0.00     0.056 C 
BRANCH   7   8
ATOM      8  C1  UNL d   1       0.453   1.468  -2.178  0.00  0.00     0.007 C 
ATOM      9  C   UNL d   1       1.620   2.043  -2.970  0.00  0.00     0.009 C 
ENDBRANCH   7   8
ENDBRANCH   1   7
TORSDOF 2
ENDMDL
