MODEL 1
REMARK minimizedAffinity -5.21999502
REMARK minimizedRMSD -1
REMARK  2 active torsions:
REMARK  status: ('A' for Active; 'I' for Inactive)
REMARK    1  A    between atoms: C1_2  and  C2_3 
REMARK    2  A    between atoms: C2_3  and  C3_4 
ROOT
ATOM      1  C3  UNL d   1      -0.014   0.225  -0.182  0.00  0.00    -0.075 A 
ATOM      2  C4  UNL d   1       0.608  -1.012   0.039  0.00  0.00     0.002 A 
ATOM      3  C5  UNL d   1      -0.110  -2.079   0.582  0.00  0.00     0.002 A 
ATOM      4  C6  UNL d   1      -1.452  -1.919   0.919  0.00  0.00    -0.004 A 
ATOM      5  C7  UNL d   1      -2.076  -0.689   0.719  0.00  0.00     0.002 A 
ATOM      6  C8  UNL d   1      -1.361   0.378   0.172  0.00  0.00     0.002 A 
ENDROOT
BRANCH   1   7
ATOM      7  C2  UNL d   1       0.749   1.374  -0.796  0.00  0.00     0.056 C 
BRANCH   7   8
ATOM      8  C1  UNL d   1       0.348   1.688  -2.242  0.00  0.00     0.007 C 
ATOM      9  C   UNL d   1       1.466   2.334  -3.048  0.00  0.00     0.009 C 
ENDBRANCH   7   8
ENDBRANCH   1   7
TORSDOF 2
ENDMDL
