MODEL 1
REMARK minimizedAffinity -5.63718748
REMARK minimizedRMSD -1
REMARK  2 active torsions:
REMARK  status: ('A' for Active; 'I' for Inactive)
REMARK    1  A    between atoms: C1_2  and  C2_3 
REMARK    2  A    between atoms: C2_3  and  C3_4 
ROOT
ATOM      1  C3  UNL d   1      -0.126  -0.270   0.103  0.00  0.00    -0.075 A 
ATOM      2  C4  UNL d   1       0.115  -1.645  -0.038  0.00  0.00     0.002 A 
ATOM      3  C5  UNL d   1      -0.779  -2.578   0.487  0.00  0.00     0.002 A 
ATOM      4  C6  UNL d   1      -1.917  -2.151   1.166  0.00  0.00    -0.004 A 
ATOM      5  C7  UNL d   1      -2.158  -0.788   1.327  0.00  0.00     0.002 A 
ATOM      6  C8  UNL d   1      -1.267   0.148   0.799  0.00  0.00     0.002 A 
ENDROOT
BRANCH   1   7
ATOM      7  C2  UNL d   1       0.823   0.745  -0.489  0.00  0.00     0.056 C 
BRANCH   7   8
ATOM      8  C1  UNL d   1       0.433   1.219  -1.893  0.00  0.00     0.007 C 
ATOM      9  C   UNL d   1       1.569   1.918  -2.627  0.00  0.00     0.009 C 
ENDBRANCH   7   8
ENDBRANCH   1   7
TORSDOF 2
ENDMDL
