MODEL 1
REMARK minimizedAffinity -1.32034194
REMARK minimizedRMSD -1
REMARK  2 active torsions:
REMARK  status: ('A' for Active; 'I' for Inactive)
REMARK    1  A    between atoms: C1_2  and  C2_3 
REMARK    2  A    between atoms: C2_3  and  C3_4 
ROOT
ATOM      1  C3  UNL d   1       0.166  -1.688   0.314  0.00  0.00    -0.075 A 
ATOM      2  C4  UNL d   1      -0.794  -2.697   0.472  0.00  0.00     0.002 A 
ATOM      3  C5  UNL d   1      -2.149  -2.378   0.569  0.00  0.00     0.002 A 
ATOM      4  C6  UNL d   1      -2.559  -1.047   0.520  0.00  0.00    -0.004 A 
ATOM      5  C7  UNL d   1      -1.612  -0.035   0.380  0.00  0.00     0.002 A 
ATOM      6  C8  UNL d   1      -0.256  -0.352   0.278  0.00  0.00     0.002 A 
ENDROOT
BRANCH   1   7
ATOM      7  C2  UNL d   1       1.631  -2.029   0.179  0.00  0.00     0.056 C 
BRANCH   7   8
ATOM      8  C1  UNL d   1       2.573  -0.997   0.809  0.00  0.00     0.007 C 
ATOM      9  C   UNL d   1       2.309   0.426   0.333  0.00  0.00     0.009 C 
ENDBRANCH   7   8
ENDBRANCH   1   7
TORSDOF 2
ENDMDL
