MODEL 1
REMARK minimizedAffinity -5.18894386
REMARK minimizedRMSD -1
REMARK  2 active torsions:
REMARK  status: ('A' for Active; 'I' for Inactive)
REMARK    1  A    between atoms: C1_2  and  C2_3 
REMARK    2  A    between atoms: C2_3  and  C3_4 
ROOT
ATOM      1  C3  UNL d   1      -0.741  -0.255   0.377  0.00  0.00    -0.075 A 
ATOM      2  C4  UNL d   1      -0.868  -1.651   0.324  0.00  0.00     0.002 A 
ATOM      3  C5  UNL d   1      -1.929  -2.290   0.966  0.00  0.00     0.002 A 
ATOM      4  C6  UNL d   1      -2.868  -1.545   1.676  0.00  0.00    -0.004 A 
ATOM      5  C7  UNL d   1      -2.742  -0.160   1.749  0.00  0.00     0.002 A 
ATOM      6  C8  UNL d   1      -1.684   0.483   1.104  0.00  0.00     0.002 A 
ENDROOT
BRANCH   1   7
ATOM      7  C2  UNL d   1       0.389   0.445  -0.340  0.00  0.00     0.056 C 
BRANCH   7   8
ATOM      8  C1  UNL d   1      -0.040   1.172  -1.619  0.00  0.00     0.007 C 
ATOM      9  C   UNL d   1       1.127   1.515  -2.535  0.00  0.00     0.009 C 
ENDBRANCH   7   8
ENDBRANCH   1   7
TORSDOF 2
ENDMDL
