MODEL 1
REMARK minimizedAffinity -4.40119171
REMARK minimizedRMSD -1
REMARK  2 active torsions:
REMARK  status: ('A' for Active; 'I' for Inactive)
REMARK    1  A    between atoms: C1_2  and  C2_3 
REMARK    2  A    between atoms: C2_3  and  C3_4 
ROOT
ATOM      1  C3  UNL d   1       0.168   0.259  -0.401  0.00  0.00    -0.075 A 
ATOM      2  C4  UNL d   1      -1.070  -0.327  -0.101  0.00  0.00     0.002 A 
ATOM      3  C5  UNL d   1      -1.133  -1.522   0.617  0.00  0.00     0.002 A 
ATOM      4  C6  UNL d   1       0.039  -2.149   1.034  0.00  0.00    -0.004 A 
ATOM      5  C7  UNL d   1       1.275  -1.584   0.727  0.00  0.00     0.002 A 
ATOM      6  C8  UNL d   1       1.340  -0.387   0.013  0.00  0.00     0.002 A 
ENDROOT
BRANCH   1   7
ATOM      7  C2  UNL d   1       0.241   1.567  -1.153  0.00  0.00     0.056 C 
BRANCH   7   8
ATOM      8  C1  UNL d   1       1.611   1.851  -1.779  0.00  0.00     0.007 C 
ATOM      9  C   UNL d   1       1.525   2.291  -3.234  0.00  0.00     0.009 C 
ENDBRANCH   7   8
ENDBRANCH   1   7
TORSDOF 2
ENDMDL
