MODEL 1
REMARK minimizedAffinity -5.53162336
REMARK minimizedRMSD -1
REMARK  2 active torsions:
REMARK  status: ('A' for Active; 'I' for Inactive)
REMARK    1  A    between atoms: C1_2  and  C2_3 
REMARK    2  A    between atoms: C2_3  and  C3_4 
ROOT
ATOM      1  C3  UNL d   1       0.089   0.435   0.126  0.00  0.00    -0.075 A 
ATOM      2  C4  UNL d   1      -1.239   0.088   0.413  0.00  0.00     0.002 A 
ATOM      3  C5  UNL d   1      -1.562  -1.212   0.803  0.00  0.00     0.002 A 
ATOM      4  C6  UNL d   1      -0.567  -2.182   0.900  0.00  0.00    -0.004 A 
ATOM      5  C7  UNL d   1       0.753  -1.852   0.601  0.00  0.00     0.002 A 
ATOM      6  C8  UNL d   1       1.081  -0.551   0.215  0.00  0.00     0.002 A 
ENDROOT
BRANCH   1   7
ATOM      7  C2  UNL d   1       0.450   1.848  -0.267  0.00  0.00     0.056 C 
BRANCH   7   8
ATOM      8  C1  UNL d   1       1.300   1.943  -1.539  0.00  0.00     0.007 C 
ATOM      9  C   UNL d   1       0.468   2.073  -2.808  0.00  0.00     0.009 C 
ENDBRANCH   7   8
ENDBRANCH   1   7
TORSDOF 2
ENDMDL
