MODEL 1
REMARK minimizedAffinity -4.8699441
REMARK minimizedRMSD -1
REMARK  2 active torsions:
REMARK  status: ('A' for Active; 'I' for Inactive)
REMARK    1  A    between atoms: C1_2  and  C2_3 
REMARK    2  A    between atoms: C2_3  and  C3_4 
ROOT
ATOM      1  C3  UNL d   1       0.002   0.022   0.439  0.00  0.00    -0.075 A 
ATOM      2  C4  UNL d   1      -1.401   0.025   0.468  0.00  0.00     0.002 A 
ATOM      3  C5  UNL d   1      -2.103  -1.117   0.853  0.00  0.00     0.002 A 
ATOM      4  C6  UNL d   1      -1.415  -2.278   1.201  0.00  0.00    -0.004 A 
ATOM      5  C7  UNL d   1      -0.023  -2.297   1.159  0.00  0.00     0.002 A 
ATOM      6  C8  UNL d   1       0.683  -1.154   0.779  0.00  0.00     0.002 A 
ENDROOT
BRANCH   1   7
ATOM      7  C2  UNL d   1       0.769   1.264   0.052  0.00  0.00     0.056 C 
BRANCH   7   8
ATOM      8  C1  UNL d   1       0.727   1.582  -1.446  0.00  0.00     0.007 C 
ATOM      9  C   UNL d   1       2.006   2.233  -1.957  0.00  0.00     0.009 C 
ENDBRANCH   7   8
ENDBRANCH   1   7
TORSDOF 2
ENDMDL
