MODEL 1
REMARK minimizedAffinity -5.23591852
REMARK minimizedRMSD -1
REMARK  2 active torsions:
REMARK  status: ('A' for Active; 'I' for Inactive)
REMARK    1  A    between atoms: C1_2  and  C2_3 
REMARK    2  A    between atoms: C2_3  and  C3_4 
ROOT
ATOM      1  C3  UNL d   1       0.153   0.667  -0.031  0.00  0.00    -0.075 A 
ATOM      2  C4  UNL d   1       0.299  -0.728  -0.019  0.00  0.00     0.002 A 
ATOM      3  C5  UNL d   1      -0.626  -1.531   0.649  0.00  0.00     0.002 A 
ATOM      4  C6  UNL d   1      -1.700  -0.951   1.320  0.00  0.00    -0.004 A 
ATOM      5  C7  UNL d   1      -1.846   0.434   1.329  0.00  0.00     0.002 A 
ATOM      6  C8  UNL d   1      -0.925   1.240   0.657  0.00  0.00     0.002 A 
ENDROOT
BRANCH   1   7
ATOM      7  C2  UNL d   1       1.133   1.540  -0.777  0.00  0.00     0.056 C 
BRANCH   7   8
ATOM      8  C1  UNL d   1       1.186   1.272  -2.284  0.00  0.00     0.007 C 
ATOM      9  C   UNL d   1       1.119   2.541  -3.123  0.00  0.00     0.009 C 
ENDBRANCH   7   8
ENDBRANCH   1   7
TORSDOF 2
ENDMDL
