MODEL 1
REMARK minimizedAffinity -5.10512209
REMARK minimizedRMSD -1
REMARK  1 active torsions:
REMARK  status: ('A' for Active; 'I' for Inactive)
REMARK    1  A    between atoms: C1_2  and  C2_3 
ROOT
ATOM      1  C2  UNL d   1      -0.311  -1.859  -1.126  0.00  0.00    -0.081 A 
ATOM      2  C3  UNL d   1      -0.798  -2.681  -0.103  0.00  0.00     0.006 A 
ATOM      3  C4  UNL d   1      -1.219  -2.129   1.110  0.00  0.00     0.002 A 
ATOM      4  C5  UNL d   1      -1.167  -0.746   1.316  0.00  0.00    -0.080 A 
ATOM      5  C6  UNL d   1      -1.645  -0.138   2.601  0.00  0.00     0.076 C 
ATOM      6  C7  UNL d   1      -0.665   0.074   0.300  0.00  0.00     0.002 A 
ATOM      7  C8  UNL d   1      -0.243  -0.478  -0.912  0.00  0.00     0.006 A 
ENDROOT
BRANCH   1   8
ATOM      8  C1  UNL d   1       0.083  -2.445  -2.458  0.00  0.00     0.054 C 
ATOM      9  C   UNL d   1       0.208  -1.364  -3.523  0.00  0.00     0.018 C 
ENDBRANCH   1   8
TORSDOF 1
ENDMDL
