MODEL 1
REMARK minimizedAffinity -4.96933174
REMARK minimizedRMSD -1
REMARK  1 active torsions:
REMARK  status: ('A' for Active; 'I' for Inactive)
REMARK    1  A    between atoms: C1_2  and  C2_3 
ROOT
ATOM      1  C2  UNL d   1      -0.156  -1.224  -0.958  0.00  0.00    -0.081 A 
ATOM      2  C3  UNL d   1      -0.862  -2.136  -0.165  0.00  0.00     0.006 A 
ATOM      3  C4  UNL d   1      -1.521  -1.707   0.990  0.00  0.00     0.002 A 
ATOM      4  C5  UNL d   1      -1.491  -0.360   1.367  0.00  0.00    -0.080 A 
ATOM      5  C6  UNL d   1      -2.219   0.118   2.588  0.00  0.00     0.076 C 
ATOM      6  C7  UNL d   1      -0.771   0.548   0.583  0.00  0.00     0.002 A 
ATOM      7  C8  UNL d   1      -0.111   0.120  -0.571  0.00  0.00     0.006 A 
ENDROOT
BRANCH   1   8
ATOM      8  C1  UNL d   1       0.501  -1.670  -2.239  0.00  0.00     0.054 C 
ATOM      9  C   UNL d   1      -0.184  -2.903  -2.812  0.00  0.00     0.018 C 
ENDBRANCH   1   8
TORSDOF 1
ENDMDL
