MODEL 1
REMARK minimizedAffinity -4.70953417
REMARK minimizedRMSD -1
REMARK  1 active torsions:
REMARK  status: ('A' for Active; 'I' for Inactive)
REMARK    1  A    between atoms: C1_2  and  C2_3 
ROOT
ATOM      1  C2  UNL d   1       0.256  -2.215  -0.893  0.00  0.00    -0.081 A 
ATOM      2  C3  UNL d   1      -0.524  -3.020  -0.054  0.00  0.00     0.006 A 
ATOM      3  C4  UNL d   1      -1.162  -2.472   1.061  0.00  0.00     0.002 A 
ATOM      4  C5  UNL d   1      -1.038  -1.109   1.351  0.00  0.00    -0.080 A 
ATOM      5  C6  UNL d   1      -1.743  -0.501   2.527  0.00  0.00     0.076 C 
ATOM      6  C7  UNL d   1      -0.244  -0.308   0.523  0.00  0.00     0.002 A 
ATOM      7  C8  UNL d   1       0.395  -0.856  -0.592  0.00  0.00     0.006 A 
ENDROOT
BRANCH   1   8
ATOM      8  C1  UNL d   1       0.893  -2.791  -2.132  0.00  0.00     0.054 C 
ATOM      9  C   UNL d   1       0.546  -1.970  -3.365  0.00  0.00     0.018 C 
ENDBRANCH   1   8
TORSDOF 1
ENDMDL
