MODEL 1
REMARK minimizedAffinity -2.15005779
REMARK minimizedRMSD -1
REMARK  1 active torsions:
REMARK  status: ('A' for Active; 'I' for Inactive)
REMARK    1  A    between atoms: C1_2  and  C2_3 
ROOT
ATOM      1  C2  UNL d   1      -0.336  -0.152   0.224  0.00  0.00    -0.081 A 
ATOM      2  C3  UNL d   1       0.946  -0.319   0.763  0.00  0.00     0.006 A 
ATOM      3  C4  UNL d   1       1.856   0.741   0.768  0.00  0.00     0.002 A 
ATOM      4  C5  UNL d   1       1.497   1.987   0.243  0.00  0.00    -0.080 A 
ATOM      5  C6  UNL d   1       2.454   3.141   0.270  0.00  0.00     0.076 C 
ATOM      6  C7  UNL d   1       0.223   2.149  -0.311  0.00  0.00     0.002 A 
ATOM      7  C8  UNL d   1      -0.687   1.090  -0.318  0.00  0.00     0.006 A 
ENDROOT
BRANCH   1   8
ATOM      8  C1  UNL d   1      -1.342  -1.273   0.275  0.00  0.00     0.054 C 
ATOM      9  C   UNL d   1      -1.227  -2.060   1.573  0.00  0.00     0.018 C 
ENDBRANCH   1   8
TORSDOF 1
ENDMDL
