MODEL 1
REMARK minimizedAffinity -2.26130676
REMARK minimizedRMSD -1
REMARK  1 active torsions:
REMARK  status: ('A' for Active; 'I' for Inactive)
REMARK    1  A    between atoms: C1_2  and  C2_3 
ROOT
ATOM      1  C2  UNL d   1      -0.401   0.578  -0.362  0.00  0.00    -0.081 A 
ATOM      2  C3  UNL d   1      -0.849  -0.093   0.783  0.00  0.00     0.006 A 
ATOM      3  C4  UNL d   1      -0.898  -1.489   0.813  0.00  0.00     0.002 A 
ATOM      4  C5  UNL d   1      -0.493  -2.237  -0.298  0.00  0.00    -0.080 A 
ATOM      5  C6  UNL d   1      -0.512  -3.736  -0.268  0.00  0.00     0.076 C 
ATOM      6  C7  UNL d   1      -0.062  -1.567  -1.448  0.00  0.00     0.002 A 
ATOM      7  C8  UNL d   1      -0.013  -0.171  -1.478  0.00  0.00     0.006 A 
ENDROOT
BRANCH   1   8
ATOM      8  C1  UNL d   1      -0.286   2.080  -0.374  0.00  0.00     0.054 C 
ATOM      9  C   UNL d   1       1.019   2.541   0.261  0.00  0.00     0.018 C 
ENDBRANCH   1   8
TORSDOF 1
ENDMDL
