MODEL 1
REMARK minimizedAffinity -5.48348141
REMARK minimizedRMSD -1
REMARK  1 active torsions:
REMARK  status: ('A' for Active; 'I' for Inactive)
REMARK    1  A    between atoms: C1_2  and  C2_3 
ROOT
ATOM      1  C2  UNL d   1       0.140  -1.995  -0.985  0.00  0.00    -0.081 A 
ATOM      2  C3  UNL d   1      -0.291  -3.133  -0.293  0.00  0.00     0.006 A 
ATOM      3  C4  UNL d   1      -0.976  -3.007   0.918  0.00  0.00     0.002 A 
ATOM      4  C5  UNL d   1      -1.247  -1.743   1.453  0.00  0.00    -0.080 A 
ATOM      5  C6  UNL d   1      -2.008  -1.594   2.737  0.00  0.00     0.076 C 
ATOM      6  C7  UNL d   1      -0.801  -0.607   0.770  0.00  0.00     0.002 A 
ATOM      7  C8  UNL d   1      -0.116  -0.732  -0.441  0.00  0.00     0.006 A 
ENDROOT
BRANCH   1   8
ATOM      8  C1  UNL d   1       0.822  -2.125  -2.324  0.00  0.00     0.054 C 
ATOM      9  C   UNL d   1       0.417  -0.997  -3.262  0.00  0.00     0.018 C 
ENDBRANCH   1   8
TORSDOF 1
ENDMDL
