MODEL 1
REMARK minimizedAffinity -5.46236515
REMARK minimizedRMSD -1
REMARK  1 active torsions:
REMARK  status: ('A' for Active; 'I' for Inactive)
REMARK    1  A    between atoms: C1_2  and  C2_3 
ROOT
ATOM      1  C2  UNL d   1       0.166   0.744  -0.129  0.00  0.00    -0.081 A 
ATOM      2  C3  UNL d   1       0.162   0.343  -1.470  0.00  0.00     0.006 A 
ATOM      3  C4  UNL d   1       0.142  -1.014  -1.803  0.00  0.00     0.002 A 
ATOM      4  C5  UNL d   1       0.117  -1.990  -0.802  0.00  0.00    -0.080 A 
ATOM      5  C6  UNL d   1       0.064  -3.449  -1.146  0.00  0.00     0.076 C 
ATOM      6  C7  UNL d   1       0.138  -1.589   0.539  0.00  0.00     0.002 A 
ATOM      7  C8  UNL d   1       0.159  -0.233   0.872  0.00  0.00     0.006 A 
ENDROOT
BRANCH   1   8
ATOM      8  C1  UNL d   1       0.122   2.207   0.234  0.00  0.00     0.054 C 
ATOM      9  C   UNL d   1       1.508   2.734   0.575  0.00  0.00     0.018 C 
ENDBRANCH   1   8
TORSDOF 1
ENDMDL
