MODEL 1
REMARK minimizedAffinity -4.17900848
REMARK minimizedRMSD -1
REMARK  1 active torsions:
REMARK  status: ('A' for Active; 'I' for Inactive)
REMARK    1  A    between atoms: C1_2  and  C2_3 
ROOT
ATOM      1  C2  UNL d   1      -0.047  -1.001  -1.347  0.00  0.00    -0.081 A 
ATOM      2  C3  UNL d   1      -0.618  -2.170  -0.831  0.00  0.00     0.006 A 
ATOM      3  C4  UNL d   1      -1.130  -2.194   0.469  0.00  0.00     0.002 A 
ATOM      4  C5  UNL d   1      -1.087  -1.048   1.270  0.00  0.00    -0.080 A 
ATOM      5  C6  UNL d   1      -1.660  -1.052   2.656  0.00  0.00     0.076 C 
ATOM      6  C7  UNL d   1      -0.500   0.115   0.761  0.00  0.00     0.002 A 
ATOM      7  C8  UNL d   1       0.013   0.140  -0.538  0.00  0.00     0.006 A 
ENDROOT
BRANCH   1   8
ATOM      8  C1  UNL d   1       0.448  -0.953  -2.770  0.00  0.00     0.054 C 
ATOM      9  C   UNL d   1       0.297  -2.304  -3.454  0.00  0.00     0.018 C 
ENDBRANCH   1   8
TORSDOF 1
ENDMDL
