MODEL 1
REMARK minimizedAffinity -4.51506805
REMARK minimizedRMSD -1
REMARK  1 active torsions:
REMARK  status: ('A' for Active; 'I' for Inactive)
REMARK    1  A    between atoms: C1_2  and  C2_3 
ROOT
ATOM      1  C2  UNL d   1      -0.060   0.387   0.148  0.00  0.00    -0.081 A 
ATOM      2  C3  UNL d   1      -0.934  -0.305   0.996  0.00  0.00     0.006 A 
ATOM      3  C4  UNL d   1      -0.837  -1.691   1.134  0.00  0.00     0.002 A 
ATOM      4  C5  UNL d   1       0.140  -2.407   0.435  0.00  0.00    -0.080 A 
ATOM      5  C6  UNL d   1       0.275  -3.892   0.598  0.00  0.00     0.076 C 
ATOM      6  C7  UNL d   1       1.002  -1.719  -0.426  0.00  0.00     0.002 A 
ATOM      7  C8  UNL d   1       0.904  -0.332  -0.566  0.00  0.00     0.006 A 
ENDROOT
BRANCH   1   8
ATOM      8  C1  UNL d   1      -0.121   1.890   0.045  0.00  0.00     0.054 C 
ATOM      9  C   UNL d   1       1.160   2.532   0.558  0.00  0.00     0.018 C 
ENDBRANCH   1   8
TORSDOF 1
ENDMDL
