MODEL 1
REMARK minimizedAffinity -1.95865548
REMARK minimizedRMSD -1
REMARK  1 active torsions:
REMARK  status: ('A' for Active; 'I' for Inactive)
REMARK    1  A    between atoms: C1_2  and  C2_3 
ROOT
ATOM      1  C2  UNL d   1      -0.762  -2.458  -1.219  0.00  0.00    -0.081 A 
ATOM      2  C3  UNL d   1      -1.306  -3.017  -0.056  0.00  0.00     0.006 A 
ATOM      3  C4  UNL d   1      -1.372  -2.271   1.124  0.00  0.00     0.002 A 
ATOM      4  C5  UNL d   1      -0.903  -0.953   1.158  0.00  0.00    -0.080 A 
ATOM      5  C6  UNL d   1      -0.996  -0.132   2.409  0.00  0.00     0.076 C 
ATOM      6  C7  UNL d   1      -0.344  -0.401   0.000  0.00  0.00     0.002 A 
ATOM      7  C8  UNL d   1      -0.277  -1.146  -1.179  0.00  0.00     0.006 A 
ENDROOT
BRANCH   1   8
ATOM      8  C1  UNL d   1      -0.749  -3.238  -2.509  0.00  0.00     0.054 C 
ATOM      9  C   UNL d   1      -2.143  -3.336  -3.111  0.00  0.00     0.018 C 
ENDBRANCH   1   8
TORSDOF 1
ENDMDL
