MODEL 1
REMARK minimizedAffinity -1.76567054
REMARK minimizedRMSD -1
REMARK  1 active torsions:
REMARK  status: ('A' for Active; 'I' for Inactive)
REMARK    1  A    between atoms: C1_2  and  C2_3 
ROOT
ATOM      1  C2  UNL d   1       0.014   3.957   1.632  0.00  0.00    -0.081 A 
ATOM      2  C3  UNL d   1       1.358   4.271   1.871  0.00  0.00     0.006 A 
ATOM      3  C4  UNL d   1       2.358   3.796   1.019  0.00  0.00     0.002 A 
ATOM      4  C5  UNL d   1       2.032   3.006  -0.088  0.00  0.00    -0.080 A 
ATOM      5  C6  UNL d   1       3.093   2.515  -1.027  0.00  0.00     0.076 C 
ATOM      6  C7  UNL d   1       0.691   2.677  -0.317  0.00  0.00     0.002 A 
ATOM      7  C8  UNL d   1      -0.309   3.152   0.534  0.00  0.00     0.006 A 
ENDROOT
BRANCH   1   8
ATOM      8  C1  UNL d   1      -1.072   4.521   2.511  0.00  0.00     0.054 C 
ATOM      9  C   UNL d   1      -0.490   5.338   3.655  0.00  0.00     0.018 C 
ENDBRANCH   1   8
TORSDOF 1
ENDMDL
