MODEL 1
REMARK minimizedAffinity -4.90555382
REMARK minimizedRMSD -1
REMARK  1 active torsions:
REMARK  status: ('A' for Active; 'I' for Inactive)
REMARK    1  A    between atoms: C1_2  and  C2_3 
ROOT
ATOM      1  C2  UNL d   1       0.146  -1.446  -1.165  0.00  0.00    -0.081 A 
ATOM      2  C3  UNL d   1       0.095  -2.639  -0.432  0.00  0.00     0.006 A 
ATOM      3  C4  UNL d   1      -0.599  -2.698   0.778  0.00  0.00     0.002 A 
ATOM      4  C5  UNL d   1      -1.261  -1.569   1.272  0.00  0.00    -0.080 A 
ATOM      5  C6  UNL d   1      -2.036  -1.627   2.555  0.00  0.00     0.076 C 
ATOM      6  C7  UNL d   1      -1.197  -0.373   0.549  0.00  0.00     0.002 A 
ATOM      7  C8  UNL d   1      -0.502  -0.313  -0.661  0.00  0.00     0.006 A 
ENDROOT
BRANCH   1   8
ATOM      8  C1  UNL d   1       0.839  -1.397  -2.502  0.00  0.00     0.054 C 
ATOM      9  C   UNL d   1       0.283  -0.279  -3.373  0.00  0.00     0.018 C 
ENDBRANCH   1   8
TORSDOF 1
ENDMDL
