MODEL 1
REMARK minimizedAffinity 6.4633255
REMARK minimizedRMSD -1
REMARK  1 active torsions:
REMARK  status: ('A' for Active; 'I' for Inactive)
REMARK    1  A    between atoms: C1_2  and  C2_3 
ROOT
ATOM      1  C2  UNL d   1      -1.195   0.065   1.888  0.00  0.00    -0.077 A 
ATOM      2  C3  UNL d   1      -1.619  -0.478   3.109  0.00  0.00     0.002 A 
ATOM      3  C4  UNL d   1      -0.692  -1.032   3.995  0.00  0.00     0.002 A 
ATOM      4  C5  UNL d   1       0.663  -1.044   3.671  0.00  0.00    -0.004 A 
ATOM      5  C6  UNL d   1       1.094  -0.507   2.458  0.00  0.00     0.002 A 
ATOM      6  C7  UNL d   1       0.169   0.046   1.571  0.00  0.00     0.002 A 
ENDROOT
BRANCH   1   7
ATOM      7  C1  UNL d   1      -2.187   0.707   0.954  0.00  0.00     0.055 C 
ATOM      8  C   UNL d   1      -2.147   0.063  -0.424  0.00  0.00     0.019 C 
ENDBRANCH   1   7
TORSDOF 1
ENDMDL
