MODEL 1
REMARK minimizedAffinity -3.03099275
REMARK minimizedRMSD -1
REMARK  1 active torsions:
REMARK  status: ('A' for Active; 'I' for Inactive)
REMARK    1  A    between atoms: C1_2  and  C2_3 
ROOT
ATOM      1  C2  UNL d   1       1.582  -0.604  -1.517  0.00  0.00    -0.077 A 
ATOM      2  C3  UNL d   1       2.333   0.328  -2.246  0.00  0.00     0.002 A 
ATOM      3  C4  UNL d   1       1.954   0.681  -3.543  0.00  0.00     0.002 A 
ATOM      4  C5  UNL d   1       0.822   0.109  -4.119  0.00  0.00    -0.004 A 
ATOM      5  C6  UNL d   1       0.070  -0.821  -3.403  0.00  0.00     0.002 A 
ATOM      6  C7  UNL d   1       0.447  -1.175  -2.107  0.00  0.00     0.002 A 
ENDROOT
BRANCH   1   7
ATOM      7  C1  UNL d   1       1.961  -0.949  -0.100  0.00  0.00     0.055 C 
ATOM      8  C   UNL d   1       1.242  -0.054   0.899  0.00  0.00     0.019 C 
ENDBRANCH   1   7
TORSDOF 1
ENDMDL
