MODEL 1
REMARK minimizedAffinity 6.26520395
REMARK minimizedRMSD -1
REMARK  1 active torsions:
REMARK  status: ('A' for Active; 'I' for Inactive)
REMARK    1  A    between atoms: C1_2  and  C2_3 
ROOT
ATOM      1  C2  UNL d   1      -0.165  -0.388   2.089  0.00  0.00    -0.077 A 
ATOM      2  C3  UNL d   1       0.023  -0.321   0.701  0.00  0.00     0.002 A 
ATOM      3  C4  UNL d   1      -1.032   0.046  -0.138  0.00  0.00     0.002 A 
ATOM      4  C5  UNL d   1      -2.279   0.353   0.402  0.00  0.00    -0.004 A 
ATOM      5  C6  UNL d   1      -2.476   0.289   1.780  0.00  0.00     0.002 A 
ATOM      6  C7  UNL d   1      -1.424  -0.079   2.620  0.00  0.00     0.002 A 
ENDROOT
BRANCH   1   7
ATOM      7  C1  UNL d   1       0.984  -0.736   2.999  0.00  0.00     0.055 C 
ATOM      8  C   UNL d   1       0.492  -1.359   4.297  0.00  0.00     0.019 C 
ENDBRANCH   1   7
TORSDOF 1
ENDMDL
