MODEL 1
REMARK minimizedAffinity 2.42830181
REMARK minimizedRMSD -1
REMARK  1 active torsions:
REMARK  status: ('A' for Active; 'I' for Inactive)
REMARK    1  A    between atoms: C1_2  and  C2_3 
ROOT
ATOM      1  C2  UNL d   1       4.079   3.955   2.156  0.00  0.00    -0.077 A 
ATOM      2  C3  UNL d   1       4.056   4.744   0.998  0.00  0.00     0.002 A 
ATOM      3  C4  UNL d   1       4.997   5.760   0.816  0.00  0.00     0.002 A 
ATOM      4  C5  UNL d   1       5.969   5.993   1.786  0.00  0.00    -0.004 A 
ATOM      5  C6  UNL d   1       5.999   5.214   2.943  0.00  0.00     0.002 A 
ATOM      6  C7  UNL d   1       5.059   4.199   3.126  0.00  0.00     0.002 A 
ENDROOT
BRANCH   1   7
ATOM      7  C1  UNL d   1       3.096   2.827   2.331  0.00  0.00     0.055 C 
ATOM      8  C   UNL d   1       3.496   1.918   3.485  0.00  0.00     0.019 C 
ENDBRANCH   1   7
TORSDOF 1
ENDMDL
