MODEL 1
REMARK minimizedAffinity -1.68385637
REMARK minimizedRMSD -1
REMARK  1 active torsions:
REMARK  status: ('A' for Active; 'I' for Inactive)
REMARK    1  A    between atoms: C1_2  and  C2_3 
ROOT
ATOM      1  C2  UNL d   1      -0.747  -0.392   3.026  0.00  0.00    -0.077 A 
ATOM      2  C3  UNL d   1       0.255  -0.572   2.062  0.00  0.00     0.002 A 
ATOM      3  C4  UNL d   1      -0.038  -0.431   0.704  0.00  0.00     0.002 A 
ATOM      4  C5  UNL d   1      -1.330  -0.105   0.299  0.00  0.00    -0.004 A 
ATOM      5  C6  UNL d   1      -2.334   0.074   1.250  0.00  0.00     0.002 A 
ATOM      6  C7  UNL d   1      -2.044  -0.068   2.607  0.00  0.00     0.002 A 
ENDROOT
BRANCH   1   7
ATOM      7  C1  UNL d   1      -0.422  -0.496   4.493  0.00  0.00     0.055 C 
ATOM      8  C   UNL d   1       0.685  -1.509   4.745  0.00  0.00     0.019 C 
ENDBRANCH   1   7
TORSDOF 1
ENDMDL
