MODEL 1
REMARK minimizedAffinity 2.89480782
REMARK minimizedRMSD -1
REMARK  1 active torsions:
REMARK  status: ('A' for Active; 'I' for Inactive)
REMARK    1  A    between atoms: C1_2  and  C2_3 
ROOT
ATOM      1  C2  UNL d   1      -1.171  -0.723   3.365  0.00  0.00    -0.077 A 
ATOM      2  C3  UNL d   1      -2.332   0.017   3.096  0.00  0.00     0.002 A 
ATOM      3  C4  UNL d   1      -2.514   0.616   1.848  0.00  0.00     0.002 A 
ATOM      4  C5  UNL d   1      -1.543   0.477   0.858  0.00  0.00    -0.004 A 
ATOM      5  C6  UNL d   1      -0.385  -0.255   1.117  0.00  0.00     0.002 A 
ATOM      6  C7  UNL d   1      -0.200  -0.853   2.364  0.00  0.00     0.002 A 
ENDROOT
BRANCH   1   7
ATOM      7  C1  UNL d   1      -0.995  -1.410   4.694  0.00  0.00     0.055 C 
ATOM      8  C   UNL d   1       0.473  -1.482   5.089  0.00  0.00     0.019 C 
ENDBRANCH   1   7
TORSDOF 1
ENDMDL
