MODEL 1
REMARK minimizedAffinity 0.45059824
REMARK minimizedRMSD -1
REMARK  1 active torsions:
REMARK  status: ('A' for Active; 'I' for Inactive)
REMARK    1  A    between atoms: C1_2  and  C2_3 
ROOT
ATOM      1  C2  UNL d   1      -0.990   0.643  -0.089  0.00  0.00    -0.077 A 
ATOM      2  C3  UNL d   1      -2.113   0.635   0.749  0.00  0.00     0.002 A 
ATOM      3  C4  UNL d   1      -2.136  -0.166   1.892  0.00  0.00     0.002 A 
ATOM      4  C5  UNL d   1      -1.038  -0.963   2.209  0.00  0.00    -0.004 A 
ATOM      5  C6  UNL d   1       0.084  -0.964   1.380  0.00  0.00     0.002 A 
ATOM      6  C7  UNL d   1       0.108  -0.164   0.237  0.00  0.00     0.002 A 
ENDROOT
BRANCH   1   7
ATOM      7  C1  UNL d   1      -0.943   1.544  -1.296  0.00  0.00     0.055 C 
ATOM      8  C   UNL d   1      -0.207   0.883  -2.452  0.00  0.00     0.019 C 
ENDBRANCH   1   7
TORSDOF 1
ENDMDL
