MODEL 1
REMARK minimizedAffinity -1.59868836
REMARK minimizedRMSD -1
REMARK  1 active torsions:
REMARK  status: ('A' for Active; 'I' for Inactive)
REMARK    1  A    between atoms: C1_2  and  C2_3 
ROOT
ATOM      1  C2  UNL d   1      -0.130  -0.643   1.291  0.00  0.00    -0.077 A 
ATOM      2  C3  UNL d   1      -0.637  -0.729  -0.014  0.00  0.00     0.002 A 
ATOM      3  C4  UNL d   1      -1.978  -0.435  -0.271  0.00  0.00     0.002 A 
ATOM      4  C5  UNL d   1      -2.821  -0.049   0.769  0.00  0.00    -0.004 A 
ATOM      5  C6  UNL d   1      -2.326   0.037   2.070  0.00  0.00     0.002 A 
ATOM      6  C7  UNL d   1      -0.987  -0.258   2.330  0.00  0.00     0.002 A 
ENDROOT
BRANCH   1   7
ATOM      7  C1  UNL d   1       1.327  -0.912   1.562  0.00  0.00     0.055 C 
ATOM      8  C   UNL d   1       2.198   0.250   1.109  0.00  0.00     0.019 C 
ENDBRANCH   1   7
TORSDOF 1
ENDMDL
