MODEL 1
REMARK minimizedAffinity -2.82385015
REMARK minimizedRMSD -1
REMARK  0 active torsions:
REMARK  status: ('A' for Active; 'I' for Inactive)
ROOT
ATOM      1  C   UNL d   1       0.488   0.587   0.027  0.00  0.00     0.172 C 
ATOM      2  N   UNL d   1       1.451   1.538   0.531  0.00  0.00    -0.070 N 
ATOM      3  C1  UNL d   1       1.611   2.824   0.088  0.00  0.00    -0.004 A 
ATOM      4  C2  UNL d   1       2.627   3.399   0.820  0.00  0.00    -0.047 A 
ATOM      5  C3  UNL d   1       3.096   2.424   1.733  0.00  0.00    -0.047 A 
ATOM      6  C4  UNL d   1       2.351   1.282   1.532  0.00  0.00    -0.004 A 
ENDROOT
TORSDOF 0
ENDMDL
