MODEL 1
REMARK minimizedAffinity -3.60350275
REMARK minimizedRMSD -1
REMARK  0 active torsions:
REMARK  status: ('A' for Active; 'I' for Inactive)
ROOT
ATOM      1  C   UNL d   1      -2.966  -2.257   0.132  0.00  0.00     0.172 C 
ATOM      2  N   UNL d   1      -1.962  -1.267  -0.182  0.00  0.00    -0.070 N 
ATOM      3  C1  UNL d   1      -1.974  -0.434  -1.268  0.00  0.00    -0.004 A 
ATOM      4  C2  UNL d   1      -0.847   0.357  -1.206  0.00  0.00    -0.047 A 
ATOM      5  C3  UNL d   1      -0.132  -0.015  -0.043  0.00  0.00    -0.047 A 
ATOM      6  C4  UNL d   1      -0.845  -1.023   0.573  0.00  0.00    -0.004 A 
ENDROOT
TORSDOF 0
ENDMDL
