MODEL 1
REMARK minimizedAffinity -0.91862464
REMARK minimizedRMSD -1
REMARK  0 active torsions:
REMARK  status: ('A' for Active; 'I' for Inactive)
ROOT
ATOM      1  C   UNL d   1      -0.049  -0.080  -0.466  0.00  0.00     0.172 C 
ATOM      2  N   UNL d   1      -1.147  -1.010  -0.580  0.00  0.00    -0.070 N 
ATOM      3  C1  UNL d   1      -1.261  -2.197   0.092  0.00  0.00    -0.004 A 
ATOM      4  C2  UNL d   1      -2.447  -2.787  -0.290  0.00  0.00    -0.047 A 
ATOM      5  C3  UNL d   1      -3.066  -1.925  -1.226  0.00  0.00    -0.047 A 
ATOM      6  C4  UNL d   1      -2.240  -0.832  -1.387  0.00  0.00    -0.004 A 
ENDROOT
TORSDOF 0
ENDMDL
