MODEL 1
REMARK minimizedAffinity -3.1484313
REMARK minimizedRMSD -1
REMARK  0 active torsions:
REMARK  status: ('A' for Active; 'I' for Inactive)
ROOT
ATOM      1  C   UNL d   1      -0.745  -2.246   1.121  0.00  0.00     0.172 C 
ATOM      2  N   UNL d   1      -1.070  -1.270   0.108  0.00  0.00    -0.070 N 
ATOM      3  C1  UNL d   1      -0.308  -0.183  -0.228  0.00  0.00    -0.004 A 
ATOM      4  C2  UNL d   1      -0.960   0.496  -1.234  0.00  0.00    -0.047 A 
ATOM      5  C3  UNL d   1      -2.157  -0.206  -1.511  0.00  0.00    -0.047 A 
ATOM      6  C4  UNL d   1      -2.200  -1.295  -0.666  0.00  0.00    -0.004 A 
ENDROOT
TORSDOF 0
ENDMDL
