MODEL 1
REMARK minimizedAffinity -3.03422618
REMARK minimizedRMSD -1
REMARK  0 active torsions:
REMARK  status: ('A' for Active; 'I' for Inactive)
ROOT
ATOM      1  C   UNL d   1       1.380   0.563   0.251  0.00  0.00     0.172 C 
ATOM      2  N   UNL d   1       0.070   0.191  -0.228  0.00  0.00    -0.070 N 
ATOM      3  C1  UNL d   1      -0.664   0.876  -1.159  0.00  0.00    -0.004 A 
ATOM      4  C2  UNL d   1      -1.851   0.200  -1.343  0.00  0.00    -0.047 A 
ATOM      5  C3  UNL d   1      -1.829  -0.931  -0.493  0.00  0.00    -0.047 A 
ATOM      6  C4  UNL d   1      -0.629  -0.913   0.186  0.00  0.00    -0.004 A 
ENDROOT
TORSDOF 0
ENDMDL
