MODEL 1
REMARK minimizedAffinity -2.12605
REMARK minimizedRMSD -1
REMARK  0 active torsions:
REMARK  status: ('A' for Active; 'I' for Inactive)
ROOT
ATOM      1  C   UNL d   1       2.233   2.542   1.478  0.00  0.00     0.172 C 
ATOM      2  N   UNL d   1       1.696   1.284   1.014  0.00  0.00    -0.070 N 
ATOM      3  C1  UNL d   1       0.510   1.119   0.350  0.00  0.00    -0.004 A 
ATOM      4  C2  UNL d   1       0.359  -0.225   0.082  0.00  0.00    -0.047 A 
ATOM      5  C3  UNL d   1       1.494  -0.890   0.604  0.00  0.00    -0.047 A 
ATOM      6  C4  UNL d   1       2.305   0.068   1.175  0.00  0.00    -0.004 A 
ENDROOT
TORSDOF 0
ENDMDL
