MODEL 1
REMARK minimizedAffinity -1.99009013
REMARK minimizedRMSD -1
REMARK  0 active torsions:
REMARK  status: ('A' for Active; 'I' for Inactive)
ROOT
ATOM      1  C   UNL d   1      -3.990   5.998   3.391  0.00  0.00     0.172 C 
ATOM      2  N   UNL d   1      -4.395   5.358   2.162  0.00  0.00    -0.070 N 
ATOM      3  C1  UNL d   1      -4.818   6.000   1.029  0.00  0.00    -0.004 A 
ATOM      4  C2  UNL d   1      -5.110   5.040   0.084  0.00  0.00    -0.047 A 
ATOM      5  C3  UNL d   1      -4.855   3.777   0.670  0.00  0.00    -0.047 A 
ATOM      6  C4  UNL d   1      -4.414   4.004   1.957  0.00  0.00    -0.004 A 
ENDROOT
TORSDOF 0
ENDMDL
