MODEL 1
REMARK minimizedAffinity -2.47803473
REMARK minimizedRMSD -1
REMARK  0 active torsions:
REMARK  status: ('A' for Active; 'I' for Inactive)
ROOT
ATOM      1  C   UNL d   1       0.947   0.277   0.284  0.00  0.00     0.172 C 
ATOM      2  N   UNL d   1      -0.188  -0.078  -0.535  0.00  0.00    -0.070 N 
ATOM      3  C1  UNL d   1      -0.380   0.296  -1.838  0.00  0.00    -0.004 A 
ATOM      4  C2  UNL d   1      -1.576  -0.243  -2.260  0.00  0.00    -0.047 A 
ATOM      5  C3  UNL d   1      -2.122  -0.965  -1.172  0.00  0.00    -0.047 A 
ATOM      6  C4  UNL d   1      -1.243  -0.846  -0.117  0.00  0.00    -0.004 A 
ENDROOT
TORSDOF 0
ENDMDL
