MODEL 1
REMARK minimizedAffinity -0.460824341
REMARK minimizedRMSD -1
REMARK  0 active torsions:
REMARK  status: ('A' for Active; 'I' for Inactive)
ROOT
ATOM      1  C   UNL d   1       1.715   1.921   1.312  0.00  0.00     0.172 C 
ATOM      2  N   UNL d   1       0.876   1.109   0.463  0.00  0.00    -0.070 N 
ATOM      3  C1  UNL d   1       1.086  -0.210   0.159  0.00  0.00    -0.004 A 
ATOM      4  C2  UNL d   1       0.067  -0.618  -0.675  0.00  0.00    -0.047 A 
ATOM      5  C3  UNL d   1      -0.783   0.494  -0.881  0.00  0.00    -0.047 A 
ATOM      6  C4  UNL d   1      -0.259   1.550  -0.165  0.00  0.00    -0.004 A 
ENDROOT
TORSDOF 0
ENDMDL
