MODEL 1
REMARK minimizedAffinity -2.45763111
REMARK minimizedRMSD -1
REMARK  0 active torsions:
REMARK  status: ('A' for Active; 'I' for Inactive)
ROOT
ATOM      1  C   UNL d   1       1.357   0.104   0.020  0.00  0.00     0.172 C 
ATOM      2  N   UNL d   1       1.848   1.387   0.465  0.00  0.00    -0.070 N 
ATOM      3  C1  UNL d   1       3.040   1.955   0.101  0.00  0.00    -0.004 A 
ATOM      4  C2  UNL d   1       3.138   3.174   0.737  0.00  0.00    -0.047 A 
ATOM      5  C3  UNL d   1       1.965   3.343   1.511  0.00  0.00    -0.047 A 
ATOM      6  C4  UNL d   1       1.184   2.222   1.324  0.00  0.00    -0.004 A 
ENDROOT
TORSDOF 0
ENDMDL
