MODEL 1
REMARK minimizedAffinity -1.76946986
REMARK minimizedRMSD -1
REMARK  0 active torsions:
REMARK  status: ('A' for Active; 'I' for Inactive)
ROOT
ATOM      1  C   UNL d   1       1.537   0.209  -0.116  0.00  0.00     0.172 C 
ATOM      2  N   UNL d   1       1.600   1.448   0.622  0.00  0.00    -0.070 N 
ATOM      3  C1  UNL d   1       2.746   2.076   1.033  0.00  0.00    -0.004 A 
ATOM      4  C2  UNL d   1       2.381   3.224   1.703  0.00  0.00    -0.047 A 
ATOM      5  C3  UNL d   1       0.967   3.288   1.695  0.00  0.00    -0.047 A 
ATOM      6  C4  UNL d   1       0.510   2.176   1.019  0.00  0.00    -0.004 A 
ENDROOT
TORSDOF 0
ENDMDL
