MODEL 1
REMARK minimizedAffinity 3.10156941
REMARK minimizedRMSD -1
REMARK  0 active torsions:
REMARK  status: ('A' for Active; 'I' for Inactive)
ROOT
ATOM      1  C   UNL d   1      -1.714  -3.582   1.499  0.00  0.00     0.172 C 
ATOM      2  N   UNL d   1      -1.752  -2.397   0.675  0.00  0.00    -0.070 N 
ATOM      3  C1  UNL d   1      -2.862  -1.892   0.053  0.00  0.00    -0.004 A 
ATOM      4  C2  UNL d   1      -2.483  -0.758  -0.632  0.00  0.00    -0.047 A 
ATOM      5  C3  UNL d   1      -1.096  -0.576  -0.416  0.00  0.00    -0.047 A 
ATOM      6  C4  UNL d   1      -0.669  -1.605   0.397  0.00  0.00    -0.004 A 
ENDROOT
TORSDOF 0
ENDMDL
