MODEL 1
REMARK minimizedAffinity -1.91759276
REMARK minimizedRMSD -1
REMARK  0 active torsions:
REMARK  status: ('A' for Active; 'I' for Inactive)
ROOT
ATOM      1  C   UNL d   1      -0.131  -0.046  -0.124  0.00  0.00     0.172 C 
ATOM      2  N   UNL d   1      -0.975  -1.212  -0.011  0.00  0.00    -0.070 N 
ATOM      3  C1  UNL d   1      -0.804  -2.238   0.880  0.00  0.00    -0.004 A 
ATOM      4  C2  UNL d   1      -1.812  -3.153   0.669  0.00  0.00    -0.047 A 
ATOM      5  C3  UNL d   1      -2.617  -2.661  -0.386  0.00  0.00    -0.047 A 
ATOM      6  C4  UNL d   1      -2.076  -1.458  -0.788  0.00  0.00    -0.004 A 
ENDROOT
TORSDOF 0
ENDMDL
