MODEL 1
REMARK minimizedAffinity -1.75587428
REMARK minimizedRMSD -1
REMARK  0 active torsions:
REMARK  status: ('A' for Active; 'I' for Inactive)
ROOT
ATOM      1  C   UNL d   1       0.903  -0.051  -0.038  0.00  0.00     0.172 C 
ATOM      2  N   UNL d   1       1.829   0.976   0.379  0.00  0.00    -0.070 N 
ATOM      3  C1  UNL d   1       2.657   0.910   1.467  0.00  0.00    -0.004 A 
ATOM      4  C2  UNL d   1       3.378   2.083   1.520  0.00  0.00    -0.047 A 
ATOM      5  C3  UNL d   1       2.969   2.882   0.426  0.00  0.00    -0.047 A 
ATOM      6  C4  UNL d   1       2.009   2.172  -0.264  0.00  0.00    -0.004 A 
ENDROOT
TORSDOF 0
ENDMDL
