MODEL 1
REMARK minimizedAffinity -1.1432693
REMARK minimizedRMSD -1
REMARK  0 active torsions:
REMARK  status: ('A' for Active; 'I' for Inactive)
ROOT
ATOM      1  C   UNL d   1       1.362  -0.356   0.876  0.00  0.00     0.172 C 
ATOM      2  N   UNL d   1       1.992   0.943   0.897  0.00  0.00    -0.070 N 
ATOM      3  C1  UNL d   1       2.232   1.696   2.016  0.00  0.00    -0.004 A 
ATOM      4  C2  UNL d   1       2.846   2.863   1.615  0.00  0.00    -0.047 A 
ATOM      5  C3  UNL d   1       2.978   2.811   0.207  0.00  0.00    -0.047 A 
ATOM      6  C4  UNL d   1       2.441   1.612  -0.211  0.00  0.00    -0.004 A 
ENDROOT
TORSDOF 0
ENDMDL
