MODEL 1
REMARK minimizedAffinity 12.5520945
REMARK minimizedRMSD -1
REMARK  0 active torsions:
REMARK  status: ('A' for Active; 'I' for Inactive)
ROOT
ATOM      1  C   UNL d   1      -4.433  -4.027  -5.722  0.00  0.00    -0.002 A 
ATOM      2  C1  UNL d   1      -5.226  -2.995  -5.240  0.00  0.00     0.010 A 
ATOM      3  C2  UNL d   1      -4.686  -1.726  -5.024  0.00  0.00     0.041 A 
ATOM      4  C3  UNL d   1      -3.323  -1.508  -5.305  0.00  0.00    -0.075 A 
ATOM      5  S   UNL d   1      -2.446  -0.035  -5.119  0.00  0.00     0.015 SA
ATOM      6  C4  UNL d   1      -0.998  -0.740  -5.676  0.00  0.00     0.022 A 
ATOM      7  C5  UNL d   1      -1.161  -2.066  -6.000  0.00  0.00     0.026 A 
ATOM      8  C6  UNL d   1      -2.504  -2.530  -5.792  0.00  0.00    -0.082 A 
ATOM      9  C7  UNL d   1      -3.081  -3.807  -6.000  0.00  0.00     0.045 A 
ENDROOT
TORSDOF 0
ENDMDL
