MODEL 1
REMARK minimizedAffinity 9.69121456
REMARK minimizedRMSD -1
REMARK  0 active torsions:
REMARK  status: ('A' for Active; 'I' for Inactive)
ROOT
ATOM      1  C   UNL d   1      -1.498  -4.203  -5.998  0.00  0.00    -0.002 A 
ATOM      2  C1  UNL d   1      -2.862  -4.459  -6.000  0.00  0.00     0.010 A 
ATOM      3  C2  UNL d   1      -3.782  -3.409  -5.987  0.00  0.00     0.041 A 
ATOM      4  C3  UNL d   1      -3.303  -2.084  -5.975  0.00  0.00    -0.075 A 
ATOM      5  S   UNL d   1      -4.244  -0.639  -5.960  0.00  0.00     0.015 SA
ATOM      6  C4  UNL d   1      -2.858   0.352  -5.952  0.00  0.00     0.022 A 
ATOM      7  C5  UNL d   1      -1.697  -0.384  -5.960  0.00  0.00     0.026 A 
ATOM      8  C6  UNL d   1      -1.934  -1.800  -5.974  0.00  0.00    -0.082 A 
ATOM      9  C7  UNL d   1      -1.027  -2.887  -5.986  0.00  0.00     0.045 A 
ENDROOT
TORSDOF 0
ENDMDL
