MODEL 1
REMARK minimizedAffinity 19.9001122
REMARK minimizedRMSD -1
REMARK  0 active torsions:
REMARK  status: ('A' for Active; 'I' for Inactive)
ROOT
ATOM      1  C   UNL d   1      -4.667  -1.647  -5.925  0.00  0.00    -0.002 A 
ATOM      2  C1  UNL d   1      -4.332  -2.992  -5.992  0.00  0.00     0.010 A 
ATOM      3  C2  UNL d   1      -2.994  -3.391  -5.999  0.00  0.00     0.041 A 
ATOM      4  C3  UNL d   1      -1.988  -2.406  -5.935  0.00  0.00    -0.075 A 
ATOM      5  S   UNL d   1      -0.283  -2.660  -5.929  0.00  0.00     0.015 SA
ATOM      6  C4  UNL d   1       0.041  -0.989  -5.836  0.00  0.00     0.022 A 
ATOM      7  C5  UNL d   1      -1.112  -0.241  -5.809  0.00  0.00     0.026 A 
ATOM      8  C6  UNL d   1      -2.301  -1.045  -5.865  0.00  0.00    -0.082 A 
ATOM      9  C7  UNL d   1      -3.667  -0.673  -5.861  0.00  0.00     0.045 A 
ENDROOT
TORSDOF 0
ENDMDL
