MODEL 1
REMARK minimizedAffinity 4.0769062
REMARK minimizedRMSD -1
REMARK  0 active torsions:
REMARK  status: ('A' for Active; 'I' for Inactive)
ROOT
ATOM      1  C   UNL d   1      -5.147  -0.010   5.644  0.00  0.00    -0.002 A 
ATOM      2  C1  UNL d   1      -5.667   1.275   5.578  0.00  0.00     0.010 A 
ATOM      3  C2  UNL d   1      -5.509   2.047   4.425  0.00  0.00     0.041 A 
ATOM      4  C3  UNL d   1      -4.815   1.500   3.328  0.00  0.00    -0.075 A 
ATOM      5  S   UNL d   1      -4.500   2.260   1.813  0.00  0.00     0.015 SA
ATOM      6  C4  UNL d   1      -3.670   0.896   1.217  0.00  0.00     0.022 A 
ATOM      7  C5  UNL d   1      -3.624  -0.123   2.138  0.00  0.00     0.026 A 
ATOM      8  C6  UNL d   1      -4.283   0.208   3.370  0.00  0.00    -0.082 A 
ATOM      9  C7  UNL d   1      -4.459  -0.549   4.554  0.00  0.00     0.045 A 
ENDROOT
TORSDOF 0
ENDMDL
