MODEL 1
REMARK minimizedAffinity 6.16445827
REMARK minimizedRMSD -1
REMARK  0 active torsions:
REMARK  status: ('A' for Active; 'I' for Inactive)
ROOT
ATOM      1  C   UNL d   1      -2.393  -2.016  -6.000  0.00  0.00    -0.002 A 
ATOM      2  C1  UNL d   1      -3.025  -0.789  -5.854  0.00  0.00     0.010 A 
ATOM      3  C2  UNL d   1      -2.406   0.250  -5.157  0.00  0.00     0.041 A 
ATOM      4  C3  UNL d   1      -1.128   0.034  -4.605  0.00  0.00    -0.075 A 
ATOM      5  S   UNL d   1      -0.177   1.162  -3.712  0.00  0.00     0.015 SA
ATOM      6  C4  UNL d   1       1.090   0.042  -3.504  0.00  0.00     0.022 A 
ATOM      7  C5  UNL d   1       0.812  -1.168  -4.095  0.00  0.00     0.026 A 
ATOM      8  C6  UNL d   1      -0.471  -1.192  -4.740  0.00  0.00    -0.082 A 
ATOM      9  C7  UNL d   1      -1.125  -2.226  -5.451  0.00  0.00     0.045 A 
ENDROOT
TORSDOF 0
ENDMDL
