MODEL 1
REMARK minimizedAffinity 10.9198399
REMARK minimizedRMSD -1
REMARK  0 active torsions:
REMARK  status: ('A' for Active; 'I' for Inactive)
ROOT
ATOM      1  C   UNL d   1      -5.323  -3.049  -6.000  0.00  0.00    -0.002 A 
ATOM      2  C1  UNL d   1      -5.659  -1.703  -5.999  0.00  0.00     0.010 A 
ATOM      3  C2  UNL d   1      -4.665  -0.723  -5.997  0.00  0.00     0.041 A 
ATOM      4  C3  UNL d   1      -3.314  -1.123  -5.997  0.00  0.00    -0.075 A 
ATOM      5  S   UNL d   1      -1.927  -0.099  -5.996  0.00  0.00     0.015 SA
ATOM      6  C4  UNL d   1      -0.856  -1.425  -5.997  0.00  0.00     0.022 A 
ATOM      7  C5  UNL d   1      -1.523  -2.627  -5.998  0.00  0.00     0.026 A 
ATOM      8  C6  UNL d   1      -2.951  -2.473  -5.999  0.00  0.00    -0.082 A 
ATOM      9  C7  UNL d   1      -3.982  -3.442  -6.000  0.00  0.00     0.045 A 
ENDROOT
TORSDOF 0
ENDMDL
