MODEL 1
REMARK minimizedAffinity 6.36174583
REMARK minimizedRMSD -1
REMARK  0 active torsions:
REMARK  status: ('A' for Active; 'I' for Inactive)
ROOT
ATOM      1  C   UNL d   1      -5.654   1.978   4.076  0.00  0.00    -0.002 A 
ATOM      2  C1  UNL d   1      -5.284   0.748   4.601  0.00  0.00     0.010 A 
ATOM      3  C2  UNL d   1      -4.118   0.113   4.169  0.00  0.00     0.041 A 
ATOM      4  C3  UNL d   1      -3.321   0.742   3.192  0.00  0.00    -0.075 A 
ATOM      5  S   UNL d   1      -1.851   0.152   2.513  0.00  0.00     0.015 SA
ATOM      6  C4  UNL d   1      -1.678   1.519   1.511  0.00  0.00     0.022 A 
ATOM      7  C5  UNL d   1      -2.708   2.414   1.677  0.00  0.00     0.026 A 
ATOM      8  C6  UNL d   1      -3.672   1.981   2.649  0.00  0.00    -0.082 A 
ATOM      9  C7  UNL d   1      -4.861   2.599   3.107  0.00  0.00     0.045 A 
ENDROOT
TORSDOF 0
ENDMDL
