MODEL 1
REMARK minimizedAffinity 6.49529266
REMARK minimizedRMSD -1
REMARK  0 active torsions:
REMARK  status: ('A' for Active; 'I' for Inactive)
ROOT
ATOM      1  C   UNL d   1      -5.103  -2.247  -5.658  0.00  0.00    -0.002 A 
ATOM      2  C1  UNL d   1      -4.994  -0.997  -5.065  0.00  0.00     0.010 A 
ATOM      3  C2  UNL d   1      -3.740  -0.443  -4.799  0.00  0.00     0.041 A 
ATOM      4  C3  UNL d   1      -2.586  -1.173  -5.145  0.00  0.00    -0.075 A 
ATOM      5  S   UNL d   1      -0.946  -0.693  -4.916  0.00  0.00     0.015 SA
ATOM      6  C4  UNL d   1      -0.350  -2.136  -5.601  0.00  0.00     0.022 A 
ATOM      7  C5  UNL d   1      -1.364  -2.974  -6.000  0.00  0.00     0.026 A 
ATOM      8  C6  UNL d   1      -2.669  -2.433  -5.744  0.00  0.00    -0.082 A 
ATOM      9  C7  UNL d   1      -3.955  -2.968  -6.000  0.00  0.00     0.045 A 
ENDROOT
TORSDOF 0
ENDMDL
