MODEL 1
REMARK minimizedAffinity 1.43169677
REMARK minimizedRMSD -1
REMARK  0 active torsions:
REMARK  status: ('A' for Active; 'I' for Inactive)
ROOT
ATOM      1  C   UNL d   1      -1.705  -0.661  -5.986  0.00  0.00    -0.002 A 
ATOM      2  C1  UNL d   1      -1.232  -1.966  -5.996  0.00  0.00     0.010 A 
ATOM      3  C2  UNL d   1      -2.120  -3.043  -5.999  0.00  0.00     0.041 A 
ATOM      4  C3  UNL d   1      -3.505  -2.785  -5.994  0.00  0.00    -0.075 A 
ATOM      5  S   UNL d   1      -4.779  -3.947  -5.997  0.00  0.00     0.015 SA
ATOM      6  C4  UNL d   1      -5.981  -2.738  -5.986  0.00  0.00     0.022 A 
ATOM      7  C5  UNL d   1      -5.442  -1.474  -5.980  0.00  0.00     0.026 A 
ATOM      8  C6  UNL d   1      -4.006  -1.480  -5.985  0.00  0.00    -0.082 A 
ATOM      9  C7  UNL d   1      -3.080  -0.409  -5.980  0.00  0.00     0.045 A 
ENDROOT
TORSDOF 0
ENDMDL
