MODEL 1
REMARK minimizedAffinity 13.7497253
REMARK minimizedRMSD -1
REMARK  0 active torsions:
REMARK  status: ('A' for Active; 'I' for Inactive)
ROOT
ATOM      1  C   UNL d   1       3.675  -0.526   1.087  0.00  0.00     0.124 A 
ATOM      2  C1  UNL d   1       2.856  -1.647   1.081  0.00  0.00     0.062 A 
ATOM      3  C2  UNL d   1       2.067  -1.931  -0.030  0.00  0.00     0.162 A 
ATOM      4  C3  UNL d   1       2.094  -1.094  -1.145  0.00  0.00    -0.034 A 
ATOM      5  C4  UNL d   1       2.920   0.031  -1.131  0.00  0.00     0.162 A 
ATOM      6  C5  UNL d   1       3.707   0.311  -0.018  0.00  0.00     0.062 A 
ATOM      7  F   UNL d   1       4.497   1.394  -0.014  0.00  0.00    -0.097 F 
ATOM      8  F1  UNL d   1       2.970   0.858  -2.187  0.00  0.00    -0.096 F 
ATOM      9  I   UNL d   1       0.916  -1.516  -2.808  0.00  0.00    -0.060 I 
ATOM     10  F2  UNL d   1       1.285  -3.021  -0.008  0.00  0.00    -0.096 F 
ATOM     11  F3  UNL d   1       2.823  -2.457   2.149  0.00  0.00    -0.097 F 
ATOM     12  F4  UNL d   1       4.432  -0.255   2.158  0.00  0.00    -0.092 F 
ENDROOT
TORSDOF 0
ENDMDL
