MODEL 1
REMARK minimizedAffinity 23.2172794
REMARK minimizedRMSD -1
REMARK  0 active torsions:
REMARK  status: ('A' for Active; 'I' for Inactive)
ROOT
ATOM      1  C   UNL d   1      -4.563   1.132  -1.464  0.00  0.00     0.124 A 
ATOM      2  C1  UNL d   1      -4.273   0.579  -0.224  0.00  0.00     0.062 A 
ATOM      3  C2  UNL d   1      -4.396   1.346   0.931  0.00  0.00     0.162 A 
ATOM      4  C3  UNL d   1      -4.812   2.675   0.852  0.00  0.00    -0.034 A 
ATOM      5  C4  UNL d   1      -5.102   3.225  -0.398  0.00  0.00     0.162 A 
ATOM      6  C5  UNL d   1      -4.977   2.454  -1.550  0.00  0.00     0.062 A 
ATOM      7  F   UNL d   1      -5.258   2.990  -2.746  0.00  0.00    -0.097 F 
ATOM      8  F1  UNL d   1      -5.505   4.499  -0.510  0.00  0.00    -0.096 F 
ATOM      9  I   UNL d   1      -4.998   3.825   2.577  0.00  0.00    -0.060 I 
ATOM     10  F2  UNL d   1      -4.109   0.786   2.115  0.00  0.00    -0.096 F 
ATOM     11  F3  UNL d   1      -3.871  -0.697  -0.139  0.00  0.00    -0.097 F 
ATOM     12  F4  UNL d   1      -4.443   0.393  -2.574  0.00  0.00    -0.092 F 
ENDROOT
TORSDOF 0
ENDMDL
