MODEL 1
REMARK minimizedAffinity 22.6451149
REMARK minimizedRMSD -1
REMARK  0 active torsions:
REMARK  status: ('A' for Active; 'I' for Inactive)
ROOT
ATOM      1  C   UNL d   1      -4.840   2.499   0.911  0.00  0.00     0.124 A 
ATOM      2  C1  UNL d   1      -4.748   2.252   2.274  0.00  0.00     0.062 A 
ATOM      3  C2  UNL d   1      -5.079   3.247   3.189  0.00  0.00     0.162 A 
ATOM      4  C3  UNL d   1      -5.505   4.499   2.745  0.00  0.00    -0.034 A 
ATOM      5  C4  UNL d   1      -5.594   4.740   1.373  0.00  0.00     0.162 A 
ATOM      6  C5  UNL d   1      -5.262   3.743   0.462  0.00  0.00     0.062 A 
ATOM      7  F   UNL d   1      -5.351   3.983  -0.854  0.00  0.00    -0.097 F 
ATOM      8  F1  UNL d   1      -6.000   5.932   0.912  0.00  0.00    -0.096 F 
ATOM      9  I   UNL d   1      -6.000   5.989   4.111  0.00  0.00    -0.060 I 
ATOM     10  F2  UNL d   1      -4.981   2.981   4.500  0.00  0.00    -0.096 F 
ATOM     11  F3  UNL d   1      -4.339   1.052   2.710  0.00  0.00    -0.097 F 
ATOM     12  F4  UNL d   1      -4.520   1.541   0.032  0.00  0.00    -0.092 F 
ENDROOT
TORSDOF 0
ENDMDL
