MODEL 1
REMARK minimizedAffinity 28.7185421
REMARK minimizedRMSD -1
REMARK  0 active torsions:
REMARK  status: ('A' for Active; 'I' for Inactive)
ROOT
ATOM      1  C   UNL d   1       1.390  -0.046  -1.347  0.00  0.00     0.124 A 
ATOM      2  C1  UNL d   1       2.293  -0.593  -0.446  0.00  0.00     0.062 A 
ATOM      3  C2  UNL d   1       2.997   0.231   0.427  0.00  0.00     0.162 A 
ATOM      4  C3  UNL d   1       2.801   1.612   0.404  0.00  0.00    -0.034 A 
ATOM      5  C4  UNL d   1       1.892   2.155  -0.506  0.00  0.00     0.162 A 
ATOM      6  C5  UNL d   1       1.190   1.327  -1.376  0.00  0.00     0.062 A 
ATOM      7  F   UNL d   1       0.318   1.858  -2.246  0.00  0.00    -0.097 F 
ATOM      8  F1  UNL d   1       1.678   3.478  -0.554  0.00  0.00    -0.096 F 
ATOM      9  I   UNL d   1       3.852   2.847   1.707  0.00  0.00    -0.060 I 
ATOM     10  F2  UNL d   1       3.863  -0.325   1.287  0.00  0.00    -0.096 F 
ATOM     11  F3  UNL d   1       2.488  -1.919  -0.417  0.00  0.00    -0.097 F 
ATOM     12  F4  UNL d   1       0.714  -0.841  -2.187  0.00  0.00    -0.092 F 
ENDROOT
TORSDOF 0
ENDMDL
