MODEL 1
REMARK minimizedAffinity 20.9221458
REMARK minimizedRMSD -1
REMARK  0 active torsions:
REMARK  status: ('A' for Active; 'I' for Inactive)
ROOT
ATOM      1  C   UNL d   1      -1.839   0.089  -2.372  0.00  0.00     0.124 A 
ATOM      2  C1  UNL d   1      -1.810   0.126  -3.760  0.00  0.00     0.062 A 
ATOM      3  C2  UNL d   1      -2.996   0.203  -4.483  0.00  0.00     0.162 A 
ATOM      4  C3  UNL d   1      -4.223   0.243  -3.820  0.00  0.00    -0.034 A 
ATOM      5  C4  UNL d   1      -4.244   0.204  -2.425  0.00  0.00     0.162 A 
ATOM      6  C5  UNL d   1      -3.055   0.127  -1.706  0.00  0.00     0.062 A 
ATOM      7  F   UNL d   1      -3.085   0.091  -0.366  0.00  0.00    -0.097 F 
ATOM      8  F1  UNL d   1      -5.406   0.240  -1.755  0.00  0.00    -0.096 F 
ATOM      9  I   UNL d   1      -6.000   0.357  -4.897  0.00  0.00    -0.060 I 
ATOM     10  F2  UNL d   1      -2.939   0.237  -5.822  0.00  0.00    -0.096 F 
ATOM     11  F3  UNL d   1      -0.635   0.088  -4.406  0.00  0.00    -0.097 F 
ATOM     12  F4  UNL d   1      -0.695   0.014  -1.679  0.00  0.00    -0.092 F 
ENDROOT
TORSDOF 0
ENDMDL
