MODEL 1
REMARK minimizedAffinity 16.4098568
REMARK minimizedRMSD -1
REMARK  0 active torsions:
REMARK  status: ('A' for Active; 'I' for Inactive)
ROOT
ATOM      1  C   UNL d   1      -4.049   0.591  -0.325  0.00  0.00     0.124 A 
ATOM      2  C1  UNL d   1      -4.157   1.947  -0.605  0.00  0.00     0.062 A 
ATOM      3  C2  UNL d   1      -4.643   2.370  -1.838  0.00  0.00     0.162 A 
ATOM      4  C3  UNL d   1      -5.026   1.438  -2.802  0.00  0.00    -0.034 A 
ATOM      5  C4  UNL d   1      -4.913   0.076  -2.514  0.00  0.00     0.162 A 
ATOM      6  C5  UNL d   1      -4.427  -0.342  -1.280  0.00  0.00     0.062 A 
ATOM      7  F   UNL d   1      -4.323  -1.652  -1.012  0.00  0.00    -0.097 F 
ATOM      8  F1  UNL d   1      -5.272  -0.847  -3.418  0.00  0.00    -0.096 F 
ATOM      9  I   UNL d   1      -5.753   2.067  -4.648  0.00  0.00    -0.060 I 
ATOM     10  F2  UNL d   1      -4.736   3.686  -2.081  0.00  0.00    -0.096 F 
ATOM     11  F3  UNL d   1      -3.791   2.851   0.315  0.00  0.00    -0.097 F 
ATOM     12  F4  UNL d   1      -3.580   0.186   0.862  0.00  0.00    -0.092 F 
ENDROOT
TORSDOF 0
ENDMDL
