MODEL 1
REMARK minimizedAffinity 18.8800926
REMARK minimizedRMSD -1
REMARK  0 active torsions:
REMARK  status: ('A' for Active; 'I' for Inactive)
ROOT
ATOM      1  C   UNL d   1      -3.312  -0.095  -4.707  0.00  0.00     0.124 A 
ATOM      2  C1  UNL d   1      -2.305  -0.284  -3.771  0.00  0.00     0.062 A 
ATOM      3  C2  UNL d   1      -2.537  -0.007  -2.427  0.00  0.00     0.162 A 
ATOM      4  C3  UNL d   1      -3.783   0.463  -2.011  0.00  0.00    -0.034 A 
ATOM      5  C4  UNL d   1      -4.791   0.652  -2.958  0.00  0.00     0.162 A 
ATOM      6  C5  UNL d   1      -4.554   0.373  -4.300  0.00  0.00     0.062 A 
ATOM      7  F   UNL d   1      -5.528   0.556  -5.203  0.00  0.00    -0.097 F 
ATOM      8  F1  UNL d   1      -6.000   1.102  -2.592  0.00  0.00    -0.096 F 
ATOM      9  I   UNL d   1      -4.134   0.879  -0.002  0.00  0.00    -0.060 I 
ATOM     10  F2  UNL d   1      -1.546  -0.199  -1.545  0.00  0.00    -0.096 F 
ATOM     11  F3  UNL d   1      -1.104  -0.735  -4.162  0.00  0.00    -0.097 F 
ATOM     12  F4  UNL d   1      -3.086  -0.362  -6.000  0.00  0.00    -0.092 F 
ENDROOT
TORSDOF 0
ENDMDL
