MODEL 1
REMARK minimizedAffinity 12.755476
REMARK minimizedRMSD -1
REMARK  0 active torsions:
REMARK  status: ('A' for Active; 'I' for Inactive)
ROOT
ATOM      1  C   UNL d   1       2.199   0.458  -0.405  0.00  0.00     0.124 A 
ATOM      2  C1  UNL d   1       3.114   0.935   0.523  0.00  0.00     0.062 A 
ATOM      3  C2  UNL d   1       3.028   2.247   0.979  0.00  0.00     0.162 A 
ATOM      4  C3  UNL d   1       2.023   3.092   0.508  0.00  0.00    -0.034 A 
ATOM      5  C4  UNL d   1       1.107   2.605  -0.426  0.00  0.00     0.162 A 
ATOM      6  C5  UNL d   1       1.197   1.292  -0.879  0.00  0.00     0.062 A 
ATOM      7  F   UNL d   1       0.312   0.833  -1.775  0.00  0.00    -0.097 F 
ATOM      8  F1  UNL d   1       0.128   3.390  -0.899  0.00  0.00    -0.096 F 
ATOM      9  I   UNL d   1       1.892   5.054   1.188  0.00  0.00    -0.060 I 
ATOM     10  F2  UNL d   1       3.926   2.682   1.876  0.00  0.00    -0.096 F 
ATOM     11  F3  UNL d   1       4.084   0.131   0.981  0.00  0.00    -0.097 F 
ATOM     12  F4  UNL d   1       2.284  -0.805  -0.843  0.00  0.00    -0.092 F 
ENDROOT
TORSDOF 0
ENDMDL
