MODEL 1
REMARK minimizedAffinity 24.788065
REMARK minimizedRMSD -1
REMARK  0 active torsions:
REMARK  status: ('A' for Active; 'I' for Inactive)
ROOT
ATOM      1  C   UNL d   1       2.787   0.609   0.252  0.00  0.00     0.124 A 
ATOM      2  C1  UNL d   1       2.809   0.254  -1.090  0.00  0.00     0.062 A 
ATOM      3  C2  UNL d   1       3.725   0.844  -1.955  0.00  0.00     0.162 A 
ATOM      4  C3  UNL d   1       4.628   1.796  -1.482  0.00  0.00    -0.034 A 
ATOM      5  C4  UNL d   1       4.600   2.149  -0.132  0.00  0.00     0.162 A 
ATOM      6  C5  UNL d   1       3.682   1.556   0.729  0.00  0.00     0.062 A 
ATOM      7  F   UNL d   1       3.662   1.901   2.025  0.00  0.00    -0.097 F 
ATOM      8  F1  UNL d   1       5.453   3.061   0.357  0.00  0.00    -0.096 F 
ATOM      9  I   UNL d   1       6.000   2.682  -2.773  0.00  0.00    -0.060 I 
ATOM     10  F2  UNL d   1       3.724   0.482  -3.247  0.00  0.00    -0.096 F 
ATOM     11  F3  UNL d   1       1.945  -0.660  -1.554  0.00  0.00    -0.097 F 
ATOM     12  F4  UNL d   1       1.904   0.040   1.082  0.00  0.00    -0.092 F 
ENDROOT
TORSDOF 0
ENDMDL
