MODEL 1
REMARK minimizedAffinity 13.8970728
REMARK minimizedRMSD -1
REMARK  1 active torsions:
REMARK  status: ('A' for Active; 'I' for Inactive)
REMARK    1  A    between atoms: C1_2  and  C2_3 
ROOT
ATOM      1  C2  UNL d   1       0.470  -3.612  -1.921  0.00  0.00    -0.076 A 
ATOM      2  C3  UNL d   1       0.210  -4.550  -2.935  0.00  0.00     0.004 A 
ATOM      3  C4  UNL d   1       1.249  -5.122  -3.667  0.00  0.00    -0.003 A 
ATOM      4  C5  UNL d   1       2.566  -4.766  -3.395  0.00  0.00     0.000 A 
ATOM      5  C6  UNL d   1       2.843  -3.851  -2.380  0.00  0.00     0.000 A 
ATOM      6  C7  UNL d   1       1.808  -3.277  -1.622  0.00  0.00    -0.073 A 
ATOM      7  C8  UNL d   1       2.164  -2.291  -0.544  0.00  0.00     0.078 C 
ENDROOT
BRANCH   1   8
ATOM      8  C1  UNL d   1      -0.699  -3.005  -1.179  0.00  0.00     0.053 C 
ATOM      9  C   UNL d   1      -1.818  -4.006  -0.934  0.00  0.00     0.018 C 
ENDBRANCH   1   8
TORSDOF 1
ENDMDL
