MODEL 1
REMARK minimizedAffinity 8.7540493
REMARK minimizedRMSD -1
REMARK  1 active torsions:
REMARK  status: ('A' for Active; 'I' for Inactive)
REMARK    1  A    between atoms: C1_2  and  C2_3 
ROOT
ATOM      1  C2  UNL d   1       1.932   1.734   2.761  0.00  0.00    -0.076 A 
ATOM      2  C3  UNL d   1       2.477   1.821   4.054  0.00  0.00     0.004 A 
ATOM      3  C4  UNL d   1       3.440   2.780   4.363  0.00  0.00    -0.003 A 
ATOM      4  C5  UNL d   1       3.874   3.667   3.384  0.00  0.00     0.000 A 
ATOM      5  C6  UNL d   1       3.332   3.606   2.101  0.00  0.00     0.000 A 
ATOM      6  C7  UNL d   1       2.347   2.657   1.778  0.00  0.00    -0.073 A 
ATOM      7  C8  UNL d   1       1.801   2.632   0.376  0.00  0.00     0.078 C 
ENDROOT
BRANCH   1   8
ATOM      8  C1  UNL d   1       0.910   0.657   2.478  0.00  0.00     0.053 C 
ATOM      9  C   UNL d   1       1.538  -0.610   1.916  0.00  0.00     0.018 C 
ENDBRANCH   1   8
TORSDOF 1
ENDMDL
