MODEL 1
REMARK minimizedAffinity 9.2294035
REMARK minimizedRMSD -1
REMARK  1 active torsions:
REMARK  status: ('A' for Active; 'I' for Inactive)
REMARK    1  A    between atoms: C1_2  and  C2_3 
ROOT
ATOM      1  C2  UNL d   1       0.091   4.544  -4.941  0.00  0.00    -0.076 A 
ATOM      2  C3  UNL d   1       0.732   5.224  -5.991  0.00  0.00     0.004 A 
ATOM      3  C4  UNL d   1       2.115   5.393  -5.998  0.00  0.00    -0.003 A 
ATOM      4  C5  UNL d   1       2.881   4.882  -4.956  0.00  0.00     0.000 A 
ATOM      5  C6  UNL d   1       2.264   4.189  -3.915  0.00  0.00     0.000 A 
ATOM      6  C7  UNL d   1       0.872   3.997  -3.901  0.00  0.00    -0.073 A 
ATOM      7  C8  UNL d   1       0.258   3.247  -2.750  0.00  0.00     0.078 C 
ENDROOT
BRANCH   1   8
ATOM      8  C1  UNL d   1      -1.415   4.416  -4.974  0.00  0.00     0.053 C 
ATOM      9  C   UNL d   1      -2.067   5.437  -5.894  0.00  0.00     0.018 C 
ENDBRANCH   1   8
TORSDOF 1
ENDMDL
