MODEL 1
REMARK minimizedAffinity 11.1548491
REMARK minimizedRMSD -1
REMARK  1 active torsions:
REMARK  status: ('A' for Active; 'I' for Inactive)
REMARK    1  A    between atoms: C1_2  and  C2_3 
ROOT
ATOM      1  C2  UNL d   1      -2.800  -5.880   1.957  0.00  0.00    -0.076 A 
ATOM      2  C3  UNL d   1      -1.527  -5.774   2.545  0.00  0.00     0.004 A 
ATOM      3  C4  UNL d   1      -1.383  -5.637   3.924  0.00  0.00    -0.003 A 
ATOM      4  C5  UNL d   1      -2.510  -5.603   4.739  0.00  0.00     0.000 A 
ATOM      5  C6  UNL d   1      -3.779  -5.724   4.175  0.00  0.00     0.000 A 
ATOM      6  C7  UNL d   1      -3.941  -5.880   2.787  0.00  0.00    -0.073 A 
ATOM      7  C8  UNL d   1      -5.334  -6.000   2.232  0.00  0.00     0.078 C 
ENDROOT
BRANCH   1   8
ATOM      8  C1  UNL d   1      -2.895  -6.000   0.453  0.00  0.00     0.053 C 
ATOM      9  C   UNL d   1      -2.024  -4.983  -0.269  0.00  0.00     0.018 C 
ENDBRANCH   1   8
TORSDOF 1
ENDMDL
