MODEL 1
REMARK minimizedAffinity 7.12945509
REMARK minimizedRMSD -1
REMARK  1 active torsions:
REMARK  status: ('A' for Active; 'I' for Inactive)
REMARK    1  A    between atoms: C1_2  and  C2_3 
ROOT
ATOM      1  C2  UNL d   1      -2.320  -1.238   2.263  0.00  0.00    -0.076 A 
ATOM      2  C3  UNL d   1      -3.340  -0.283   2.110  0.00  0.00     0.004 A 
ATOM      3  C4  UNL d   1      -4.561  -0.425   2.767  0.00  0.00    -0.003 A 
ATOM      4  C5  UNL d   1      -4.782  -1.526   3.588  0.00  0.00     0.000 A 
ATOM      5  C6  UNL d   1      -3.776  -2.474   3.765  0.00  0.00     0.000 A 
ATOM      6  C7  UNL d   1      -2.533  -2.337   3.123  0.00  0.00    -0.073 A 
ATOM      7  C8  UNL d   1      -1.485  -3.393   3.345  0.00  0.00     0.078 C 
ENDROOT
BRANCH   1   8
ATOM      8  C1  UNL d   1      -1.026  -1.045   1.505  0.00  0.00     0.053 C 
ATOM      9  C   UNL d   1      -0.563   0.404   1.503  0.00  0.00     0.018 C 
ENDBRANCH   1   8
TORSDOF 1
ENDMDL
