MODEL 1
REMARK minimizedAffinity 8.84166908
REMARK minimizedRMSD -1
REMARK  1 active torsions:
REMARK  status: ('A' for Active; 'I' for Inactive)
REMARK    1  A    between atoms: C1_2  and  C2_3 
ROOT
ATOM      1  C2  UNL d   1       4.366   3.009  -5.811  0.00  0.00    -0.076 A 
ATOM      2  C3  UNL d   1       5.515   3.798  -5.995  0.00  0.00     0.004 A 
ATOM      3  C4  UNL d   1       5.436   5.189  -6.000  0.00  0.00    -0.003 A 
ATOM      4  C5  UNL d   1       4.207   5.815  -5.821  0.00  0.00     0.000 A 
ATOM      5  C6  UNL d   1       3.059   5.048  -5.620  0.00  0.00     0.000 A 
ATOM      6  C7  UNL d   1       3.124   3.644  -5.596  0.00  0.00    -0.073 A 
ATOM      7  C8  UNL d   1       1.854   2.866  -5.382  0.00  0.00     0.078 C 
ENDROOT
BRANCH   1   8
ATOM      8  C1  UNL d   1       4.509   1.504  -5.843  0.00  0.00     0.053 C 
ATOM      9  C   UNL d   1       5.954   1.059  -5.999  0.00  0.00     0.018 C 
ENDBRANCH   1   8
TORSDOF 1
ENDMDL
