MODEL 1
REMARK minimizedAffinity 0.285743833
REMARK minimizedRMSD -1
REMARK  1 active torsions:
REMARK  status: ('A' for Active; 'I' for Inactive)
REMARK    1  A    between atoms: C1_2  and  C2_3 
ROOT
ATOM      1  C2  UNL d   1      -1.371   0.251   1.829  0.00  0.00    -0.076 A 
ATOM      2  C3  UNL d   1      -2.680   0.700   2.076  0.00  0.00     0.004 A 
ATOM      3  C4  UNL d   1      -3.670  -0.179   2.513  0.00  0.00    -0.003 A 
ATOM      4  C5  UNL d   1      -3.366  -1.522   2.711  0.00  0.00     0.000 A 
ATOM      5  C6  UNL d   1      -2.068  -1.981   2.488  0.00  0.00     0.000 A 
ATOM      6  C7  UNL d   1      -1.055  -1.105   2.062  0.00  0.00    -0.073 A 
ATOM      7  C8  UNL d   1       0.325  -1.655   1.831  0.00  0.00     0.078 C 
ENDROOT
BRANCH   1   8
ATOM      8  C1  UNL d   1      -0.347   1.245   1.330  0.00  0.00     0.053 C 
ATOM      9  C   UNL d   1       0.280   2.051   2.457  0.00  0.00     0.018 C 
ENDBRANCH   1   8
TORSDOF 1
ENDMDL
