MODEL 1
REMARK minimizedAffinity 4.06781101
REMARK minimizedRMSD -1
REMARK  1 active torsions:
REMARK  status: ('A' for Active; 'I' for Inactive)
REMARK    1  A    between atoms: C1_2  and  C2_3 
ROOT
ATOM      1  C2  UNL d   1      -2.041  -0.065   2.190  0.00  0.00    -0.076 A 
ATOM      2  C3  UNL d   1      -3.003   0.960   2.172  0.00  0.00     0.004 A 
ATOM      3  C4  UNL d   1      -4.246   0.788   2.780  0.00  0.00    -0.003 A 
ATOM      4  C5  UNL d   1      -4.546  -0.412   3.416  0.00  0.00     0.000 A 
ATOM      5  C6  UNL d   1      -3.597  -1.433   3.458  0.00  0.00     0.000 A 
ATOM      6  C7  UNL d   1      -2.334  -1.270   2.865  0.00  0.00    -0.073 A 
ATOM      7  C8  UNL d   1      -1.351  -2.406   2.935  0.00  0.00     0.078 C 
ENDROOT
BRANCH   1   8
ATOM      8  C1  UNL d   1      -0.721   0.168   1.490  0.00  0.00     0.053 C 
ATOM      9  C   UNL d   1      -0.482   1.636   1.173  0.00  0.00     0.018 C 
ENDBRANCH   1   8
TORSDOF 1
ENDMDL
