MODEL 1
REMARK minimizedAffinity 15.6547546
REMARK minimizedRMSD -1
REMARK  1 active torsions:
REMARK  status: ('A' for Active; 'I' for Inactive)
REMARK    1  A    between atoms: C1_2  and  C2_3 
ROOT
ATOM      1  C2  UNL d   1       3.725   3.745   3.875  0.00  0.00    -0.076 A 
ATOM      2  C3  UNL d   1       2.699   2.904   4.339  0.00  0.00     0.004 A 
ATOM      3  C4  UNL d   1       1.771   2.352   3.457  0.00  0.00    -0.003 A 
ATOM      4  C5  UNL d   1       1.855   2.631   2.098  0.00  0.00     0.000 A 
ATOM      5  C6  UNL d   1       2.877   3.449   1.618  0.00  0.00     0.000 A 
ATOM      6  C7  UNL d   1       3.830   4.001   2.491  0.00  0.00    -0.073 A 
ATOM      7  C8  UNL d   1       4.908   4.881   1.920  0.00  0.00     0.078 C 
ENDROOT
BRANCH   1   8
ATOM      8  C1  UNL d   1       4.686   4.337   4.881  0.00  0.00     0.053 C 
ATOM      9  C   UNL d   1       5.795   3.371   5.267  0.00  0.00     0.018 C 
ENDBRANCH   1   8
TORSDOF 1
ENDMDL
