MODEL 1
REMARK minimizedAffinity 9.23222446
REMARK minimizedRMSD -1
REMARK  1 active torsions:
REMARK  status: ('A' for Active; 'I' for Inactive)
REMARK    1  A    between atoms: C1_2  and  C2_3 
ROOT
ATOM      1  C2  UNL d   1      -3.968   0.237   2.625  0.00  0.00    -0.076 A 
ATOM      2  C3  UNL d   1      -2.611  -0.129   2.603  0.00  0.00     0.004 A 
ATOM      3  C4  UNL d   1      -1.772   0.284   1.569  0.00  0.00    -0.003 A 
ATOM      4  C5  UNL d   1      -2.277   1.072   0.540  0.00  0.00     0.000 A 
ATOM      5  C6  UNL d   1      -3.617   1.460   0.555  0.00  0.00     0.000 A 
ATOM      6  C7  UNL d   1      -4.471   1.065   1.599  0.00  0.00    -0.073 A 
ATOM      7  C8  UNL d   1      -5.909   1.507   1.561  0.00  0.00     0.078 C 
ENDROOT
BRANCH   1   8
ATOM      8  C1  UNL d   1      -4.835  -0.264   3.757  0.00  0.00     0.053 C 
ATOM      9  C   UNL d   1      -4.593  -1.733   4.070  0.00  0.00     0.018 C 
ENDBRANCH   1   8
TORSDOF 1
ENDMDL
