MODEL 1
REMARK minimizedAffinity 12.8886662
REMARK minimizedRMSD -1
REMARK  1 active torsions:
REMARK  status: ('A' for Active; 'I' for Inactive)
REMARK    1  A    between atoms: C1_2  and  C2_3 
ROOT
ATOM      1  C2  UNL d   1      -0.273   1.803   0.279  0.00  0.00    -0.076 A 
ATOM      2  C3  UNL d   1      -1.435   2.289  -0.344  0.00  0.00     0.004 A 
ATOM      3  C4  UNL d   1      -2.697   1.835   0.036  0.00  0.00    -0.003 A 
ATOM      4  C5  UNL d   1      -2.817   0.887   1.046  0.00  0.00     0.000 A 
ATOM      5  C6  UNL d   1      -1.676   0.406   1.687  0.00  0.00     0.000 A 
ATOM      6  C7  UNL d   1      -0.398   0.866   1.328  0.00  0.00    -0.073 A 
ATOM      7  C8  UNL d   1       0.799   0.309   2.049  0.00  0.00     0.078 C 
ENDROOT
BRANCH   1   8
ATOM      8  C1  UNL d   1       1.070   2.312  -0.193  0.00  0.00     0.053 C 
ATOM      9  C   UNL d   1       0.943   3.490  -1.147  0.00  0.00     0.018 C 
ENDBRANCH   1   8
TORSDOF 1
ENDMDL
