MODEL 1
REMARK minimizedAffinity 4.59393454
REMARK minimizedRMSD -1
REMARK  1 active torsions:
REMARK  status: ('A' for Active; 'I' for Inactive)
REMARK    1  A    between atoms: C1_2  and  C2_3 
ROOT
ATOM      1  C2  UNL d   1      -3.535  -0.734   2.544  0.00  0.00    -0.076 A 
ATOM      2  C3  UNL d   1      -4.668   0.005   2.927  0.00  0.00     0.004 A 
ATOM      3  C4  UNL d   1      -5.625  -0.540   3.781  0.00  0.00    -0.003 A 
ATOM      4  C5  UNL d   1      -5.465  -1.832   4.268  0.00  0.00     0.000 A 
ATOM      5  C6  UNL d   1      -4.339  -2.574   3.913  0.00  0.00     0.000 A 
ATOM      6  C7  UNL d   1      -3.356  -2.034   3.066  0.00  0.00    -0.073 A 
ATOM      7  C8  UNL d   1      -2.164  -2.880   2.711  0.00  0.00     0.078 C 
ENDROOT
BRANCH   1   8
ATOM      8  C1  UNL d   1      -2.544  -0.102   1.594  0.00  0.00     0.053 C 
ATOM      9  C   UNL d   1      -3.122   1.102   0.866  0.00  0.00     0.018 C 
ENDBRANCH   1   8
TORSDOF 1
ENDMDL
