MODEL 1
REMARK minimizedAffinity 0.828140736
REMARK minimizedRMSD -1
REMARK  0 active torsions:
REMARK  status: ('A' for Active; 'I' for Inactive)
ROOT
ATOM      1  C   UNL d   1      -4.728  -5.516  -2.106  0.00  0.00     0.020 A 
ATOM      2  C1  UNL d   1      -5.644  -4.465  -2.125  0.00  0.00     0.020 A 
ATOM      3  C2  UNL d   1      -5.999  -3.871  -3.338  0.00  0.00     0.034 A 
ATOM      4  C3  UNL d   1      -5.439  -4.327  -4.537  0.00  0.00     0.017 A 
ATOM      5  C4  UNL d   1      -4.519  -5.382  -4.516  0.00  0.00     0.017 A 
ATOM      6  C5  UNL d   1      -4.166  -5.973  -3.299  0.00  0.00     0.034 A 
ATOM      7 Cl   UNL d   1      -3.785  -5.999  -5.954  0.00  0.00    -0.070 Cl
ATOM      8 Cl1  UNL d   1      -5.924  -3.546  -5.999  0.00  0.00    -0.070 Cl
ENDROOT
TORSDOF 0
ENDMDL
