MODEL 1
REMARK minimizedAffinity 0.173593581
REMARK minimizedRMSD -1
REMARK  0 active torsions:
REMARK  status: ('A' for Active; 'I' for Inactive)
ROOT
ATOM      1  C   UNL d   1      -4.690  -5.483  -2.215  0.00  0.00     0.020 A 
ATOM      2  C1  UNL d   1      -5.686  -4.507  -2.215  0.00  0.00     0.020 A 
ATOM      3  C2  UNL d   1      -5.997  -3.827  -3.394  0.00  0.00     0.034 A 
ATOM      4  C3  UNL d   1      -5.312  -4.121  -4.578  0.00  0.00     0.017 A 
ATOM      5  C4  UNL d   1      -4.313  -5.101  -4.578  0.00  0.00     0.017 A 
ATOM      6  C5  UNL d   1      -4.005  -5.779  -3.394  0.00  0.00     0.034 A 
ATOM      7 Cl   UNL d   1      -3.424  -5.519  -6.000  0.00  0.00    -0.070 Cl
ATOM      8 Cl1  UNL d   1      -5.749  -3.240  -5.999  0.00  0.00    -0.070 Cl
ENDROOT
TORSDOF 0
ENDMDL
