MODEL 1
REMARK minimizedAffinity 6.63818598
REMARK minimizedRMSD -1
REMARK  0 active torsions:
REMARK  status: ('A' for Active; 'I' for Inactive)
ROOT
ATOM      1  C   UNL d   1       3.889   4.366  -5.555  0.00  0.00     0.020 A 
ATOM      2  C1  UNL d   1       5.020   5.173  -5.678  0.00  0.00     0.020 A 
ATOM      3  C2  UNL d   1       5.654   5.665  -4.535  0.00  0.00     0.034 A 
ATOM      4  C3  UNL d   1       5.157   5.351  -3.265  0.00  0.00     0.017 A 
ATOM      5  C4  UNL d   1       4.023   4.541  -3.142  0.00  0.00     0.017 A 
ATOM      6  C5  UNL d   1       3.392   4.051  -4.290  0.00  0.00     0.034 A 
ATOM      7 Cl   UNL d   1       3.352   4.111  -1.609  0.00  0.00    -0.070 Cl
ATOM      8 Cl1  UNL d   1       5.992   5.994  -1.895  0.00  0.00    -0.070 Cl
ENDROOT
TORSDOF 0
ENDMDL
