MODEL 1
REMARK minimizedAffinity 1.24638355
REMARK minimizedRMSD -1
REMARK  0 active torsions:
REMARK  status: ('A' for Active; 'I' for Inactive)
ROOT
ATOM      1  C   UNL d   1      -4.922  -4.932  -5.999  0.00  0.00     0.020 A 
ATOM      2  C1  UNL d   1      -4.977  -5.998  -5.102  0.00  0.00     0.020 A 
ATOM      3  C2  UNL d   1      -5.019  -5.753  -3.728  0.00  0.00     0.034 A 
ATOM      4  C3  UNL d   1      -5.005  -4.439  -3.246  0.00  0.00     0.017 A 
ATOM      5  C4  UNL d   1      -4.949  -3.370  -4.147  0.00  0.00     0.017 A 
ATOM      6  C5  UNL d   1      -4.908  -3.620  -5.522  0.00  0.00     0.034 A 
ATOM      7 Cl   UNL d   1      -4.928  -1.721  -3.628  0.00  0.00    -0.070 Cl
ATOM      8 Cl1  UNL d   1      -5.058  -4.210  -1.535  0.00  0.00    -0.070 Cl
ENDROOT
TORSDOF 0
ENDMDL
