MODEL 1
REMARK minimizedAffinity 10.3655424
REMARK minimizedRMSD -1
REMARK  0 active torsions:
REMARK  status: ('A' for Active; 'I' for Inactive)
ROOT
ATOM      1  C   UNL d   1      -4.146   1.878  -3.752  0.00  0.00     0.020 A 
ATOM      2  C1  UNL d   1      -5.420   2.443  -3.801  0.00  0.00     0.020 A 
ATOM      3  C2  UNL d   1      -5.973   3.016  -2.654  0.00  0.00     0.034 A 
ATOM      4  C3  UNL d   1      -5.253   3.027  -1.454  0.00  0.00     0.017 A 
ATOM      5  C4  UNL d   1      -3.975   2.459  -1.406  0.00  0.00     0.017 A 
ATOM      6  C5  UNL d   1      -3.425   1.886  -2.557  0.00  0.00     0.034 A 
ATOM      7 Cl   UNL d   1      -3.025   2.434   0.038  0.00  0.00    -0.070 Cl
ATOM      8 Cl1  UNL d   1      -5.999   3.753  -0.076  0.00  0.00    -0.070 Cl
ENDROOT
TORSDOF 0
ENDMDL
