MODEL 1
REMARK minimizedAffinity 13.76227
REMARK minimizedRMSD -1
REMARK  3 active torsions:
REMARK  status: ('A' for Active; 'I' for Inactive)
REMARK    1  A    between atoms: C3'_2  and  C2'_3 
REMARK    2  A    between atoms: C2'_3  and  C1'_4 
REMARK    3  A    between atoms: C1'_4  and  C1_5 
ROOT
ATOM      1  C1  N4B d   1      -1.907  -0.353   1.972  0.00  0.00    -0.075 A 
ATOM      2  C2  N4B d   1      -0.769  -1.186   1.900  0.00  0.00     0.002 A 
ATOM      3  C3  N4B d   1       0.007  -1.387   3.015  0.00  0.00     0.002 A 
ATOM      4  C4  N4B d   1      -0.323  -0.753   4.203  0.00  0.00    -0.004 A 
ATOM      5  C5  N4B d   1      -1.438   0.030   4.271  0.00  0.00     0.002 A 
ATOM      6  C6  N4B d   1      -2.229   0.237   3.160  0.00  0.00     0.002 A 
ENDROOT
BRANCH   1   7
ATOM      7  C1' N4B d   1      -2.737  -0.035   0.759  0.00  0.00     0.057 C 
BRANCH   7   8
ATOM      8  C2' N4B d   1      -3.964   0.764   1.187  0.00  0.00     0.009 C 
BRANCH   8   9
ATOM      9  C3' N4B d   1      -5.103   0.635   0.190  0.00  0.00     0.004 C 
ATOM     10  C4' N4B d   1      -6.000  -0.532   0.480  0.00  0.00     0.003 C 
ENDBRANCH   8   9
ENDBRANCH   7   8
ENDBRANCH   1   7
TORSDOF 3
ENDMDL
