MODEL 1
REMARK minimizedAffinity 3.87409282
REMARK minimizedRMSD -1
REMARK  3 active torsions:
REMARK  status: ('A' for Active; 'I' for Inactive)
REMARK    1  A    between atoms: C3'_2  and  C2'_3 
REMARK    2  A    between atoms: C2'_3  and  C1'_4 
REMARK    3  A    between atoms: C1'_4  and  C1_5 
ROOT
ATOM      1  C1  N4B d   1       5.224   5.403  -0.971  0.00  0.00    -0.075 A 
ATOM      2  C2  N4B d   1       4.264   5.917  -0.071  0.00  0.00     0.002 A 
ATOM      3  C3  N4B d   1       4.111   5.347   1.169  0.00  0.00     0.002 A 
ATOM      4  C4  N4B d   1       4.890   4.255   1.523  0.00  0.00    -0.004 A 
ATOM      5  C5  N4B d   1       5.832   3.781   0.658  0.00  0.00     0.002 A 
ATOM      6  C6  N4B d   1       6.000   4.347  -0.590  0.00  0.00     0.002 A 
ENDROOT
BRANCH   1   7
ATOM      7  C1' N4B d   1       5.368   5.939  -2.369  0.00  0.00     0.057 C 
BRANCH   7   8
ATOM      8  C2' N4B d   1       6.000   4.867  -3.253  0.00  0.00     0.009 C 
BRANCH   8   9
ATOM      9  C3' N4B d   1       5.249   4.696  -4.563  0.00  0.00     0.004 C 
ATOM     10  C4' N4B d   1       4.113   3.723  -4.458  0.00  0.00     0.003 C 
ENDBRANCH   8   9
ENDBRANCH   7   8
ENDBRANCH   1   7
TORSDOF 3
ENDMDL
