MODEL 1
REMARK minimizedAffinity 13.801774
REMARK minimizedRMSD -1
REMARK  3 active torsions:
REMARK  status: ('A' for Active; 'I' for Inactive)
REMARK    1  A    between atoms: C3'_2  and  C2'_3 
REMARK    2  A    between atoms: C2'_3  and  C1'_4 
REMARK    3  A    between atoms: C1'_4  and  C1_5 
ROOT
ATOM      1  C1  N4B d   1      -2.865   1.492   4.304  0.00  0.00    -0.075 A 
ATOM      2  C2  N4B d   1      -2.521   1.065   3.003  0.00  0.00     0.002 A 
ATOM      3  C3  N4B d   1      -1.651   0.017   2.832  0.00  0.00     0.002 A 
ATOM      4  C4  N4B d   1      -1.099  -0.605   3.942  0.00  0.00    -0.004 A 
ATOM      5  C5  N4B d   1      -1.456  -0.203   5.196  0.00  0.00     0.002 A 
ATOM      6  C6  N4B d   1      -2.333   0.847   5.383  0.00  0.00     0.002 A 
ENDROOT
BRANCH   1   7
ATOM      7  C1' N4B d   1      -3.745   2.689   4.541  0.00  0.00     0.057 C 
BRANCH   7   8
ATOM      8  C2' N4B d   1      -4.499   2.504   5.854  0.00  0.00     0.009 C 
BRANCH   8   9
ATOM      9  C3' N4B d   1      -5.649   3.486   5.993  0.00  0.00     0.004 C 
ATOM     10  C4' N4B d   1      -5.263   4.888   5.623  0.00  0.00     0.003 C 
ENDBRANCH   8   9
ENDBRANCH   7   8
ENDBRANCH   1   7
TORSDOF 3
ENDMDL
