MODEL 1
REMARK minimizedAffinity 22.2662029
REMARK minimizedRMSD -1
REMARK  3 active torsions:
REMARK  status: ('A' for Active; 'I' for Inactive)
REMARK    1  A    between atoms: C3'_2  and  C2'_3 
REMARK    2  A    between atoms: C2'_3  and  C1'_4 
REMARK    3  A    between atoms: C1'_4  and  C1_5 
ROOT
ATOM      1  C1  N4B d   1      -3.368   2.307   5.047  0.00  0.00    -0.075 A 
ATOM      2  C2  N4B d   1      -4.600   1.864   5.575  0.00  0.00     0.002 A 
ATOM      3  C3  N4B d   1      -5.536   2.777   5.994  0.00  0.00     0.002 A 
ATOM      4  C4  N4B d   1      -5.256   4.133   5.912  0.00  0.00    -0.004 A 
ATOM      5  C5  N4B d   1      -4.073   4.554   5.378  0.00  0.00     0.002 A 
ATOM      6  C6  N4B d   1      -3.125   3.647   4.949  0.00  0.00     0.002 A 
ENDROOT
BRANCH   1   7
ATOM      7  C1' N4B d   1      -2.279   1.346   4.655  0.00  0.00     0.057 C 
BRANCH   7   8
ATOM      8  C2' N4B d   1      -2.282   1.176   3.139  0.00  0.00     0.009 C 
BRANCH   8   9
ATOM      9  C3' N4B d   1      -1.328   0.084   2.688  0.00  0.00     0.004 C 
ATOM     10  C4' N4B d   1      -2.012  -1.000   1.909  0.00  0.00     0.003 C 
ENDBRANCH   8   9
ENDBRANCH   7   8
ENDBRANCH   1   7
TORSDOF 3
ENDMDL
