MODEL 1
REMARK minimizedAffinity 8.84623528
REMARK minimizedRMSD -1
REMARK  3 active torsions:
REMARK  status: ('A' for Active; 'I' for Inactive)
REMARK    1  A    between atoms: C3'_2  and  C2'_3 
REMARK    2  A    between atoms: C2'_3  and  C1'_4 
REMARK    3  A    between atoms: C1'_4  and  C1_5 
ROOT
ATOM      1  C1  N4B d   1      -2.608   0.915   3.226  0.00  0.00    -0.075 A 
ATOM      2  C2  N4B d   1      -1.482   0.129   2.897  0.00  0.00     0.002 A 
ATOM      3  C3  N4B d   1      -1.541  -0.748   1.843  0.00  0.00     0.002 A 
ATOM      4  C4  N4B d   1      -2.717  -0.870   1.117  0.00  0.00    -0.004 A 
ATOM      5  C5  N4B d   1      -3.792  -0.089   1.425  0.00  0.00     0.002 A 
ATOM      6  C6  N4B d   1      -3.745   0.800   2.480  0.00  0.00     0.002 A 
ENDROOT
BRANCH   1   7
ATOM      7  C1' N4B d   1      -2.619   1.826   4.423  0.00  0.00     0.057 C 
BRANCH   7   8
ATOM      8  C2' N4B d   1      -4.024   2.391   4.610  0.00  0.00     0.009 C 
BRANCH   8   9
ATOM      9  C3' N4B d   1      -4.224   2.970   6.000  0.00  0.00     0.004 C 
ATOM     10  C4' N4B d   1      -4.484   4.447   5.983  0.00  0.00     0.003 C 
ENDBRANCH   8   9
ENDBRANCH   7   8
ENDBRANCH   1   7
TORSDOF 3
ENDMDL
