MODEL 1
REMARK minimizedAffinity 17.5126381
REMARK minimizedRMSD -1
REMARK  3 active torsions:
REMARK  status: ('A' for Active; 'I' for Inactive)
REMARK    1  A    between atoms: C3'_2  and  C2'_3 
REMARK    2  A    between atoms: C2'_3  and  C1'_4 
REMARK    3  A    between atoms: C1'_4  and  C1_5 
ROOT
ATOM      1  C1  N4B d   1       3.197  -3.102   0.991  0.00  0.00    -0.075 A 
ATOM      2  C2  N4B d   1       4.436  -2.910   0.341  0.00  0.00     0.002 A 
ATOM      3  C3  N4B d   1       4.851  -3.797  -0.621  0.00  0.00     0.002 A 
ATOM      4  C4  N4B d   1       4.057  -4.889  -0.936  0.00  0.00    -0.004 A 
ATOM      5  C5  N4B d   1       2.850  -5.054  -0.322  0.00  0.00     0.002 A 
ATOM      6  C6  N4B d   1       2.418  -4.168   0.644  0.00  0.00     0.002 A 
ENDROOT
BRANCH   1   7
ATOM      7  C1' N4B d   1       2.740  -2.207   2.110  0.00  0.00     0.057 C 
BRANCH   7   8
ATOM      8  C2' N4B d   1       1.234  -2.366   2.295  0.00  0.00     0.009 C 
BRANCH   8   9
ATOM      9  C3' N4B d   1       0.505  -1.038   2.188  0.00  0.00     0.004 C 
ATOM     10  C4' N4B d   1      -0.912  -1.189   1.721  0.00  0.00     0.003 C 
ENDBRANCH   8   9
ENDBRANCH   7   8
ENDBRANCH   1   7
TORSDOF 3
ENDMDL
