MODEL 1
REMARK minimizedAffinity 7.55265713
REMARK minimizedRMSD -1
REMARK  3 active torsions:
REMARK  status: ('A' for Active; 'I' for Inactive)
REMARK    1  A    between atoms: C3'_2  and  C2'_3 
REMARK    2  A    between atoms: C2'_3  and  C1'_4 
REMARK    3  A    between atoms: C1'_4  and  C1_5 
ROOT
ATOM      1  C1  N4B d   1      -4.232   2.400   4.817  0.00  0.00    -0.075 A 
ATOM      2  C2  N4B d   1      -4.253   3.252   5.944  0.00  0.00     0.002 A 
ATOM      3  C3  N4B d   1      -5.141   4.298   5.996  0.00  0.00     0.002 A 
ATOM      4  C4  N4B d   1      -6.000   4.523   4.931  0.00  0.00    -0.004 A 
ATOM      5  C5  N4B d   1      -5.990   3.681   3.858  0.00  0.00     0.002 A 
ATOM      6  C6  N4B d   1      -5.106   2.623   3.793  0.00  0.00     0.002 A 
ENDROOT
BRANCH   1   7
ATOM      7  C1' N4B d   1      -3.221   1.295   4.677  0.00  0.00     0.057 C 
BRANCH   7   8
ATOM      8  C2' N4B d   1      -2.781   1.201   3.219  0.00  0.00     0.009 C 
BRANCH   8   9
ATOM      9  C3' N4B d   1      -1.699   0.154   3.018  0.00  0.00     0.004 C 
ATOM     10  C4' N4B d   1      -2.043  -0.840   1.949  0.00  0.00     0.003 C 
ENDBRANCH   8   9
ENDBRANCH   7   8
ENDBRANCH   1   7
TORSDOF 3
ENDMDL
