MODEL 1
REMARK minimizedAffinity 15.5272274
REMARK minimizedRMSD -1
REMARK  3 active torsions:
REMARK  status: ('A' for Active; 'I' for Inactive)
REMARK    1  A    between atoms: C3'_2  and  C2'_3 
REMARK    2  A    between atoms: C2'_3  and  C1'_4 
REMARK    3  A    between atoms: C1'_4  and  C1_5 
ROOT
ATOM      1  C1  N4B d   1       1.310   1.693  -1.567  0.00  0.00    -0.075 A 
ATOM      2  C2  N4B d   1       2.685   1.391  -1.682  0.00  0.00     0.002 A 
ATOM      3  C3  N4B d   1       3.381   0.938  -0.588  0.00  0.00     0.002 A 
ATOM      4  C4  N4B d   1       2.732   0.800   0.630  0.00  0.00    -0.004 A 
ATOM      5  C5  N4B d   1       1.398   1.070   0.725  0.00  0.00     0.002 A 
ATOM      6  C6  N4B d   1       0.685   1.521  -0.366  0.00  0.00     0.002 A 
ENDROOT
BRANCH   1   7
ATOM      7  C1' N4B d   1       0.526   2.272  -2.713  0.00  0.00     0.057 C 
BRANCH   7   8
ATOM      8  C2' N4B d   1       1.070   3.659  -3.042  0.00  0.00     0.009 C 
BRANCH   8   9
ATOM      9  C3' N4B d   1       0.328   4.753  -2.293  0.00  0.00     0.004 C 
ATOM     10  C4' N4B d   1       1.170   5.972  -2.062  0.00  0.00     0.003 C 
ENDBRANCH   8   9
ENDBRANCH   7   8
ENDBRANCH   1   7
TORSDOF 3
ENDMDL
