MODEL 1
REMARK minimizedAffinity 6.00406075
REMARK minimizedRMSD -1
REMARK  0 active torsions:
REMARK  status: ('A' for Active; 'I' for Inactive)
ROOT
ATOM      1  C   UNL d   1       1.090  -1.145  -1.816  0.00  0.00     0.023 A 
ATOM      2  C1  UNL d   1       2.123  -1.075  -0.881  0.00  0.00     0.003 A 
ATOM      3  C2  UNL d   1       3.058  -2.108  -0.792  0.00  0.00     0.048 A 
ATOM      4  C3  UNL d   1       2.954  -3.209  -1.642  0.00  0.00     0.023 A 
ATOM      5  C4  UNL d   1       1.923  -3.284  -2.579  0.00  0.00     0.048 A 
ATOM      6  C5  UNL d   1       0.990  -2.248  -2.664  0.00  0.00     0.003 A 
ATOM      7  I   UNL d   1       4.345  -4.748  -1.512  0.00  0.00    -0.146 I 
ENDROOT
TORSDOF 0
ENDMDL
