MODEL 1
REMARK minimizedAffinity 7.31739473
REMARK minimizedRMSD -1
REMARK  0 active torsions:
REMARK  status: ('A' for Active; 'I' for Inactive)
ROOT
ATOM      1  C   UNL d   1       1.480  -4.094  -1.536  0.00  0.00     0.023 A 
ATOM      2  C1  UNL d   1       0.761  -3.007  -2.034  0.00  0.00     0.003 A 
ATOM      3  C2  UNL d   1       1.162  -1.705  -1.729  0.00  0.00     0.048 A 
ATOM      4  C3  UNL d   1       2.283  -1.497  -0.926  0.00  0.00     0.023 A 
ATOM      5  C4  UNL d   1       3.005  -2.581  -0.426  0.00  0.00     0.048 A 
ATOM      6  C5  UNL d   1       2.600  -3.882  -0.733  0.00  0.00     0.003 A 
ATOM      7  I   UNL d   1       2.881   0.441  -0.470  0.00  0.00    -0.146 I 
ENDROOT
TORSDOF 0
ENDMDL
