MODEL 1
REMARK minimizedAffinity 11.9745054
REMARK minimizedRMSD -1
REMARK  0 active torsions:
REMARK  status: ('A' for Active; 'I' for Inactive)
ROOT
ATOM      1  C   UNL d   1       2.907  -1.609  -0.858  0.00  0.00     0.023 A 
ATOM      2  C1  UNL d   1       1.909  -0.825  -1.437  0.00  0.00     0.003 A 
ATOM      3  C2  UNL d   1       0.698  -1.405  -1.821  0.00  0.00     0.048 A 
ATOM      4  C3  UNL d   1       0.491  -2.770  -1.623  0.00  0.00     0.023 A 
ATOM      5  C4  UNL d   1       1.486  -3.558  -1.043  0.00  0.00     0.048 A 
ATOM      6  C5  UNL d   1       2.696  -2.974  -0.661  0.00  0.00     0.003 A 
ATOM      7  I   UNL d   1      -1.310  -3.635  -2.193  0.00  0.00    -0.146 I 
ENDROOT
TORSDOF 0
ENDMDL
