MODEL 1
REMARK minimizedAffinity 10.1994238
REMARK minimizedRMSD -1
REMARK  0 active torsions:
REMARK  status: ('A' for Active; 'I' for Inactive)
ROOT
ATOM      1  C   UNL d   1       2.269  -2.394  -5.103  0.00  0.00     0.023 A 
ATOM      2  C1  UNL d   1       2.376  -2.663  -3.739  0.00  0.00     0.003 A 
ATOM      3  C2  UNL d   1       3.395  -3.494  -3.268  0.00  0.00     0.048 A 
ATOM      4  C3  UNL d   1       4.303  -4.051  -4.167  0.00  0.00     0.023 A 
ATOM      5  C4  UNL d   1       4.200  -3.785  -5.533  0.00  0.00     0.048 A 
ATOM      6  C5  UNL d   1       3.179  -2.954  -5.999  0.00  0.00     0.003 A 
ATOM      7  I   UNL d   1       5.821  -5.288  -3.468  0.00  0.00    -0.146 I 
ENDROOT
TORSDOF 0
ENDMDL
