MODEL 1
REMARK minimizedAffinity 6.22507191
REMARK minimizedRMSD -1
REMARK  0 active torsions:
REMARK  status: ('A' for Active; 'I' for Inactive)
ROOT
ATOM      1  C   UNL d   1       1.476  -3.425  -1.105  0.00  0.00     0.023 A 
ATOM      2  C1  UNL d   1       0.770  -2.223  -1.137  0.00  0.00     0.003 A 
ATOM      3  C2  UNL d   1       1.458  -1.008  -1.176  0.00  0.00     0.048 A 
ATOM      4  C3  UNL d   1       2.852  -1.004  -1.184  0.00  0.00     0.023 A 
ATOM      5  C4  UNL d   1       3.563  -2.205  -1.153  0.00  0.00     0.048 A 
ATOM      6  C5  UNL d   1       2.870  -3.417  -1.113  0.00  0.00     0.003 A 
ATOM      7  I   UNL d   1       3.879   0.802  -1.242  0.00  0.00    -0.146 I 
ENDROOT
TORSDOF 0
ENDMDL
