MODEL 1
REMARK minimizedAffinity 11.4635897
REMARK minimizedRMSD -1
REMARK  0 active torsions:
REMARK  status: ('A' for Active; 'I' for Inactive)
ROOT
ATOM      1  C   UNL d   1       1.905   1.250  -2.352  0.00  0.00     0.023 A 
ATOM      2  C1  UNL d   1       2.585   1.137  -1.140  0.00  0.00     0.003 A 
ATOM      3  C2  UNL d   1       2.785  -0.120  -0.565  0.00  0.00     0.048 A 
ATOM      4  C3  UNL d   1       2.302  -1.259  -1.208  0.00  0.00     0.023 A 
ATOM      5  C4  UNL d   1       1.621  -1.150  -2.422  0.00  0.00     0.048 A 
ATOM      6  C5  UNL d   1       1.423   0.108  -2.992  0.00  0.00     0.003 A 
ATOM      7  I   UNL d   1       2.598  -3.131  -0.354  0.00  0.00    -0.146 I 
ENDROOT
TORSDOF 0
ENDMDL
