MODEL 1
REMARK minimizedAffinity 6.19780827
REMARK minimizedRMSD -1
REMARK  0 active torsions:
REMARK  status: ('A' for Active; 'I' for Inactive)
ROOT
ATOM      1  C   UNL d   1       2.416  -3.423  -1.553  0.00  0.00     0.023 A 
ATOM      2  C1  UNL d   1       2.230  -3.984  -0.290  0.00  0.00     0.003 A 
ATOM      3  C2  UNL d   1       1.238  -3.486   0.558  0.00  0.00     0.048 A 
ATOM      4  C3  UNL d   1       0.434  -2.428   0.135  0.00  0.00     0.023 A 
ATOM      5  C4  UNL d   1       0.616  -1.864  -1.129  0.00  0.00     0.048 A 
ATOM      6  C5  UNL d   1       1.610  -2.364  -1.972  0.00  0.00     0.003 A 
ATOM      7  I   UNL d   1      -1.043  -1.686   1.394  0.00  0.00    -0.146 I 
ENDROOT
TORSDOF 0
ENDMDL
