MODEL 1
REMARK minimizedAffinity 1.95008814
REMARK minimizedRMSD -1
REMARK  0 active torsions:
REMARK  status: ('A' for Active; 'I' for Inactive)
ROOT
ATOM      1  C   UNL d   1      -1.656   1.060   2.610  0.00  0.00     0.023 A 
ATOM      2  C1  UNL d   1      -1.561  -0.145   1.914  0.00  0.00     0.003 A 
ATOM      3  C2  UNL d   1      -2.675  -0.980   1.806  0.00  0.00     0.048 A 
ATOM      4  C3  UNL d   1      -3.881  -0.603   2.395  0.00  0.00     0.023 A 
ATOM      5  C4  UNL d   1      -3.981   0.602   3.092  0.00  0.00     0.048 A 
ATOM      6  C5  UNL d   1      -2.865   1.433   3.198  0.00  0.00     0.003 A 
ATOM      7  I   UNL d   1      -5.540  -1.845   2.235  0.00  0.00    -0.146 I 
ENDROOT
TORSDOF 0
ENDMDL
