MODEL 1
REMARK minimizedAffinity 9.43156433
REMARK minimizedRMSD -1
REMARK  0 active torsions:
REMARK  status: ('A' for Active; 'I' for Inactive)
ROOT
ATOM      1  C   UNL d   1      -2.126  -0.171   2.151  0.00  0.00     0.023 A 
ATOM      2  C1  UNL d   1      -1.534   1.013   2.590  0.00  0.00     0.003 A 
ATOM      3  C2  UNL d   1      -2.261   1.911   3.374  0.00  0.00     0.048 A 
ATOM      4  C3  UNL d   1      -3.581   1.618   3.717  0.00  0.00     0.023 A 
ATOM      5  C4  UNL d   1      -4.178   0.434   3.281  0.00  0.00     0.048 A 
ATOM      6  C5  UNL d   1      -3.447  -0.460   2.496  0.00  0.00     0.003 A 
ATOM      7  I   UNL d   1      -4.665   2.952   4.884  0.00  0.00    -0.146 I 
ENDROOT
TORSDOF 0
ENDMDL
