MODEL 1
REMARK minimizedAffinity 2.47593141
REMARK minimizedRMSD -1
REMARK  0 active torsions:
REMARK  status: ('A' for Active; 'I' for Inactive)
ROOT
ATOM      1  C   UNL d   1      -2.186  -5.663  -4.882  0.00  0.00     0.023 A 
ATOM      2  C1  UNL d   1      -2.034  -4.360  -4.407  0.00  0.00     0.003 A 
ATOM      3  C2  UNL d   1      -2.980  -3.385  -4.727  0.00  0.00     0.048 A 
ATOM      4  C3  UNL d   1      -4.076  -3.719  -5.522  0.00  0.00     0.023 A 
ATOM      5  C4  UNL d   1      -4.233  -5.022  -5.998  0.00  0.00     0.048 A 
ATOM      6  C5  UNL d   1      -3.283  -5.993  -5.676  0.00  0.00     0.003 A 
ATOM      7  I   UNL d   1      -5.486  -2.268  -6.000  0.00  0.00    -0.146 I 
ENDROOT
TORSDOF 0
ENDMDL
