MODEL 1
REMARK minimizedAffinity 8.73053932
REMARK minimizedRMSD -1
REMARK  0 active torsions:
REMARK  status: ('A' for Active; 'I' for Inactive)
ROOT
ATOM      1  C   UNL d   1       2.149  -1.865  -6.000  0.00  0.00     0.023 A 
ATOM      2  C1  UNL d   1       3.011  -2.617  -5.202  0.00  0.00     0.003 A 
ATOM      3  C2  UNL d   1       2.881  -2.589  -3.812  0.00  0.00     0.048 A 
ATOM      4  C3  UNL d   1       1.886  -1.807  -3.226  0.00  0.00     0.023 A 
ATOM      5  C4  UNL d   1       1.021  -1.053  -4.021  0.00  0.00     0.048 A 
ATOM      6  C5  UNL d   1       1.155  -1.083  -5.410  0.00  0.00     0.003 A 
ATOM      7  I   UNL d   1       1.691  -1.763  -1.158  0.00  0.00    -0.146 I 
ENDROOT
TORSDOF 0
ENDMDL
