MODEL 1
REMARK minimizedAffinity 7.91347218
REMARK minimizedRMSD -1
REMARK  0 active torsions:
REMARK  status: ('A' for Active; 'I' for Inactive)
ROOT
ATOM      1  C   UNL d   1       2.420  -0.014  -0.234  0.00  0.00     0.023 A 
ATOM      2  C1  UNL d   1       2.596   1.165  -0.958  0.00  0.00     0.003 A 
ATOM      3  C2  UNL d   1       2.374   1.179  -2.337  0.00  0.00     0.048 A 
ATOM      4  C3  UNL d   1       1.975   0.010  -2.984  0.00  0.00     0.023 A 
ATOM      5  C4  UNL d   1       1.797  -1.172  -2.264  0.00  0.00     0.048 A 
ATOM      6  C5  UNL d   1       2.021  -1.181  -0.886  0.00  0.00     0.003 A 
ATOM      7  I   UNL d   1       1.644   0.028  -5.036  0.00  0.00    -0.146 I 
ENDROOT
TORSDOF 0
ENDMDL
