MODEL 1
REMARK minimizedAffinity 8.91824055
REMARK minimizedRMSD -1
REMARK  0 active torsions:
REMARK  status: ('A' for Active; 'I' for Inactive)
ROOT
ATOM      1  C   UNL d   1       2.841  -2.826  -0.464  0.00  0.00     0.023 A 
ATOM      2  C1  UNL d   1       2.083  -1.789  -1.007  0.00  0.00     0.003 A 
ATOM      3  C2  UNL d   1       0.829  -2.055  -1.562  0.00  0.00     0.048 A 
ATOM      4  C3  UNL d   1       0.339  -3.361  -1.569  0.00  0.00     0.023 A 
ATOM      5  C4  UNL d   1       1.094  -4.402  -1.026  0.00  0.00     0.048 A 
ATOM      6  C5  UNL d   1       2.348  -4.131  -0.474  0.00  0.00     0.003 A 
ATOM      7  I   UNL d   1      -1.526  -3.759  -2.393  0.00  0.00    -0.146 I 
ENDROOT
TORSDOF 0
ENDMDL
