MODEL 1
REMARK minimizedAffinity 1.9582479
REMARK minimizedRMSD -1
REMARK  0 active torsions:
REMARK  status: ('A' for Active; 'I' for Inactive)
ROOT
ATOM      1  C   UNL d   1       2.423  -1.966  -1.215  0.00  0.00     0.023 A 
ATOM      2  C1  UNL d   1       2.013  -1.580  -2.492  0.00  0.00     0.003 A 
ATOM      3  C2  UNL d   1       0.716  -1.863  -2.926  0.00  0.00     0.048 A 
ATOM      4  C3  UNL d   1      -0.166  -2.531  -2.078  0.00  0.00     0.023 A 
ATOM      5  C4  UNL d   1       0.239  -2.918  -0.800  0.00  0.00     0.048 A 
ATOM      6  C5  UNL d   1       1.536  -2.635  -0.370  0.00  0.00     0.003 A 
ATOM      7  I   UNL d   1      -2.097  -2.952  -2.722  0.00  0.00    -0.146 I 
ENDROOT
TORSDOF 0
ENDMDL
