MODEL 1
REMARK minimizedAffinity 7.77519464
REMARK minimizedRMSD -1
REMARK  0 active torsions:
REMARK  status: ('A' for Active; 'I' for Inactive)
ROOT
ATOM      1  C   UNL d   1      -3.560  -0.680   2.023  0.00  0.00     0.023 A 
ATOM      2  C1  UNL d   1      -2.700   0.351   2.401  0.00  0.00     0.003 A 
ATOM      3  C2  UNL d   1      -3.103   1.281   3.362  0.00  0.00     0.048 A 
ATOM      4  C3  UNL d   1      -4.367   1.174   3.940  0.00  0.00     0.023 A 
ATOM      5  C4  UNL d   1      -5.231   0.143   3.565  0.00  0.00     0.048 A 
ATOM      6  C5  UNL d   1      -4.824  -0.784   2.604  0.00  0.00     0.003 A 
ATOM      7  I   UNL d   1      -4.969   2.557   5.370  0.00  0.00    -0.146 I 
ENDROOT
TORSDOF 0
ENDMDL
