MODEL 1
REMARK minimizedAffinity 18.2370415
REMARK minimizedRMSD -1
REMARK  0 active torsions:
REMARK  status: ('A' for Active; 'I' for Inactive)
ROOT
ATOM      1  C2' OXE d   1       3.141  -0.042   1.923  0.00  0.00     0.078 C 
ATOM      2  C1' OXE d   1       1.829  -0.624  -0.490  0.00  0.00     0.078 C 
ATOM      3  C1  OXE d   1       3.068   0.234  -0.552  0.00  0.00    -0.078 A 
ATOM      4  C2  OXE d   1       3.677   0.552   0.638  0.00  0.00    -0.078 A 
ATOM      5  C3  OXE d   1       4.854   1.294   0.633  0.00  0.00     0.003 A 
ATOM      6  C4  OXE d   1       5.338   1.849  -0.559  0.00  0.00    -0.002 A 
ATOM      7  C5  OXE d   1       4.710   1.570  -1.777  0.00  0.00    -0.002 A 
ATOM      8  C6  OXE d   1       3.601   0.731  -1.796  0.00  0.00     0.003 A 
ENDROOT
TORSDOF 0
ENDMDL
