MODEL 1
REMARK minimizedAffinity 6.94072628
REMARK minimizedRMSD -1
REMARK  0 active torsions:
REMARK  status: ('A' for Active; 'I' for Inactive)
ROOT
ATOM      1  C2' OXE d   1       2.374  -0.308  -1.090  0.00  0.00     0.078 C 
ATOM      2  C1' OXE d   1       3.521   0.131   1.434  0.00  0.00     0.078 C 
ATOM      3  C1  OXE d   1       4.174   0.784   0.241  0.00  0.00    -0.078 A 
ATOM      4  C2  OXE d   1       3.633   0.526  -0.996  0.00  0.00    -0.078 A 
ATOM      5  C3  OXE d   1       4.163   1.148  -2.123  0.00  0.00     0.003 A 
ATOM      6  C4  OXE d   1       5.334   1.910  -2.028  0.00  0.00    -0.002 A 
ATOM      7  C5  OXE d   1       5.924   2.152  -0.782  0.00  0.00    -0.002 A 
ATOM      8  C6  OXE d   1       5.333   1.633   0.364  0.00  0.00     0.003 A 
ENDROOT
TORSDOF 0
ENDMDL
