MODEL 1
REMARK minimizedAffinity 11.1303644
REMARK minimizedRMSD -1
REMARK  0 active torsions:
REMARK  status: ('A' for Active; 'I' for Inactive)
ROOT
ATOM      1  C2' OXE d   1       5.178   2.227   1.094  0.00  0.00     0.078 C 
ATOM      2  C1' OXE d   1       5.783   2.377  -1.643  0.00  0.00     0.078 C 
ATOM      3  C1  OXE d   1       4.615   1.519  -1.227  0.00  0.00    -0.078 A 
ATOM      4  C2  OXE d   1       4.354   1.415   0.119  0.00  0.00    -0.078 A 
ATOM      5  C3  OXE d   1       3.255   0.680   0.553  0.00  0.00     0.003 A 
ATOM      6  C4  OXE d   1       2.505  -0.077  -0.355  0.00  0.00    -0.002 A 
ATOM      7  C5  OXE d   1       2.777  -0.016  -1.726  0.00  0.00    -0.002 A 
ATOM      8  C6  OXE d   1       3.800   0.809  -2.181  0.00  0.00     0.003 A 
ENDROOT
TORSDOF 0
ENDMDL
