MODEL 1
REMARK minimizedAffinity 18.2942009
REMARK minimizedRMSD -1
REMARK  0 active torsions:
REMARK  status: ('A' for Active; 'I' for Inactive)
ROOT
ATOM      1  C2' OXE d   1       3.187   2.183   2.224  0.00  0.00     0.078 C 
ATOM      2  C1' OXE d   1       1.801   1.992   4.658  0.00  0.00     0.078 C 
ATOM      3  C1  OXE d   1       1.151   2.765   3.537  0.00  0.00    -0.078 A 
ATOM      4  C2  OXE d   1       1.857   2.893   2.365  0.00  0.00    -0.078 A 
ATOM      5  C3  OXE d   1       1.281   3.549   1.281  0.00  0.00     0.003 A 
ATOM      6  C4  OXE d   1       0.056   4.211   1.423  0.00  0.00    -0.002 A 
ATOM      7  C5  OXE d   1      -0.662   4.127   2.621  0.00  0.00    -0.002 A 
ATOM      8  C6  OXE d   1      -0.149   3.374   3.671  0.00  0.00     0.003 A 
ENDROOT
TORSDOF 0
ENDMDL
