MODEL 1
REMARK minimizedAffinity 22.8444653
REMARK minimizedRMSD -1
REMARK  0 active torsions:
REMARK  status: ('A' for Active; 'I' for Inactive)
ROOT
ATOM      1  C2' OXE d   1       2.379   0.281  -0.769  0.00  0.00     0.078 C 
ATOM      2  C1' OXE d   1       3.572   0.975   1.676  0.00  0.00     0.078 C 
ATOM      3  C1  OXE d   1       2.356   1.754   1.240  0.00  0.00    -0.078 A 
ATOM      4  C2  OXE d   1       1.807   1.439   0.021  0.00  0.00    -0.078 A 
ATOM      5  C3  OXE d   1       0.652   2.090  -0.404  0.00  0.00     0.003 A 
ATOM      6  C4  OXE d   1       0.135   3.166   0.327  0.00  0.00    -0.002 A 
ATOM      7  C5  OXE d   1       0.703   3.530   1.553  0.00  0.00    -0.002 A 
ATOM      8  C6  OXE d   1       1.786   2.808   2.043  0.00  0.00     0.003 A 
ENDROOT
TORSDOF 0
ENDMDL
