MODEL 1
REMARK minimizedAffinity 4.93302393
REMARK minimizedRMSD -1
REMARK  0 active torsions:
REMARK  status: ('A' for Active; 'I' for Inactive)
ROOT
ATOM      1  C2' OXE d   1       4.073   0.144  -3.510  0.00  0.00     0.078 C 
ATOM      2  C1' OXE d   1       5.999   2.019  -2.700  0.00  0.00     0.078 C 
ATOM      3  C1  OXE d   1       4.992   1.557  -1.677  0.00  0.00    -0.078 A 
ATOM      4  C2  OXE d   1       4.025   0.675  -2.094  0.00  0.00    -0.078 A 
ATOM      5  C3  OXE d   1       3.105   0.175  -1.176  0.00  0.00     0.003 A 
ATOM      6  C4  OXE d   1       3.061   0.679   0.129  0.00  0.00    -0.002 A 
ATOM      7  C5  OXE d   1       4.013   1.608   0.564  0.00  0.00    -0.002 A 
ATOM      8  C6  OXE d   1       5.009   2.024  -0.312  0.00  0.00     0.003 A 
ENDROOT
TORSDOF 0
ENDMDL
