MODEL 1
REMARK minimizedAffinity 18.8404579
REMARK minimizedRMSD -1
REMARK  0 active torsions:
REMARK  status: ('A' for Active; 'I' for Inactive)
ROOT
ATOM      1  C2' OXE d   1       3.596   0.622  -1.507  0.00  0.00     0.078 C 
ATOM      2  C1' OXE d   1       1.192  -0.592  -0.715  0.00  0.00     0.078 C 
ATOM      3  C1  OXE d   1       2.238  -0.348   0.343  0.00  0.00    -0.078 A 
ATOM      4  C2  OXE d   1       3.430   0.204  -0.062  0.00  0.00    -0.078 A 
ATOM      5  C3  OXE d   1       4.409   0.499   0.883  0.00  0.00     0.003 A 
ATOM      6  C4  OXE d   1       4.251   0.100   2.215  0.00  0.00    -0.002 A 
ATOM      7  C5  OXE d   1       3.061  -0.500   2.641  0.00  0.00    -0.002 A 
ATOM      8  C6  OXE d   1       2.030  -0.692   1.728  0.00  0.00     0.003 A 
ENDROOT
TORSDOF 0
ENDMDL
