MODEL 1
REMARK minimizedAffinity 13.6715031
REMARK minimizedRMSD -1
REMARK  0 active torsions:
REMARK  status: ('A' for Active; 'I' for Inactive)
ROOT
ATOM      1  C2' OXE d   1       2.339   0.360  -0.586  0.00  0.00     0.078 C 
ATOM      2  C1' OXE d   1       3.756   1.587   1.503  0.00  0.00     0.078 C 
ATOM      3  C1  OXE d   1       2.453   2.212   1.075  0.00  0.00    -0.078 A 
ATOM      4  C2  OXE d   1       1.789   1.632   0.021  0.00  0.00    -0.078 A 
ATOM      5  C3  OXE d   1       0.555   2.137  -0.378  0.00  0.00     0.003 A 
ATOM      6  C4  OXE d   1       0.058   3.320   0.182  0.00  0.00    -0.002 A 
ATOM      7  C5  OXE d   1       0.738   3.949   1.230  0.00  0.00    -0.002 A 
ATOM      8  C6  OXE d   1       1.912   3.386   1.716  0.00  0.00     0.003 A 
ENDROOT
TORSDOF 0
ENDMDL
