MODEL 1
REMARK minimizedAffinity 16.0879364
REMARK minimizedRMSD -1
REMARK  0 active torsions:
REMARK  status: ('A' for Active; 'I' for Inactive)
ROOT
ATOM      1  C2' OXE d   1      -1.703  -1.316  -0.531  0.00  0.00     0.078 C 
ATOM      2  C1' OXE d   1      -1.724   1.491  -0.505  0.00  0.00     0.078 C 
ATOM      3  C1  OXE d   1      -3.028   0.776  -0.255  0.00  0.00    -0.078 A 
ATOM      4  C2  OXE d   1      -3.018  -0.597  -0.316  0.00  0.00    -0.078 A 
ATOM      5  C3  OXE d   1      -4.182  -1.308  -0.040  0.00  0.00     0.003 A 
ATOM      6  C4  OXE d   1      -5.396  -0.636   0.148  0.00  0.00    -0.002 A 
ATOM      7  C5  OXE d   1      -5.436   0.763   0.174  0.00  0.00    -0.002 A 
ATOM      8  C6  OXE d   1      -4.256   1.481   0.017  0.00  0.00     0.003 A 
ENDROOT
TORSDOF 0
ENDMDL
