MODEL 1
REMARK minimizedAffinity 8.18712044
REMARK minimizedRMSD -1
REMARK  0 active torsions:
REMARK  status: ('A' for Active; 'I' for Inactive)
ROOT
ATOM      1  C2' OXE d   1       5.895   2.474  -1.591  0.00  0.00     0.078 C 
ATOM      2  C1' OXE d   1       5.638   2.752   1.191  0.00  0.00     0.078 C 
ATOM      3  C1  OXE d   1       4.657   1.854   0.480  0.00  0.00    -0.078 A 
ATOM      4  C2  OXE d   1       4.761   1.761  -0.887  0.00  0.00    -0.078 A 
ATOM      5  C3  OXE d   1       3.916   0.904  -1.586  0.00  0.00     0.003 A 
ATOM      6  C4  OXE d   1       2.863   0.255  -0.929  0.00  0.00    -0.002 A 
ATOM      7  C5  OXE d   1       2.715   0.367   0.457  0.00  0.00    -0.002 A 
ATOM      8  C6  OXE d   1       3.627   1.127   1.181  0.00  0.00     0.003 A 
ENDROOT
TORSDOF 0
ENDMDL
