MODEL 1
REMARK minimizedAffinity 7.46115017
REMARK minimizedRMSD -1
REMARK  0 active torsions:
REMARK  status: ('A' for Active; 'I' for Inactive)
ROOT
ATOM      1  C2' OXE d   1       6.000   2.626  -1.797  0.00  0.00     0.078 C 
ATOM      2  C1' OXE d   1       5.996   2.722   1.009  0.00  0.00     0.078 C 
ATOM      3  C1  OXE d   1       4.886   1.960   0.329  0.00  0.00    -0.078 A 
ATOM      4  C2  OXE d   1       4.869   1.958  -1.045  0.00  0.00    -0.078 A 
ATOM      5  C3  OXE d   1       3.898   1.225  -1.721  0.00  0.00     0.003 A 
ATOM      6  C4  OXE d   1       2.850   0.618  -1.018  0.00  0.00    -0.002 A 
ATOM      7  C5  OXE d   1       2.826   0.642   0.380  0.00  0.00    -0.002 A 
ATOM      8  C6  OXE d   1       3.857   1.271   1.069  0.00  0.00     0.003 A 
ENDROOT
TORSDOF 0
ENDMDL
