MODEL 1
REMARK minimizedAffinity 2.82711172
REMARK minimizedRMSD -1
REMARK  0 active torsions:
REMARK  status: ('A' for Active; 'I' for Inactive)
ROOT
ATOM      1  C   UNL d   1      -0.702   1.830   3.328  0.00  0.00     0.078 C 
ATOM      2  C1  UNL d   1      -0.370   0.523   2.673  0.00  0.00    -0.077 A 
ATOM      3  C2  UNL d   1      -1.194  -0.597   2.839  0.00  0.00    -0.001 A 
ATOM      4  C3  UNL d   1      -0.868  -1.810   2.231  0.00  0.00     0.003 A 
ATOM      5  C4  UNL d   1       0.284  -1.916   1.453  0.00  0.00    -0.005 A 
ATOM      6  C5  UNL d   1       1.112  -0.808   1.284  0.00  0.00     0.003 A 
ATOM      7  C6  UNL d   1       0.787   0.406   1.892  0.00  0.00    -0.001 A 
ENDROOT
TORSDOF 0
ENDMDL
