MODEL 1
REMARK minimizedAffinity 4.68698692
REMARK minimizedRMSD -1
REMARK  0 active torsions:
REMARK  status: ('A' for Active; 'I' for Inactive)
ROOT
ATOM      1  C   UNL d   1      -0.676  -1.057   0.661  0.00  0.00     0.078 C 
ATOM      2  C1  UNL d   1       0.118  -1.037   1.932  0.00  0.00    -0.077 A 
ATOM      3  C2  UNL d   1       1.512  -1.177   1.914  0.00  0.00    -0.001 A 
ATOM      4  C3  UNL d   1       2.238  -1.166   3.106  0.00  0.00     0.003 A 
ATOM      5  C4  UNL d   1       1.579  -1.016   4.325  0.00  0.00    -0.005 A 
ATOM      6  C5  UNL d   1       0.193  -0.879   4.353  0.00  0.00     0.003 A 
ATOM      7  C6  UNL d   1      -0.535  -0.889   3.162  0.00  0.00    -0.001 A 
ENDROOT
TORSDOF 0
ENDMDL
