MODEL 1
REMARK minimizedAffinity 0.715565979
REMARK minimizedRMSD -1
REMARK  0 active torsions:
REMARK  status: ('A' for Active; 'I' for Inactive)
ROOT
ATOM      1  C   UNL d   1       2.262   5.997   4.904  0.00  0.00     0.078 C 
ATOM      2  C1  UNL d   1       3.536   5.308   5.291  0.00  0.00    -0.077 A 
ATOM      3  C2  UNL d   1       4.753   5.999   5.309  0.00  0.00    -0.001 A 
ATOM      4  C3  UNL d   1       5.933   5.342   5.662  0.00  0.00     0.003 A 
ATOM      5  C4  UNL d   1       5.908   3.990   5.998  0.00  0.00    -0.005 A 
ATOM      6  C5  UNL d   1       4.701   3.293   5.980  0.00  0.00     0.003 A 
ATOM      7  C6  UNL d   1       3.520   3.948   5.628  0.00  0.00    -0.001 A 
ENDROOT
TORSDOF 0
ENDMDL
