MODEL 1
REMARK minimizedAffinity 3.35886264
REMARK minimizedRMSD -1
REMARK  0 active torsions:
REMARK  status: ('A' for Active; 'I' for Inactive)
ROOT
ATOM      1  C   UNL d   1       1.958   5.972   5.285  0.00  0.00     0.078 C 
ATOM      2  C1  UNL d   1       3.348   5.412   5.237  0.00  0.00    -0.077 A 
ATOM      3  C2  UNL d   1       3.648   4.295   4.448  0.00  0.00    -0.001 A 
ATOM      4  C3  UNL d   1       4.945   3.778   4.421  0.00  0.00     0.003 A 
ATOM      5  C4  UNL d   1       5.951   4.371   5.181  0.00  0.00    -0.005 A 
ATOM      6  C5  UNL d   1       5.661   5.482   5.971  0.00  0.00     0.003 A 
ATOM      7  C6  UNL d   1       4.365   6.000   6.000  0.00  0.00    -0.001 A 
ENDROOT
TORSDOF 0
ENDMDL
