MODEL 1
REMARK minimizedAffinity -0.937864661
REMARK minimizedRMSD -1
REMARK  0 active torsions:
REMARK  status: ('A' for Active; 'I' for Inactive)
ROOT
ATOM      1  C   UNL d   1       2.089   6.000   5.860  0.00  0.00     0.078 C 
ATOM      2  C1  UNL d   1       3.412   5.293   5.834  0.00  0.00    -0.077 A 
ATOM      3  C2  UNL d   1       4.604   6.000   5.635  0.00  0.00    -0.001 A 
ATOM      4  C3  UNL d   1       5.826   5.328   5.603  0.00  0.00     0.003 A 
ATOM      5  C4  UNL d   1       5.869   3.945   5.769  0.00  0.00    -0.005 A 
ATOM      6  C5  UNL d   1       4.688   3.232   5.966  0.00  0.00     0.003 A 
ATOM      7  C6  UNL d   1       3.464   3.903   5.997  0.00  0.00    -0.001 A 
ENDROOT
TORSDOF 0
ENDMDL
