MODEL 1
REMARK minimizedAffinity 10.06077
REMARK minimizedRMSD -1
REMARK  0 active torsions:
REMARK  status: ('A' for Active; 'I' for Inactive)
ROOT
ATOM      1  C   UNL d   1       3.749   3.107   0.002  0.00  0.00     0.078 C 
ATOM      2  C1  UNL d   1       4.263   2.246  -1.114  0.00  0.00    -0.077 A 
ATOM      3  C2  UNL d   1       3.522   1.153  -1.581  0.00  0.00    -0.001 A 
ATOM      4  C3  UNL d   1       4.017   0.354  -2.613  0.00  0.00     0.003 A 
ATOM      5  C4  UNL d   1       5.254   0.639  -3.186  0.00  0.00    -0.005 A 
ATOM      6  C5  UNL d   1       6.000   1.723  -2.726  0.00  0.00     0.003 A 
ATOM      7  C6  UNL d   1       5.507   2.523  -1.694  0.00  0.00    -0.001 A 
ENDROOT
TORSDOF 0
ENDMDL
