MODEL 1
REMARK minimizedAffinity -1.32707107
REMARK minimizedRMSD -1
REMARK  0 active torsions:
REMARK  status: ('A' for Active; 'I' for Inactive)
ROOT
ATOM      1  C   UNL d   1       2.082   5.917   5.694  0.00  0.00     0.078 C 
ATOM      2  C1  UNL d   1       3.429   5.261   5.644  0.00  0.00    -0.077 A 
ATOM      3  C2  UNL d   1       3.590   3.916   5.999  0.00  0.00    -0.001 A 
ATOM      4  C3  UNL d   1       4.852   3.321   5.957  0.00  0.00     0.003 A 
ATOM      5  C4  UNL d   1       5.963   4.064   5.563  0.00  0.00    -0.005 A 
ATOM      6  C5  UNL d   1       5.813   5.403   5.210  0.00  0.00     0.003 A 
ATOM      7  C6  UNL d   1       4.552   6.000   5.251  0.00  0.00    -0.001 A 
ENDROOT
TORSDOF 0
ENDMDL
