MODEL 1
REMARK minimizedAffinity 3.74844575
REMARK minimizedRMSD -1
REMARK  0 active torsions:
REMARK  status: ('A' for Active; 'I' for Inactive)
ROOT
ATOM      1  C   UNL d   1       1.938   5.808   5.188  0.00  0.00     0.078 C 
ATOM      2  C1  UNL d   1       3.324   5.245   5.292  0.00  0.00    -0.077 A 
ATOM      3  C2  UNL d   1       3.555   4.005   5.900  0.00  0.00    -0.001 A 
ATOM      4  C3  UNL d   1       4.852   3.498   5.998  0.00  0.00     0.003 A 
ATOM      5  C4  UNL d   1       5.927   4.225   5.493  0.00  0.00    -0.005 A 
ATOM      6  C5  UNL d   1       5.707   5.461   4.889  0.00  0.00     0.003 A 
ATOM      7  C6  UNL d   1       4.411   5.970   4.789  0.00  0.00    -0.001 A 
ENDROOT
TORSDOF 0
ENDMDL
