MODEL 1
REMARK minimizedAffinity -2.1756916
REMARK minimizedRMSD -1
REMARK  0 active torsions:
REMARK  status: ('A' for Active; 'I' for Inactive)
ROOT
ATOM      1  C   UNL d   1       5.999   2.626   4.222  0.00  0.00     0.078 C 
ATOM      2  C1  UNL d   1       5.056   3.671   4.738  0.00  0.00    -0.077 A 
ATOM      3  C2  UNL d   1       3.958   3.323   5.533  0.00  0.00    -0.001 A 
ATOM      4  C3  UNL d   1       3.083   4.306   5.999  0.00  0.00     0.003 A 
ATOM      5  C4  UNL d   1       3.296   5.644   5.673  0.00  0.00    -0.005 A 
ATOM      6  C5  UNL d   1       4.386   6.000   4.881  0.00  0.00     0.003 A 
ATOM      7  C6  UNL d   1       5.262   5.019   4.415  0.00  0.00    -0.001 A 
ENDROOT
TORSDOF 0
ENDMDL
