MODEL 1
REMARK minimizedAffinity -5.42764187
REMARK minimizedRMSD -1
REMARK  0 active torsions:
REMARK  status: ('A' for Active; 'I' for Inactive)
ROOT
ATOM      1  C   UNL d   1      -3.528  -0.644   0.050  0.00  0.00     0.078 C 
ATOM      2  C1  UNL d   1      -2.037  -0.492   0.095  0.00  0.00    -0.077 A 
ATOM      3  C2  UNL d   1      -1.364   0.303  -0.841  0.00  0.00    -0.001 A 
ATOM      4  C3  UNL d   1       0.025   0.428  -0.793  0.00  0.00     0.003 A 
ATOM      5  C4  UNL d   1       0.754  -0.241   0.188  0.00  0.00    -0.005 A 
ATOM      6  C5  UNL d   1       0.094  -1.037   1.122  0.00  0.00     0.003 A 
ATOM      7  C6  UNL d   1      -1.295  -1.163   1.076  0.00  0.00    -0.001 A 
ENDROOT
TORSDOF 0
ENDMDL
