MODEL 1
REMARK minimizedAffinity -0.741714418
REMARK minimizedRMSD -1
REMARK  0 active torsions:
REMARK  status: ('A' for Active; 'I' for Inactive)
ROOT
ATOM      1  C   UNL d   1       4.934  -1.518  -3.172  0.00  0.00     0.078 C 
ATOM      2  C1  UNL d   1       5.300  -0.444  -2.191  0.00  0.00    -0.077 A 
ATOM      3  C2  UNL d   1       5.653   0.839  -2.625  0.00  0.00    -0.001 A 
ATOM      4  C3  UNL d   1       6.000   1.826  -1.702  0.00  0.00     0.003 A 
ATOM      5  C4  UNL d   1       5.999   1.540  -0.338  0.00  0.00    -0.005 A 
ATOM      6  C5  UNL d   1       5.651   0.265   0.104  0.00  0.00     0.003 A 
ATOM      7  C6  UNL d   1       5.304  -0.723  -0.819  0.00  0.00    -0.001 A 
ENDROOT
TORSDOF 0
ENDMDL
