MODEL 1
REMARK minimizedAffinity -4.10414267
REMARK minimizedRMSD -1
REMARK  0 active torsions:
REMARK  status: ('A' for Active; 'I' for Inactive)
ROOT
ATOM      1  C   UNL d   1      -2.792  -1.694   0.128  0.00  0.00     0.078 C 
ATOM      2  C1  UNL d   1      -1.528  -0.949  -0.183  0.00  0.00    -0.077 A 
ATOM      3  C2  UNL d   1      -1.327  -0.361  -1.437  0.00  0.00    -0.001 A 
ATOM      4  C3  UNL d   1      -0.141   0.321  -1.715  0.00  0.00     0.003 A 
ATOM      5  C4  UNL d   1       0.853   0.420  -0.744  0.00  0.00    -0.005 A 
ATOM      6  C5  UNL d   1       0.663  -0.165   0.506  0.00  0.00     0.003 A 
ATOM      7  C6  UNL d   1      -0.522  -0.847   0.786  0.00  0.00    -0.001 A 
ENDROOT
TORSDOF 0
ENDMDL
