MODEL 1
REMARK minimizedAffinity -2.23362851
REMARK minimizedRMSD -1
REMARK  0 active torsions:
REMARK  status: ('A' for Active; 'I' for Inactive)
ROOT
ATOM      1  C   UNL d   1      -3.106  -0.971   0.110  0.00  0.00     0.078 C 
ATOM      2  C1  UNL d   1      -1.644  -0.672  -0.039  0.00  0.00    -0.077 A 
ATOM      3  C2  UNL d   1      -1.121  -0.220  -1.257  0.00  0.00    -0.001 A 
ATOM      4  C3  UNL d   1       0.244   0.045  -1.384  0.00  0.00     0.003 A 
ATOM      5  C4  UNL d   1       1.097  -0.141  -0.298  0.00  0.00    -0.005 A 
ATOM      6  C5  UNL d   1       0.586  -0.592   0.917  0.00  0.00     0.003 A 
ATOM      7  C6  UNL d   1      -0.778  -0.857   1.046  0.00  0.00    -0.001 A 
ENDROOT
TORSDOF 0
ENDMDL
