MODEL 1
REMARK minimizedAffinity 0.345532924
REMARK minimizedRMSD -1
REMARK  0 active torsions:
REMARK  status: ('A' for Active; 'I' for Inactive)
ROOT
ATOM      1  C   UNL d   1      -0.415  -1.420   1.318  0.00  0.00     0.078 C 
ATOM      2  C1  UNL d   1      -0.723  -0.660   0.063  0.00  0.00    -0.077 A 
ATOM      3  C2  UNL d   1      -2.007  -0.681  -0.497  0.00  0.00    -0.001 A 
ATOM      4  C3  UNL d   1      -2.277   0.022  -1.671  0.00  0.00     0.003 A 
ATOM      5  C4  UNL d   1      -1.268   0.752  -2.298  0.00  0.00    -0.005 A 
ATOM      6  C5  UNL d   1       0.013   0.777  -1.750  0.00  0.00     0.003 A 
ATOM      7  C6  UNL d   1       0.285   0.074  -0.575  0.00  0.00    -0.001 A 
ENDROOT
TORSDOF 0
ENDMDL
