MODEL 1
REMARK minimizedAffinity -4.16009474
REMARK minimizedRMSD -1
REMARK  0 active torsions:
REMARK  status: ('A' for Active; 'I' for Inactive)
ROOT
ATOM      1  C   UNL d   1      -3.259  -0.958  -0.437  0.00  0.00     0.078 C 
ATOM      2  C1  UNL d   1      -1.830  -0.783  -0.017  0.00  0.00    -0.077 A 
ATOM      3  C2  UNL d   1      -0.970   0.069  -0.722  0.00  0.00    -0.001 A 
ATOM      4  C3  UNL d   1       0.360   0.215  -0.325  0.00  0.00     0.003 A 
ATOM      5  C4  UNL d   1       0.843  -0.489   0.776  0.00  0.00    -0.005 A 
ATOM      6  C5  UNL d   1      -0.004  -1.341   1.482  0.00  0.00     0.003 A 
ATOM      7  C6  UNL d   1      -1.335  -1.488   1.087  0.00  0.00    -0.001 A 
ENDROOT
TORSDOF 0
ENDMDL
