MODEL 1
REMARK minimizedAffinity -4.68522167
REMARK minimizedRMSD -1
REMARK  0 active torsions:
REMARK  status: ('A' for Active; 'I' for Inactive)
ROOT
ATOM      1  C   UNL d   1       2.626  -0.497   1.908  0.00  0.00     0.078 C 
ATOM      2  C1  UNL d   1       1.200  -0.040   1.827  0.00  0.00    -0.077 A 
ATOM      3  C2  UNL d   1       0.490  -0.104   0.621  0.00  0.00    -0.001 A 
ATOM      4  C3  UNL d   1      -0.833   0.333   0.558  0.00  0.00     0.003 A 
ATOM      5  C4  UNL d   1      -1.459   0.839   1.696  0.00  0.00    -0.005 A 
ATOM      6  C5  UNL d   1      -0.759   0.909   2.899  0.00  0.00     0.003 A 
ATOM      7  C6  UNL d   1       0.564   0.472   2.965  0.00  0.00    -0.001 A 
ENDROOT
TORSDOF 0
ENDMDL
