MODEL 1
REMARK minimizedAffinity -5.25469303
REMARK minimizedRMSD -1
REMARK  0 active torsions:
REMARK  status: ('A' for Active; 'I' for Inactive)
ROOT
ATOM      1  C   UNL d   1      -0.959   1.582   2.556  0.00  0.00     0.078 C 
ATOM      2  C1  UNL d   1      -0.640   0.709   1.379  0.00  0.00    -0.077 A 
ATOM      3  C2  UNL d   1       0.682   0.358   1.080  0.00  0.00    -0.001 A 
ATOM      4  C3  UNL d   1       0.966  -0.448  -0.024  0.00  0.00     0.003 A 
ATOM      5  C4  UNL d   1      -0.067  -0.908  -0.838  0.00  0.00    -0.005 A 
ATOM      6  C5  UNL d   1      -1.385  -0.562  -0.550  0.00  0.00     0.003 A 
ATOM      7  C6  UNL d   1      -1.671   0.244   0.554  0.00  0.00    -0.001 A 
ENDROOT
TORSDOF 0
ENDMDL
