MODEL 1
REMARK minimizedAffinity -3.82610846
REMARK minimizedRMSD -1
REMARK  0 active torsions:
REMARK  status: ('A' for Active; 'I' for Inactive)
ROOT
ATOM      1  C   UNL d   1       2.373  -0.042   1.606  0.00  0.00     0.078 C 
ATOM      2  C1  UNL d   1       0.981  -0.018   1.047  0.00  0.00    -0.077 A 
ATOM      3  C2  UNL d   1      -0.073   0.563   1.762  0.00  0.00    -0.001 A 
ATOM      4  C3  UNL d   1      -1.365   0.570   1.235  0.00  0.00     0.003 A 
ATOM      5  C4  UNL d   1      -1.615  -0.004  -0.010  0.00  0.00    -0.005 A 
ATOM      6  C5  UNL d   1      -0.573  -0.587  -0.728  0.00  0.00     0.003 A 
ATOM      7  C6  UNL d   1       0.719  -0.595  -0.202  0.00  0.00    -0.001 A 
ENDROOT
TORSDOF 0
ENDMDL
