MODEL 1
REMARK minimizedAffinity -5.0710578
REMARK minimizedRMSD -1
REMARK  0 active torsions:
REMARK  status: ('A' for Active; 'I' for Inactive)
ROOT
ATOM      1  C   UNL d   1      -1.349  -0.404  -0.241  0.00  0.00     0.078 C 
ATOM      2  C1  UNL d   1      -0.649   0.062   1.001  0.00  0.00    -0.077 A 
ATOM      3  C2  UNL d   1      -1.361   0.646   2.055  0.00  0.00    -0.001 A 
ATOM      4  C3  UNL d   1      -0.695   1.084   3.201  0.00  0.00     0.003 A 
ATOM      5  C4  UNL d   1       0.688   0.943   3.302  0.00  0.00    -0.005 A 
ATOM      6  C5  UNL d   1       1.406   0.365   2.257  0.00  0.00     0.003 A 
ATOM      7  C6  UNL d   1       0.741  -0.074   1.111  0.00  0.00    -0.001 A 
ENDROOT
TORSDOF 0
ENDMDL
