MODEL 1
REMARK minimizedAffinity -5.10307789
REMARK minimizedRMSD -1
REMARK  0 active torsions:
REMARK  status: ('A' for Active; 'I' for Inactive)
ROOT
ATOM      1  C   UNL d   1       0.131  -0.220  -1.315  0.00  0.00     0.078 C 
ATOM      2  C1  UNL d   1      -0.310   0.216   0.050  0.00  0.00    -0.077 A 
ATOM      3  C2  UNL d   1       0.570   0.876   0.916  0.00  0.00    -0.001 A 
ATOM      4  C3  UNL d   1       0.148   1.268   2.187  0.00  0.00     0.003 A 
ATOM      5  C4  UNL d   1      -1.154   1.002   2.605  0.00  0.00    -0.005 A 
ATOM      6  C5  UNL d   1      -2.037   0.344   1.752  0.00  0.00     0.003 A 
ATOM      7  C6  UNL d   1      -1.617  -0.049   0.480  0.00  0.00    -0.001 A 
ENDROOT
TORSDOF 0
ENDMDL
