MODEL 1
REMARK minimizedAffinity -5.47498226
REMARK minimizedRMSD -1
REMARK  0 active torsions:
REMARK  status: ('A' for Active; 'I' for Inactive)
ROOT
ATOM      1  C   UNL d   1       2.774  -0.513   2.366  0.00  0.00     0.078 C 
ATOM      2  C1  UNL d   1       1.390   0.063   2.324  0.00  0.00    -0.077 A 
ATOM      3  C2  UNL d   1       0.772   0.366   1.104  0.00  0.00    -0.001 A 
ATOM      4  C3  UNL d   1      -0.513   0.911   1.080  0.00  0.00     0.003 A 
ATOM      5  C4  UNL d   1      -1.190   1.160   2.273  0.00  0.00    -0.005 A 
ATOM      6  C5  UNL d   1      -0.582   0.864   3.491  0.00  0.00     0.003 A 
ATOM      7  C6  UNL d   1       0.703   0.318   3.517  0.00  0.00    -0.001 A 
ENDROOT
TORSDOF 0
ENDMDL
