MODEL 1
REMARK minimizedAffinity -5.59343815
REMARK minimizedRMSD -1
REMARK  0 active torsions:
REMARK  status: ('A' for Active; 'I' for Inactive)
ROOT
ATOM      1  C   UNL d   1      -0.779   1.343   2.802  0.00  0.00     0.078 C 
ATOM      2  C1  UNL d   1      -0.173   0.386   1.820  0.00  0.00    -0.077 A 
ATOM      3  C2  UNL d   1       1.117  -0.123   2.010  0.00  0.00    -0.001 A 
ATOM      4  C3  UNL d   1       1.672  -1.005   1.082  0.00  0.00     0.003 A 
ATOM      5  C4  UNL d   1       0.944  -1.386  -0.044  0.00  0.00    -0.005 A 
ATOM      6  C5  UNL d   1      -0.340  -0.884  -0.243  0.00  0.00     0.003 A 
ATOM      7  C6  UNL d   1      -0.896  -0.001   0.684  0.00  0.00    -0.001 A 
ENDROOT
TORSDOF 0
ENDMDL
