MODEL 1
REMARK minimizedAffinity -4.35365963
REMARK minimizedRMSD -1
REMARK  0 active torsions:
REMARK  status: ('A' for Active; 'I' for Inactive)
ROOT
ATOM      1  C   UNL d   1       0.134  -0.646  -1.838  0.00  0.00     0.078 C 
ATOM      2  C1  UNL d   1       0.453  -0.018  -3.162  0.00  0.00    -0.077 A 
ATOM      3  C2  UNL d   1       1.463   0.944  -3.280  0.00  0.00    -0.001 A 
ATOM      4  C3  UNL d   1       1.743   1.526  -4.517  0.00  0.00     0.003 A 
ATOM      5  C4  UNL d   1       1.016   1.154  -5.646  0.00  0.00    -0.005 A 
ATOM      6  C5  UNL d   1       0.007   0.199  -5.538  0.00  0.00     0.003 A 
ATOM      7  C6  UNL d   1      -0.274  -0.384  -4.302  0.00  0.00    -0.001 A 
ENDROOT
TORSDOF 0
ENDMDL
