MODEL 1
REMARK minimizedAffinity -0.52936554
REMARK minimizedRMSD -1
REMARK  0 active torsions:
REMARK  status: ('A' for Active; 'I' for Inactive)
ROOT
ATOM      1  C   UNL d   1      -0.930   1.730   3.211  0.00  0.00     0.078 C 
ATOM      2  C1  UNL d   1      -1.155   0.773   2.079  0.00  0.00    -0.077 A 
ATOM      3  C2  UNL d   1      -2.345   0.794   1.341  0.00  0.00    -0.001 A 
ATOM      4  C3  UNL d   1      -2.545  -0.109   0.296  0.00  0.00     0.003 A 
ATOM      5  C4  UNL d   1      -1.559  -1.042  -0.020  0.00  0.00    -0.005 A 
ATOM      6  C5  UNL d   1      -0.372  -1.073   0.710  0.00  0.00     0.003 A 
ATOM      7  C6  UNL d   1      -0.171  -0.170   1.755  0.00  0.00    -0.001 A 
ENDROOT
TORSDOF 0
ENDMDL
