MODEL 1
REMARK minimizedAffinity -3.96464324
REMARK minimizedRMSD -1
REMARK  1 active torsions:
REMARK  status: ('A' for Active; 'I' for Inactive)
REMARK    1  A    between atoms: N_2  and  C1_3 
ROOT
ATOM      1  C1  UNL d   1       4.395  -2.343   4.886  0.00  0.00     0.143 A 
ATOM      2  C2  UNL d   1       3.462  -3.386   4.898  0.00  0.00    -0.057 A 
ATOM      3  C3  UNL d   1       3.770  -4.630   5.461  0.00  0.00     0.033 A 
ATOM      4  C4  UNL d   1       5.032  -4.863   5.999  0.00  0.00    -0.042 A 
ATOM      5  C5  UNL d   1       5.983  -3.850   5.976  0.00  0.00     0.033 A 
ATOM      6  C6  UNL d   1       5.667  -2.607   5.418  0.00  0.00    -0.057 A 
ENDROOT
BRANCH   1   7
ATOM      7  N   UNL d   1       4.183  -1.116   4.253  0.00  0.00    -0.732 N 
ATOM      8  C   UNL d   1       4.885  -0.785   3.032  0.00  0.00     0.284 C 
ATOM      9  H3  UNL d   1       3.203  -0.842   4.257  0.00  0.00     0.395 HD
ENDBRANCH   1   7
TORSDOF 1
ENDMDL
