MODEL 1
REMARK minimizedAffinity 2.53250861
REMARK minimizedRMSD -1
REMARK  1 active torsions:
REMARK  status: ('A' for Active; 'I' for Inactive)
REMARK    1  A    between atoms: N_2  and  C1_3 
ROOT
ATOM      1  C1  UNL d   1       2.138   2.124  -0.958  0.00  0.00     0.143 A 
ATOM      2  C2  UNL d   1       1.881   3.488  -1.131  0.00  0.00    -0.057 A 
ATOM      3  C3  UNL d   1       2.153   4.413  -0.116  0.00  0.00     0.033 A 
ATOM      4  C4  UNL d   1       2.662   3.984   1.105  0.00  0.00    -0.042 A 
ATOM      5  C5  UNL d   1       2.902   2.630   1.309  0.00  0.00     0.033 A 
ATOM      6  C6  UNL d   1       2.634   1.712   0.289  0.00  0.00    -0.057 A 
ENDROOT
BRANCH   1   7
ATOM      7  N   UNL d   1       1.797   1.143  -1.893  0.00  0.00    -0.732 N 
ATOM      8  C   UNL d   1       0.499   1.153  -2.532  0.00  0.00     0.284 C 
ATOM      9  H3  UNL d   1       2.567   0.920  -2.519  0.00  0.00     0.395 HD
ENDBRANCH   1   7
TORSDOF 1
ENDMDL
