MODEL 1
REMARK minimizedAffinity -2.01720381
REMARK minimizedRMSD -1
REMARK  1 active torsions:
REMARK  status: ('A' for Active; 'I' for Inactive)
REMARK    1  A    between atoms: N_2  and  C1_3 
ROOT
ATOM      1  C1  UNL d   1      -4.085   5.704   3.957  0.00  0.00     0.143 A 
ATOM      2  C2  UNL d   1      -5.290   5.585   3.258  0.00  0.00    -0.057 A 
ATOM      3  C3  UNL d   1      -5.327   5.645   1.859  0.00  0.00     0.033 A 
ATOM      4  C4  UNL d   1      -4.159   5.854   1.135  0.00  0.00    -0.042 A 
ATOM      5  C5  UNL d   1      -2.952   5.999   1.810  0.00  0.00     0.033 A 
ATOM      6  C6  UNL d   1      -2.921   5.932   3.206  0.00  0.00    -0.057 A 
ENDROOT
BRANCH   1   7
ATOM      7  N   UNL d   1      -3.995   5.751   5.350  0.00  0.00    -0.732 N 
ATOM      8  C   UNL d   1      -2.723   5.983   6.000  0.00  0.00     0.284 C 
ATOM      9  H3  UNL d   1      -4.774   6.251   5.773  0.00  0.00     0.395 HD
ENDBRANCH   1   7
TORSDOF 1
ENDMDL
