MODEL 1
REMARK minimizedAffinity 5.35707331
REMARK minimizedRMSD -1
REMARK  1 active torsions:
REMARK  status: ('A' for Active; 'I' for Inactive)
REMARK    1  A    between atoms: N_2  and  C1_3 
ROOT
ATOM      1  C1  UNL d   1       1.285  -0.403  -2.119  0.00  0.00     0.143 A 
ATOM      2  C2  UNL d   1       2.264   0.356  -1.469  0.00  0.00    -0.057 A 
ATOM      3  C3  UNL d   1       2.354   1.741  -1.658  0.00  0.00     0.033 A 
ATOM      4  C4  UNL d   1       1.482   2.388  -2.527  0.00  0.00    -0.042 A 
ATOM      5  C5  UNL d   1       0.517   1.650  -3.203  0.00  0.00     0.033 A 
ATOM      6  C6  UNL d   1       0.427   0.269  -3.005  0.00  0.00    -0.057 A 
ENDROOT
BRANCH   1   7
ATOM      7  N   UNL d   1       1.207  -1.796  -2.049  0.00  0.00    -0.732 N 
ATOM      8  C   UNL d   1       0.659  -2.560  -3.149  0.00  0.00     0.284 C 
ATOM      9  H3  UNL d   1       2.034  -2.210  -1.625  0.00  0.00     0.395 HD
ENDBRANCH   1   7
TORSDOF 1
ENDMDL
