MODEL 1
REMARK minimizedAffinity 12.1214428
REMARK minimizedRMSD -1
REMARK  1 active torsions:
REMARK  status: ('A' for Active; 'I' for Inactive)
REMARK    1  A    between atoms: N_2  and  C1_3 
ROOT
ATOM      1  C1  UNL d   1      -3.560  -0.018   3.776  0.00  0.00     0.143 A 
ATOM      2  C2  UNL d   1      -3.560   0.089   5.171  0.00  0.00    -0.057 A 
ATOM      3  C3  UNL d   1      -4.756   0.201   5.890  0.00  0.00     0.033 A 
ATOM      4  C4  UNL d   1      -5.976   0.237   5.223  0.00  0.00    -0.042 A 
ATOM      5  C5  UNL d   1      -5.998   0.157   3.835  0.00  0.00     0.033 A 
ATOM      6  C6  UNL d   1      -4.801   0.039   3.122  0.00  0.00    -0.057 A 
ENDROOT
BRANCH   1   7
ATOM      7  N   UNL d   1      -2.401  -0.032   2.997  0.00  0.00    -0.732 N 
ATOM      8  C   UNL d   1      -2.393  -0.671   1.698  0.00  0.00     0.284 C 
ATOM      9  H3  UNL d   1      -1.901   0.854   3.027  0.00  0.00     0.395 HD
ENDBRANCH   1   7
TORSDOF 1
ENDMDL
