MODEL 1
REMARK minimizedAffinity 1.8900305
REMARK minimizedRMSD -1
REMARK  1 active torsions:
REMARK  status: ('A' for Active; 'I' for Inactive)
REMARK    1  A    between atoms: N_2  and  C1_3 
ROOT
ATOM      1  C1  UNL d   1      -4.372   5.911   3.362  0.00  0.00     0.143 A 
ATOM      2  C2  UNL d   1      -4.717   5.941   4.717  0.00  0.00    -0.057 A 
ATOM      3  C3  UNL d   1      -3.736   5.998   5.715  0.00  0.00     0.033 A 
ATOM      4  C4  UNL d   1      -2.387   5.998   5.373  0.00  0.00    -0.042 A 
ATOM      5  C5  UNL d   1      -2.021   5.943   4.033  0.00  0.00     0.033 A 
ATOM      6  C6  UNL d   1      -3.005   5.893   3.041  0.00  0.00    -0.057 A 
ENDROOT
BRANCH   1   7
ATOM      7  N   UNL d   1      -5.297   5.755   2.327  0.00  0.00    -0.732 N 
ATOM      8  C   UNL d   1      -5.860   4.455   2.031  0.00  0.00     0.284 C 
ATOM      9  H3  UNL d   1      -5.970   6.517   2.289  0.00  0.00     0.395 HD
ENDBRANCH   1   7
TORSDOF 1
ENDMDL
