MODEL 1
REMARK minimizedAffinity -0.0348122828
REMARK minimizedRMSD -1
REMARK  1 active torsions:
REMARK  status: ('A' for Active; 'I' for Inactive)
REMARK    1  A    between atoms: N_2  and  C1_3 
ROOT
ATOM      1  C1  UNL d   1      -3.673   5.843   3.198  0.00  0.00     0.143 A 
ATOM      2  C2  UNL d   1      -2.592   5.999   4.073  0.00  0.00    -0.057 A 
ATOM      3  C3  UNL d   1      -2.767   5.934   5.461  0.00  0.00     0.033 A 
ATOM      4  C4  UNL d   1      -4.034   5.740   6.000  0.00  0.00    -0.042 A 
ATOM      5  C5  UNL d   1      -5.126   5.607   5.150  0.00  0.00     0.033 A 
ATOM      6  C6  UNL d   1      -4.944   5.666   3.765  0.00  0.00    -0.057 A 
ENDROOT
BRANCH   1   7
ATOM      7  N   UNL d   1      -3.580   5.995   1.812  0.00  0.00    -0.732 N 
ATOM      8  C   UNL d   1      -2.290   6.000   1.156  0.00  0.00     0.284 C 
ATOM      9  H3  UNL d   1      -4.297   5.473   1.315  0.00  0.00     0.395 HD
ENDBRANCH   1   7
TORSDOF 1
ENDMDL
