MODEL 1
REMARK minimizedAffinity 0.479161263
REMARK minimizedRMSD -1
REMARK  1 active torsions:
REMARK  status: ('A' for Active; 'I' for Inactive)
REMARK    1  A    between atoms: N_2  and  C1_3 
ROOT
ATOM      1  C1  UNL d   1      -4.006   5.859   3.989  0.00  0.00     0.143 A 
ATOM      2  C2  UNL d   1      -5.228   5.945   3.314  0.00  0.00    -0.057 A 
ATOM      3  C3  UNL d   1      -5.283   6.000   1.916  0.00  0.00     0.033 A 
ATOM      4  C4  UNL d   1      -4.111   5.999   1.167  0.00  0.00    -0.042 A 
ATOM      5  C5  UNL d   1      -2.884   5.939   1.818  0.00  0.00     0.033 A 
ATOM      6  C6  UNL d   1      -2.836   5.878   3.214  0.00  0.00    -0.057 A 
ENDROOT
BRANCH   1   7
ATOM      7  N   UNL d   1      -3.881   5.900   5.380  0.00  0.00    -0.732 N 
ATOM      8  C   UNL d   1      -2.577   5.998   6.000  0.00  0.00     0.284 C 
ATOM      9  H3  UNL d   1      -4.593   6.480   5.817  0.00  0.00     0.395 HD
ENDBRANCH   1   7
TORSDOF 1
ENDMDL
