MODEL 1
REMARK minimizedAffinity -1.57681334
REMARK minimizedRMSD -1
REMARK  1 active torsions:
REMARK  status: ('A' for Active; 'I' for Inactive)
REMARK    1  A    between atoms: N_2  and  C1_3 
ROOT
ATOM      1  C1  UNL d   1       1.887   1.044  -3.235  0.00  0.00     0.143 A 
ATOM      2  C2  UNL d   1       2.804   1.251  -4.270  0.00  0.00    -0.057 A 
ATOM      3  C3  UNL d   1       2.566   2.199  -5.273  0.00  0.00     0.033 A 
ATOM      4  C4  UNL d   1       1.387   2.938  -5.273  0.00  0.00    -0.042 A 
ATOM      5  C5  UNL d   1       0.449   2.731  -4.268  0.00  0.00     0.033 A 
ATOM      6  C6  UNL d   1       0.697   1.787  -3.266  0.00  0.00    -0.057 A 
ENDROOT
BRANCH   1   7
ATOM      7  N   UNL d   1       2.021   0.047  -2.264  0.00  0.00    -0.732 N 
ATOM      8  C   UNL d   1       1.507  -1.285  -2.500  0.00  0.00     0.284 C 
ATOM      9  H3  UNL d   1       2.931   0.067  -1.810  0.00  0.00     0.395 HD
ENDBRANCH   1   7
TORSDOF 1
ENDMDL
