MODEL 1
REMARK minimizedAffinity 10.5472622
REMARK minimizedRMSD -1
REMARK  1 active torsions:
REMARK  status: ('A' for Active; 'I' for Inactive)
REMARK    1  A    between atoms: N_2  and  C1_3 
ROOT
ATOM      1  C1  UNL d   1       2.506   1.805  -3.636  0.00  0.00     0.143 A 
ATOM      2  C2  UNL d   1       1.163   1.582  -3.959  0.00  0.00    -0.057 A 
ATOM      3  C3  UNL d   1       0.388   0.659  -3.245  0.00  0.00     0.033 A 
ATOM      4  C4  UNL d   1       0.954  -0.081  -2.212  0.00  0.00    -0.042 A 
ATOM      5  C5  UNL d   1       2.293   0.106  -1.891  0.00  0.00     0.033 A 
ATOM      6  C6  UNL d   1       3.060   1.034  -2.602  0.00  0.00    -0.057 A 
ENDROOT
BRANCH   1   7
ATOM      7  N   UNL d   1       3.354   2.637  -4.371  0.00  0.00    -0.732 N 
ATOM      8  C   UNL d   1       3.042   2.984  -5.741  0.00  0.00     0.284 C 
ATOM      9  H3  UNL d   1       3.713   3.412  -3.817  0.00  0.00     0.395 HD
ENDBRANCH   1   7
TORSDOF 1
ENDMDL
