MODEL 1
REMARK minimizedAffinity 2.57352972
REMARK minimizedRMSD -1
REMARK  1 active torsions:
REMARK  status: ('A' for Active; 'I' for Inactive)
REMARK    1  A    between atoms: N_2  and  C1_3 
ROOT
ATOM      1  C1  UNL d   1      -4.214   5.986   3.250  0.00  0.00     0.143 A 
ATOM      2  C2  UNL d   1      -4.786   5.965   4.526  0.00  0.00    -0.057 A 
ATOM      3  C3  UNL d   1      -3.992   5.985   5.679  0.00  0.00     0.033 A 
ATOM      4  C4  UNL d   1      -2.605   5.998   5.574  0.00  0.00    -0.042 A 
ATOM      5  C5  UNL d   1      -2.013   5.994   4.316  0.00  0.00     0.033 A 
ATOM      6  C6  UNL d   1      -2.812   5.980   3.169  0.00  0.00    -0.057 A 
ENDROOT
BRANCH   1   7
ATOM      7  N   UNL d   1      -4.947   5.868   2.066  0.00  0.00    -0.732 N 
ATOM      8  C   UNL d   1      -5.890   4.785   1.888  0.00  0.00     0.284 C 
ATOM      9  H3  UNL d   1      -5.277   6.767   1.722  0.00  0.00     0.395 HD
ENDBRANCH   1   7
TORSDOF 1
ENDMDL
