MODEL 1
REMARK minimizedAffinity 8.2074461
REMARK minimizedRMSD -1
REMARK  1 active torsions:
REMARK  status: ('A' for Active; 'I' for Inactive)
REMARK    1  A    between atoms: N_2  and  C1_3 
ROOT
ATOM      1  C1  UNL d   1       2.071   0.856  -2.585  0.00  0.00     0.143 A 
ATOM      2  C2  UNL d   1       0.806   1.378  -2.874  0.00  0.00    -0.057 A 
ATOM      3  C3  UNL d   1       0.641   2.410  -3.805  0.00  0.00     0.033 A 
ATOM      4  C4  UNL d   1       1.747   2.961  -4.445  0.00  0.00    -0.042 A 
ATOM      5  C5  UNL d   1       3.017   2.475  -4.155  0.00  0.00     0.033 A 
ATOM      6  C6  UNL d   1       3.174   1.439  -3.229  0.00  0.00    -0.057 A 
ENDROOT
BRANCH   1   7
ATOM      7  N   UNL d   1       2.311  -0.102  -1.597  0.00  0.00    -0.732 N 
ATOM      8  C   UNL d   1       1.462  -1.268  -1.480  0.00  0.00     0.284 C 
ATOM      9  H3  UNL d   1       3.302  -0.296  -1.476  0.00  0.00     0.395 HD
ENDBRANCH   1   7
TORSDOF 1
ENDMDL
