MODEL 1
REMARK minimizedAffinity 7.69587946
REMARK minimizedRMSD -1
REMARK  1 active torsions:
REMARK  status: ('A' for Active; 'I' for Inactive)
REMARK    1  A    between atoms: N_2  and  C1_3 
ROOT
ATOM      1  C1  UNL d   1      -4.694   5.254   2.654  0.00  0.00     0.143 A 
ATOM      2  C2  UNL d   1      -3.375   4.854   2.418  0.00  0.00    -0.057 A 
ATOM      3  C3  UNL d   1      -2.386   4.997   3.399  0.00  0.00     0.033 A 
ATOM      4  C4  UNL d   1      -2.694   5.572   4.627  0.00  0.00    -0.042 A 
ATOM      5  C5  UNL d   1      -3.993   6.000   4.875  0.00  0.00     0.033 A 
ATOM      6  C6  UNL d   1      -4.978   5.848   3.894  0.00  0.00    -0.057 A 
ENDROOT
BRANCH   1   7
ATOM      7  N   UNL d   1      -5.700   5.228   1.685  0.00  0.00    -0.732 N 
ATOM      8  C   UNL d   1      -5.571   6.000   0.468  0.00  0.00     0.284 C 
ATOM      9  H3  UNL d   1      -6.084   4.296   1.548  0.00  0.00     0.395 HD
ENDBRANCH   1   7
TORSDOF 1
ENDMDL
