MODEL 1
REMARK minimizedAffinity 14.0186853
REMARK minimizedRMSD -1
REMARK  0 active torsions:
REMARK  status: ('A' for Active; 'I' for Inactive)
ROOT
ATOM      1  C1  DEN d   1      -0.105   1.213  -0.400  0.00  0.00     0.130 A 
ATOM      2  C2  DEN d   1       1.122   0.616   0.120  0.00  0.00    -0.031 A 
ATOM      3  C3  DEN d   1       1.142   0.816   1.583  0.00  0.00     0.027 A 
ATOM      4  C4  DEN d   1      -0.602   1.980   3.086  0.00  0.00     0.027 A 
ATOM      5  C5  DEN d   1      -1.804   2.651   3.097  0.00  0.00    -0.003 A 
ATOM      6  C6  DEN d   1      -2.502   2.918   1.949  0.00  0.00     0.001 A 
ATOM      7  C7  DEN d   1      -2.025   2.471   0.745  0.00  0.00     0.017 A 
ATOM      8  C8  DEN d   1      -0.810   1.800   0.725  0.00  0.00    -0.094 A 
ATOM      9  C9  DEN d   1      -0.125   1.529   1.898  0.00  0.00    -0.072 A 
ENDROOT
TORSDOF 0
ENDMDL
