MODEL 1
REMARK minimizedAffinity 14.6264372
REMARK minimizedRMSD -1
REMARK  0 active torsions:
REMARK  status: ('A' for Active; 'I' for Inactive)
ROOT
ATOM      1  C1  DEN d   1      -3.554   2.624  -3.196  0.00  0.00     0.130 A 
ATOM      2  C2  DEN d   1      -3.417   3.701  -4.173  0.00  0.00    -0.031 A 
ATOM      3  C3  DEN d   1      -2.049   4.246  -4.062  0.00  0.00     0.027 A 
ATOM      4  C4  DEN d   1      -0.138   3.528  -2.485  0.00  0.00     0.027 A 
ATOM      5  C5  DEN d   1       0.216   2.666  -1.471  0.00  0.00    -0.003 A 
ATOM      6  C6  DEN d   1      -0.664   1.760  -0.942  0.00  0.00     0.001 A 
ATOM      7  C7  DEN d   1      -1.930   1.664  -1.456  0.00  0.00     0.017 A 
ATOM      8  C8  DEN d   1      -2.297   2.535  -2.474  0.00  0.00    -0.094 A 
ATOM      9  C9  DEN d   1      -1.389   3.436  -3.004  0.00  0.00    -0.072 A 
ENDROOT
TORSDOF 0
ENDMDL
