MODEL 1
REMARK minimizedAffinity 12.8195686
REMARK minimizedRMSD -1
REMARK  0 active torsions:
REMARK  status: ('A' for Active; 'I' for Inactive)
ROOT
ATOM      1  C1  DEN d   1       0.204   2.949  -2.116  0.00  0.00     0.130 A 
ATOM      2  C2  DEN d   1      -1.110   3.111  -2.733  0.00  0.00    -0.031 A 
ATOM      3  C3  DEN d   1      -2.132   2.961  -1.678  0.00  0.00     0.027 A 
ATOM      4  C4  DEN d   1      -1.810   2.501   0.839  0.00  0.00     0.027 A 
ATOM      5  C5  DEN d   1      -0.879   2.277   1.829  0.00  0.00    -0.003 A 
ATOM      6  C6  DEN d   1       0.465   2.227   1.570  0.00  0.00     0.001 A 
ATOM      7  C7  DEN d   1       0.919   2.450   0.297  0.00  0.00     0.017 A 
ATOM      8  C8  DEN d   1      -0.014   2.670  -0.708  0.00  0.00    -0.094 A 
ATOM      9  C9  DEN d   1      -1.367   2.728  -0.423  0.00  0.00    -0.072 A 
ENDROOT
TORSDOF 0
ENDMDL
