MODEL 1
REMARK minimizedAffinity 5.3216157
REMARK minimizedRMSD -1
REMARK  0 active torsions:
REMARK  status: ('A' for Active; 'I' for Inactive)
ROOT
ATOM      1  C1  DEN d   1      -0.004   3.524  -0.683  0.00  0.00     0.130 A 
ATOM      2  C2  DEN d   1      -1.139   2.607  -0.746  0.00  0.00    -0.031 A 
ATOM      3  C3  DEN d   1      -1.418   2.133   0.624  0.00  0.00     0.027 A 
ATOM      4  C4  DEN d   1      -0.213   2.728   2.826  0.00  0.00     0.027 A 
ATOM      5  C5  DEN d   1       0.817   3.456   3.380  0.00  0.00    -0.003 A 
ATOM      6  C6  DEN d   1       1.659   4.224   2.621  0.00  0.00     0.001 A 
ATOM      7  C7  DEN d   1       1.459   4.318   1.269  0.00  0.00     0.017 A 
ATOM      8  C8  DEN d   1       0.428   3.582   0.702  0.00  0.00    -0.094 A 
ATOM      9  C9  DEN d   1      -0.421   2.821   1.488  0.00  0.00    -0.072 A 
ENDROOT
TORSDOF 0
ENDMDL
