MODEL 1
REMARK minimizedAffinity 8.36308193
REMARK minimizedRMSD -1
REMARK  0 active torsions:
REMARK  status: ('A' for Active; 'I' for Inactive)
ROOT
ATOM      1  C1  DEN d   1      -0.235   1.096   2.038  0.00  0.00     0.130 A 
ATOM      2  C2  DEN d   1       0.358   1.894   3.108  0.00  0.00    -0.031 A 
ATOM      3  C3  DEN d   1       0.648   3.238   2.569  0.00  0.00     0.027 A 
ATOM      4  C4  DEN d   1       0.232   4.159   0.196  0.00  0.00     0.027 A 
ATOM      5  C5  DEN d   1      -0.241   3.851  -1.061  0.00  0.00    -0.003 A 
ATOM      6  C6  DEN d   1      -0.710   2.604  -1.379  0.00  0.00     0.001 A 
ATOM      7  C7  DEN d   1      -0.758   1.630  -0.417  0.00  0.00     0.017 A 
ATOM      8  C8  DEN d   1      -0.276   1.931   0.850  0.00  0.00    -0.094 A 
ATOM      9  C9  DEN d   1       0.183   3.201   1.156  0.00  0.00    -0.072 A 
ENDROOT
TORSDOF 0
ENDMDL
