MODEL 1
REMARK minimizedAffinity 10.6510372
REMARK minimizedRMSD -1
REMARK  0 active torsions:
REMARK  status: ('A' for Active; 'I' for Inactive)
ROOT
ATOM      1  C1  DEN d   1      -4.624  -5.712  -2.371  0.00  0.00     0.130 A 
ATOM      2  C2  DEN d   1      -5.972  -5.982  -2.861  0.00  0.00    -0.031 A 
ATOM      3  C3  DEN d   1      -5.936  -5.956  -4.337  0.00  0.00     0.027 A 
ATOM      4  C4  DEN d   1      -3.931  -5.531  -5.903  0.00  0.00     0.027 A 
ATOM      5  C5  DEN d   1      -2.585  -5.243  -5.950  0.00  0.00    -0.003 A 
ATOM      6  C6  DEN d   1      -1.837  -5.059  -4.818  0.00  0.00     0.001 A 
ATOM      7  C7  DEN d   1      -2.422  -5.206  -3.587  0.00  0.00     0.017 A 
ATOM      8  C8  DEN d   1      -3.780  -5.489  -3.532  0.00  0.00    -0.094 A 
ATOM      9  C9  DEN d   1      -4.516  -5.683  -4.688  0.00  0.00    -0.072 A 
ENDROOT
TORSDOF 0
ENDMDL
