MODEL 1
REMARK minimizedAffinity 14.1032009
REMARK minimizedRMSD -1
REMARK  0 active torsions:
REMARK  status: ('A' for Active; 'I' for Inactive)
ROOT
ATOM      1  C1  DEN d   1      -0.896   2.857  -0.495  0.00  0.00     0.130 A 
ATOM      2  C2  DEN d   1      -0.337   4.125  -0.955  0.00  0.00    -0.031 A 
ATOM      3  C3  DEN d   1       0.544   4.647   0.109  0.00  0.00     0.027 A 
ATOM      4  C4  DEN d   1       1.098   3.618   2.408  0.00  0.00     0.027 A 
ATOM      5  C5  DEN d   1       0.854   2.556   3.251  0.00  0.00    -0.003 A 
ATOM      6  C6  DEN d   1      -0.010   1.546   2.921  0.00  0.00     0.001 A 
ATOM      7  C7  DEN d   1      -0.627   1.552   1.698  0.00  0.00     0.017 A 
ATOM      8  C8  DEN d   1      -0.391   2.624   0.846  0.00  0.00    -0.094 A 
ATOM      9  C9  DEN d   1       0.495   3.629   1.193  0.00  0.00    -0.072 A 
ENDROOT
TORSDOF 0
ENDMDL
