MODEL 1
REMARK minimizedAffinity 9.05162048
REMARK minimizedRMSD -1
REMARK  0 active torsions:
REMARK  status: ('A' for Active; 'I' for Inactive)
ROOT
ATOM      1  C1  DEN d   1      -0.511  -2.098  -1.227  0.00  0.00     0.130 A 
ATOM      2  C2  DEN d   1       0.901  -1.732  -1.154  0.00  0.00    -0.031 A 
ATOM      3  C3  DEN d   1       0.989  -0.259  -1.106  0.00  0.00     0.027 A 
ATOM      4  C4  DEN d   1      -0.914   1.482  -1.131  0.00  0.00     0.027 A 
ATOM      5  C5  DEN d   1      -2.279   1.651  -1.196  0.00  0.00    -0.003 A 
ATOM      6  C6  DEN d   1      -3.142   0.594  -1.310  0.00  0.00     0.001 A 
ATOM      7  C7  DEN d   1      -2.651  -0.685  -1.316  0.00  0.00     0.017 A 
ATOM      8  C8  DEN d   1      -1.275  -0.864  -1.258  0.00  0.00    -0.094 A 
ATOM      9  C9  DEN d   1      -0.420   0.218  -1.131  0.00  0.00    -0.072 A 
ENDROOT
TORSDOF 0
ENDMDL
