MODEL 1
REMARK minimizedAffinity 7.85320568
REMARK minimizedRMSD -1
REMARK  0 active torsions:
REMARK  status: ('A' for Active; 'I' for Inactive)
ROOT
ATOM      1  C1  DEN d   1       0.334   4.095   0.036  0.00  0.00     0.130 A 
ATOM      2  C2  DEN d   1      -0.398   3.207  -0.862  0.00  0.00    -0.031 A 
ATOM      3  C3  DEN d   1      -0.688   1.957  -0.131  0.00  0.00     0.027 A 
ATOM      4  C4  DEN d   1      -0.082   1.316   2.293  0.00  0.00     0.027 A 
ATOM      5  C5  DEN d   1       0.548   1.741   3.442  0.00  0.00    -0.003 A 
ATOM      6  C6  DEN d   1       1.175   2.956   3.525  0.00  0.00     0.001 A 
ATOM      7  C7  DEN d   1       1.147   3.808   2.453  0.00  0.00     0.017 A 
ATOM      8  C8  DEN d   1       0.520   3.385   1.288  0.00  0.00    -0.094 A 
ATOM      9  C9  DEN d   1      -0.119   2.158   1.229  0.00  0.00    -0.072 A 
ENDROOT
TORSDOF 0
ENDMDL
