MODEL 1
REMARK minimizedAffinity 8.59587002
REMARK minimizedRMSD -1
REMARK  0 active torsions:
REMARK  status: ('A' for Active; 'I' for Inactive)
ROOT
ATOM      1  C1  DEN d   1       4.476  -3.820  -0.563  0.00  0.00     0.130 A 
ATOM      2  C2  DEN d   1       5.188  -4.958  -1.138  0.00  0.00    -0.031 A 
ATOM      3  C3  DEN d   1       4.193  -5.999  -1.466  0.00  0.00     0.027 A 
ATOM      4  C4  DEN d   1       1.635  -5.959  -1.144  0.00  0.00     0.027 A 
ATOM      5  C5  DEN d   1       0.573  -5.212  -0.682  0.00  0.00    -0.003 A 
ATOM      6  C6  DEN d   1       0.740  -3.974  -0.121  0.00  0.00     0.001 A 
ATOM      7  C7  DEN d   1       1.994  -3.425  -0.050  0.00  0.00     0.017 A 
ATOM      8  C8  DEN d   1       3.070  -4.174  -0.506  0.00  0.00    -0.094 A 
ATOM      9  C9  DEN d   1       2.878  -5.419  -1.081  0.00  0.00    -0.072 A 
ENDROOT
TORSDOF 0
ENDMDL
