MODEL 1
REMARK minimizedAffinity 0.20708327
REMARK minimizedRMSD -1
REMARK  0 active torsions:
REMARK  status: ('A' for Active; 'I' for Inactive)
ROOT
ATOM      1  C1  DEN d   1      -5.947  -3.759   3.530  0.00  0.00     0.130 A 
ATOM      2  C2  DEN d   1      -5.977  -4.597   4.725  0.00  0.00    -0.031 A 
ATOM      3  C3  DEN d   1      -5.995  -3.710   5.906  0.00  0.00     0.027 A 
ATOM      4  C4  DEN d   1      -5.984  -1.132   5.998  0.00  0.00     0.027 A 
ATOM      5  C5  DEN d   1      -5.951   0.018   5.241  0.00  0.00    -0.003 A 
ATOM      6  C6  DEN d   1      -5.880  -0.010   3.873  0.00  0.00     0.001 A 
ATOM      7  C7  DEN d   1      -5.886  -1.213   3.217  0.00  0.00     0.017 A 
ATOM      8  C8  DEN d   1      -5.912  -2.377   3.974  0.00  0.00    -0.094 A 
ATOM      9  C9  DEN d   1      -5.996  -2.328   5.355  0.00  0.00    -0.072 A 
ENDROOT
TORSDOF 0
ENDMDL
