MODEL 1
REMARK minimizedAffinity 13.3920069
REMARK minimizedRMSD -1
REMARK  0 active torsions:
REMARK  status: ('A' for Active; 'I' for Inactive)
ROOT
ATOM      1  C1  DEN d   1       5.184  -4.175  -1.416  0.00  0.00     0.130 A 
ATOM      2  C2  DEN d   1       5.378  -2.895  -0.741  0.00  0.00    -0.031 A 
ATOM      3  C3  DEN d   1       4.145  -2.583   0.010  0.00  0.00     0.027 A 
ATOM      4  C4  DEN d   1       1.968  -3.954   0.194  0.00  0.00     0.027 A 
ATOM      5  C5  DEN d   1       1.327  -5.103  -0.212  0.00  0.00    -0.003 A 
ATOM      6  C6  DEN d   1       1.909  -6.000  -1.069  0.00  0.00     0.001 A 
ATOM      7  C7  DEN d   1       3.188  -5.784  -1.511  0.00  0.00     0.017 A 
ATOM      8  C8  DEN d   1       3.837  -4.624  -1.111  0.00  0.00    -0.094 A 
ATOM      9  C9  DEN d   1       3.236  -3.736  -0.235  0.00  0.00    -0.072 A 
ENDROOT
TORSDOF 0
ENDMDL
