MODEL 1
REMARK minimizedAffinity 4.20030499
REMARK minimizedRMSD -1
REMARK  1 active torsions:
REMARK  status: ('A' for Active; 'I' for Inactive)
REMARK    1  A    between atoms: C1_2  and  C2_3 
ROOT
ATOM      1  C2  UNL d   1       2.178  -1.733  -1.011  0.00  0.00    -0.076 A 
ATOM      2  C3  UNL d   1       1.787  -0.692  -0.151  0.00  0.00     0.004 A 
ATOM      3  C4  UNL d   1       2.466   0.526  -0.144  0.00  0.00    -0.003 A 
ATOM      4  C5  UNL d   1       3.546   0.722  -0.998  0.00  0.00     0.000 A 
ATOM      5  C6  UNL d   1       3.936  -0.294  -1.870  0.00  0.00     0.000 A 
ATOM      6  C7  UNL d   1       3.253  -1.522  -1.901  0.00  0.00    -0.073 A 
ATOM      7  C8  UNL d   1       3.720  -2.584  -2.857  0.00  0.00     0.078 C 
ENDROOT
BRANCH   1   8
ATOM      8  C1  UNL d   1       1.421  -3.041  -0.955  0.00  0.00     0.053 C 
ATOM      9  C   UNL d   1       0.138  -3.007  -1.771  0.00  0.00     0.018 C 
ENDBRANCH   1   8
TORSDOF 1
ENDMDL
