MODEL 1
REMARK minimizedAffinity 1.27669656
REMARK minimizedRMSD -1
REMARK  1 active torsions:
REMARK  status: ('A' for Active; 'I' for Inactive)
REMARK    1  A    between atoms: C1_2  and  C2_3 
ROOT
ATOM      1  C2  UNL d   1       0.984   1.216   0.995  0.00  0.00    -0.076 A 
ATOM      2  C3  UNL d   1       1.512   1.112   2.294  0.00  0.00     0.004 A 
ATOM      3  C4  UNL d   1       0.705   1.301   3.414  0.00  0.00    -0.003 A 
ATOM      4  C5  UNL d   1      -0.645   1.596   3.253  0.00  0.00     0.000 A 
ATOM      5  C6  UNL d   1      -1.189   1.685   1.973  0.00  0.00     0.000 A 
ATOM      6  C7  UNL d   1      -0.392   1.482   0.833  0.00  0.00    -0.073 A 
ATOM      7  C8  UNL d   1      -1.030   1.596  -0.524  0.00  0.00     0.078 C 
ENDROOT
BRANCH   1   8
ATOM      8  C1  UNL d   1       1.915   1.028  -0.182  0.00  0.00     0.053 C 
ATOM      9  C   UNL d   1       3.345   1.438   0.134  0.00  0.00     0.018 C 
ENDBRANCH   1   8
TORSDOF 1
ENDMDL
