MODEL 1
REMARK minimizedAffinity 3.68129349
REMARK minimizedRMSD -1
REMARK  1 active torsions:
REMARK  status: ('A' for Active; 'I' for Inactive)
REMARK    1  A    between atoms: C1_2  and  C2_3 
ROOT
ATOM      1  C2  UNL d   1       2.277   0.947   0.277  0.00  0.00    -0.076 A 
ATOM      2  C3  UNL d   1       2.911   2.202   0.277  0.00  0.00     0.004 A 
ATOM      3  C4  UNL d   1       4.205   2.352  -0.219  0.00  0.00    -0.003 A 
ATOM      4  C5  UNL d   1       4.886   1.250  -0.724  0.00  0.00     0.000 A 
ATOM      5  C6  UNL d   1       4.265   0.001  -0.748  0.00  0.00     0.000 A 
ATOM      6  C7  UNL d   1       2.955  -0.164  -0.267  0.00  0.00    -0.073 A 
ATOM      7  C8  UNL d   1       2.338  -1.535  -0.312  0.00  0.00     0.078 C 
ENDROOT
BRANCH   1   8
ATOM      8  C1  UNL d   1       0.883   0.840   0.854  0.00  0.00     0.053 C 
ATOM      9  C   UNL d   1      -0.153   1.571   0.013  0.00  0.00     0.018 C 
ENDBRANCH   1   8
TORSDOF 1
ENDMDL
