MODEL 1
REMARK minimizedAffinity 9.62861633
REMARK minimizedRMSD -1
REMARK  1 active torsions:
REMARK  status: ('A' for Active; 'I' for Inactive)
REMARK    1  A    between atoms: C1_2  and  C2_3 
ROOT
ATOM      1  C2  UNL d   1       2.136  -0.392   0.693  0.00  0.00    -0.076 A 
ATOM      2  C3  UNL d   1       1.944  -1.723   0.284  0.00  0.00     0.004 A 
ATOM      3  C4  UNL d   1       2.833  -2.339  -0.595  0.00  0.00    -0.003 A 
ATOM      4  C5  UNL d   1       3.929  -1.634  -1.080  0.00  0.00     0.000 A 
ATOM      5  C6  UNL d   1       4.145  -0.318  -0.671  0.00  0.00     0.000 A 
ATOM      6  C7  UNL d   1       3.268   0.312   0.228  0.00  0.00    -0.073 A 
ATOM      7  C8  UNL d   1       3.546   1.735   0.630  0.00  0.00     0.078 C 
ENDROOT
BRANCH   1   8
ATOM      8  C1  UNL d   1       1.125   0.233   1.627  0.00  0.00     0.053 C 
ATOM      9  C   UNL d   1       1.611   0.278   3.067  0.00  0.00     0.018 C 
ENDBRANCH   1   8
TORSDOF 1
ENDMDL
