MODEL 1
REMARK minimizedAffinity -4.54655695
REMARK minimizedRMSD -1
REMARK  0 active torsions:
REMARK  status: ('A' for Active; 'I' for Inactive)
ROOT
ATOM      1  C4' PXY d   1       2.228  -0.531  -1.155  0.00  0.00     0.077 C 
ATOM      2  C1' PXY d   1      -0.720  -2.399   3.453  0.00  0.00     0.077 C 
ATOM      3  C1  PXY d   1       0.042  -1.903   2.240  0.00  0.00    -0.082 A 
ATOM      4  C2  PXY d   1       1.134  -2.540   1.849  0.00  0.00     0.003 A 
ATOM      5  C3  PXY d   1       1.853  -2.087   0.773  0.00  0.00     0.003 A 
ATOM      6  C4  PXY d   1       1.421  -1.002   0.058  0.00  0.00    -0.082 A 
ATOM      7  C5  PXY d   1       0.303  -0.353   0.445  0.00  0.00     0.003 A 
ATOM      8  C6  PXY d   1      -0.391  -0.804   1.564  0.00  0.00     0.003 A 
ENDROOT
TORSDOF 0
ENDMDL
