MODEL 1
REMARK minimizedAffinity -4.09715891
REMARK minimizedRMSD -1
REMARK  0 active torsions:
REMARK  status: ('A' for Active; 'I' for Inactive)
ROOT
ATOM      1  C4' PXY d   1       1.569  -1.441   0.982  0.00  0.00     0.077 C 
ATOM      2  C1' PXY d   1      -2.203   1.467  -2.293  0.00  0.00     0.077 C 
ATOM      3  C1  PXY d   1      -1.209   0.716  -1.429  0.00  0.00    -0.082 A 
ATOM      4  C2  PXY d   1      -0.835  -0.506  -1.774  0.00  0.00     0.003 A 
ATOM      5  C3  PXY d   1       0.038  -1.212  -0.988  0.00  0.00     0.003 A 
ATOM      6  C4  PXY d   1       0.576  -0.642   0.135  0.00  0.00    -0.082 A 
ATOM      7  C5  PXY d   1       0.207   0.608   0.488  0.00  0.00     0.003 A 
ATOM      8  C6  PXY d   1      -0.712   1.293  -0.301  0.00  0.00     0.003 A 
ENDROOT
TORSDOF 0
ENDMDL
