MODEL 1
REMARK minimizedAffinity -3.79403758
REMARK minimizedRMSD -1
REMARK  0 active torsions:
REMARK  status: ('A' for Active; 'I' for Inactive)
ROOT
ATOM      1  C4' PXY d   1      -0.086   3.907  -3.102  0.00  0.00     0.077 C 
ATOM      2  C1' PXY d   1       0.244  -0.612   0.487  0.00  0.00     0.077 C 
ATOM      3  C1  PXY d   1       0.157   0.565  -0.465  0.00  0.00    -0.082 A 
ATOM      4  C2  PXY d   1       0.609   1.748  -0.084  0.00  0.00     0.003 A 
ATOM      5  C3  PXY d   1       0.509   2.831  -0.920  0.00  0.00     0.003 A 
ATOM      6  C4  PXY d   1      -0.010   2.689  -2.178  0.00  0.00    -0.082 A 
ATOM      7  C5  PXY d   1      -0.464   1.482  -2.578  0.00  0.00     0.003 A 
ATOM      8  C6  PXY d   1      -0.391   0.405  -1.700  0.00  0.00     0.003 A 
ENDROOT
TORSDOF 0
ENDMDL
