MODEL 1
REMARK minimizedAffinity -4.7259798
REMARK minimizedRMSD -1
REMARK  0 active torsions:
REMARK  status: ('A' for Active; 'I' for Inactive)
ROOT
ATOM      1  C4' PXY d   1       1.845  -2.993   1.193  0.00  0.00     0.077 C 
ATOM      2  C1' PXY d   1      -0.573   1.827  -0.891  0.00  0.00     0.077 C 
ATOM      3  C1  PXY d   1       0.071   0.565  -0.352  0.00  0.00    -0.082 A 
ATOM      4  C2  PXY d   1      -0.685  -0.376   0.189  0.00  0.00     0.003 A 
ATOM      5  C3  PXY d   1      -0.116  -1.510   0.710  0.00  0.00     0.003 A 
ATOM      6  C4  PXY d   1       1.237  -1.706   0.628  0.00  0.00    -0.082 A 
ATOM      7  C5  PXY d   1       2.014  -0.756   0.067  0.00  0.00     0.003 A 
ATOM      8  C6  PXY d   1       1.421   0.406  -0.418  0.00  0.00     0.003 A 
ENDROOT
TORSDOF 0
ENDMDL
