MODEL 1
REMARK minimizedAffinity -4.31109953
REMARK minimizedRMSD -1
REMARK  0 active torsions:
REMARK  status: ('A' for Active; 'I' for Inactive)
ROOT
ATOM      1  C4' PXY d   1       1.320  -3.530   1.140  0.00  0.00     0.077 C 
ATOM      2  C1' PXY d   1      -0.761   1.542  -0.693  0.00  0.00     0.077 C 
ATOM      3  C1  PXY d   1      -0.224   0.212  -0.203  0.00  0.00    -0.082 A 
ATOM      4  C2  PXY d   1       1.020  -0.137  -0.489  0.00  0.00     0.003 A 
ATOM      5  C3  PXY d   1       1.511  -1.350  -0.081  0.00  0.00     0.003 A 
ATOM      6  C4  PXY d   1       0.739  -2.192   0.674  0.00  0.00    -0.082 A 
ATOM      7  C5  PXY d   1      -0.528  -1.839   0.979  0.00  0.00     0.003 A 
ATOM      8  C6  PXY d   1      -1.021  -0.621   0.520  0.00  0.00     0.003 A 
ENDROOT
TORSDOF 0
ENDMDL
