MODEL 1
REMARK minimizedAffinity -4.51220036
REMARK minimizedRMSD -1
REMARK  0 active torsions:
REMARK  status: ('A' for Active; 'I' for Inactive)
ROOT
ATOM      1  C4' PXY d   1      -0.767   1.731  -0.890  0.00  0.00     0.077 C 
ATOM      2  C1' PXY d   1       1.611  -3.038   1.348  0.00  0.00     0.077 C 
ATOM      3  C1  PXY d   1       0.999  -1.782   0.761  0.00  0.00    -0.082 A 
ATOM      4  C2  PXY d   1      -0.284  -1.525   0.958  0.00  0.00     0.003 A 
ATOM      5  C3  PXY d   1      -0.861  -0.410   0.407  0.00  0.00     0.003 A 
ATOM      6  C4  PXY d   1      -0.105   0.480  -0.308  0.00  0.00    -0.082 A 
ATOM      7  C5  PXY d   1       1.207   0.231  -0.504  0.00  0.00     0.003 A 
ATOM      8  C6  PXY d   1       1.765  -0.928   0.028  0.00  0.00     0.003 A 
ENDROOT
TORSDOF 0
ENDMDL
