MODEL 1
REMARK minimizedAffinity -3.06614923
REMARK minimizedRMSD -1
REMARK  0 active torsions:
REMARK  status: ('A' for Active; 'I' for Inactive)
ROOT
ATOM      1  C4' PXY d   1      -0.831   1.671  -0.424  0.00  0.00     0.077 C 
ATOM      2  C1' PXY d   1       1.660  -3.179   1.497  0.00  0.00     0.077 C 
ATOM      3  C1  PXY d   1       1.018  -1.901   0.993  0.00  0.00    -0.082 A 
ATOM      4  C2  PXY d   1      -0.265  -1.677   1.227  0.00  0.00     0.003 A 
ATOM      5  C3  PXY d   1      -0.869  -0.542   0.751  0.00  0.00     0.003 A 
ATOM      6  C4  PXY d   1      -0.139   0.399   0.074  0.00  0.00    -0.082 A 
ATOM      7  C5  PXY d   1       1.172   0.183  -0.160  0.00  0.00     0.003 A 
ATOM      8  C6  PXY d   1       1.757  -0.995   0.297  0.00  0.00     0.003 A 
ENDROOT
TORSDOF 0
ENDMDL
