MODEL 1
REMARK minimizedAffinity -3.26297426
REMARK minimizedRMSD -1
REMARK  0 active torsions:
REMARK  status: ('A' for Active; 'I' for Inactive)
ROOT
ATOM      1  C4' PXY d   1       2.493  -1.236   1.233  0.00  0.00     0.077 C 
ATOM      2  C1' PXY d   1      -1.773   1.019  -1.951  0.00  0.00     0.077 C 
ATOM      3  C1  PXY d   1      -0.645   0.432  -1.125  0.00  0.00    -0.082 A 
ATOM      4  C2  PXY d   1      -0.906  -0.523  -0.247  0.00  0.00     0.003 A 
ATOM      5  C3  PXY d   1       0.096  -1.044   0.531  0.00  0.00     0.003 A 
ATOM      6  C4  PXY d   1       1.388  -0.620   0.371  0.00  0.00    -0.082 A 
ATOM      7  C5  PXY d   1       1.664   0.347  -0.531  0.00  0.00     0.003 A 
ATOM      8  C6  PXY d   1       0.626   0.891  -1.281  0.00  0.00     0.003 A 
ENDROOT
TORSDOF 0
ENDMDL
