MODEL 1
REMARK minimizedAffinity -4.1702857
REMARK minimizedRMSD -1
REMARK  0 active torsions:
REMARK  status: ('A' for Active; 'I' for Inactive)
ROOT
ATOM      1  C4' PXY d   1      -1.869   0.749  -2.329  0.00  0.00     0.077 C 
ATOM      2  C1' PXY d   1       2.011  -1.481   1.330  0.00  0.00     0.077 C 
ATOM      3  C1  PXY d   1       0.993  -0.885   0.378  0.00  0.00    -0.082 A 
ATOM      4  C2  PXY d   1       0.203  -1.685  -0.319  0.00  0.00     0.003 A 
ATOM      5  C3  PXY d   1      -0.701  -1.164  -1.209  0.00  0.00     0.003 A 
ATOM      6  C4  PXY d   1      -0.833   0.192  -1.348  0.00  0.00    -0.082 A 
ATOM      7  C5  PXY d   1      -0.038   1.015  -0.633  0.00  0.00     0.003 A 
ATOM      8  C6  PXY d   1       0.902   0.465   0.235  0.00  0.00     0.003 A 
ENDROOT
TORSDOF 0
ENDMDL
