MODEL 1
REMARK minimizedAffinity -2.80289483
REMARK minimizedRMSD -1
REMARK  0 active torsions:
REMARK  status: ('A' for Active; 'I' for Inactive)
ROOT
ATOM      1  C4' PXY d   1       3.533  -0.758   1.811  0.00  0.00     0.077 C 
ATOM      2  C1' PXY d   1      -1.434   0.634  -0.798  0.00  0.00     0.077 C 
ATOM      3  C1  PXY d   1      -0.138   0.261  -0.106  0.00  0.00    -0.082 A 
ATOM      4  C2  PXY d   1       0.867   1.121  -0.091  0.00  0.00     0.003 A 
ATOM      5  C3  PXY d   1       2.057   0.787   0.502  0.00  0.00     0.003 A 
ATOM      6  C4  PXY d   1       2.202  -0.420   1.133  0.00  0.00    -0.082 A 
ATOM      7  C5  PXY d   1       1.178  -1.299   1.131  0.00  0.00     0.003 A 
ATOM      8  C6  PXY d   1      -0.008  -0.957   0.487  0.00  0.00     0.003 A 
ENDROOT
TORSDOF 0
ENDMDL
