MODEL 1
REMARK minimizedAffinity -4.48040533
REMARK minimizedRMSD -1
REMARK  0 active torsions:
REMARK  status: ('A' for Active; 'I' for Inactive)
ROOT
ATOM      1  C4' PXY d   1       1.515  -2.804   1.252  0.00  0.00     0.077 C 
ATOM      2  C1' PXY d   1      -0.939   1.935  -0.968  0.00  0.00     0.077 C 
ATOM      3  C1  PXY d   1      -0.303   0.694  -0.375  0.00  0.00    -0.082 A 
ATOM      4  C2  PXY d   1       0.884   0.298  -0.806  0.00  0.00     0.003 A 
ATOM      5  C3  PXY d   1       1.460  -0.841  -0.304  0.00  0.00     0.003 A 
ATOM      6  C4  PXY d   1       0.839  -1.551   0.688  0.00  0.00    -0.082 A 
ATOM      7  C5  PXY d   1      -0.367  -1.147   1.141  0.00  0.00     0.003 A 
ATOM      8  C6  PXY d   1      -0.953  -0.012   0.589  0.00  0.00     0.003 A 
ENDROOT
TORSDOF 0
ENDMDL
