MODEL 1
REMARK minimizedAffinity -4.67567682
REMARK minimizedRMSD -1
REMARK  0 active torsions:
REMARK  status: ('A' for Active; 'I' for Inactive)
ROOT
ATOM      1  C4' PXY d   1       1.711  -2.867   0.976  0.00  0.00     0.077 C 
ATOM      2  C1' PXY d   1      -1.186   2.040   0.004  0.00  0.00     0.077 C 
ATOM      3  C1  PXY d   1      -0.419   0.756   0.248  0.00  0.00    -0.082 A 
ATOM      4  C2  PXY d   1      -0.981  -0.220   0.944  0.00  0.00     0.003 A 
ATOM      5  C3  PXY d   1      -0.290  -1.375   1.201  0.00  0.00     0.003 A 
ATOM      6  C4  PXY d   1       0.970  -1.556   0.697  0.00  0.00    -0.082 A 
ATOM      7  C5  PXY d   1       1.547  -0.570  -0.023  0.00  0.00     0.003 A 
ATOM      8  C6  PXY d   1       0.844   0.612  -0.238  0.00  0.00     0.003 A 
ENDROOT
TORSDOF 0
ENDMDL
