MODEL 1
REMARK minimizedAffinity -2.31461215
REMARK minimizedRMSD -1
REMARK  0 active torsions:
REMARK  status: ('A' for Active; 'I' for Inactive)
ROOT
ATOM      1  C4' PXY d   1       1.440  -3.022   1.420  0.00  0.00     0.077 C 
ATOM      2  C1' PXY d   1      -1.059   1.840  -0.460  0.00  0.00     0.077 C 
ATOM      3  C1  PXY d   1      -0.411   0.565   0.044  0.00  0.00    -0.082 A 
ATOM      4  C2  PXY d   1       0.778   0.209  -0.417  0.00  0.00     0.003 A 
ATOM      5  C3  PXY d   1       1.364  -0.956   0.004  0.00  0.00     0.003 A 
ATOM      6  C4  PXY d   1       0.752  -1.739   0.946  0.00  0.00    -0.082 A 
ATOM      7  C5  PXY d   1      -0.456  -1.377   1.429  0.00  0.00     0.003 A 
ATOM      8  C6  PXY d   1      -1.053  -0.211   0.958  0.00  0.00     0.003 A 
ENDROOT
TORSDOF 0
ENDMDL
