MODEL 1
REMARK minimizedAffinity -5.06735086
REMARK minimizedRMSD -1
REMARK  0 active torsions:
REMARK  status: ('A' for Active; 'I' for Inactive)
ROOT
ATOM      1  C4' PXY d   1       3.660  -0.754  -0.983  0.00  0.00     0.077 C 
ATOM      2  C1' PXY d   1      -1.202  -2.103   1.837  0.00  0.00     0.077 C 
ATOM      3  C1  PXY d   1       0.079  -1.759   1.103  0.00  0.00    -0.082 A 
ATOM      4  C2  PXY d   1       0.265  -0.529   0.652  0.00  0.00     0.003 A 
ATOM      5  C3  PXY d   1       1.403  -0.209  -0.042  0.00  0.00     0.003 A 
ATOM      6  C4  PXY d   1       2.386  -1.144  -0.229  0.00  0.00    -0.082 A 
ATOM      7  C5  PXY d   1       2.209  -2.398   0.238  0.00  0.00     0.003 A 
ATOM      8  C6  PXY d   1       1.028  -2.713   0.903  0.00  0.00     0.003 A 
ENDROOT
TORSDOF 0
ENDMDL
