MODEL 1
REMARK minimizedAffinity -4.08755064
REMARK minimizedRMSD -1
REMARK  0 active torsions:
REMARK  status: ('A' for Active; 'I' for Inactive)
ROOT
ATOM      1  C4' PXY d   1       1.289  -3.324   2.724  0.00  0.00     0.077 C 
ATOM      2  C1' PXY d   1      -0.886   0.795  -0.698  0.00  0.00     0.077 C 
ATOM      3  C1  PXY d   1      -0.322  -0.280   0.210  0.00  0.00    -0.082 A 
ATOM      4  C2  PXY d   1       0.822  -0.867  -0.103  0.00  0.00     0.003 A 
ATOM      5  C3  PXY d   1       1.330  -1.864   0.689  0.00  0.00     0.003 A 
ATOM      6  C4  PXY d   1       0.687  -2.227   1.842  0.00  0.00    -0.082 A 
ATOM      7  C5  PXY d   1      -0.475  -1.626   2.174  0.00  0.00     0.003 A 
ATOM      8  C6  PXY d   1      -0.995  -0.645   1.335  0.00  0.00     0.003 A 
ENDROOT
TORSDOF 0
ENDMDL
