MODEL 1
REMARK minimizedAffinity -4.69975281
REMARK minimizedRMSD -1
REMARK  0 active torsions:
REMARK  status: ('A' for Active; 'I' for Inactive)
ROOT
ATOM      1  C4' PXY d   1      -1.285   2.047  -1.472  0.00  0.00     0.077 C 
ATOM      2  C1' PXY d   1       2.529  -1.706   0.715  0.00  0.00     0.077 C 
ATOM      3  C1  PXY d   1       1.537  -0.712   0.144  0.00  0.00    -0.082 A 
ATOM      4  C2  PXY d   1       0.255  -1.032   0.078  0.00  0.00     0.003 A 
ATOM      5  C3  PXY d   1      -0.651  -0.158  -0.465  0.00  0.00     0.003 A 
ATOM      6  C4  PXY d   1      -0.249   1.078  -0.895  0.00  0.00    -0.082 A 
ATOM      7  C5  PXY d   1       1.055   1.417  -0.821  0.00  0.00     0.003 A 
ATOM      8  C6  PXY d   1       1.966   0.499  -0.305  0.00  0.00     0.003 A 
ENDROOT
TORSDOF 0
ENDMDL
