MODEL 1
REMARK minimizedAffinity -6.00859213
REMARK minimizedRMSD -1
REMARK  0 active torsions:
REMARK  status: ('A' for Active; 'I' for Inactive)
ROOT
ATOM      1  C4' PXY d   1      -0.420   1.044  -0.825  0.00  0.00     0.077 C 
ATOM      2  C1' PXY d   1       0.998  -3.452   2.521  0.00  0.00     0.077 C 
ATOM      3  C1  PXY d   1       0.639  -2.270   1.641  0.00  0.00    -0.082 A 
ATOM      4  C2  PXY d   1      -0.525  -1.662   1.806  0.00  0.00     0.003 A 
ATOM      5  C3  PXY d   1      -0.879  -0.612   0.998  0.00  0.00     0.003 A 
ATOM      6  C4  PXY d   1      -0.011  -0.147   0.046  0.00  0.00    -0.082 A 
ATOM      7  C5  PXY d   1       1.182  -0.756  -0.121  0.00  0.00     0.003 A 
ATOM      8  C6  PXY d   1       1.506  -1.845   0.682  0.00  0.00     0.003 A 
ENDROOT
TORSDOF 0
ENDMDL
