MODEL 1
REMARK minimizedAffinity -4.24945593
REMARK minimizedRMSD -1
REMARK  0 active torsions:
REMARK  status: ('A' for Active; 'I' for Inactive)
ROOT
ATOM      1  C4' PXY d   1      -1.164   1.764  -1.409  0.00  0.00     0.077 C 
ATOM      2  C1' PXY d   1       1.852  -2.377   1.268  0.00  0.00     0.077 C 
ATOM      3  C1  PXY d   1       1.050  -1.296   0.571  0.00  0.00    -0.082 A 
ATOM      4  C2  PXY d   1       1.517  -0.747  -0.539  0.00  0.00     0.003 A 
ATOM      5  C3  PXY d   1       0.820   0.254  -1.164  0.00  0.00     0.003 A 
ATOM      6  C4  PXY d   1      -0.393   0.662  -0.678  0.00  0.00    -0.082 A 
ATOM      7  C5  PXY d   1      -0.881   0.100   0.449  0.00  0.00     0.003 A 
ATOM      8  C6  PXY d   1      -0.139  -0.886   1.091  0.00  0.00     0.003 A 
ENDROOT
TORSDOF 0
ENDMDL
