MODEL 1
REMARK minimizedAffinity -5.27047014
REMARK minimizedRMSD -1
REMARK  0 active torsions:
REMARK  status: ('A' for Active; 'I' for Inactive)
ROOT
ATOM      1  C4' PXY d   1      -1.264  -1.201   2.334  0.00  0.00     0.077 C 
ATOM      2  C1' PXY d   1       3.400  -1.505  -1.067  0.00  0.00     0.077 C 
ATOM      3  C1  PXY d   1       2.178  -1.438  -0.173  0.00  0.00    -0.082 A 
ATOM      4  C2  PXY d   1       1.330  -0.429  -0.298  0.00  0.00     0.003 A 
ATOM      5  C3  PXY d   1       0.237  -0.336   0.523  0.00  0.00     0.003 A 
ATOM      6  C4  PXY d   1      -0.021  -1.314   1.447  0.00  0.00    -0.082 A 
ATOM      7  C5  PXY d   1       0.832  -2.352   1.573  0.00  0.00     0.003 A 
ATOM      8  C6  PXY d   1       1.959  -2.406   0.757  0.00  0.00     0.003 A 
ENDROOT
TORSDOF 0
ENDMDL
