MODEL 1
REMARK minimizedAffinity -3.25023484
REMARK minimizedRMSD -1
REMARK  0 active torsions:
REMARK  status: ('A' for Active; 'I' for Inactive)
ROOT
ATOM      1  N1  IND d   1      -1.286  -0.600  -0.434  0.00  0.00    -0.196 N 
ATOM      2  C2  IND d   1      -0.121  -0.718  -1.139  0.00  0.00     0.054 A 
ATOM      3  C3  IND d   1       0.853   0.023  -0.565  0.00  0.00    -0.031 A 
ATOM      4  C4  IND d   1       0.785   1.425   1.593  0.00  0.00     0.051 A 
ATOM      5  C5  IND d   1      -0.070   1.867   2.564  0.00  0.00    -0.031 A 
ATOM      6  C6  IND d   1      -1.399   1.499   2.588  0.00  0.00     0.015 A 
ATOM      7  C7  IND d   1      -1.924   0.663   1.643  0.00  0.00    -0.016 A 
ATOM      8  C8  IND d   1      -1.061   0.218   0.651  0.00  0.00    -0.047 A 
ATOM      9  C9  IND d   1       0.279   0.622   0.598  0.00  0.00    -0.096 A 
ATOM     10  HN1 IND d   1      -2.034  -0.975  -0.634  0.00  0.00     0.298 HD
ENDROOT
TORSDOF 0
ENDMDL
