MODEL 1
REMARK minimizedAffinity -3.45809007
REMARK minimizedRMSD -1
REMARK  0 active torsions:
REMARK  status: ('A' for Active; 'I' for Inactive)
ROOT
ATOM      1  N1  IND d   1      -2.009   0.089   1.957  0.00  0.00    -0.196 N 
ATOM      2  C2  IND d   1      -1.318   0.960   2.753  0.00  0.00     0.054 A 
ATOM      3  C3  IND d   1      -0.067   1.142   2.275  0.00  0.00    -0.031 A 
ATOM      4  C4  IND d   1       1.026   0.191   0.146  0.00  0.00     0.051 A 
ATOM      5  C5  IND d   1       0.802  -0.680  -0.882  0.00  0.00    -0.031 A 
ATOM      6  C6  IND d   1      -0.396  -1.351  -1.021  0.00  0.00     0.015 A 
ATOM      7  C7  IND d   1      -1.423  -1.167  -0.139  0.00  0.00    -0.016 A 
ATOM      8  C8  IND d   1      -1.196  -0.288   0.911  0.00  0.00    -0.047 A 
ATOM      9  C9  IND d   1       0.032   0.364   1.081  0.00  0.00    -0.096 A 
ATOM     10  HN1 IND d   1      -2.815  -0.179   2.089  0.00  0.00     0.298 HD
ENDROOT
TORSDOF 0
ENDMDL
