MODEL 1
REMARK minimizedAffinity -1.97690988
REMARK minimizedRMSD -1
REMARK  0 active torsions:
REMARK  status: ('A' for Active; 'I' for Inactive)
ROOT
ATOM      1  N1  IND d   1      -1.580   1.771   2.381  0.00  0.00    -0.196 N 
ATOM      2  C2  IND d   1      -0.393   1.685   3.054  0.00  0.00     0.054 A 
ATOM      3  C3  IND d   1       0.489   0.933   2.357  0.00  0.00    -0.031 A 
ATOM      4  C4  IND d   1       0.232  -0.168   0.044  0.00  0.00     0.051 A 
ATOM      5  C5  IND d   1      -0.684  -0.397  -0.943  0.00  0.00    -0.031 A 
ATOM      6  C6  IND d   1      -1.971   0.097  -0.874  0.00  0.00     0.015 A 
ATOM      7  C7  IND d   1      -2.388   0.851   0.186  0.00  0.00    -0.016 A 
ATOM      8  C8  IND d   1      -1.462   1.081   1.194  0.00  0.00    -0.047 A 
ATOM      9  C9  IND d   1      -0.168   0.546   1.149  0.00  0.00    -0.096 A 
ATOM     10  HN1 IND d   1      -2.282   2.187   2.653  0.00  0.00     0.298 HD
ENDROOT
TORSDOF 0
ENDMDL
