MODEL 1
REMARK minimizedAffinity -3.02326488
REMARK minimizedRMSD -1
REMARK  0 active torsions:
REMARK  status: ('A' for Active; 'I' for Inactive)
ROOT
ATOM      1  N1  IND d   1       0.780  -0.347  -0.126  0.00  0.00    -0.196 N 
ATOM      2  C2  IND d   1      -0.327  -0.002  -0.849  0.00  0.00     0.054 A 
ATOM      3  C3  IND d   1      -1.323   0.392  -0.023  0.00  0.00    -0.031 A 
ATOM      4  C4  IND d   1      -1.321   0.645   2.538  0.00  0.00     0.051 A 
ATOM      5  C5  IND d   1      -0.549   0.416   3.643  0.00  0.00    -0.031 A 
ATOM      6  C6  IND d   1       0.732  -0.087   3.545  0.00  0.00     0.015 A 
ATOM      7  C7  IND d   1       1.296  -0.370   2.333  0.00  0.00    -0.016 A 
ATOM      8  C8  IND d   1       0.513  -0.145   1.210  0.00  0.00    -0.047 A 
ATOM      9  C9  IND d   1      -0.803   0.325   1.305  0.00  0.00    -0.096 A 
ATOM     10  HN1 IND d   1       1.520  -0.640  -0.451  0.00  0.00     0.298 HD
ENDROOT
TORSDOF 0
ENDMDL
