MODEL 1
REMARK minimizedAffinity -2.79538631
REMARK minimizedRMSD -1
REMARK  0 active torsions:
REMARK  status: ('A' for Active; 'I' for Inactive)
ROOT
ATOM      1  N1  IND d   1       1.359  -0.596   0.329  0.00  0.00    -0.196 N 
ATOM      2  C2  IND d   1       2.270  -0.373   1.324  0.00  0.00     0.054 A 
ATOM      3  C3  IND d   1       1.713   0.356   2.317  0.00  0.00    -0.031 A 
ATOM      4  C4  IND d   1      -0.705   1.206   2.564  0.00  0.00     0.051 A 
ATOM      5  C5  IND d   1      -1.893   1.282   1.894  0.00  0.00    -0.031 A 
ATOM      6  C6  IND d   1      -2.063   0.722   0.644  0.00  0.00     0.015 A 
ATOM      7  C7  IND d   1      -1.049   0.053   0.020  0.00  0.00    -0.016 A 
ATOM      8  C8  IND d   1       0.162  -0.020   0.694  0.00  0.00    -0.047 A 
ATOM      9  C9  IND d   1       0.353   0.582   1.944  0.00  0.00    -0.096 A 
ATOM     10  HN1 IND d   1       1.509  -1.023  -0.402  0.00  0.00     0.298 HD
ENDROOT
TORSDOF 0
ENDMDL
