MODEL 1
REMARK minimizedAffinity -2.31201124
REMARK minimizedRMSD -1
REMARK  0 active torsions:
REMARK  status: ('A' for Active; 'I' for Inactive)
ROOT
ATOM      1  N1  IND d   1       0.524   0.883   2.445  0.00  0.00    -0.196 N 
ATOM      2  C2  IND d   1      -0.703   1.227   2.939  0.00  0.00     0.054 A 
ATOM      3  C3  IND d   1      -1.672   0.914   2.050  0.00  0.00    -0.031 A 
ATOM      4  C4  IND d   1      -1.480  -0.261  -0.233  0.00  0.00     0.051 A 
ATOM      5  C5  IND d   1      -0.561  -0.734  -1.127  0.00  0.00    -0.031 A 
ATOM      6  C6  IND d   1       0.794  -0.693  -0.870  0.00  0.00     0.015 A 
ATOM      7  C7  IND d   1       1.282  -0.187   0.301  0.00  0.00    -0.016 A 
ATOM      8  C8  IND d   1       0.352   0.301   1.209  0.00  0.00    -0.047 A 
ATOM      9  C9  IND d   1      -1.022   0.301   0.935  0.00  0.00    -0.096 A 
ATOM     10  HN1 IND d   1       1.277   1.010   2.840  0.00  0.00     0.298 HD
ENDROOT
TORSDOF 0
ENDMDL
