MODEL 1
REMARK minimizedAffinity -4.5990715
REMARK minimizedRMSD -1
REMARK  0 active torsions:
REMARK  status: ('A' for Active; 'I' for Inactive)
ROOT
ATOM      1  N1  IND d   1      -1.777   0.981   1.897  0.00  0.00    -0.196 N 
ATOM      2  C2  IND d   1      -0.915   1.663   2.710  0.00  0.00     0.054 A 
ATOM      3  C3  IND d   1       0.364   1.437   2.334  0.00  0.00    -0.031 A 
ATOM      4  C4  IND d   1       1.269   0.065   0.353  0.00  0.00     0.051 A 
ATOM      5  C5  IND d   1       0.867  -0.771  -0.651  0.00  0.00    -0.031 A 
ATOM      6  C6  IND d   1      -0.463  -1.069  -0.863  0.00  0.00     0.015 A 
ATOM      7  C7  IND d   1      -1.447  -0.531  -0.083  0.00  0.00    -0.016 A 
ATOM      8  C8  IND d   1      -1.043   0.312   0.943  0.00  0.00    -0.047 A 
ATOM      9  C9  IND d   1       0.309   0.585   1.189  0.00  0.00    -0.096 A 
ATOM     10  HN1 IND d   1      -2.634   0.971   1.970  0.00  0.00     0.298 HD
ENDROOT
TORSDOF 0
ENDMDL
