MODEL 1
REMARK minimizedAffinity -5.27250338
REMARK minimizedRMSD -1
REMARK  0 active torsions:
REMARK  status: ('A' for Active; 'I' for Inactive)
ROOT
ATOM      1  N1  IND d   1       1.370  -0.334   0.073  0.00  0.00    -0.196 N 
ATOM      2  C2  IND d   1       0.399  -0.537  -0.867  0.00  0.00     0.054 A 
ATOM      3  C3  IND d   1      -0.816  -0.223  -0.364  0.00  0.00    -0.031 A 
ATOM      4  C4  IND d   1      -1.432   0.739   1.943  0.00  0.00     0.051 A 
ATOM      5  C5  IND d   1      -0.890   1.061   3.155  0.00  0.00    -0.031 A 
ATOM      6  C6  IND d   1       0.461   0.935   3.406  0.00  0.00     0.015 A 
ATOM      7  C7  IND d   1       1.325   0.491   2.446  0.00  0.00    -0.016 A 
ATOM      8  C8  IND d   1       0.777   0.156   1.216  0.00  0.00    -0.047 A 
ATOM      9  C9  IND d   1      -0.599   0.241   0.969  0.00  0.00    -0.096 A 
ATOM     10  HN1 IND d   1       2.210  -0.486  -0.032  0.00  0.00     0.298 HD
ENDROOT
TORSDOF 0
ENDMDL
