MODEL 1
REMARK minimizedAffinity -5.08063173
REMARK minimizedRMSD -1
REMARK  0 active torsions:
REMARK  status: ('A' for Active; 'I' for Inactive)
ROOT
ATOM      1  N1  IND d   1       1.630  -0.893   0.388  0.00  0.00    -0.196 N 
ATOM      2  C2  IND d   1       2.505  -1.080   1.422  0.00  0.00     0.054 A 
ATOM      3  C3  IND d   1       1.960  -0.651   2.582  0.00  0.00    -0.031 A 
ATOM      4  C4  IND d   1      -0.389   0.299   3.034  0.00  0.00     0.051 A 
ATOM      5  C5  IND d   1      -1.533   0.692   2.398  0.00  0.00    -0.031 A 
ATOM      6  C6  IND d   1      -1.685   0.572   1.031  0.00  0.00     0.015 A 
ATOM      7  C7  IND d   1      -0.699   0.042   0.249  0.00  0.00    -0.016 A 
ATOM      8  C8  IND d   1       0.467  -0.352   0.891  0.00  0.00    -0.047 A 
ATOM      9  C9  IND d   1       0.643  -0.194   2.271  0.00  0.00    -0.096 A 
ATOM     10  HN1 IND d   1       1.781  -1.080  -0.437  0.00  0.00     0.298 HD
ENDROOT
TORSDOF 0
ENDMDL
