MODEL 1
REMARK minimizedAffinity -3.18219948
REMARK minimizedRMSD -1
REMARK  0 active torsions:
REMARK  status: ('A' for Active; 'I' for Inactive)
ROOT
ATOM      1  N1  IND d   1       0.351   0.198  -0.711  0.00  0.00    -0.196 N 
ATOM      2  C2  IND d   1      -0.776  -0.299  -1.303  0.00  0.00     0.054 A 
ATOM      3  C3  IND d   1      -1.822  -0.235  -0.449  0.00  0.00    -0.031 A 
ATOM      4  C4  IND d   1      -1.935   0.739   1.931  0.00  0.00     0.051 A 
ATOM      5  C5  IND d   1      -1.150   1.274   2.914  0.00  0.00    -0.031 A 
ATOM      6  C6  IND d   1       0.202   1.485   2.734  0.00  0.00     0.015 A 
ATOM      7  C7  IND d   1       0.820   1.177   1.555  0.00  0.00    -0.016 A 
ATOM      8  C8  IND d   1       0.028   0.627   0.558  0.00  0.00    -0.047 A 
ATOM      9  C9  IND d   1      -1.336   0.372   0.749  0.00  0.00    -0.096 A 
ATOM     10  HN1 IND d   1       1.132   0.237  -1.071  0.00  0.00     0.298 HD
ENDROOT
TORSDOF 0
ENDMDL
