MODEL 1
REMARK minimizedAffinity 0.606776476
REMARK minimizedRMSD -1
REMARK  0 active torsions:
REMARK  status: ('A' for Active; 'I' for Inactive)
ROOT
ATOM      1  N1  IND d   1      -0.444   0.090  -1.362  0.00  0.00    -0.196 N 
ATOM      2  C2  IND d   1       0.785  -0.506  -1.300  0.00  0.00     0.054 A 
ATOM      3  C3  IND d   1       1.148  -0.702  -0.013  0.00  0.00    -0.031 A 
ATOM      4  C4  IND d   1      -0.162  -0.215   2.149  0.00  0.00     0.051 A 
ATOM      5  C5  IND d   1      -1.315   0.361   2.603  0.00  0.00    -0.031 A 
ATOM      6  C6  IND d   1      -2.257   0.884   1.741  0.00  0.00     0.015 A 
ATOM      7  C7  IND d   1      -2.086   0.840   0.386  0.00  0.00    -0.016 A 
ATOM      8  C8  IND d   1      -0.913   0.262  -0.078  0.00  0.00    -0.047 A 
ATOM      9  C9  IND d   1       0.067  -0.232   0.793  0.00  0.00    -0.096 A 
ATOM     10  HN1 IND d   1      -0.855   0.318  -2.082  0.00  0.00     0.298 HD
ENDROOT
TORSDOF 0
ENDMDL
