MODEL 1
REMARK minimizedAffinity 7.00750971
REMARK minimizedRMSD -1
REMARK  2 active torsions:
REMARK  status: ('A' for Active; 'I' for Inactive)
REMARK    1  A    between atoms: C2'_3  and  C1'_4 
REMARK    2  A    between atoms: C1'_4  and  C1_5 
ROOT
ATOM      1  C1  I4B d   1       0.791   1.533   1.026  0.00  0.00    -0.075 A 
ATOM      2  C2  I4B d   1       0.304   0.297   0.683  0.00  0.00     0.003 A 
ATOM      3  C3  I4B d   1      -1.085   0.109   0.480  0.00  0.00     0.002 A 
ATOM      4  C4  I4B d   1      -1.949   1.166   0.678  0.00  0.00    -0.004 A 
ATOM      5  C5  I4B d   1      -1.451   2.425   1.003  0.00  0.00     0.002 A 
ATOM      6  C6  I4B d   1      -0.071   2.613   1.166  0.00  0.00     0.003 A 
ENDROOT
BRANCH   1   7
ATOM      7  C1' I4B d   1       2.260   1.688   1.265  0.00  0.00     0.060 C 
BRANCH   7   8
ATOM      8  C2' I4B d   1       2.478   2.996   1.999  0.00  0.00    -0.013 C 
ATOM      9  C4' I4B d   1       1.776   2.997   3.331  0.00  0.00     0.013 C 
ATOM     10  C3' I4B d   1       3.955   3.193   2.166  0.00  0.00     0.013 C 
ENDBRANCH   7   8
ENDBRANCH   1   7
TORSDOF 2
ENDMDL
