MODEL 1
REMARK minimizedAffinity 7.44025373
REMARK minimizedRMSD -1
REMARK  2 active torsions:
REMARK  status: ('A' for Active; 'I' for Inactive)
REMARK    1  A    between atoms: C2'_3  and  C1'_4 
REMARK    2  A    between atoms: C1'_4  and  C1_5 
ROOT
ATOM      1  C1  I4B d   1       0.563   2.983   1.706  0.00  0.00    -0.075 A 
ATOM      2  C2  I4B d   1      -0.772   3.267   1.842  0.00  0.00     0.003 A 
ATOM      3  C3  I4B d   1      -1.747   2.371   1.338  0.00  0.00     0.002 A 
ATOM      4  C4  I4B d   1      -1.343   1.237   0.664  0.00  0.00    -0.004 A 
ATOM      5  C5  I4B d   1       0.012   0.939   0.546  0.00  0.00     0.002 A 
ATOM      6  C6  I4B d   1       0.971   1.811   1.081  0.00  0.00     0.003 A 
ENDROOT
BRANCH   1   7
ATOM      7  C1' I4B d   1       1.566   3.966   2.221  0.00  0.00     0.060 C 
BRANCH   7   8
ATOM      8  C2' I4B d   1       2.646   3.193   2.949  0.00  0.00    -0.013 C 
ATOM      9  C4' I4B d   1       3.992   3.399   2.305  0.00  0.00     0.013 C 
ATOM     10  C3' I4B d   1       2.655   3.646   4.379  0.00  0.00     0.013 C 
ENDBRANCH   7   8
ENDBRANCH   1   7
TORSDOF 2
ENDMDL
