MODEL 1
REMARK minimizedAffinity 7.37358236
REMARK minimizedRMSD -1
REMARK  2 active torsions:
REMARK  status: ('A' for Active; 'I' for Inactive)
REMARK    1  A    between atoms: C2'_3  and  C1'_4 
REMARK    2  A    between atoms: C1'_4  and  C1_5 
ROOT
ATOM      1  C1  I4B d   1       2.459   2.856   2.612  0.00  0.00    -0.075 A 
ATOM      2  C2  I4B d   1       1.382   2.485   1.846  0.00  0.00     0.003 A 
ATOM      3  C3  I4B d   1       0.068   2.828   2.250  0.00  0.00     0.002 A 
ATOM      4  C4  I4B d   1      -0.124   3.494   3.443  0.00  0.00    -0.004 A 
ATOM      5  C5  I4B d   1       0.971   3.890   4.206  0.00  0.00     0.002 A 
ATOM      6  C6  I4B d   1       2.271   3.580   3.782  0.00  0.00     0.003 A 
ENDROOT
BRANCH   1   7
ATOM      7  C1' I4B d   1       3.830   2.449   2.173  0.00  0.00     0.060 C 
BRANCH   7   8
ATOM      8  C2' I4B d   1       4.727   3.667   2.253  0.00  0.00    -0.013 C 
ATOM      9  C4' I4B d   1       5.952   3.388   3.084  0.00  0.00     0.013 C 
ATOM     10  C3' I4B d   1       5.099   4.061   0.855  0.00  0.00     0.013 C 
ENDBRANCH   7   8
ENDBRANCH   1   7
TORSDOF 2
ENDMDL
