MODEL 1
REMARK minimizedAffinity 3.46952653
REMARK minimizedRMSD -1
REMARK  2 active torsions:
REMARK  status: ('A' for Active; 'I' for Inactive)
REMARK    1  A    between atoms: C2'_3  and  C1'_4 
REMARK    2  A    between atoms: C1'_4  and  C1_5 
ROOT
ATOM      1  C1  I4B d   1      -1.081   0.979   0.827  0.00  0.00    -0.075 A 
ATOM      2  C2  I4B d   1      -1.115   2.249   1.346  0.00  0.00     0.003 A 
ATOM      3  C3  I4B d   1       0.090   2.954   1.585  0.00  0.00     0.002 A 
ATOM      4  C4  I4B d   1       1.299   2.336   1.338  0.00  0.00    -0.004 A 
ATOM      5  C5  I4B d   1       1.331   1.057   0.790  0.00  0.00     0.002 A 
ATOM      6  C6  I4B d   1       0.133   0.378   0.521  0.00  0.00     0.003 A 
ENDROOT
BRANCH   1   7
ATOM      7  C1' I4B d   1      -2.371   0.250   0.619  0.00  0.00     0.060 C 
BRANCH   7   8
ATOM      8  C2' I4B d   1      -3.387   0.813   1.592  0.00  0.00    -0.013 C 
ATOM      9  C4' I4B d   1      -4.636   1.260   0.879  0.00  0.00     0.013 C 
ATOM     10  C3' I4B d   1      -3.693  -0.248   2.607  0.00  0.00     0.013 C 
ENDBRANCH   7   8
ENDBRANCH   1   7
TORSDOF 2
ENDMDL
