MODEL 1
REMARK minimizedAffinity 3.97540855
REMARK minimizedRMSD -1
REMARK  2 active torsions:
REMARK  status: ('A' for Active; 'I' for Inactive)
REMARK    1  A    between atoms: C2'_3  and  C1'_4 
REMARK    2  A    between atoms: C1'_4  and  C1_5 
ROOT
ATOM      1  C1  I4B d   1      -0.741   1.955   1.097  0.00  0.00    -0.075 A 
ATOM      2  C2  I4B d   1       0.046   0.932   0.630  0.00  0.00     0.003 A 
ATOM      3  C3  I4B d   1      -0.547  -0.242   0.108  0.00  0.00     0.002 A 
ATOM      4  C4  I4B d   1      -1.921  -0.372   0.118  0.00  0.00    -0.004 A 
ATOM      5  C5  I4B d   1      -2.718   0.675   0.572  0.00  0.00     0.002 A 
ATOM      6  C6  I4B d   1      -2.125   1.851   1.053  0.00  0.00     0.003 A 
ENDROOT
BRANCH   1   7
ATOM      7  C1' I4B d   1      -0.080   3.168   1.672  0.00  0.00     0.060 C 
BRANCH   7   8
ATOM      8  C2' I4B d   1       0.041   2.967   3.169  0.00  0.00    -0.013 C 
ATOM      9  C4' I4B d   1       1.272   3.645   3.712  0.00  0.00     0.013 C 
ATOM     10  C3' I4B d   1      -1.202   3.507   3.811  0.00  0.00     0.013 C 
ENDBRANCH   7   8
ENDBRANCH   1   7
TORSDOF 2
ENDMDL
