MODEL 1
REMARK minimizedAffinity 4.11584425
REMARK minimizedRMSD -1
REMARK  2 active torsions:
REMARK  status: ('A' for Active; 'I' for Inactive)
REMARK    1  A    between atoms: C2'_3  and  C1'_4 
REMARK    2  A    between atoms: C1'_4  and  C1_5 
ROOT
ATOM      1  C1  I4B d   1      -0.313  -0.955  -0.195  0.00  0.00    -0.075 A 
ATOM      2  C2  I4B d   1      -1.347  -1.835  -0.394  0.00  0.00     0.003 A 
ATOM      3  C3  I4B d   1      -1.306  -2.751  -1.473  0.00  0.00     0.002 A 
ATOM      4  C4  I4B d   1      -0.244  -2.718  -2.353  0.00  0.00    -0.004 A 
ATOM      5  C5  I4B d   1       0.815  -1.841  -2.136  0.00  0.00     0.002 A 
ATOM      6  C6  I4B d   1       0.786  -0.962  -1.044  0.00  0.00     0.003 A 
ENDROOT
BRANCH   1   7
ATOM      7  C1' I4B d   1      -0.404   0.021   0.935  0.00  0.00     0.060 C 
BRANCH   7   8
ATOM      8  C2' I4B d   1      -1.446   1.059   0.572  0.00  0.00    -0.013 C 
ATOM      9  C4' I4B d   1      -2.774   0.744   1.209  0.00  0.00     0.013 C 
ATOM     10  C3' I4B d   1      -0.938   2.399   1.015  0.00  0.00     0.013 C 
ENDBRANCH   7   8
ENDBRANCH   1   7
TORSDOF 2
ENDMDL
