MODEL 1
REMARK minimizedAffinity -0.166890174
REMARK minimizedRMSD -1
REMARK  2 active torsions:
REMARK  status: ('A' for Active; 'I' for Inactive)
REMARK    1  A    between atoms: C2'_3  and  C1'_4 
REMARK    2  A    between atoms: C1'_4  and  C1_5 
ROOT
ATOM      1  C1  I4B d   1      -3.188   4.456  -5.614  0.00  0.00    -0.075 A 
ATOM      2  C2  I4B d   1      -3.484   5.641  -4.987  0.00  0.00     0.003 A 
ATOM      3  C3  I4B d   1      -4.831   5.998  -4.739  0.00  0.00     0.002 A 
ATOM      4  C4  I4B d   1      -5.845   5.171  -5.175  0.00  0.00    -0.004 A 
ATOM      5  C5  I4B d   1      -5.543   3.959  -5.789  0.00  0.00     0.002 A 
ATOM      6  C6  I4B d   1      -4.205   3.593  -5.999  0.00  0.00     0.003 A 
ENDROOT
BRANCH   1   7
ATOM      7  C1' I4B d   1      -1.755   4.125  -5.890  0.00  0.00     0.060 C 
BRANCH   7   8
ATOM      8  C2' I4B d   1      -1.468   2.762  -5.294  0.00  0.00    -0.013 C 
ATOM      9  C4' I4B d   1      -0.317   2.091  -5.996  0.00  0.00     0.013 C 
ATOM     10  C3' I4B d   1      -1.177   2.947  -3.834  0.00  0.00     0.013 C 
ENDBRANCH   7   8
ENDBRANCH   1   7
TORSDOF 2
ENDMDL
