MODEL 1
REMARK minimizedAffinity 3.12056708
REMARK minimizedRMSD -1
REMARK  2 active torsions:
REMARK  status: ('A' for Active; 'I' for Inactive)
REMARK    1  A    between atoms: C2'_3  and  C1'_4 
REMARK    2  A    between atoms: C1'_4  and  C1_5 
ROOT
ATOM      1  C1  I4B d   1       3.010   2.647  -3.752  0.00  0.00    -0.075 A 
ATOM      2  C2  I4B d   1       1.658   2.864  -3.834  0.00  0.00     0.003 A 
ATOM      3  C3  I4B d   1       1.102   3.475  -4.984  0.00  0.00     0.002 A 
ATOM      4  C4  I4B d   1       1.936   3.896  -6.000  0.00  0.00    -0.004 A 
ATOM      5  C5  I4B d   1       3.305   3.654  -5.925  0.00  0.00     0.002 A 
ATOM      6  C6  I4B d   1       3.844   3.015  -4.800  0.00  0.00     0.003 A 
ENDROOT
BRANCH   1   7
ATOM      7  C1' I4B d   1       3.567   2.029  -2.509  0.00  0.00     0.060 C 
BRANCH   7   8
ATOM      8  C2' I4B d   1       2.510   1.112  -1.929  0.00  0.00    -0.013 C 
ATOM      9  C4' I4B d   1       2.752  -0.320  -2.328  0.00  0.00     0.013 C 
ATOM     10  C3' I4B d   1       2.527   1.269  -0.438  0.00  0.00     0.013 C 
ENDBRANCH   7   8
ENDBRANCH   1   7
TORSDOF 2
ENDMDL
