MODEL 1
REMARK minimizedAffinity 0.69208765
REMARK minimizedRMSD -1
REMARK  2 active torsions:
REMARK  status: ('A' for Active; 'I' for Inactive)
REMARK    1  A    between atoms: C2'_3  and  C1'_4 
REMARK    2  A    between atoms: C1'_4  and  C1_5 
ROOT
ATOM      1  C1  I4B d   1       1.187   1.843   0.816  0.00  0.00    -0.075 A 
ATOM      2  C2  I4B d   1       0.790   0.569   0.495  0.00  0.00     0.003 A 
ATOM      3  C3  I4B d   1      -0.579   0.283   0.276  0.00  0.00     0.002 A 
ATOM      4  C4  I4B d   1      -1.516   1.284   0.435  0.00  0.00    -0.004 A 
ATOM      5  C5  I4B d   1      -1.109   2.580   0.737  0.00  0.00     0.002 A 
ATOM      6  C6  I4B d   1       0.252   2.865   0.917  0.00  0.00     0.003 A 
ENDROOT
BRANCH   1   7
ATOM      7  C1' I4B d   1       2.638   2.102   1.073  0.00  0.00     0.060 C 
BRANCH   7   8
ATOM      8  C2' I4B d   1       2.749   3.399   1.849  0.00  0.00    -0.013 C 
ATOM      9  C4' I4B d   1       2.139   3.269   3.220  0.00  0.00     0.013 C 
ATOM     10  C3' I4B d   1       4.202   3.763   1.936  0.00  0.00     0.013 C 
ENDBRANCH   7   8
ENDBRANCH   1   7
TORSDOF 2
ENDMDL
