MODEL 1
REMARK minimizedAffinity 9.29716682
REMARK minimizedRMSD -1
REMARK  2 active torsions:
REMARK  status: ('A' for Active; 'I' for Inactive)
REMARK    1  A    between atoms: C2'_3  and  C1'_4 
REMARK    2  A    between atoms: C1'_4  and  C1_5 
ROOT
ATOM      1  C1  I4B d   1      -3.120  -0.813   3.521  0.00  0.00    -0.075 A 
ATOM      2  C2  I4B d   1      -2.570  -1.580   4.518  0.00  0.00     0.003 A 
ATOM      3  C3  I4B d   1      -3.354  -2.551   5.186  0.00  0.00     0.002 A 
ATOM      4  C4  I4B d   1      -4.689  -2.685   4.864  0.00  0.00    -0.004 A 
ATOM      5  C5  I4B d   1      -5.240  -1.923   3.837  0.00  0.00     0.002 A 
ATOM      6  C6  I4B d   1      -4.448  -0.989   3.153  0.00  0.00     0.003 A 
ENDROOT
BRANCH   1   7
ATOM      7  C1' I4B d   1      -2.272   0.225   2.859  0.00  0.00     0.060 C 
BRANCH   7   8
ATOM      8  C2' I4B d   1      -2.308  -0.026   1.365  0.00  0.00    -0.013 C 
ATOM      9  C4' I4B d   1      -2.154   1.257   0.592  0.00  0.00     0.013 C 
ATOM     10  C3' I4B d   1      -1.211  -0.993   1.032  0.00  0.00     0.013 C 
ENDBRANCH   7   8
ENDBRANCH   1   7
TORSDOF 2
ENDMDL
