MODEL 1
REMARK minimizedAffinity 6.68164873
REMARK minimizedRMSD -1
REMARK  2 active torsions:
REMARK  status: ('A' for Active; 'I' for Inactive)
REMARK    1  A    between atoms: C2'_3  and  C1'_4 
REMARK    2  A    between atoms: C1'_4  and  C1_5 
ROOT
ATOM      1  C1  I4B d   1      -3.165   4.314  -5.270  0.00  0.00    -0.075 A 
ATOM      2  C2  I4B d   1      -3.451   5.608  -5.628  0.00  0.00     0.003 A 
ATOM      3  C3  I4B d   1      -4.779   5.982  -5.945  0.00  0.00     0.002 A 
ATOM      4  C4  I4B d   1      -5.774   5.027  -5.940  0.00  0.00    -0.004 A 
ATOM      5  C5  I4B d   1      -5.487   3.720  -5.554  0.00  0.00     0.002 A 
ATOM      6  C6  I4B d   1      -4.176   3.364  -5.205  0.00  0.00     0.003 A 
ENDROOT
BRANCH   1   7
ATOM      7  C1' I4B d   1      -1.745   3.945  -4.974  0.00  0.00     0.060 C 
BRANCH   7   8
ATOM      8  C2' I4B d   1      -1.312   2.905  -5.987  0.00  0.00    -0.013 C 
ATOM      9  C4' I4B d   1       0.074   2.398  -5.689  0.00  0.00     0.013 C 
ATOM     10  C3' I4B d   1      -2.314   1.790  -5.963  0.00  0.00     0.013 C 
ENDBRANCH   7   8
ENDBRANCH   1   7
TORSDOF 2
ENDMDL
