MODEL 1
REMARK minimizedAffinity 4.13250828
REMARK minimizedRMSD -1
REMARK  2 active torsions:
REMARK  status: ('A' for Active; 'I' for Inactive)
REMARK    1  A    between atoms: C2'_3  and  C1'_4 
REMARK    2  A    between atoms: C1'_4  and  C1_5 
ROOT
ATOM      1  C1  I4B d   1      -0.575  -1.487   0.223  0.00  0.00    -0.075 A 
ATOM      2  C2  I4B d   1       0.719  -1.041   0.127  0.00  0.00     0.003 A 
ATOM      3  C3  I4B d   1       1.018   0.328   0.328  0.00  0.00     0.002 A 
ATOM      4  C4  I4B d   1      -0.007   1.219   0.571  0.00  0.00    -0.004 A 
ATOM      5  C5  I4B d   1      -1.316   0.762   0.691  0.00  0.00     0.002 A 
ATOM      6  C6  I4B d   1      -1.601  -0.602   0.527  0.00  0.00     0.003 A 
ENDROOT
BRANCH   1   7
ATOM      7  C1' I4B d   1      -0.860  -2.934  -0.028  0.00  0.00     0.060 C 
BRANCH   7   8
ATOM      8  C2' I4B d   1      -1.569  -3.045  -1.363  0.00  0.00    -0.013 C 
ATOM      9  C4' I4B d   1      -0.591  -3.292  -2.481  0.00  0.00     0.013 C 
ATOM     10  C3' I4B d   1      -2.570  -4.158  -1.263  0.00  0.00     0.013 C 
ENDBRANCH   7   8
ENDBRANCH   1   7
TORSDOF 2
ENDMDL
