MODEL 1
REMARK minimizedAffinity 10.6505327
REMARK minimizedRMSD -1
REMARK  2 active torsions:
REMARK  status: ('A' for Active; 'I' for Inactive)
REMARK    1  A    between atoms: C2'_3  and  C1'_4 
REMARK    2  A    between atoms: C1'_4  and  C1_5 
ROOT
ATOM      1  C1  I4B d   1      -0.953  -1.061   0.695  0.00  0.00    -0.075 A 
ATOM      2  C2  I4B d   1      -1.969  -0.146   0.819  0.00  0.00     0.003 A 
ATOM      3  C3  I4B d   1      -1.681   1.240   0.834  0.00  0.00     0.002 A 
ATOM      4  C4  I4B d   1      -0.369   1.663   0.775  0.00  0.00    -0.004 A 
ATOM      5  C5  I4B d   1       0.658   0.735   0.627  0.00  0.00     0.002 A 
ATOM      6  C6  I4B d   1       0.363  -0.636   0.574  0.00  0.00     0.003 A 
ENDROOT
BRANCH   1   7
ATOM      7  C1' I4B d   1      -1.290  -2.519   0.715  0.00  0.00     0.060 C 
BRANCH   7   8
ATOM      8  C2' I4B d   1      -2.205  -2.803  -0.458  0.00  0.00    -0.013 C 
ATOM      9  C4' I4B d   1      -1.426  -2.908  -1.743  0.00  0.00     0.013 C 
ATOM     10  C3' I4B d   1      -2.947  -4.074  -0.170  0.00  0.00     0.013 C 
ENDBRANCH   7   8
ENDBRANCH   1   7
TORSDOF 2
ENDMDL
