MODEL 1
REMARK minimizedAffinity 3.87303567
REMARK minimizedRMSD -1
REMARK  0 active torsions:
REMARK  status: ('A' for Active; 'I' for Inactive)
ROOT
ATOM      1  C   UNL d   1       6.000   5.999  -1.048  0.00  0.00     0.077 C 
ATOM      2  C1  UNL d   1       5.295   5.298  -2.171  0.00  0.00    -0.074 A 
ATOM      3  C2  UNL d   1       6.000   4.847  -3.292  0.00  0.00    -0.005 A 
ATOM      4  C3  UNL d   1       5.332   4.188  -4.324  0.00  0.00     0.006 A 
ATOM      5  C4  UNL d   1       3.956   3.972  -4.246  0.00  0.00    -0.005 A 
ATOM      6  C5  UNL d   1       3.235   4.415  -3.132  0.00  0.00    -0.074 A 
ATOM      7  C6  UNL d   1       1.757   4.183  -3.028  0.00  0.00     0.077 C 
ATOM      8  C7  UNL d   1       3.914   5.071  -2.096  0.00  0.00    -0.001 A 
ENDROOT
TORSDOF 0
ENDMDL
