MODEL 1
REMARK minimizedAffinity 0.237008259
REMARK minimizedRMSD -1
REMARK  0 active torsions:
REMARK  status: ('A' for Active; 'I' for Inactive)
ROOT
ATOM      1  C   UNL d   1       2.827   5.998  -5.983  0.00  0.00     0.077 C 
ATOM      2  C1  UNL d   1       3.929   5.264  -5.278  0.00  0.00    -0.074 A 
ATOM      3  C2  UNL d   1       4.499   4.115  -5.836  0.00  0.00    -0.005 A 
ATOM      4  C3  UNL d   1       5.529   3.448  -5.174  0.00  0.00     0.006 A 
ATOM      5  C4  UNL d   1       6.000   3.922  -3.948  0.00  0.00    -0.005 A 
ATOM      6  C5  UNL d   1       5.443   5.070  -3.376  0.00  0.00    -0.074 A 
ATOM      7  C6  UNL d   1       5.943   5.599  -2.064  0.00  0.00     0.077 C 
ATOM      8  C7  UNL d   1       4.413   5.738  -4.051  0.00  0.00    -0.001 A 
ENDROOT
TORSDOF 0
ENDMDL
