MODEL 1
REMARK minimizedAffinity -2.3460691
REMARK minimizedRMSD -1
REMARK  0 active torsions:
REMARK  status: ('A' for Active; 'I' for Inactive)
ROOT
ATOM      1  C   UNL d   1       2.341   4.877  -1.775  0.00  0.00     0.077 C 
ATOM      2  C1  UNL d   1       3.616   4.962  -2.559  0.00  0.00    -0.074 A 
ATOM      3  C2  UNL d   1       4.585   5.923  -2.252  0.00  0.00    -0.005 A 
ATOM      4  C3  UNL d   1       5.771   5.984  -2.984  0.00  0.00     0.006 A 
ATOM      5  C4  UNL d   1       6.000   5.087  -4.028  0.00  0.00    -0.005 A 
ATOM      6  C5  UNL d   1       5.043   4.119  -4.349  0.00  0.00    -0.074 A 
ATOM      7  C6  UNL d   1       5.276   3.141  -5.462  0.00  0.00     0.077 C 
ATOM      8  C7  UNL d   1       3.857   4.059  -3.605  0.00  0.00    -0.001 A 
ENDROOT
TORSDOF 0
ENDMDL
