MODEL 1
REMARK minimizedAffinity -2.34703135
REMARK minimizedRMSD -1
REMARK  0 active torsions:
REMARK  status: ('A' for Active; 'I' for Inactive)
ROOT
ATOM      1  C   UNL d   1       5.262   3.414  -6.000  0.00  0.00     0.077 C 
ATOM      2  C1  UNL d   1       5.048   4.136  -4.702  0.00  0.00    -0.074 A 
ATOM      3  C2  UNL d   1       6.000   5.038  -4.216  0.00  0.00    -0.005 A 
ATOM      4  C3  UNL d   1       5.782   5.709  -3.012  0.00  0.00     0.006 A 
ATOM      5  C4  UNL d   1       4.613   5.485  -2.285  0.00  0.00    -0.005 A 
ATOM      6  C5  UNL d   1       3.649   4.588  -2.756  0.00  0.00    -0.074 A 
ATOM      7  C6  UNL d   1       2.382   4.344  -1.991  0.00  0.00     0.077 C 
ATOM      8  C7  UNL d   1       3.872   3.923  -3.969  0.00  0.00    -0.001 A 
ENDROOT
TORSDOF 0
ENDMDL
