MODEL 1
REMARK minimizedAffinity 5.52107525
REMARK minimizedRMSD -1
REMARK  0 active torsions:
REMARK  status: ('A' for Active; 'I' for Inactive)
ROOT
ATOM      1  C   UNL d   1       2.734   4.491  -1.339  0.00  0.00     0.077 C 
ATOM      2  C1  UNL d   1       3.784   5.025  -2.268  0.00  0.00    -0.074 A 
ATOM      3  C2  UNL d   1       5.029   5.439  -1.783  0.00  0.00    -0.005 A 
ATOM      4  C3  UNL d   1       6.000   5.924  -2.660  0.00  0.00     0.006 A 
ATOM      5  C4  UNL d   1       5.735   6.000  -4.028  0.00  0.00    -0.005 A 
ATOM      6  C5  UNL d   1       4.496   5.590  -4.531  0.00  0.00    -0.074 A 
ATOM      7  C6  UNL d   1       4.199   5.656  -6.000  0.00  0.00     0.077 C 
ATOM      8  C7  UNL d   1       3.529   5.097  -3.644  0.00  0.00    -0.001 A 
ENDROOT
TORSDOF 0
ENDMDL
