MODEL 1
REMARK minimizedAffinity -0.514688194
REMARK minimizedRMSD -1
REMARK  0 active torsions:
REMARK  status: ('A' for Active; 'I' for Inactive)
ROOT
ATOM      1  C   UNL d   1       4.878   3.000  -5.842  0.00  0.00     0.077 C 
ATOM      2  C1  UNL d   1       4.884   3.764  -4.551  0.00  0.00    -0.074 A 
ATOM      3  C2  UNL d   1       5.999   4.516  -4.166  0.00  0.00    -0.005 A 
ATOM      4  C3  UNL d   1       5.987   5.228  -2.967  0.00  0.00     0.006 A 
ATOM      5  C4  UNL d   1       4.861   5.197  -2.142  0.00  0.00    -0.005 A 
ATOM      6  C5  UNL d   1       3.737   4.451  -2.511  0.00  0.00    -0.074 A 
ATOM      7  C6  UNL d   1       2.516   4.414  -1.641  0.00  0.00     0.077 C 
ATOM      8  C7  UNL d   1       3.755   3.743  -3.721  0.00  0.00    -0.001 A 
ENDROOT
TORSDOF 0
ENDMDL
