MODEL 1
REMARK minimizedAffinity 0.743541062
REMARK minimizedRMSD -1
REMARK  0 active torsions:
REMARK  status: ('A' for Active; 'I' for Inactive)
ROOT
ATOM      1  C   UNL d   1       2.311   5.263  -0.925  0.00  0.00     0.077 C 
ATOM      2  C1  UNL d   1       3.450   5.228  -1.901  0.00  0.00    -0.074 A 
ATOM      3  C2  UNL d   1       4.599   5.997  -1.693  0.00  0.00    -0.005 A 
ATOM      4  C3  UNL d   1       5.653   5.947  -2.605  0.00  0.00     0.006 A 
ATOM      5  C4  UNL d   1       5.570   5.127  -3.731  0.00  0.00    -0.005 A 
ATOM      6  C5  UNL d   1       4.429   4.350  -3.955  0.00  0.00    -0.074 A 
ATOM      7  C6  UNL d   1       4.327   3.457  -5.155  0.00  0.00     0.077 C 
ATOM      8  C7  UNL d   1       3.376   4.401  -3.031  0.00  0.00    -0.001 A 
ENDROOT
TORSDOF 0
ENDMDL
