MODEL 1
REMARK minimizedAffinity 0.672019601
REMARK minimizedRMSD -1
REMARK  0 active torsions:
REMARK  status: ('A' for Active; 'I' for Inactive)
ROOT
ATOM      1  C   UNL d   1       5.999   5.993  -1.280  0.00  0.00     0.077 C 
ATOM      2  C1  UNL d   1       4.921   5.496  -2.197  0.00  0.00    -0.074 A 
ATOM      3  C2  UNL d   1       3.949   4.598  -1.743  0.00  0.00    -0.005 A 
ATOM      4  C3  UNL d   1       2.947   4.152  -2.605  0.00  0.00     0.006 A 
ATOM      5  C4  UNL d   1       2.906   4.598  -3.926  0.00  0.00    -0.005 A 
ATOM      6  C5  UNL d   1       3.869   5.496  -4.397  0.00  0.00    -0.074 A 
ATOM      7  C6  UNL d   1       3.834   5.993  -5.812  0.00  0.00     0.077 C 
ATOM      8  C7  UNL d   1       4.868   5.945  -3.524  0.00  0.00    -0.001 A 
ENDROOT
TORSDOF 0
ENDMDL
