MODEL 1
REMARK minimizedAffinity 2.9424777
REMARK minimizedRMSD -1
REMARK  0 active torsions:
REMARK  status: ('A' for Active; 'I' for Inactive)
ROOT
ATOM      1  C   UNL d   1       2.616   4.167  -1.379  0.00  0.00     0.077 C 
ATOM      2  C1  UNL d   1       3.795   4.472  -2.254  0.00  0.00    -0.074 A 
ATOM      3  C2  UNL d   1       4.741   5.431  -1.878  0.00  0.00    -0.005 A 
ATOM      4  C3  UNL d   1       5.838   5.697  -2.698  0.00  0.00     0.006 A 
ATOM      5  C4  UNL d   1       6.000   5.007  -3.900  0.00  0.00    -0.005 A 
ATOM      6  C5  UNL d   1       5.065   4.044  -4.292  0.00  0.00    -0.074 A 
ATOM      7  C6  UNL d   1       5.230   3.286  -5.576  0.00  0.00     0.077 C 
ATOM      8  C7  UNL d   1       3.970   3.777  -3.459  0.00  0.00    -0.001 A 
ENDROOT
TORSDOF 0
ENDMDL
