MODEL 1
REMARK minimizedAffinity -2.01461911
REMARK minimizedRMSD -1
REMARK  0 active torsions:
REMARK  status: ('A' for Active; 'I' for Inactive)
ROOT
ATOM      1  C   UNL d   1       5.248   3.496  -5.999  0.00  0.00     0.077 C 
ATOM      2  C1  UNL d   1       5.121   4.232  -4.698  0.00  0.00    -0.074 A 
ATOM      3  C2  UNL d   1       5.999   5.269  -4.370  0.00  0.00    -0.005 A 
ATOM      4  C3  UNL d   1       5.863   5.951  -3.161  0.00  0.00     0.006 A 
ATOM      5  C4  UNL d   1       4.848   5.603  -2.269  0.00  0.00    -0.005 A 
ATOM      6  C5  UNL d   1       3.959   4.569  -2.580  0.00  0.00    -0.074 A 
ATOM      7  C6  UNL d   1       2.857   4.188  -1.637  0.00  0.00     0.077 C 
ATOM      8  C7  UNL d   1       4.099   3.893  -3.800  0.00  0.00    -0.001 A 
ENDROOT
TORSDOF 0
ENDMDL
