MODEL 1
REMARK minimizedAffinity -1.42454743
REMARK minimizedRMSD -1
REMARK  0 active torsions:
REMARK  status: ('A' for Active; 'I' for Inactive)
ROOT
ATOM      1  C   UNL d   1       6.000   4.046  -5.491  0.00  0.00     0.077 C 
ATOM      2  C1  UNL d   1       5.254   4.400  -4.239  0.00  0.00    -0.074 A 
ATOM      3  C2  UNL d   1       3.891   4.115  -4.109  0.00  0.00    -0.005 A 
ATOM      4  C3  UNL d   1       3.213   4.442  -2.935  0.00  0.00     0.006 A 
ATOM      5  C4  UNL d   1       3.890   5.056  -1.881  0.00  0.00    -0.005 A 
ATOM      6  C5  UNL d   1       5.253   5.348  -1.992  0.00  0.00    -0.074 A 
ATOM      7  C6  UNL d   1       5.997   5.999  -0.864  0.00  0.00     0.077 C 
ATOM      8  C7  UNL d   1       5.929   5.010  -3.172  0.00  0.00    -0.001 A 
ENDROOT
TORSDOF 0
ENDMDL
