MODEL 1
REMARK minimizedAffinity -1.59832799
REMARK minimizedRMSD -1
REMARK  0 active torsions:
REMARK  status: ('A' for Active; 'I' for Inactive)
ROOT
ATOM      1  C   UNL d   1       5.891   5.964  -2.147  0.00  0.00     0.077 C 
ATOM      2  C1  UNL d   1       5.609   5.352  -3.487  0.00  0.00    -0.074 A 
ATOM      3  C2  UNL d   1       5.990   5.999  -4.667  0.00  0.00    -0.005 A 
ATOM      4  C3  UNL d   1       5.729   5.414  -5.906  0.00  0.00     0.006 A 
ATOM      5  C4  UNL d   1       5.085   4.178  -5.977  0.00  0.00    -0.005 A 
ATOM      6  C5  UNL d   1       4.698   3.516  -4.808  0.00  0.00    -0.074 A 
ATOM      7  C6  UNL d   1       4.014   2.182  -4.867  0.00  0.00     0.077 C 
ATOM      8  C7  UNL d   1       4.970   4.107  -3.567  0.00  0.00    -0.001 A 
ENDROOT
TORSDOF 0
ENDMDL
