MODEL 1
REMARK minimizedAffinity 7.21555853
REMARK minimizedRMSD -1
REMARK  0 active torsions:
REMARK  status: ('A' for Active; 'I' for Inactive)
ROOT
ATOM      1  C   UNL d   1       2.624   4.873  -0.491  0.00  0.00     0.077 C 
ATOM      2  C1  UNL d   1       3.622   5.273  -1.537  0.00  0.00    -0.074 A 
ATOM      3  C2  UNL d   1       4.931   5.619  -1.187  0.00  0.00    -0.005 A 
ATOM      4  C3  UNL d   1       5.850   5.981  -2.172  0.00  0.00     0.006 A 
ATOM      5  C4  UNL d   1       5.471   6.000  -3.514  0.00  0.00    -0.005 A 
ATOM      6  C5  UNL d   1       4.166   5.656  -3.884  0.00  0.00    -0.074 A 
ATOM      7  C6  UNL d   1       3.745   5.662  -5.323  0.00  0.00     0.077 C 
ATOM      8  C7  UNL d   1       3.250   5.287  -2.889  0.00  0.00    -0.001 A 
ENDROOT
TORSDOF 0
ENDMDL
