MODEL 1
REMARK minimizedAffinity 5.05258465
REMARK minimizedRMSD -1
REMARK  0 active torsions:
REMARK  status: ('A' for Active; 'I' for Inactive)
ROOT
ATOM      1  C   UNL d   1       4.880   2.542  -4.907  0.00  0.00     0.077 C 
ATOM      2  C1  UNL d   1       4.839   3.745  -4.012  0.00  0.00    -0.074 A 
ATOM      3  C2  UNL d   1       6.000   4.474  -3.734  0.00  0.00    -0.005 A 
ATOM      4  C3  UNL d   1       5.945   5.596  -2.907  0.00  0.00     0.006 A 
ATOM      5  C4  UNL d   1       4.731   5.999  -2.350  0.00  0.00    -0.005 A 
ATOM      6  C5  UNL d   1       3.560   5.283  -2.616  0.00  0.00    -0.074 A 
ATOM      7  C6  UNL d   1       2.245   5.708  -2.033  0.00  0.00     0.077 C 
ATOM      8  C7  UNL d   1       3.622   4.161  -3.454  0.00  0.00    -0.001 A 
ENDROOT
TORSDOF 0
ENDMDL
