MODEL 1
REMARK minimizedAffinity -0.228878781
REMARK minimizedRMSD -1
REMARK  0 active torsions:
REMARK  status: ('A' for Active; 'I' for Inactive)
ROOT
ATOM      1  C   UNL d   1       2.249   4.425  -1.829  0.00  0.00     0.077 C 
ATOM      2  C1  UNL d   1       3.556   4.581  -2.547  0.00  0.00    -0.074 A 
ATOM      3  C2  UNL d   1       4.565   5.402  -2.033  0.00  0.00    -0.005 A 
ATOM      4  C3  UNL d   1       5.780   5.530  -2.706  0.00  0.00     0.006 A 
ATOM      5  C4  UNL d   1       5.998   4.839  -3.899  0.00  0.00    -0.005 A 
ATOM      6  C5  UNL d   1       5.002   4.012  -4.428  0.00  0.00    -0.074 A 
ATOM      7  C6  UNL d   1       5.224   3.255  -5.703  0.00  0.00     0.077 C 
ATOM      8  C7  UNL d   1       3.786   3.884  -3.741  0.00  0.00    -0.001 A 
ENDROOT
TORSDOF 0
ENDMDL
