MODEL 1
REMARK minimizedAffinity 7.79089165
REMARK minimizedRMSD -1
REMARK  0 active torsions:
REMARK  status: ('A' for Active; 'I' for Inactive)
ROOT
ATOM      1  C   UNL d   1       5.276   2.060  -4.166  0.00  0.00     0.077 C 
ATOM      2  C1  UNL d   1       4.819   3.389  -3.642  0.00  0.00    -0.074 A 
ATOM      3  C2  UNL d   1       3.630   3.970  -4.096  0.00  0.00    -0.005 A 
ATOM      4  C3  UNL d   1       3.213   5.202  -3.592  0.00  0.00     0.006 A 
ATOM      5  C4  UNL d   1       3.979   5.865  -2.632  0.00  0.00    -0.005 A 
ATOM      6  C5  UNL d   1       5.170   5.299  -2.166  0.00  0.00    -0.074 A 
ATOM      7  C6  UNL d   1       5.999   5.992  -1.127  0.00  0.00     0.077 C 
ATOM      8  C7  UNL d   1       5.579   4.057  -2.671  0.00  0.00    -0.001 A 
ENDROOT
TORSDOF 0
ENDMDL
