MODEL 1
REMARK minimizedAffinity -3.71221328
REMARK minimizedRMSD -1
REMARK  0 active torsions:
REMARK  status: ('A' for Active; 'I' for Inactive)
ROOT
ATOM      1  C   UNL d   1       2.609   4.122  -1.590  0.00  0.00     0.077 C 
ATOM      2  C1  UNL d   1       3.791   4.622  -2.367  0.00  0.00    -0.074 A 
ATOM      3  C2  UNL d   1       4.878   5.216  -1.719  0.00  0.00    -0.005 A 
ATOM      4  C3  UNL d   1       5.974   5.668  -2.455  0.00  0.00     0.006 A 
ATOM      5  C4  UNL d   1       5.993   5.530  -3.843  0.00  0.00    -0.005 A 
ATOM      6  C5  UNL d   1       4.915   4.938  -4.508  0.00  0.00    -0.074 A 
ATOM      7  C6  UNL d   1       4.924   4.773  -5.999  0.00  0.00     0.077 C 
ATOM      8  C7  UNL d   1       3.821   4.480  -3.762  0.00  0.00    -0.001 A 
ENDROOT
TORSDOF 0
ENDMDL
