MODEL 1
REMARK minimizedAffinity 3.29328895
REMARK minimizedRMSD -1
REMARK  0 active torsions:
REMARK  status: ('A' for Active; 'I' for Inactive)
ROOT
ATOM      1  C   UNL d   1       1.955   5.254  -2.254  0.00  0.00     0.077 C 
ATOM      2  C1  UNL d   1       3.367   5.247  -2.761  0.00  0.00    -0.074 A 
ATOM      3  C2  UNL d   1       4.362   6.000  -2.129  0.00  0.00    -0.005 A 
ATOM      4  C3  UNL d   1       5.672   5.976  -2.607  0.00  0.00     0.006 A 
ATOM      5  C4  UNL d   1       6.000   5.200  -3.720  0.00  0.00    -0.005 A 
ATOM      6  C5  UNL d   1       5.018   4.440  -4.364  0.00  0.00    -0.074 A 
ATOM      7  C6  UNL d   1       5.356   3.594  -5.555  0.00  0.00     0.077 C 
ATOM      8  C7  UNL d   1       3.706   4.464  -3.874  0.00  0.00    -0.001 A 
ENDROOT
TORSDOF 0
ENDMDL
