MODEL 1
REMARK minimizedAffinity -2.39351726
REMARK minimizedRMSD -1
REMARK  0 active torsions:
REMARK  status: ('A' for Active; 'I' for Inactive)
ROOT
ATOM      1  C   UNL d   1       5.997   2.914  -5.626  0.00  0.00     0.077 C 
ATOM      2  C1  UNL d   1       5.338   3.995  -4.822  0.00  0.00    -0.074 A 
ATOM      3  C2  UNL d   1       4.118   4.548  -5.224  0.00  0.00    -0.005 A 
ATOM      4  C3  UNL d   1       3.512   5.545  -4.460  0.00  0.00     0.006 A 
ATOM      5  C4  UNL d   1       4.119   6.000  -3.289  0.00  0.00    -0.005 A 
ATOM      6  C5  UNL d   1       5.339   5.458  -2.871  0.00  0.00    -0.074 A 
ATOM      7  C6  UNL d   1       6.000   5.929  -1.609  0.00  0.00     0.077 C 
ATOM      8  C7  UNL d   1       5.938   4.451  -3.640  0.00  0.00    -0.001 A 
ENDROOT
TORSDOF 0
ENDMDL
