MODEL 1
REMARK minimizedAffinity -2.83622551
REMARK minimizedRMSD -1
REMARK  0 active torsions:
REMARK  status: ('A' for Active; 'I' for Inactive)
ROOT
ATOM      1  C4' PXY d   1      -1.935   0.390   2.528  0.00  0.00     0.077 C 
ATOM      2  C1' PXY d   1       1.070  -0.351  -2.354  0.00  0.00     0.077 C 
ATOM      3  C1  PXY d   1       0.293  -0.158  -1.067  0.00  0.00    -0.082 A 
ATOM      4  C2  PXY d   1      -1.000  -0.437  -1.035  0.00  0.00     0.003 A 
ATOM      5  C3  PXY d   1      -1.725  -0.238   0.111  0.00  0.00     0.003 A 
ATOM      6  C4  PXY d   1      -1.109   0.201   1.253  0.00  0.00    -0.082 A 
ATOM      7  C5  PXY d   1       0.212   0.477   1.232  0.00  0.00     0.003 A 
ATOM      8  C6  PXY d   1       0.922   0.308   0.046  0.00  0.00     0.003 A 
ENDROOT
TORSDOF 0
ENDMDL
