MODEL 1
REMARK minimizedAffinity -5.15095139
REMARK minimizedRMSD -1
REMARK  0 active torsions:
REMARK  status: ('A' for Active; 'I' for Inactive)
ROOT
ATOM      1  C4' PXY d   1       0.544  -0.430  -2.138  0.00  0.00     0.077 C 
ATOM      2  C1' PXY d   1      -0.642   1.526   3.170  0.00  0.00     0.077 C 
ATOM      3  C1  PXY d   1      -0.343   1.009   1.777  0.00  0.00    -0.082 A 
ATOM      4  C2  PXY d   1       0.899   0.694   1.448  0.00  0.00     0.003 A 
ATOM      5  C3  PXY d   1       1.192   0.256   0.182  0.00  0.00     0.003 A 
ATOM      6  C4  PXY d   1       0.195   0.086  -0.740  0.00  0.00    -0.082 A 
ATOM      7  C5  PXY d   1      -1.077   0.395  -0.409  0.00  0.00     0.003 A 
ATOM      8  C6  PXY d   1      -1.348   0.878   0.868  0.00  0.00     0.003 A 
ENDROOT
TORSDOF 0
ENDMDL
