MODEL 1
REMARK minimizedAffinity -1.26358104
REMARK minimizedRMSD -1
REMARK  0 active torsions:
REMARK  status: ('A' for Active; 'I' for Inactive)
ROOT
ATOM      1  C4' PXY d   1      -1.584   0.422   2.292  0.00  0.00     0.077 C 
ATOM      2  C1' PXY d   1       1.022  -0.863  -2.705  0.00  0.00     0.077 C 
ATOM      3  C1  PXY d   1       0.350  -0.528  -1.389  0.00  0.00    -0.082 A 
ATOM      4  C2  PXY d   1      -0.965  -0.629  -1.281  0.00  0.00     0.003 A 
ATOM      5  C3  PXY d   1      -1.592  -0.300  -0.108  0.00  0.00     0.003 A 
ATOM      6  C4  PXY d   1      -0.861   0.086   0.984  0.00  0.00    -0.082 A 
ATOM      7  C5  PXY d   1       0.482   0.180   0.886  0.00  0.00     0.003 A 
ATOM      8  C6  PXY d   1       1.096  -0.119  -0.327  0.00  0.00     0.003 A 
ENDROOT
TORSDOF 0
ENDMDL
