MODEL 1
REMARK minimizedAffinity -4.96662521
REMARK minimizedRMSD -1
REMARK  0 active torsions:
REMARK  status: ('A' for Active; 'I' for Inactive)
ROOT
ATOM      1  C4' PXY d   1      -0.026   1.309   3.931  0.00  0.00     0.077 C 
ATOM      2  C1' PXY d   1       0.454  -0.802  -1.429  0.00  0.00     0.077 C 
ATOM      3  C1  PXY d   1       0.319  -0.240  -0.027  0.00  0.00    -0.082 A 
ATOM      4  C2  PXY d   1       1.329  -0.346   0.820  0.00  0.00     0.003 A 
ATOM      5  C3  PXY d   1       1.213   0.129   2.101  0.00  0.00     0.003 A 
ATOM      6  C4  PXY d   1       0.069   0.765   2.503  0.00  0.00    -0.082 A 
ATOM      7  C5  PXY d   1      -0.963   0.886   1.641  0.00  0.00     0.003 A 
ATOM      8  C6  PXY d   1      -0.840   0.361   0.358  0.00  0.00     0.003 A 
ENDROOT
TORSDOF 0
ENDMDL
