MODEL 1
REMARK minimizedAffinity -3.04425097
REMARK minimizedRMSD -1
REMARK  0 active torsions:
REMARK  status: ('A' for Active; 'I' for Inactive)
ROOT
ATOM      1  C4' PXY d   1       0.757  -0.621  -1.707  0.00  0.00     0.077 C 
ATOM      2  C1' PXY d   1      -0.885   1.685   3.332  0.00  0.00     0.077 C 
ATOM      3  C1  PXY d   1      -0.465   1.073   2.011  0.00  0.00    -0.082 A 
ATOM      4  C2  PXY d   1       0.808   1.101   1.652  0.00  0.00     0.003 A 
ATOM      5  C3  PXY d   1       1.201   0.580   0.446  0.00  0.00     0.003 A 
ATOM      6  C4  PXY d   1       0.289  -0.023  -0.378  0.00  0.00    -0.082 A 
ATOM      7  C5  PXY d   1      -1.011  -0.066  -0.014  0.00  0.00     0.003 A 
ATOM      8  C6  PXY d   1      -1.395   0.505   1.196  0.00  0.00     0.003 A 
ENDROOT
TORSDOF 0
ENDMDL
