MODEL 1
REMARK minimizedAffinity -0.335222989
REMARK minimizedRMSD -1
REMARK  0 active torsions:
REMARK  status: ('A' for Active; 'I' for Inactive)
ROOT
ATOM      1  C4' PXY d   1       0.704   0.757  -2.597  0.00  0.00     0.077 C 
ATOM      2  C1' PXY d   1      -1.752  -0.084   2.567  0.00  0.00     0.077 C 
ATOM      3  C1  PXY d   1      -1.096   0.136   1.219  0.00  0.00    -0.082 A 
ATOM      4  C2  PXY d   1      -1.775   0.730   0.250  0.00  0.00     0.003 A 
ATOM      5  C3  PXY d   1      -1.208   0.908  -0.985  0.00  0.00     0.003 A 
ATOM      6  C4  PXY d   1       0.085   0.523  -1.216  0.00  0.00    -0.082 A 
ATOM      7  C5  PXY d   1       0.788  -0.074  -0.230  0.00  0.00     0.003 A 
ATOM      8  C6  PXY d   1       0.180  -0.283   1.004  0.00  0.00     0.003 A 
ENDROOT
TORSDOF 0
ENDMDL
