MODEL 1
REMARK minimizedAffinity -3.5630641
REMARK minimizedRMSD -1
REMARK  0 active torsions:
REMARK  status: ('A' for Active; 'I' for Inactive)
ROOT
ATOM      1  C4' PXY d   1      -0.311   0.217   3.721  0.00  0.00     0.077 C 
ATOM      2  C1' PXY d   1       0.624  -0.708  -1.908  0.00  0.00     0.077 C 
ATOM      3  C1  PXY d   1       0.388  -0.474  -0.429  0.00  0.00    -0.082 A 
ATOM      4  C2  PXY d   1      -0.781  -0.011  -0.018  0.00  0.00     0.003 A 
ATOM      5  C3  PXY d   1      -1.001   0.237   1.312  0.00  0.00     0.003 A 
ATOM      6  C4  PXY d   1      -0.031  -0.043   2.238  0.00  0.00    -0.082 A 
ATOM      7  C5  PXY d   1       1.161  -0.526   1.828  0.00  0.00     0.003 A 
ATOM      8  C6  PXY d   1       1.378  -0.731   0.469  0.00  0.00     0.003 A 
ENDROOT
TORSDOF 0
ENDMDL
