MODEL 1
REMARK minimizedAffinity -4.90720558
REMARK minimizedRMSD -1
REMARK  0 active torsions:
REMARK  status: ('A' for Active; 'I' for Inactive)
ROOT
ATOM      1  C4' PXY d   1      -3.394   0.644   0.012  0.00  0.00     0.077 C 
ATOM      2  C1' PXY d   1       1.914  -1.325   1.183  0.00  0.00     0.077 C 
ATOM      3  C1  PXY d   1       0.518  -0.813   0.888  0.00  0.00    -0.082 A 
ATOM      4  C2  PXY d   1       0.134  -0.648  -0.368  0.00  0.00     0.003 A 
ATOM      5  C3  PXY d   1      -1.114  -0.156  -0.652  0.00  0.00     0.003 A 
ATOM      6  C4  PXY d   1      -1.997   0.120   0.358  0.00  0.00    -0.082 A 
ATOM      7  C5  PXY d   1      -1.616  -0.055   1.641  0.00  0.00     0.003 A 
ATOM      8  C6  PXY d   1      -0.331  -0.517   1.910  0.00  0.00     0.003 A 
ENDROOT
TORSDOF 0
ENDMDL
