MODEL 1
REMARK minimizedAffinity -3.83698511
REMARK minimizedRMSD -1
REMARK  0 active torsions:
REMARK  status: ('A' for Active; 'I' for Inactive)
ROOT
ATOM      1  C4' PXY d   1      -0.744   1.097   2.921  0.00  0.00     0.077 C 
ATOM      2  C1' PXY d   1       1.012  -1.446  -1.964  0.00  0.00     0.077 C 
ATOM      3  C1  PXY d   1       0.560  -0.787  -0.676  0.00  0.00    -0.082 A 
ATOM      4  C2  PXY d   1      -0.632  -0.214  -0.618  0.00  0.00     0.003 A 
ATOM      5  C3  PXY d   1      -1.044   0.414   0.529  0.00  0.00     0.003 A 
ATOM      6  C4  PXY d   1      -0.250   0.411   1.644  0.00  0.00    -0.082 A 
ATOM      7  C5  PXY d   1       0.963  -0.180   1.596  0.00  0.00     0.003 A 
ATOM      8  C6  PXY d   1       1.379  -0.777   0.410  0.00  0.00     0.003 A 
ENDROOT
TORSDOF 0
ENDMDL
