MODEL 1
REMARK minimizedAffinity -4.08971786
REMARK minimizedRMSD -1
REMARK  0 active torsions:
REMARK  status: ('A' for Active; 'I' for Inactive)
ROOT
ATOM      1  C4' PXY d   1      -0.195  -1.471  -2.521  0.00  0.00     0.077 C 
ATOM      2  C1' PXY d   1       1.202   1.264   2.376  0.00  0.00     0.077 C 
ATOM      3  C1  PXY d   1       0.849   0.544   1.090  0.00  0.00    -0.082 A 
ATOM      4  C2  PXY d   1      -0.295   0.816   0.481  0.00  0.00     0.003 A 
ATOM      5  C3  PXY d   1      -0.645   0.152  -0.666  0.00  0.00     0.003 A 
ATOM      6  C4  PXY d   1       0.208  -0.762  -1.225  0.00  0.00    -0.082 A 
ATOM      7  C5  PXY d   1       1.381  -1.037  -0.616  0.00  0.00     0.003 A 
ATOM      8  C6  PXY d   1       1.699  -0.382   0.570  0.00  0.00     0.003 A 
ENDROOT
TORSDOF 0
ENDMDL
