MODEL 1
REMARK minimizedAffinity -3.50920296
REMARK minimizedRMSD -1
REMARK  0 active torsions:
REMARK  status: ('A' for Active; 'I' for Inactive)
ROOT
ATOM      1  C4' PXY d   1      -0.041  -1.866  -1.892  0.00  0.00     0.077 C 
ATOM      2  C1' PXY d   1      -0.617   1.762   2.572  0.00  0.00     0.077 C 
ATOM      3  C1  PXY d   1      -0.478   0.805   1.404  0.00  0.00    -0.082 A 
ATOM      4  C2  PXY d   1       0.727   0.483   0.963  0.00  0.00     0.003 A 
ATOM      5  C3  PXY d   1       0.871  -0.356  -0.113  0.00  0.00     0.003 A 
ATOM      6  C4  PXY d   1      -0.229  -0.912  -0.709  0.00  0.00    -0.082 A 
ATOM      7  C5  PXY d   1      -1.462  -0.596  -0.258  0.00  0.00     0.003 A 
ATOM      8  C6  PXY d   1      -1.587   0.289   0.809  0.00  0.00     0.003 A 
ENDROOT
TORSDOF 0
ENDMDL
