MODEL 1
REMARK minimizedAffinity -0.153283119
REMARK minimizedRMSD -1
REMARK  0 active torsions:
REMARK  status: ('A' for Active; 'I' for Inactive)
ROOT
ATOM      1  C4' PXY d   1       3.310   0.087   0.707  0.00  0.00     0.077 C 
ATOM      2  C1' PXY d   1      -2.432  -0.460   0.318  0.00  0.00     0.077 C 
ATOM      3  C1  PXY d   1      -0.926  -0.310   0.409  0.00  0.00    -0.082 A 
ATOM      4  C2  PXY d   1      -0.221  -1.191   1.100  0.00  0.00     0.003 A 
ATOM      5  C3  PXY d   1       1.138  -1.051   1.220  0.00  0.00     0.003 A 
ATOM      6  C4  PXY d   1       1.788  -0.030   0.580  0.00  0.00    -0.082 A 
ATOM      7  C5  PXY d   1       1.077   0.866  -0.136  0.00  0.00     0.003 A 
ATOM      8  C6  PXY d   1      -0.306   0.731  -0.211  0.00  0.00     0.003 A 
ENDROOT
TORSDOF 0
ENDMDL
