MODEL 1
REMARK minimizedAffinity -1.80805552
REMARK minimizedRMSD -1
REMARK  0 active torsions:
REMARK  status: ('A' for Active; 'I' for Inactive)
ROOT
ATOM      1  N1  IND d   1       1.405   3.821  -1.902  0.00  0.00    -0.196 N 
ATOM      2  C2  IND d   1       1.534   4.700  -0.864  0.00  0.00     0.054 A 
ATOM      3  C3  IND d   1       1.446   4.049   0.318  0.00  0.00    -0.031 A 
ATOM      4  C4  IND d   1       1.191   1.530   0.781  0.00  0.00     0.051 A 
ATOM      5  C5  IND d   1       0.996   0.333   0.151  0.00  0.00    -0.031 A 
ATOM      6  C6  IND d   1       0.928   0.235  -1.224  0.00  0.00     0.015 A 
ATOM      7  C7  IND d   1       1.065   1.334  -2.023  0.00  0.00    -0.016 A 
ATOM      8  C8  IND d   1       1.257   2.552  -1.387  0.00  0.00    -0.047 A 
ATOM      9  C9  IND d   1       1.284   2.664   0.010  0.00  0.00    -0.096 A 
ATOM     10  HN1 IND d   1       1.414   4.026  -2.737  0.00  0.00     0.298 HD
ENDROOT
TORSDOF 0
ENDMDL
