MODEL 1
REMARK minimizedAffinity 2.0192914
REMARK minimizedRMSD -1
REMARK  0 active torsions:
REMARK  status: ('A' for Active; 'I' for Inactive)
ROOT
ATOM      1  N1  IND d   1       0.082  -0.140  -1.500  0.00  0.00    -0.196 N 
ATOM      2  C2  IND d   1       1.188   0.446  -0.951  0.00  0.00     0.054 A 
ATOM      3  C3  IND d   1       2.025  -0.497  -0.461  0.00  0.00    -0.031 A 
ATOM      4  C4  IND d   1       1.826  -3.062  -0.543  0.00  0.00     0.051 A 
ATOM      5  C5  IND d   1       0.975  -4.065  -0.912  0.00  0.00    -0.031 A 
ATOM      6  C6  IND d   1      -0.242  -3.806  -1.510  0.00  0.00     0.015 A 
ATOM      7  C7  IND d   1      -0.648  -2.529  -1.773  0.00  0.00    -0.016 A 
ATOM      8  C8  IND d   1       0.211  -1.507  -1.394  0.00  0.00    -0.047 A 
ATOM      9  C9  IND d   1       1.428  -1.762  -0.748  0.00  0.00    -0.096 A 
ATOM     10  HN1 IND d   1      -0.583   0.276  -1.853  0.00  0.00     0.298 HD
ENDROOT
TORSDOF 0
ENDMDL
