MODEL 1
REMARK minimizedAffinity 13.1245327
REMARK minimizedRMSD -1
REMARK  0 active torsions:
REMARK  status: ('A' for Active; 'I' for Inactive)
ROOT
ATOM      1  N1  IND d   1       1.517   4.772  -1.935  0.00  0.00    -0.196 N 
ATOM      2  C2  IND d   1       1.847   5.309  -0.721  0.00  0.00     0.054 A 
ATOM      3  C3  IND d   1       1.932   4.337   0.215  0.00  0.00    -0.031 A 
ATOM      4  C4  IND d   1       1.669   1.789  -0.043  0.00  0.00     0.051 A 
ATOM      5  C5  IND d   1       1.330   0.828  -0.954  0.00  0.00    -0.031 A 
ATOM      6  C6  IND d   1       1.032   1.139  -2.265  0.00  0.00     0.015 A 
ATOM      7  C7  IND d   1       1.074   2.426  -2.719  0.00  0.00    -0.016 A 
ATOM      8  C8  IND d   1       1.411   3.406  -1.796  0.00  0.00    -0.047 A 
ATOM      9  C9  IND d   1       1.673   3.102  -0.453  0.00  0.00    -0.096 A 
ATOM     10  HN1 IND d   1       1.395   5.214  -2.662  0.00  0.00     0.298 HD
ENDROOT
TORSDOF 0
ENDMDL
