MODEL 1
REMARK minimizedAffinity 9.34635353
REMARK minimizedRMSD -1
REMARK  0 active torsions:
REMARK  status: ('A' for Active; 'I' for Inactive)
ROOT
ATOM      1  N1  IND d   1      -2.202   2.032  -0.653  0.00  0.00    -0.196 N 
ATOM      2  C2  IND d   1      -2.689   2.633   0.474  0.00  0.00     0.054 A 
ATOM      3  C3  IND d   1      -1.770   2.590   1.464  0.00  0.00    -0.031 A 
ATOM      4  C4  IND d   1       0.636   1.675   1.424  0.00  0.00     0.051 A 
ATOM      5  C5  IND d   1       1.518   0.998   0.629  0.00  0.00    -0.031 A 
ATOM      6  C6  IND d   1       1.200   0.627  -0.661  0.00  0.00     0.015 A 
ATOM      7  C7  IND d   1      -0.014   0.929  -1.210  0.00  0.00    -0.016 A 
ATOM      8  C8  IND d   1      -0.914   1.610  -0.404  0.00  0.00    -0.047 A 
ATOM      9  C9  IND d   1      -0.613   1.952   0.921  0.00  0.00    -0.096 A 
ATOM     10  HN1 IND d   1      -2.628   1.935  -1.394  0.00  0.00     0.298 HD
ENDROOT
TORSDOF 0
ENDMDL
