MODEL 1
REMARK minimizedAffinity -5.71188116
REMARK minimizedRMSD -1
REMARK  0 active torsions:
REMARK  status: ('A' for Active; 'I' for Inactive)
ROOT
ATOM      1  N1  IND d   1       1.140   3.704   0.550  0.00  0.00    -0.196 N 
ATOM      2  C2  IND d   1       1.308   4.387  -0.622  0.00  0.00     0.054 A 
ATOM      3  C3  IND d   1       1.289   3.533  -1.670  0.00  0.00    -0.031 A 
ATOM      4  C4  IND d   1       0.893   0.989  -1.701  0.00  0.00     0.051 A 
ATOM      5  C5  IND d   1       0.728  -0.085  -0.873  0.00  0.00    -0.031 A 
ATOM      6  C6  IND d   1       0.688   0.051   0.499  0.00  0.00     0.015 A 
ATOM      7  C7  IND d   1       0.801   1.275   1.097  0.00  0.00    -0.016 A 
ATOM      8  C8  IND d   1       0.976   2.367   0.260  0.00  0.00    -0.047 A 
ATOM      9  C9  IND d   1       1.060   2.230  -1.132  0.00  0.00    -0.096 A 
ATOM     10  HN1 IND d   1       1.136   4.051   1.337  0.00  0.00     0.298 HD
ENDROOT
TORSDOF 0
ENDMDL
