MODEL 1
REMARK minimizedAffinity -1.71608746
REMARK minimizedRMSD -1
REMARK  0 active torsions:
REMARK  status: ('A' for Active; 'I' for Inactive)
ROOT
ATOM      1  N1  IND d   1       1.773   3.738  -2.185  0.00  0.00    -0.196 N 
ATOM      2  C2  IND d   1       1.991   4.734  -1.275  0.00  0.00     0.054 A 
ATOM      3  C3  IND d   1       1.848   4.261  -0.016  0.00  0.00    -0.031 A 
ATOM      4  C4  IND d   1       1.361   1.863   0.783  0.00  0.00     0.051 A 
ATOM      5  C5  IND d   1       1.049   0.615   0.320  0.00  0.00    -0.031 A 
ATOM      6  C6  IND d   1       0.964   0.339  -1.029  0.00  0.00     0.015 A 
ATOM      7  C7  IND d   1       1.200   1.301  -1.970  0.00  0.00    -0.016 A 
ATOM      8  C8  IND d   1       1.509   2.571  -1.503  0.00  0.00    -0.047 A 
ATOM      9  C9  IND d   1       1.555   2.868  -0.135  0.00  0.00    -0.096 A 
ATOM     10  HN1 IND d   1       1.796   3.826  -3.040  0.00  0.00     0.298 HD
ENDROOT
TORSDOF 0
ENDMDL
