MODEL 1
REMARK minimizedAffinity 0.653466105
REMARK minimizedRMSD -1
REMARK  0 active torsions:
REMARK  status: ('A' for Active; 'I' for Inactive)
ROOT
ATOM      1  N1  IND d   1       1.337   3.572  -0.699  0.00  0.00    -0.196 N 
ATOM      2  C2  IND d   1       1.418   3.651  -2.061  0.00  0.00     0.054 A 
ATOM      3  C3  IND d   1       1.428   2.413  -2.604  0.00  0.00    -0.031 A 
ATOM      4  C4  IND d   1       1.217   0.120  -1.453  0.00  0.00     0.051 A 
ATOM      5  C5  IND d   1       1.157  -0.464  -0.219  0.00  0.00    -0.031 A 
ATOM      6  C6  IND d   1       1.150   0.283   0.942  0.00  0.00     0.015 A 
ATOM      7  C7  IND d   1       1.192   1.648   0.911  0.00  0.00    -0.016 A 
ATOM      8  C8  IND d   1       1.261   2.244  -0.340  0.00  0.00    -0.047 A 
ATOM      9  C9  IND d   1       1.311   1.490  -1.520  0.00  0.00    -0.096 A 
ATOM     10  HN1 IND d   1       1.333   4.240  -0.157  0.00  0.00     0.298 HD
ENDROOT
TORSDOF 0
ENDMDL
