MODEL 1
REMARK minimizedAffinity 7.81112862
REMARK minimizedRMSD -1
REMARK  0 active torsions:
REMARK  status: ('A' for Active; 'I' for Inactive)
ROOT
ATOM      1  N1  IND d   1       1.845   5.069  -1.863  0.00  0.00    -0.196 N 
ATOM      2  C2  IND d   1       1.734   5.999  -0.867  0.00  0.00     0.054 A 
ATOM      3  C3  IND d   1       1.388   5.403   0.297  0.00  0.00    -0.031 A 
ATOM      4  C4  IND d   1       1.051   2.905   0.818  0.00  0.00     0.051 A 
ATOM      5  C5  IND d   1       1.008   1.676   0.221  0.00  0.00    -0.031 A 
ATOM      6  C6  IND d   1       1.249   1.512  -1.128  0.00  0.00     0.015 A 
ATOM      7  C7  IND d   1       1.555   2.574  -1.931  0.00  0.00    -0.016 A 
ATOM      8  C8  IND d   1       1.592   3.824  -1.330  0.00  0.00    -0.047 A 
ATOM      9  C9  IND d   1       1.307   4.002   0.030  0.00  0.00    -0.096 A 
ATOM     10  HN1 IND d   1       2.039   5.234  -2.684  0.00  0.00     0.298 HD
ENDROOT
TORSDOF 0
ENDMDL
