MODEL 1
REMARK minimizedAffinity 2.90919018
REMARK minimizedRMSD -1
REMARK  0 active torsions:
REMARK  status: ('A' for Active; 'I' for Inactive)
ROOT
ATOM      1  N1  IND d   1       2.373   0.812   2.479  0.00  0.00    -0.196 N 
ATOM      2  C2  IND d   1       2.010   2.075   2.852  0.00  0.00     0.054 A 
ATOM      3  C3  IND d   1       1.275   2.660   1.880  0.00  0.00    -0.031 A 
ATOM      4  C4  IND d   1       0.463   1.691  -0.363  0.00  0.00     0.051 A 
ATOM      5  C5  IND d   1       0.572   0.588  -1.163  0.00  0.00    -0.031 A 
ATOM      6  C6  IND d   1       1.300  -0.520  -0.780  0.00  0.00     0.015 A 
ATOM      7  C7  IND d   1       1.939  -0.571   0.426  0.00  0.00    -0.016 A 
ATOM      8  C8  IND d   1       1.836   0.549   1.237  0.00  0.00    -0.047 A 
ATOM      9  C9  IND d   1       1.134   1.694   0.837  0.00  0.00    -0.096 A 
ATOM     10  HN1 IND d   1       2.857   0.271   2.941  0.00  0.00     0.298 HD
ENDROOT
TORSDOF 0
ENDMDL
