MODEL 1
REMARK minimizedAffinity 8.28377151
REMARK minimizedRMSD -1
REMARK  0 active torsions:
REMARK  status: ('A' for Active; 'I' for Inactive)
ROOT
ATOM      1  N1  IND d   1       1.390  -1.073  -0.172  0.00  0.00    -0.196 N 
ATOM      2  C2  IND d   1       2.188  -0.742   0.888  0.00  0.00     0.054 A 
ATOM      3  C3  IND d   1       2.596   0.543   0.786  0.00  0.00    -0.031 A 
ATOM      4  C4  IND d   1       1.994   2.315  -0.982  0.00  0.00     0.051 A 
ATOM      5  C5  IND d   1       1.326   2.474  -2.163  0.00  0.00    -0.031 A 
ATOM      6  C6  IND d   1       0.629   1.439  -2.752  0.00  0.00     0.015 A 
ATOM      7  C7  IND d   1       0.565   0.203  -2.173  0.00  0.00    -0.016 A 
ATOM      8  C8  IND d   1       1.247   0.036  -0.976  0.00  0.00    -0.047 A 
ATOM      9  C9  IND d   1       1.992   1.071  -0.396  0.00  0.00    -0.096 A 
ATOM     10  HN1 IND d   1       1.037  -1.844  -0.312  0.00  0.00     0.298 HD
ENDROOT
TORSDOF 0
ENDMDL
