MODEL 1
REMARK minimizedAffinity -1.77536523
REMARK minimizedRMSD -1
REMARK  0 active torsions:
REMARK  status: ('A' for Active; 'I' for Inactive)
ROOT
ATOM      1  N1  IND d   1       1.560   4.039  -0.718  0.00  0.00    -0.196 N 
ATOM      2  C2  IND d   1       1.797   3.952  -2.062  0.00  0.00     0.054 A 
ATOM      3  C3  IND d   1       1.749   2.663  -2.466  0.00  0.00    -0.031 A 
ATOM      4  C4  IND d   1       1.195   0.544  -1.113  0.00  0.00     0.051 A 
ATOM      5  C5  IND d   1       0.943   0.114   0.159  0.00  0.00    -0.031 A 
ATOM      6  C6  IND d   1       0.881   0.988   1.225  0.00  0.00     0.015 A 
ATOM      7  C7  IND d   1       1.056   2.332   1.056  0.00  0.00    -0.016 A 
ATOM      8  C8  IND d   1       1.319   2.772  -0.234  0.00  0.00    -0.047 A 
ATOM      9  C9  IND d   1       1.426   1.885  -1.313  0.00  0.00    -0.096 A 
ATOM     10  HN1 IND d   1       1.560   4.762  -0.254  0.00  0.00     0.298 HD
ENDROOT
TORSDOF 0
ENDMDL
