MODEL 1
REMARK minimizedAffinity -0.567809463
REMARK minimizedRMSD -1
REMARK  0 active torsions:
REMARK  status: ('A' for Active; 'I' for Inactive)
ROOT
ATOM      1  N1  IND d   1       1.415   3.641  -0.192  0.00  0.00    -0.196 N 
ATOM      2  C2  IND d   1       1.346   3.967  -1.518  0.00  0.00     0.054 A 
ATOM      3  C3  IND d   1       1.233   2.850  -2.271  0.00  0.00    -0.031 A 
ATOM      4  C4  IND d   1       1.039   0.391  -1.533  0.00  0.00     0.051 A 
ATOM      5  C5  IND d   1       1.089  -0.408  -0.425  0.00  0.00    -0.031 A 
ATOM      6  C6  IND d   1       1.251   0.113   0.843  0.00  0.00     0.015 A 
ATOM      7  C7  IND d   1       1.358   1.459   1.052  0.00  0.00    -0.016 A 
ATOM      8  C8  IND d   1       1.314   2.273  -0.071  0.00  0.00    -0.047 A 
ATOM      9  C9  IND d   1       1.193   1.747  -1.364  0.00  0.00    -0.096 A 
ATOM     10  HN1 IND d   1       1.506   4.198   0.457  0.00  0.00     0.298 HD
ENDROOT
TORSDOF 0
ENDMDL
