MODEL 1
REMARK minimizedAffinity -2.30514407
REMARK minimizedRMSD -1
REMARK  0 active torsions:
REMARK  status: ('A' for Active; 'I' for Inactive)
ROOT
ATOM      1  N1  IND d   1       1.651   4.470  -1.922  0.00  0.00    -0.196 N 
ATOM      2  C2  IND d   1       1.882   5.373  -0.922  0.00  0.00     0.054 A 
ATOM      3  C3  IND d   1       1.843   4.761   0.283  0.00  0.00    -0.031 A 
ATOM      4  C4  IND d   1       1.518   2.269   0.841  0.00  0.00     0.051 A 
ATOM      5  C5  IND d   1       1.235   1.063   0.263  0.00  0.00    -0.031 A 
ATOM      6  C6  IND d   1       1.075   0.928  -1.101  0.00  0.00     0.015 A 
ATOM      7  C7  IND d   1       1.204   1.997  -1.942  0.00  0.00    -0.016 A 
ATOM      8  C8  IND d   1       1.485   3.224  -1.358  0.00  0.00    -0.047 A 
ATOM      9  C9  IND d   1       1.607   3.375   0.029  0.00  0.00    -0.096 A 
ATOM     10  HN1 IND d   1       1.615   4.650  -2.762  0.00  0.00     0.298 HD
ENDROOT
TORSDOF 0
ENDMDL
