MODEL 1
REMARK minimizedAffinity 5.50922918
REMARK minimizedRMSD -1
REMARK  0 active torsions:
REMARK  status: ('A' for Active; 'I' for Inactive)
ROOT
ATOM      1  N1  IND d   1       2.033   5.218  -1.914  0.00  0.00    -0.196 N 
ATOM      2  C2  IND d   1       2.094   6.000  -0.795  0.00  0.00     0.054 A 
ATOM      3  C3  IND d   1       1.822   5.266   0.307  0.00  0.00    -0.031 A 
ATOM      4  C4  IND d   1       1.349   2.744   0.517  0.00  0.00     0.051 A 
ATOM      5  C5  IND d   1       1.152   1.619  -0.234  0.00  0.00    -0.031 A 
ATOM      6  C6  IND d   1       1.243   1.636  -1.611  0.00  0.00     0.015 A 
ATOM      7  C7  IND d   1       1.547   2.781  -2.290  0.00  0.00    -0.016 A 
ATOM      8  C8  IND d   1       1.741   3.927  -1.532  0.00  0.00    -0.047 A 
ATOM      9  C9  IND d   1       1.608   3.925  -0.137  0.00  0.00    -0.096 A 
ATOM     10  HN1 IND d   1       2.156   5.487  -2.722  0.00  0.00     0.298 HD
ENDROOT
TORSDOF 0
ENDMDL
