MODEL 1
REMARK minimizedAffinity 4.45149088
REMARK minimizedRMSD -1
REMARK  0 active torsions:
REMARK  status: ('A' for Active; 'I' for Inactive)
ROOT
ATOM      1  N1  IND d   1       0.911   3.501  -0.558  0.00  0.00    -0.196 N 
ATOM      2  C2  IND d   1       0.678   3.236  -1.879  0.00  0.00     0.054 A 
ATOM      3  C3  IND d   1       1.294   2.089  -2.243  0.00  0.00    -0.031 A 
ATOM      4  C4  IND d   1       2.650   0.434  -0.812  0.00  0.00     0.051 A 
ATOM      5  C5  IND d   1       3.164   0.265   0.443  0.00  0.00    -0.031 A 
ATOM      6  C6  IND d   1       2.946   1.184   1.450  0.00  0.00     0.015 A 
ATOM      7  C7  IND d   1       2.194   2.305   1.241  0.00  0.00    -0.016 A 
ATOM      8  C8  IND d   1       1.676   2.483  -0.034  0.00  0.00    -0.047 A 
ATOM      9  C9  IND d   1       1.929   1.575  -1.071  0.00  0.00    -0.096 A 
ATOM     10  HN1 IND d   1       0.626   4.189  -0.127  0.00  0.00     0.298 HD
ENDROOT
TORSDOF 0
ENDMDL
