MODEL 1
REMARK minimizedAffinity -2.45783401
REMARK minimizedRMSD -1
REMARK  0 active torsions:
REMARK  status: ('A' for Active; 'I' for Inactive)
ROOT
ATOM      1  N1  IND d   1       1.224   1.739  -2.509  0.00  0.00    -0.196 N 
ATOM      2  C2  IND d   1       1.209   0.435  -2.099  0.00  0.00     0.054 A 
ATOM      3  C3  IND d   1       1.175   0.367  -0.749  0.00  0.00    -0.031 A 
ATOM      4  C4  IND d   1       1.037   2.267   0.981  0.00  0.00     0.051 A 
ATOM      5  C5  IND d   1       1.062   3.629   1.090  0.00  0.00    -0.031 A 
ATOM      6  C6  IND d   1       1.141   4.448  -0.019  0.00  0.00     0.015 A 
ATOM      7  C7  IND d   1       1.187   3.932  -1.283  0.00  0.00    -0.016 A 
ATOM      8  C8  IND d   1       1.169   2.549  -1.396  0.00  0.00    -0.047 A 
ATOM      9  C9  IND d   1       1.132   1.713  -0.273  0.00  0.00    -0.096 A 
ATOM     10  HN1 IND d   1       1.262   2.008  -3.325  0.00  0.00     0.298 HD
ENDROOT
TORSDOF 0
ENDMDL
