MODEL 1
REMARK minimizedAffinity 1.23747325
REMARK minimizedRMSD -1
REMARK  0 active torsions:
REMARK  status: ('A' for Active; 'I' for Inactive)
ROOT
ATOM      1  N1  IND d   1       0.709   3.119  -1.463  0.00  0.00    -0.196 N 
ATOM      2  C2  IND d   1       0.762   2.587  -2.721  0.00  0.00     0.054 A 
ATOM      3  C3  IND d   1       1.080   1.274  -2.664  0.00  0.00    -0.031 A 
ATOM      4  C4  IND d   1       1.457  -0.229  -0.608  0.00  0.00     0.051 A 
ATOM      5  C5  IND d   1       1.551  -0.187   0.755  0.00  0.00    -0.031 A 
ATOM      6  C6  IND d   1       1.362   0.983   1.463  0.00  0.00     0.015 A 
ATOM      7  C7  IND d   1       1.060   2.157   0.832  0.00  0.00    -0.016 A 
ATOM      8  C8  IND d   1       0.971   2.119  -0.553  0.00  0.00    -0.047 A 
ATOM      9  C9  IND d   1       1.204   0.944  -1.279  0.00  0.00    -0.096 A 
ATOM     10  HN1 IND d   1       0.540   3.940  -1.272  0.00  0.00     0.298 HD
ENDROOT
TORSDOF 0
ENDMDL
