MODEL 1
REMARK minimizedAffinity 8.56354618
REMARK minimizedRMSD -1
REMARK  0 active torsions:
REMARK  status: ('A' for Active; 'I' for Inactive)
ROOT
ATOM      1  N1  IND d   1      -0.065   2.396  -2.602  0.00  0.00    -0.196 N 
ATOM      2  C2  IND d   1       0.275   3.552  -1.957  0.00  0.00     0.054 A 
ATOM      3  C3  IND d   1       1.122   3.289  -0.936  0.00  0.00    -0.031 A 
ATOM      4  C4  IND d   1       2.160   1.048  -0.209  0.00  0.00     0.051 A 
ATOM      5  C5  IND d   1       2.122  -0.292  -0.472  0.00  0.00    -0.031 A 
ATOM      6  C6  IND d   1       1.339  -0.816  -1.480  0.00  0.00     0.015 A 
ATOM      7  C7  IND d   1       0.570  -0.013  -2.274  0.00  0.00    -0.016 A 
ATOM      8  C8  IND d   1       0.601   1.349  -2.006  0.00  0.00    -0.047 A 
ATOM      9  C9  IND d   1       1.361   1.881  -0.956  0.00  0.00    -0.096 A 
ATOM     10  HN1 IND d   1      -0.605   2.334  -3.269  0.00  0.00     0.298 HD
ENDROOT
TORSDOF 0
ENDMDL
