MODEL 1
REMARK minimizedAffinity 7.86654806
REMARK minimizedRMSD -1
REMARK  0 active torsions:
REMARK  status: ('A' for Active; 'I' for Inactive)
ROOT
ATOM      1  N1  IND d   1       0.606   3.826  -1.853  0.00  0.00    -0.196 N 
ATOM      2  C2  IND d   1       1.250   4.457  -0.825  0.00  0.00     0.054 A 
ATOM      3  C3  IND d   1       1.720   3.552   0.062  0.00  0.00    -0.031 A 
ATOM      4  C4  IND d   1       1.636   0.981  -0.024  0.00  0.00     0.051 A 
ATOM      5  C5  IND d   1       1.120  -0.056  -0.750  0.00  0.00    -0.031 A 
ATOM      6  C6  IND d   1       0.395   0.152  -1.905  0.00  0.00     0.015 A 
ATOM      7  C7  IND d   1       0.167   1.410  -2.386  0.00  0.00    -0.016 A 
ATOM      8  C8  IND d   1       0.682   2.466  -1.648  0.00  0.00    -0.047 A 
ATOM      9  C9  IND d   1       1.383   2.263  -0.452  0.00  0.00    -0.096 A 
ATOM     10  HN1 IND d   1       0.219   4.213  -2.515  0.00  0.00     0.298 HD
ENDROOT
TORSDOF 0
ENDMDL
