MODEL 1
REMARK minimizedAffinity -5.13862991
REMARK minimizedRMSD -1
REMARK  3 active torsions:
REMARK  status: ('A' for Active; 'I' for Inactive)
REMARK    1  A    between atoms: C3'_2  and  C2'_3 
REMARK    2  A    between atoms: C2'_3  and  C1'_4 
REMARK    3  A    between atoms: C1'_4  and  C1_5 
ROOT
ATOM      1  C1  N4B d   1      -0.965   0.614   3.465  0.00  0.00    -0.075 A 
ATOM      2  C2  N4B d   1       0.431   0.601   3.256  0.00  0.00     0.002 A 
ATOM      3  C3  N4B d   1       1.176   1.724   3.519  0.00  0.00     0.002 A 
ATOM      4  C4  N4B d   1       0.546   2.874   3.972  0.00  0.00    -0.004 A 
ATOM      5  C5  N4B d   1      -0.800   2.871   4.196  0.00  0.00     0.002 A 
ATOM      6  C6  N4B d   1      -1.560   1.747   3.939  0.00  0.00     0.002 A 
ENDROOT
BRANCH   1   7
ATOM      7  C1' N4B d   1      -1.833  -0.562   3.110  0.00  0.00     0.057 C 
BRANCH   7   8
ATOM      8  C2' N4B d   1      -3.014  -0.079   2.274  0.00  0.00     0.009 C 
BRANCH   8   9
ATOM      9  C3' N4B d   1      -2.684  -0.043   0.792  0.00  0.00     0.004 C 
ATOM     10  C4' N4B d   1      -1.287  -0.501   0.496  0.00  0.00     0.003 C 
ENDBRANCH   8   9
ENDBRANCH   7   8
ENDBRANCH   1   7
TORSDOF 3
ENDMDL
