MODEL 1
REMARK minimizedAffinity 5.2884841
REMARK minimizedRMSD -1
REMARK  3 active torsions:
REMARK  status: ('A' for Active; 'I' for Inactive)
REMARK    1  A    between atoms: C3'_2  and  C2'_3 
REMARK    2  A    between atoms: C2'_3  and  C1'_4 
REMARK    3  A    between atoms: C1'_4  and  C1_5 
ROOT
ATOM      1  C1  N4B d   1       0.521   0.697   2.054  0.00  0.00    -0.075 A 
ATOM      2  C2  N4B d   1      -0.766   0.117   2.000  0.00  0.00     0.002 A 
ATOM      3  C3  N4B d   1      -0.935  -1.208   2.319  0.00  0.00     0.002 A 
ATOM      4  C4  N4B d   1       0.164  -1.974   2.676  0.00  0.00    -0.004 A 
ATOM      5  C5  N4B d   1       1.400  -1.400   2.750  0.00  0.00     0.002 A 
ATOM      6  C6  N4B d   1       1.584  -0.069   2.436  0.00  0.00     0.002 A 
ENDROOT
BRANCH   1   7
ATOM      7  C1' N4B d   1       0.769   2.119   1.631  0.00  0.00     0.057 C 
BRANCH   7   8
ATOM      8  C2' N4B d   1       1.085   2.150   0.139  0.00  0.00     0.009 C 
BRANCH   8   9
ATOM      9  C3' N4B d   1       1.825   3.416  -0.259  0.00  0.00     0.004 C 
ATOM     10  C4' N4B d   1       3.285   3.366   0.080  0.00  0.00     0.003 C 
ENDBRANCH   8   9
ENDBRANCH   7   8
ENDBRANCH   1   7
TORSDOF 3
ENDMDL
