MODEL 1
REMARK minimizedAffinity -5.67169571
REMARK minimizedRMSD -1
REMARK  3 active torsions:
REMARK  status: ('A' for Active; 'I' for Inactive)
REMARK    1  A    between atoms: C3'_2  and  C2'_3 
REMARK    2  A    between atoms: C2'_3  and  C1'_4 
REMARK    3  A    between atoms: C1'_4  and  C1_5 
ROOT
ATOM      1  C1  N4B d   1      -1.034   0.171   0.691  0.00  0.00    -0.075 A 
ATOM      2  C2  N4B d   1      -2.344   0.144   1.218  0.00  0.00     0.002 A 
ATOM      3  C3  N4B d   1      -2.545  -0.157   2.542  0.00  0.00     0.002 A 
ATOM      4  C4  N4B d   1      -1.458  -0.454   3.351  0.00  0.00    -0.004 A 
ATOM      5  C5  N4B d   1      -0.194  -0.401   2.841  0.00  0.00     0.002 A 
ATOM      6  C6  N4B d   1       0.023  -0.096   1.512  0.00  0.00     0.002 A 
ENDROOT
BRANCH   1   7
ATOM      7  C1' N4B d   1      -0.770   0.411  -0.770  0.00  0.00     0.057 C 
BRANCH   7   8
ATOM      8  C2' N4B d   1       0.724   0.262  -1.041  0.00  0.00     0.009 C 
BRANCH   8   9
ATOM      9  C3' N4B d   1       0.997  -0.559  -2.289  0.00  0.00     0.004 C 
ATOM     10  C4' N4B d   1       2.257  -0.149  -2.991  0.00  0.00     0.003 C 
ENDBRANCH   8   9
ENDBRANCH   7   8
ENDBRANCH   1   7
TORSDOF 3
ENDMDL
