MODEL 1
REMARK minimizedAffinity -5.88183022
REMARK minimizedRMSD -1
REMARK  3 active torsions:
REMARK  status: ('A' for Active; 'I' for Inactive)
REMARK    1  A    between atoms: C3'_2  and  C2'_3 
REMARK    2  A    between atoms: C2'_3  and  C1'_4 
REMARK    3  A    between atoms: C1'_4  and  C1_5 
ROOT
ATOM      1  C1  N4B d   1       3.045  -0.633  -3.786  0.00  0.00    -0.075 A 
ATOM      2  C2  N4B d   1       2.124   0.354  -3.373  0.00  0.00     0.002 A 
ATOM      3  C3  N4B d   1       0.801   0.029  -3.201  0.00  0.00     0.002 A 
ATOM      4  C4  N4B d   1       0.374  -1.266  -3.453  0.00  0.00    -0.004 A 
ATOM      5  C5  N4B d   1       1.275  -2.220  -3.827  0.00  0.00     0.002 A 
ATOM      6  C6  N4B d   1       2.609  -1.908  -4.000  0.00  0.00     0.002 A 
ENDROOT
BRANCH   1   7
ATOM      7  C1' N4B d   1       4.486  -0.306  -4.071  0.00  0.00     0.057 C 
BRANCH   7   8
ATOM      8  C2' N4B d   1       4.767   1.131  -3.641  0.00  0.00     0.009 C 
BRANCH   8   9
ATOM      9  C3' N4B d   1       5.928   1.737  -4.410  0.00  0.00     0.004 C 
ATOM     10  C4' N4B d   1       5.522   2.265  -5.754  0.00  0.00     0.003 C 
ENDBRANCH   8   9
ENDBRANCH   7   8
ENDBRANCH   1   7
TORSDOF 3
ENDMDL
