MODEL 1
REMARK minimizedAffinity 2.45582414
REMARK minimizedRMSD -1
REMARK  3 active torsions:
REMARK  status: ('A' for Active; 'I' for Inactive)
REMARK    1  A    between atoms: C3'_2  and  C2'_3 
REMARK    2  A    between atoms: C2'_3  and  C1'_4 
REMARK    3  A    between atoms: C1'_4  and  C1_5 
ROOT
ATOM      1  C1  N4B d   1       1.967   1.291  -5.425  0.00  0.00    -0.075 A 
ATOM      2  C2  N4B d   1       1.266   1.951  -4.392  0.00  0.00     0.002 A 
ATOM      3  C3  N4B d   1       1.778   3.100  -3.840  0.00  0.00     0.002 A 
ATOM      4  C4  N4B d   1       2.994   3.594  -4.289  0.00  0.00    -0.004 A 
ATOM      5  C5  N4B d   1       3.652   2.964  -5.305  0.00  0.00     0.002 A 
ATOM      6  C6  N4B d   1       3.147   1.811  -5.871  0.00  0.00     0.002 A 
ENDROOT
BRANCH   1   7
ATOM      7  C1' N4B d   1       1.489  -0.015  -6.000  0.00  0.00     0.057 C 
BRANCH   7   8
ATOM      8  C2' N4B d   1       1.363  -1.040  -4.877  0.00  0.00     0.009 C 
BRANCH   8   9
ATOM      9  C3' N4B d   1       2.433  -2.115  -4.967  0.00  0.00     0.004 C 
ATOM     10  C4' N4B d   1       3.795  -1.612  -4.589  0.00  0.00     0.003 C 
ENDBRANCH   8   9
ENDBRANCH   7   8
ENDBRANCH   1   7
TORSDOF 3
ENDMDL
