MODEL 1
REMARK minimizedAffinity 1.95572269
REMARK minimizedRMSD -1
REMARK  3 active torsions:
REMARK  status: ('A' for Active; 'I' for Inactive)
REMARK    1  A    between atoms: C3'_2  and  C2'_3 
REMARK    2  A    between atoms: C2'_3  and  C1'_4 
REMARK    3  A    between atoms: C1'_4  and  C1_5 
ROOT
ATOM      1  C1  N4B d   1       2.017  -0.176   2.205  0.00  0.00    -0.075 A 
ATOM      2  C2  N4B d   1       3.358  -0.615   2.263  0.00  0.00     0.002 A 
ATOM      3  C3  N4B d   1       4.317   0.008   1.503  0.00  0.00     0.002 A 
ATOM      4  C4  N4B d   1       3.958   1.055   0.668  0.00  0.00    -0.004 A 
ATOM      5  C5  N4B d   1       2.665   1.490   0.637  0.00  0.00     0.002 A 
ATOM      6  C6  N4B d   1       1.691   0.875   1.398  0.00  0.00     0.002 A 
ENDROOT
BRANCH   1   7
ATOM      7  C1' N4B d   1       0.918  -0.882   2.952  0.00  0.00     0.057 C 
BRANCH   7   8
ATOM      8  C2' N4B d   1      -0.330  -0.003   2.955  0.00  0.00     0.009 C 
BRANCH   8   9
ATOM      9  C3' N4B d   1      -1.499  -0.673   2.255  0.00  0.00     0.004 C 
ATOM     10  C4' N4B d   1      -2.572   0.297   1.859  0.00  0.00     0.003 C 
ENDBRANCH   8   9
ENDBRANCH   7   8
ENDBRANCH   1   7
TORSDOF 3
ENDMDL
