MODEL 1
REMARK minimizedAffinity 10.5356064
REMARK minimizedRMSD -1
REMARK  1 active torsions:
REMARK  status: ('A' for Active; 'I' for Inactive)
REMARK    1  A    between atoms: N_2  and  C1_3 
ROOT
ATOM      1  C1  UNL d   1      -4.889  -0.084   4.765  0.00  0.00     0.143 A 
ATOM      2  C2  UNL d   1      -5.589  -1.266   5.031  0.00  0.00    -0.057 A 
ATOM      3  C3  UNL d   1      -5.904  -2.170   4.009  0.00  0.00     0.033 A 
ATOM      4  C4  UNL d   1      -5.548  -1.893   2.694  0.00  0.00    -0.042 A 
ATOM      5  C5  UNL d   1      -4.873  -0.712   2.402  0.00  0.00     0.033 A 
ATOM      6  C6  UNL d   1      -4.556   0.183   3.428  0.00  0.00    -0.057 A 
ENDROOT
BRANCH   1   7
ATOM      7  N   UNL d   1      -4.633   0.901   5.722  0.00  0.00    -0.732 N 
ATOM      8  C   UNL d   1      -3.278   1.324   6.000  0.00  0.00     0.284 C 
ATOM      9  H3  UNL d   1      -5.307   1.662   5.685  0.00  0.00     0.395 HD
ENDBRANCH   1   7
TORSDOF 1
ENDMDL
