MODEL 1
REMARK minimizedAffinity 5.67584419
REMARK minimizedRMSD -1
REMARK  1 active torsions:
REMARK  status: ('A' for Active; 'I' for Inactive)
REMARK    1  A    between atoms: N_2  and  C1_3 
ROOT
ATOM      1  C1  UNL d   1      -4.345  -0.167   4.220  0.00  0.00     0.143 A 
ATOM      2  C2  UNL d   1      -3.975  -0.276   2.875  0.00  0.00    -0.057 A 
ATOM      3  C3  UNL d   1      -4.277  -1.421   2.129  0.00  0.00     0.033 A 
ATOM      4  C4  UNL d   1      -4.932  -2.494   2.725  0.00  0.00    -0.042 A 
ATOM      5  C5  UNL d   1      -5.287  -2.418   4.067  0.00  0.00     0.033 A 
ATOM      6  C6  UNL d   1      -4.988  -1.269   4.805  0.00  0.00    -0.057 A 
ENDROOT
BRANCH   1   7
ATOM      7  N   UNL d   1      -3.986   0.905   5.041  0.00  0.00    -0.732 N 
ATOM      8  C   UNL d   1      -2.600   1.137   5.386  0.00  0.00     0.284 C 
ATOM      9  H3  UNL d   1      -4.509   1.751   4.825  0.00  0.00     0.395 HD
ENDBRANCH   1   7
TORSDOF 1
ENDMDL
