MODEL 1
REMARK minimizedAffinity 0.786870003
REMARK minimizedRMSD -1
REMARK  1 active torsions:
REMARK  status: ('A' for Active; 'I' for Inactive)
REMARK    1  A    between atoms: N_2  and  C1_3 
ROOT
ATOM      1  C1  UNL d   1      -3.795   0.904   4.293  0.00  0.00     0.143 A 
ATOM      2  C2  UNL d   1      -3.827   0.514   2.950  0.00  0.00    -0.057 A 
ATOM      3  C3  UNL d   1      -4.506  -0.642   2.546  0.00  0.00     0.033 A 
ATOM      4  C4  UNL d   1      -5.144  -1.445   3.485  0.00  0.00    -0.042 A 
ATOM      5  C5  UNL d   1      -5.104  -1.090   4.829  0.00  0.00     0.033 A 
ATOM      6  C6  UNL d   1      -4.429   0.068   5.225  0.00  0.00    -0.057 A 
ENDROOT
BRANCH   1   7
ATOM      7  N   UNL d   1      -3.054   1.988   4.771  0.00  0.00    -0.732 N 
ATOM      8  C   UNL d   1      -3.621   2.898   5.742  0.00  0.00     0.284 C 
ATOM      9  H3  UNL d   1      -2.081   1.746   4.946  0.00  0.00     0.395 HD
ENDBRANCH   1   7
TORSDOF 1
ENDMDL
