MODEL 1
REMARK minimizedAffinity -1.67979062
REMARK minimizedRMSD -1
REMARK  1 active torsions:
REMARK  status: ('A' for Active; 'I' for Inactive)
REMARK    1  A    between atoms: N_2  and  C1_3 
ROOT
ATOM      1  C1  UNL d   1       2.245  -2.534  -0.083  0.00  0.00     0.143 A 
ATOM      2  C2  UNL d   1       2.902  -3.729  -0.395  0.00  0.00    -0.057 A 
ATOM      3  C3  UNL d   1       3.783  -3.811  -1.481  0.00  0.00     0.033 A 
ATOM      4  C4  UNL d   1       3.999  -2.703  -2.294  0.00  0.00    -0.042 A 
ATOM      5  C5  UNL d   1       3.337  -1.512  -2.018  0.00  0.00     0.033 A 
ATOM      6  C6  UNL d   1       2.464  -1.435  -0.928  0.00  0.00    -0.057 A 
ENDROOT
BRANCH   1   7
ATOM      7  N   UNL d   1       1.283  -2.416   0.923  0.00  0.00    -0.732 N 
ATOM      8  C   UNL d   1       0.478  -3.554   1.311  0.00  0.00     0.284 C 
ATOM      9  H3  UNL d   1       1.605  -1.849   1.704  0.00  0.00     0.395 HD
ENDBRANCH   1   7
TORSDOF 1
ENDMDL
