MODEL 1
REMARK minimizedAffinity -2.52527976
REMARK minimizedRMSD -1
REMARK  1 active torsions:
REMARK  status: ('A' for Active; 'I' for Inactive)
REMARK    1  A    between atoms: N_2  and  C1_3 
ROOT
ATOM      1  C1  UNL d   1       2.986  -3.347  -0.530  0.00  0.00     0.143 A 
ATOM      2  C2  UNL d   1       3.650  -2.955  -1.698  0.00  0.00    -0.057 A 
ATOM      3  C3  UNL d   1       4.861  -3.547  -2.078  0.00  0.00     0.033 A 
ATOM      4  C4  UNL d   1       5.446  -4.523  -1.279  0.00  0.00    -0.042 A 
ATOM      5  C5  UNL d   1       4.817  -4.910  -0.101  0.00  0.00     0.033 A 
ATOM      6  C6  UNL d   1       3.605  -4.320   0.270  0.00  0.00    -0.057 A 
ENDROOT
BRANCH   1   7
ATOM      7  N   UNL d   1       1.831  -2.728  -0.047  0.00  0.00    -0.732 N 
ATOM      8  C   UNL d   1       1.099  -3.297   1.065  0.00  0.00     0.284 C 
ATOM      9  H3  UNL d   1       1.918  -1.715  -0.013  0.00  0.00     0.395 HD
ENDBRANCH   1   7
TORSDOF 1
ENDMDL
