MODEL 1
REMARK minimizedAffinity 3.94504738
REMARK minimizedRMSD -1
REMARK  1 active torsions:
REMARK  status: ('A' for Active; 'I' for Inactive)
REMARK    1  A    between atoms: N_2  and  C1_3 
ROOT
ATOM      1  C1  UNL d   1       3.173  -5.887  -0.589  0.00  0.00     0.143 A 
ATOM      2  C2  UNL d   1       3.906  -5.999   0.597  0.00  0.00    -0.057 A 
ATOM      3  C3  UNL d   1       5.306  -5.981   0.589  0.00  0.00     0.033 A 
ATOM      4  C4  UNL d   1       6.000  -5.878  -0.612  0.00  0.00    -0.042 A 
ATOM      5  C5  UNL d   1       5.292  -5.791  -1.805  0.00  0.00     0.033 A 
ATOM      6  C6  UNL d   1       3.894  -5.803  -1.791  0.00  0.00    -0.057 A 
ENDROOT
BRANCH   1   7
ATOM      7  N   UNL d   1       1.782  -5.999  -0.657  0.00  0.00    -0.732 N 
ATOM      8  C   UNL d   1       0.947  -5.462   0.397  0.00  0.00     0.284 C 
ATOM      9  H3  UNL d   1       1.424  -5.834  -1.595  0.00  0.00     0.395 HD
ENDBRANCH   1   7
TORSDOF 1
ENDMDL
