MODEL 1
REMARK minimizedAffinity 4.74868822
REMARK minimizedRMSD -1
REMARK  1 active torsions:
REMARK  status: ('A' for Active; 'I' for Inactive)
REMARK    1  A    between atoms: N_2  and  C1_3 
ROOT
ATOM      1  C1  UNL d   1      -2.682   0.439   0.700  0.00  0.00     0.143 A 
ATOM      2  C2  UNL d   1      -2.073  -0.542  -0.090  0.00  0.00    -0.057 A 
ATOM      3  C3  UNL d   1      -1.390  -1.619   0.488  0.00  0.00     0.033 A 
ATOM      4  C4  UNL d   1      -1.279  -1.719   1.871  0.00  0.00    -0.042 A 
ATOM      5  C5  UNL d   1      -1.856  -0.742   2.676  0.00  0.00     0.033 A 
ATOM      6  C6  UNL d   1      -2.542   0.327   2.092  0.00  0.00    -0.057 A 
ENDROOT
BRANCH   1   7
ATOM      7  N   UNL d   1      -3.291   1.585   0.184  0.00  0.00    -0.732 N 
ATOM      8  C   UNL d   1      -2.682   2.886   0.362  0.00  0.00     0.284 C 
ATOM      9  H3  UNL d   1      -3.684   1.433  -0.742  0.00  0.00     0.395 HD
ENDBRANCH   1   7
TORSDOF 1
ENDMDL
