MODEL 1
REMARK minimizedAffinity 9.67150497
REMARK minimizedRMSD -1
REMARK  1 active torsions:
REMARK  status: ('A' for Active; 'I' for Inactive)
REMARK    1  A    between atoms: N_2  and  C1_3 
ROOT
ATOM      1  C1  UNL d   1      -2.935   2.451   0.979  0.00  0.00     0.143 A 
ATOM      2  C2  UNL d   1      -4.018   2.150   0.146  0.00  0.00    -0.057 A 
ATOM      3  C3  UNL d   1      -4.586   0.871   0.127  0.00  0.00     0.033 A 
ATOM      4  C4  UNL d   1      -4.060  -0.142   0.923  0.00  0.00    -0.042 A 
ATOM      5  C5  UNL d   1      -2.969   0.128   1.741  0.00  0.00     0.033 A 
ATOM      6  C6  UNL d   1      -2.410   1.410   1.760  0.00  0.00    -0.057 A 
ENDROOT
BRANCH   1   7
ATOM      7  N   UNL d   1      -2.264   3.677   0.971  0.00  0.00    -0.732 N 
ATOM      8  C   UNL d   1      -2.441   4.606  -0.125  0.00  0.00     0.284 C 
ATOM      9  H3  UNL d   1      -2.244   4.115   1.889  0.00  0.00     0.395 HD
ENDBRANCH   1   7
TORSDOF 1
ENDMDL
