MODEL 1
REMARK minimizedAffinity 5.31643438
REMARK minimizedRMSD -1
REMARK  1 active torsions:
REMARK  status: ('A' for Active; 'I' for Inactive)
REMARK    1  A    between atoms: N_2  and  C1_3 
ROOT
ATOM      1  C1  UNL d   1       0.341   4.413  -3.578  0.00  0.00     0.143 A 
ATOM      2  C2  UNL d   1      -0.031   4.979  -2.354  0.00  0.00    -0.057 A 
ATOM      3  C3  UNL d   1       0.516   4.525  -1.147  0.00  0.00     0.033 A 
ATOM      4  C4  UNL d   1       1.425   3.473  -1.142  0.00  0.00    -0.042 A 
ATOM      5  C5  UNL d   1       1.791   2.878  -2.344  0.00  0.00     0.033 A 
ATOM      6  C6  UNL d   1       1.247   3.341  -3.546  0.00  0.00    -0.057 A 
ENDROOT
BRANCH   1   7
ATOM      7  N   UNL d   1      -0.240   4.755  -4.801  0.00  0.00    -0.732 N 
ATOM      8  C   UNL d   1       0.190   5.937  -5.517  0.00  0.00     0.284 C 
ATOM      9  H3  UNL d   1      -0.400   3.944  -5.395  0.00  0.00     0.395 HD
ENDBRANCH   1   7
TORSDOF 1
ENDMDL
