MODEL 1
REMARK minimizedAffinity -2.43464875
REMARK minimizedRMSD -1
REMARK  1 active torsions:
REMARK  status: ('A' for Active; 'I' for Inactive)
REMARK    1  A    between atoms: N_2  and  C1_3 
ROOT
ATOM      1  C1  UNL d   1       3.401  -4.377  -0.024  0.00  0.00     0.143 A 
ATOM      2  C2  UNL d   1       3.990  -3.111   0.070  0.00  0.00    -0.057 A 
ATOM      3  C3  UNL d   1       3.229  -1.976   0.374  0.00  0.00     0.033 A 
ATOM      4  C4  UNL d   1       1.855  -2.083   0.561  0.00  0.00    -0.042 A 
ATOM      5  C5  UNL d   1       1.244  -3.327   0.448  0.00  0.00     0.033 A 
ATOM      6  C6  UNL d   1       2.011  -4.458   0.151  0.00  0.00    -0.057 A 
ENDROOT
BRANCH   1   7
ATOM      7  N   UNL d   1       4.088  -5.527  -0.420  0.00  0.00    -0.732 N 
ATOM      8  C   UNL d   1       5.243  -5.988   0.321  0.00  0.00     0.284 C 
ATOM      9  H3  UNL d   1       3.460  -6.271  -0.716  0.00  0.00     0.395 HD
ENDBRANCH   1   7
TORSDOF 1
ENDMDL
