MODEL 1
REMARK minimizedAffinity 26.7902584
REMARK minimizedRMSD -1
REMARK  0 active torsions:
REMARK  status: ('A' for Active; 'I' for Inactive)
ROOT
ATOM      1  C   UNL d   1       4.558   1.084  -0.021  0.00  0.00     0.124 A 
ATOM      2  C1  UNL d   1       4.602   1.967   1.049  0.00  0.00     0.062 A 
ATOM      3  C2  UNL d   1       4.968   3.295   0.847  0.00  0.00     0.162 A 
ATOM      4  C3  UNL d   1       5.291   3.748  -0.432  0.00  0.00    -0.034 A 
ATOM      5  C4  UNL d   1       5.245   2.854  -1.503  0.00  0.00     0.162 A 
ATOM      6  C5  UNL d   1       4.879   1.528  -1.295  0.00  0.00     0.062 A 
ATOM      7  F   UNL d   1       4.837   0.677  -2.330  0.00  0.00    -0.097 F 
ATOM      8  F1  UNL d   1       5.550   3.257  -2.746  0.00  0.00    -0.096 F 
ATOM      9  I   UNL d   1       5.838   5.733  -0.739  0.00  0.00    -0.060 I 
ATOM     10  F2  UNL d   1       5.002   4.126   1.899  0.00  0.00    -0.096 F 
ATOM     11  F3  UNL d   1       4.293   1.540   2.282  0.00  0.00    -0.097 F 
ATOM     12  F4  UNL d   1       4.207  -0.193   0.177  0.00  0.00    -0.092 F 
ENDROOT
TORSDOF 0
ENDMDL
