MODEL 1
REMARK minimizedAffinity 17.7548199
REMARK minimizedRMSD -1
REMARK  0 active torsions:
REMARK  status: ('A' for Active; 'I' for Inactive)
ROOT
ATOM      1  C   UNL d   1       5.209   1.145  -1.915  0.00  0.00     0.124 A 
ATOM      2  C1  UNL d   1       4.958   0.176  -2.877  0.00  0.00     0.062 A 
ATOM      3  C2  UNL d   1       4.138  -0.909  -2.581  0.00  0.00     0.162 A 
ATOM      4  C3  UNL d   1       3.561  -1.030  -1.317  0.00  0.00    -0.034 A 
ATOM      5  C4  UNL d   1       3.818  -0.052  -0.354  0.00  0.00     0.162 A 
ATOM      6  C5  UNL d   1       4.639   1.030  -0.655  0.00  0.00     0.062 A 
ATOM      7  F   UNL d   1       4.880   1.965   0.275  0.00  0.00    -0.097 F 
ATOM      8  F1  UNL d   1       3.279  -0.138   0.871  0.00  0.00    -0.096 F 
ATOM      9  I   UNL d   1       2.333  -2.651  -0.870  0.00  0.00    -0.060 I 
ATOM     10  F2  UNL d   1       3.913  -1.830  -3.530  0.00  0.00    -0.096 F 
ATOM     11  F3  UNL d   1       5.508   0.284  -4.095  0.00  0.00    -0.097 F 
ATOM     12  F4  UNL d   1       5.999   2.187  -2.203  0.00  0.00    -0.092 F 
ENDROOT
TORSDOF 0
ENDMDL
