MODEL 1
REMARK minimizedAffinity 15.7275562
REMARK minimizedRMSD -1
REMARK  0 active torsions:
REMARK  status: ('A' for Active; 'I' for Inactive)
ROOT
ATOM      1  C   UNL d   1       2.647  -2.457  -1.104  0.00  0.00     0.124 A 
ATOM      2  C1  UNL d   1       1.765  -2.902  -0.130  0.00  0.00     0.062 A 
ATOM      3  C2  UNL d   1       0.567  -3.510  -0.495  0.00  0.00     0.162 A 
ATOM      4  C3  UNL d   1       0.245  -3.678  -1.842  0.00  0.00    -0.034 A 
ATOM      5  C4  UNL d   1       1.136  -3.227  -2.816  0.00  0.00     0.162 A 
ATOM      6  C5  UNL d   1       2.332  -2.619  -2.446  0.00  0.00     0.062 A 
ATOM      7  F   UNL d   1       3.183  -2.190  -3.389  0.00  0.00    -0.097 F 
ATOM      8  F1  UNL d   1       0.858  -3.372  -4.120  0.00  0.00    -0.096 F 
ATOM      9  I   UNL d   1      -1.545  -4.587  -2.392  0.00  0.00    -0.060 I 
ATOM     10  F2  UNL d   1      -0.267  -3.931   0.468  0.00  0.00    -0.096 F 
ATOM     11  F3  UNL d   1       2.066  -2.746   1.167  0.00  0.00    -0.097 F 
ATOM     12  F4  UNL d   1       3.798  -1.871  -0.750  0.00  0.00    -0.092 F 
ENDROOT
TORSDOF 0
ENDMDL
