MODEL 1
REMARK minimizedAffinity 9.22439289
REMARK minimizedRMSD -1
REMARK  0 active torsions:
REMARK  status: ('A' for Active; 'I' for Inactive)
ROOT
ATOM      1  C   UNL d   1       2.971  -2.928  -1.392  0.00  0.00     0.124 A 
ATOM      2  C1  UNL d   1       3.087  -2.288  -0.165  0.00  0.00     0.062 A 
ATOM      3  C2  UNL d   1       3.679  -1.031  -0.084  0.00  0.00     0.162 A 
ATOM      4  C3  UNL d   1       4.160  -0.404  -1.234  0.00  0.00    -0.034 A 
ATOM      5  C4  UNL d   1       4.041  -1.054  -2.464  0.00  0.00     0.162 A 
ATOM      6  C5  UNL d   1       3.449  -2.310  -2.539  0.00  0.00     0.062 A 
ATOM      7  F   UNL d   1       3.338  -2.926  -3.725  0.00  0.00    -0.097 F 
ATOM      8  F1  UNL d   1       4.493  -0.480  -3.588  0.00  0.00    -0.096 F 
ATOM      9  I   UNL d   1       5.045   1.476  -1.117  0.00  0.00    -0.060 I 
ATOM     10  F2  UNL d   1       3.776  -0.436   1.114  0.00  0.00    -0.096 F 
ATOM     11  F3  UNL d   1       2.627  -2.883   0.945  0.00  0.00    -0.097 F 
ATOM     12  F4  UNL d   1       2.402  -4.137  -1.467  0.00  0.00    -0.092 F 
ENDROOT
TORSDOF 0
ENDMDL
