MODEL 1
REMARK minimizedAffinity 16.7720814
REMARK minimizedRMSD -1
REMARK  0 active torsions:
REMARK  status: ('A' for Active; 'I' for Inactive)
ROOT
ATOM      1  C   UNL d   1       4.497   0.940   0.030  0.00  0.00     0.124 A 
ATOM      2  C1  UNL d   1       4.329   1.470  -1.242  0.00  0.00     0.062 A 
ATOM      3  C2  UNL d   1       4.724   2.777  -1.514  0.00  0.00     0.162 A 
ATOM      4  C3  UNL d   1       5.292   3.563  -0.512  0.00  0.00    -0.034 A 
ATOM      5  C4  UNL d   1       5.457   3.024   0.765  0.00  0.00     0.162 A 
ATOM      6  C5  UNL d   1       5.061   1.717   1.032  0.00  0.00     0.062 A 
ATOM      7  F   UNL d   1       5.224   1.207   2.261  0.00  0.00    -0.097 F 
ATOM      8  F1  UNL d   1       6.000   3.752   1.752  0.00  0.00    -0.096 F 
ATOM      9  I   UNL d   1       5.884   5.518  -0.914  0.00  0.00    -0.060 I 
ATOM     10  F2  UNL d   1       4.549   3.263  -2.752  0.00  0.00    -0.096 F 
ATOM     11  F3  UNL d   1       3.784   0.722  -2.212  0.00  0.00    -0.097 F 
ATOM     12  F4  UNL d   1       4.116  -0.317   0.289  0.00  0.00    -0.092 F 
ENDROOT
TORSDOF 0
ENDMDL
