MODEL 1
REMARK minimizedAffinity 21.9505577
REMARK minimizedRMSD -1
REMARK  0 active torsions:
REMARK  status: ('A' for Active; 'I' for Inactive)
ROOT
ATOM      1  C   UNL d   1       4.528   1.448  -0.316  0.00  0.00     0.124 A 
ATOM      2  C1  UNL d   1       3.552   0.594   0.179  0.00  0.00     0.062 A 
ATOM      3  C2  UNL d   1       3.105  -0.477  -0.589  0.00  0.00     0.162 A 
ATOM      4  C3  UNL d   1       3.633  -0.701  -1.861  0.00  0.00    -0.034 A 
ATOM      5  C4  UNL d   1       4.613   0.164  -2.352  0.00  0.00     0.162 A 
ATOM      6  C5  UNL d   1       5.057   1.233  -1.580  0.00  0.00     0.062 A 
ATOM      7  F   UNL d   1       6.000   2.057  -2.059  0.00  0.00    -0.097 F 
ATOM      8  F1  UNL d   1       5.143  -0.022  -3.570  0.00  0.00    -0.096 F 
ATOM      9  I   UNL d   1       2.967  -2.301  -3.012  0.00  0.00    -0.060 I 
ATOM     10  F2  UNL d   1       2.161  -1.287  -0.086  0.00  0.00    -0.096 F 
ATOM     11  F3  UNL d   1       3.038   0.801   1.400  0.00  0.00    -0.097 F 
ATOM     12  F4  UNL d   1       4.956   2.479   0.425  0.00  0.00    -0.092 F 
ENDROOT
TORSDOF 0
ENDMDL
