MODEL 1
REMARK minimizedAffinity 19.7007942
REMARK minimizedRMSD -1
REMARK  0 active torsions:
REMARK  status: ('A' for Active; 'I' for Inactive)
ROOT
ATOM      1  C   UNL d   1       3.017  -2.394  -1.565  0.00  0.00     0.124 A 
ATOM      2  C1  UNL d   1       2.897  -1.678  -0.382  0.00  0.00     0.062 A 
ATOM      3  C2  UNL d   1       3.440  -0.400  -0.279  0.00  0.00     0.162 A 
ATOM      4  C3  UNL d   1       4.107   0.171  -1.363  0.00  0.00    -0.034 A 
ATOM      5  C4  UNL d   1       4.225  -0.556  -2.549  0.00  0.00     0.162 A 
ATOM      6  C5  UNL d   1       3.681  -1.832  -2.647  0.00  0.00     0.062 A 
ATOM      7  F   UNL d   1       3.798  -2.522  -3.791  0.00  0.00    -0.097 F 
ATOM      8  F1  UNL d   1       4.860  -0.037  -3.610  0.00  0.00    -0.096 F 
ATOM      9  I   UNL d   1       4.920   2.081  -1.212  0.00  0.00    -0.060 I 
ATOM     10  F2  UNL d   1       3.309   0.269   0.876  0.00  0.00    -0.096 F 
ATOM     11  F3  UNL d   1       2.258  -2.218   0.665  0.00  0.00    -0.097 F 
ATOM     12  F4  UNL d   1       2.495  -3.623  -1.662  0.00  0.00    -0.092 F 
ENDROOT
TORSDOF 0
ENDMDL
