MODEL 1
REMARK minimizedAffinity 23.2442207
REMARK minimizedRMSD -1
REMARK  0 active torsions:
REMARK  status: ('A' for Active; 'I' for Inactive)
ROOT
ATOM      1  C   UNL d   1      -3.123   1.698  -5.156  0.00  0.00     0.124 A 
ATOM      2  C1  UNL d   1      -4.307   0.973  -5.155  0.00  0.00     0.062 A 
ATOM      3  C2  UNL d   1      -4.472  -0.097  -4.280  0.00  0.00     0.162 A 
ATOM      4  C3  UNL d   1      -3.451  -0.448  -3.398  0.00  0.00    -0.034 A 
ATOM      5  C4  UNL d   1      -2.262   0.285  -3.405  0.00  0.00     0.162 A 
ATOM      6  C5  UNL d   1      -2.102   1.353  -4.282  0.00  0.00     0.062 A 
ATOM      7  F   UNL d   1      -0.958   2.052  -4.281  0.00  0.00    -0.097 F 
ATOM      8  F1  UNL d   1      -1.260  -0.026  -2.570  0.00  0.00    -0.096 F 
ATOM      9  I   UNL d   1      -3.694  -2.047  -2.088  0.00  0.00    -0.060 I 
ATOM     10  F2  UNL d   1      -5.627  -0.779  -4.301  0.00  0.00    -0.096 F 
ATOM     11  F3  UNL d   1      -5.294   1.304  -6.000  0.00  0.00    -0.097 F 
ATOM     12  F4  UNL d   1      -2.966   2.726  -6.000  0.00  0.00    -0.092 F 
ENDROOT
TORSDOF 0
ENDMDL
