MODEL 1
REMARK minimizedAffinity 17.8489952
REMARK minimizedRMSD -1
REMARK  0 active torsions:
REMARK  status: ('A' for Active; 'I' for Inactive)
ROOT
ATOM      1  C   UNL d   1       4.780  -1.295  -3.281  0.00  0.00     0.124 A 
ATOM      2  C1  UNL d   1       3.727  -2.176  -3.076  0.00  0.00     0.062 A 
ATOM      3  C2  UNL d   1       2.877  -2.009  -1.987  0.00  0.00     0.162 A 
ATOM      4  C3  UNL d   1       3.075  -0.955  -1.094  0.00  0.00    -0.034 A 
ATOM      5  C4  UNL d   1       4.136  -0.073  -1.307  0.00  0.00     0.162 A 
ATOM      6  C5  UNL d   1       4.983  -0.245  -2.397  0.00  0.00     0.062 A 
ATOM      7  F   UNL d   1       6.000   0.607  -2.595  0.00  0.00    -0.097 F 
ATOM      8  F1  UNL d   1       4.356   0.951  -0.469  0.00  0.00    -0.096 F 
ATOM      9  I   UNL d   1       1.806  -0.701   0.535  0.00  0.00    -0.060 I 
ATOM     10  F2  UNL d   1       1.868  -2.875  -1.812  0.00  0.00    -0.096 F 
ATOM     11  F3  UNL d   1       3.529  -3.192  -3.928  0.00  0.00    -0.097 F 
ATOM     12  F4  UNL d   1       5.597  -1.459  -4.330  0.00  0.00    -0.092 F 
ENDROOT
TORSDOF 0
ENDMDL
