MODEL 1
REMARK minimizedAffinity -0.840523839
REMARK minimizedRMSD -1
REMARK  0 active torsions:
REMARK  status: ('A' for Active; 'I' for Inactive)
ROOT
ATOM      1  O1  BZF d   1       2.984  -3.322  -0.038  0.00  0.00    -0.204 OA
ATOM      2  C2  BZF d   1       2.245  -4.376  -0.540  0.00  0.00     0.174 A 
ATOM      3  C3  BZF d   1       0.924  -4.118  -0.455  0.00  0.00    -0.012 A 
ATOM      4  C3A BZF d   1       0.833  -2.783   0.050  0.00  0.00    -0.107 A 
ATOM      5  C4  BZF d   1      -0.216  -1.957   0.337  0.00  0.00     0.055 A 
ATOM      6  C5  BZF d   1       0.033  -0.740   0.887  0.00  0.00    -0.016 A 
ATOM      7  C6  BZF d   1       1.316  -0.318   1.167  0.00  0.00     0.022 A 
ATOM      8  C7  BZF d   1       2.389  -1.100   0.896  0.00  0.00     0.029 A 
ATOM      9  C7A BZF d   1       2.143  -2.318   0.310  0.00  0.00     0.058 A 
ENDROOT
TORSDOF 0
ENDMDL
