MODEL 1
REMARK minimizedAffinity 2.72882462
REMARK minimizedRMSD -1
REMARK  0 active torsions:
REMARK  status: ('A' for Active; 'I' for Inactive)
ROOT
ATOM      1  O1  BZF d   1       2.322  -2.660  -0.550  0.00  0.00    -0.204 OA
ATOM      2  C2  BZF d   1       1.505  -3.714  -0.911  0.00  0.00     0.174 A 
ATOM      3  C3  BZF d   1       0.248  -3.520  -0.460  0.00  0.00    -0.012 A 
ATOM      4  C3A BZF d   1       0.261  -2.224   0.145  0.00  0.00    -0.107 A 
ATOM      5  C4  BZF d   1      -0.694  -1.464   0.758  0.00  0.00     0.055 A 
ATOM      6  C5  BZF d   1      -0.339  -0.273   1.307  0.00  0.00    -0.016 A 
ATOM      7  C6  BZF d   1       0.961   0.187   1.265  0.00  0.00     0.022 A 
ATOM      8  C7  BZF d   1       1.942  -0.529   0.664  0.00  0.00     0.029 A 
ATOM      9  C7A BZF d   1       1.580  -1.718   0.079  0.00  0.00     0.058 A 
ENDROOT
TORSDOF 0
ENDMDL
