MODEL 1
REMARK minimizedAffinity -5.20628786
REMARK minimizedRMSD -1
REMARK  0 active torsions:
REMARK  status: ('A' for Active; 'I' for Inactive)
ROOT
ATOM      1  O1  BZF d   1       1.528  -0.240   1.180  0.00  0.00    -0.204 OA
ATOM      2  C2  BZF d   1       0.149  -0.310   1.216  0.00  0.00     0.174 A 
ATOM      3  C3  BZF d   1      -0.282  -1.500   0.750  0.00  0.00    -0.012 A 
ATOM      4  C3A BZF d   1       0.905  -2.253   0.487  0.00  0.00    -0.107 A 
ATOM      5  C4  BZF d   1       1.131  -3.518   0.022  0.00  0.00     0.055 A 
ATOM      6  C5  BZF d   1       2.410  -3.924  -0.191  0.00  0.00    -0.016 A 
ATOM      7  C6  BZF d   1       3.485  -3.093   0.045  0.00  0.00     0.022 A 
ATOM      8  C7  BZF d   1       3.311  -1.832   0.511  0.00  0.00     0.029 A 
ATOM      9  C7A BZF d   1       2.021  -1.429   0.758  0.00  0.00     0.058 A 
ENDROOT
TORSDOF 0
ENDMDL
