MODEL 1
REMARK minimizedAffinity -0.791072011
REMARK minimizedRMSD -1
REMARK  0 active torsions:
REMARK  status: ('A' for Active; 'I' for Inactive)
ROOT
ATOM      1  O1  BZF d   1       5.772   2.098  -2.522  0.00  0.00    -0.204 OA
ATOM      2  C2  BZF d   1       5.815   3.473  -2.397  0.00  0.00     0.174 A 
ATOM      3  C3  BZF d   1       4.711   4.037  -2.930  0.00  0.00    -0.012 A 
ATOM      4  C3A BZF d   1       3.887   2.940  -3.335  0.00  0.00    -0.107 A 
ATOM      5  C4  BZF d   1       2.654   2.857  -3.917  0.00  0.00     0.055 A 
ATOM      6  C5  BZF d   1       2.162   1.635  -4.250  0.00  0.00    -0.016 A 
ATOM      7  C6  BZF d   1       2.877   0.477  -4.021  0.00  0.00     0.022 A 
ATOM      8  C7  BZF d   1       4.102   0.509  -3.442  0.00  0.00     0.029 A 
ATOM      9  C7A BZF d   1       4.588   1.740  -3.074  0.00  0.00     0.058 A 
ENDROOT
TORSDOF 0
ENDMDL
