MODEL 1
REMARK minimizedAffinity 0.138825208
REMARK minimizedRMSD -1
REMARK  0 active torsions:
REMARK  status: ('A' for Active; 'I' for Inactive)
ROOT
ATOM      1  O1  BZF d   1       2.737  -2.680  -0.218  0.00  0.00    -0.204 OA
ATOM      2  C2  BZF d   1       2.023  -3.769  -0.680  0.00  0.00     0.174 A 
ATOM      3  C3  BZF d   1       0.701  -3.595  -0.476  0.00  0.00    -0.012 A 
ATOM      4  C3A BZF d   1       0.574  -2.278   0.068  0.00  0.00    -0.107 A 
ATOM      5  C4  BZF d   1      -0.495  -1.525   0.464  0.00  0.00     0.055 A 
ATOM      6  C5  BZF d   1      -0.273  -0.305   1.020  0.00  0.00    -0.016 A 
ATOM      7  C6  BZF d   1       1.002   0.190   1.200  0.00  0.00     0.022 A 
ATOM      8  C7  BZF d   1       2.093  -0.518   0.819  0.00  0.00     0.029 A 
ATOM      9  C7A BZF d   1       1.871  -1.737   0.226  0.00  0.00     0.058 A 
ENDROOT
TORSDOF 0
ENDMDL
