MODEL 1
REMARK minimizedAffinity 1.01971054
REMARK minimizedRMSD -1
REMARK  0 active torsions:
REMARK  status: ('A' for Active; 'I' for Inactive)
ROOT
ATOM      1  O1  BZF d   1      -1.962  -0.962   0.953  0.00  0.00    -0.204 OA
ATOM      2  C2  BZF d   1      -2.123  -0.105   2.025  0.00  0.00     0.174 A 
ATOM      3  C3  BZF d   1      -0.933   0.388   2.426  0.00  0.00    -0.012 A 
ATOM      4  C3A BZF d   1       0.021  -0.125   1.492  0.00  0.00    -0.107 A 
ATOM      5  C4  BZF d   1       1.372   0.023   1.353  0.00  0.00     0.055 A 
ATOM      6  C5  BZF d   1       2.015  -0.672   0.378  0.00  0.00    -0.016 A 
ATOM      7  C6  BZF d   1       1.341  -1.526  -0.470  0.00  0.00     0.022 A 
ATOM      8  C7  BZF d   1       0.001  -1.701  -0.374  0.00  0.00     0.029 A 
ATOM      9  C7A BZF d   1      -0.657  -0.975   0.589  0.00  0.00     0.058 A 
ENDROOT
TORSDOF 0
ENDMDL
