MODEL 1
REMARK minimizedAffinity 7.34712458
REMARK minimizedRMSD -1
REMARK  0 active torsions:
REMARK  status: ('A' for Active; 'I' for Inactive)
ROOT
ATOM      1  O1  BZF d   1      -1.322  -3.893  -0.308  0.00  0.00    -0.204 OA
ATOM      2  C2  BZF d   1      -2.524  -3.476   0.231  0.00  0.00     0.174 A 
ATOM      3  C3  BZF d   1      -2.364  -2.333   0.928  0.00  0.00    -0.012 A 
ATOM      4  C3A BZF d   1      -0.994  -1.966   0.740  0.00  0.00    -0.107 A 
ATOM      5  C4  BZF d   1      -0.235  -0.915   1.171  0.00  0.00     0.055 A 
ATOM      6  C5  BZF d   1       1.090  -0.890   0.872  0.00  0.00    -0.016 A 
ATOM      7  C6  BZF d   1       1.690  -1.901   0.150  0.00  0.00     0.022 A 
ATOM      8  C7  BZF d   1       0.978  -2.961  -0.304  0.00  0.00     0.029 A 
ATOM      9  C7A BZF d   1      -0.368  -2.972  -0.032  0.00  0.00     0.058 A 
ENDROOT
TORSDOF 0
ENDMDL
