MODEL 1
REMARK minimizedAffinity 3.64120579
REMARK minimizedRMSD -1
REMARK  0 active torsions:
REMARK  status: ('A' for Active; 'I' for Inactive)
ROOT
ATOM      1  O1  BZF d   1       2.111  -3.248  -0.031  0.00  0.00    -0.204 OA
ATOM      2  C2  BZF d   1       0.988  -3.867  -0.544  0.00  0.00     0.174 A 
ATOM      3  C3  BZF d   1      -0.116  -3.132  -0.302  0.00  0.00    -0.012 A 
ATOM      4  C3A BZF d   1       0.358  -1.936   0.325  0.00  0.00    -0.107 A 
ATOM      5  C4  BZF d   1      -0.261  -0.811   0.788  0.00  0.00     0.055 A 
ATOM      6  C5  BZF d   1       0.481   0.141   1.414  0.00  0.00    -0.016 A 
ATOM      7  C6  BZF d   1       1.841  -0.003   1.597  0.00  0.00     0.022 A 
ATOM      8  C7  BZF d   1       2.499  -1.099   1.149  0.00  0.00     0.029 A 
ATOM      9  C7A BZF d   1       1.758  -2.048   0.488  0.00  0.00     0.058 A 
ENDROOT
TORSDOF 0
ENDMDL
