MODEL 1
REMARK minimizedAffinity -0.969170153
REMARK minimizedRMSD -1
REMARK  0 active torsions:
REMARK  status: ('A' for Active; 'I' for Inactive)
ROOT
ATOM      1  O1  BZF d   1      -1.663  -1.226   0.501  0.00  0.00    -0.204 OA
ATOM      2  C2  BZF d   1      -1.789  -0.002   1.128  0.00  0.00     0.174 A 
ATOM      3  C3  BZF d   1      -0.578   0.505   1.435  0.00  0.00    -0.012 A 
ATOM      4  C3A BZF d   1       0.367  -0.420   0.888  0.00  0.00    -0.107 A 
ATOM      5  C4  BZF d   1       1.732  -0.457   0.853  0.00  0.00     0.055 A 
ATOM      6  C5  BZF d   1       2.349  -1.537   0.305  0.00  0.00    -0.016 A 
ATOM      7  C6  BZF d   1       1.634  -2.597  -0.213  0.00  0.00     0.022 A 
ATOM      8  C7  BZF d   1       0.278  -2.602  -0.206  0.00  0.00     0.029 A 
ATOM      9  C7A BZF d   1      -0.348  -1.498   0.318  0.00  0.00     0.058 A 
ENDROOT
TORSDOF 0
ENDMDL
