MODEL 1
REMARK minimizedAffinity 2.35823298
REMARK minimizedRMSD -1
REMARK  0 active torsions:
REMARK  status: ('A' for Active; 'I' for Inactive)
ROOT
ATOM      1  O1  BZF d   1       0.588  -0.998   1.725  0.00  0.00    -0.204 OA
ATOM      2  C2  BZF d   1       0.594  -2.139   0.947  0.00  0.00     0.174 A 
ATOM      3  C3  BZF d   1      -0.592  -2.299   0.324  0.00  0.00    -0.012 A 
ATOM      4  C3A BZF d   1      -1.356  -1.139   0.667  0.00  0.00    -0.107 A 
ATOM      5  C4  BZF d   1      -2.612  -0.712   0.340  0.00  0.00     0.055 A 
ATOM      6  C5  BZF d   1      -3.087   0.431   0.901  0.00  0.00    -0.016 A 
ATOM      7  C6  BZF d   1      -2.337   1.168   1.794  0.00  0.00     0.022 A 
ATOM      8  C7  BZF d   1      -1.085   0.787   2.144  0.00  0.00     0.029 A 
ATOM      9  C7A BZF d   1      -0.589  -0.350   1.554  0.00  0.00     0.058 A 
ENDROOT
TORSDOF 0
ENDMDL
