MODEL 1
REMARK minimizedAffinity 4.50577831
REMARK minimizedRMSD -1
REMARK  0 active torsions:
REMARK  status: ('A' for Active; 'I' for Inactive)
ROOT
ATOM      1  O1  BZF d   1      -0.325   6.000  -4.615  0.00  0.00    -0.204 OA
ATOM      2  C2  BZF d   1      -0.958   5.898  -3.391  0.00  0.00     0.174 A 
ATOM      3  C3  BZF d   1      -0.376   4.949  -2.630  0.00  0.00    -0.012 A 
ATOM      4  C3A BZF d   1       0.745   4.490  -3.391  0.00  0.00    -0.107 A 
ATOM      5  C4  BZF d   1       1.720   3.562  -3.160  0.00  0.00     0.055 A 
ATOM      6  C5  BZF d   1       2.626   3.299  -4.139  0.00  0.00    -0.016 A 
ATOM      7  C6  BZF d   1       2.583   3.940  -5.359  0.00  0.00     0.022 A 
ATOM      8  C7  BZF d   1       1.637   4.871  -5.633  0.00  0.00     0.029 A 
ATOM      9  C7A BZF d   1       0.740   5.163  -4.635  0.00  0.00     0.058 A 
ENDROOT
TORSDOF 0
ENDMDL
