MODEL 1
REMARK minimizedAffinity -2.86547375
REMARK minimizedRMSD -1
REMARK  0 active torsions:
REMARK  status: ('A' for Active; 'I' for Inactive)
ROOT
ATOM      1  O1  BZF d   1       2.316  -2.788  -0.734  0.00  0.00    -0.204 OA
ATOM      2  C2  BZF d   1       1.380  -3.732  -1.112  0.00  0.00     0.174 A 
ATOM      3  C3  BZF d   1       0.176  -3.455  -0.571  0.00  0.00    -0.012 A 
ATOM      4  C3A BZF d   1       0.350  -2.212   0.117  0.00  0.00    -0.107 A 
ATOM      5  C4  BZF d   1      -0.491  -1.413   0.839  0.00  0.00     0.055 A 
ATOM      6  C5  BZF d   1       0.010  -0.303   1.442  0.00  0.00    -0.016 A 
ATOM      7  C6  BZF d   1       1.344   0.035   1.349  0.00  0.00     0.022 A 
ATOM      8  C7  BZF d   1       2.215  -0.724   0.640  0.00  0.00     0.029 A 
ATOM      9  C7A BZF d   1       1.706  -1.829   0.002  0.00  0.00     0.058 A 
ENDROOT
TORSDOF 0
ENDMDL
