MODEL 1
REMARK minimizedAffinity 0.228279293
REMARK minimizedRMSD -1
REMARK  0 active torsions:
REMARK  status: ('A' for Active; 'I' for Inactive)
ROOT
ATOM      1  O1  BZF d   1      -1.623  -1.476   1.417  0.00  0.00    -0.204 OA
ATOM      2  C2  BZF d   1      -1.706  -0.298   2.134  0.00  0.00     0.174 A 
ATOM      3  C3  BZF d   1      -0.517   0.340   2.144  0.00  0.00    -0.012 A 
ATOM      4  C3A BZF d   1       0.339  -0.446   1.309  0.00  0.00    -0.107 A 
ATOM      5  C4  BZF d   1       1.640  -0.320   0.916  0.00  0.00     0.055 A 
ATOM      6  C5  BZF d   1       2.199  -1.298   0.156  0.00  0.00    -0.016 A 
ATOM      7  C6  BZF d   1       1.488  -2.418  -0.223  0.00  0.00     0.022 A 
ATOM      8  C7  BZF d   1       0.192  -2.586   0.139  0.00  0.00     0.029 A 
ATOM      9  C7A BZF d   1      -0.385  -1.582   0.879  0.00  0.00     0.058 A 
ENDROOT
TORSDOF 0
ENDMDL
