MODEL 1
REMARK minimizedAffinity 0.300128102
REMARK minimizedRMSD -1
REMARK  0 active torsions:
REMARK  status: ('A' for Active; 'I' for Inactive)
ROOT
ATOM      1  O1  BZF d   1       2.509  -2.465  -0.093  0.00  0.00    -0.204 OA
ATOM      2  C2  BZF d   1       1.763  -3.583  -0.416  0.00  0.00     0.174 A 
ATOM      3  C3  BZF d   1       0.455  -3.375  -0.163  0.00  0.00    -0.012 A 
ATOM      4  C3A BZF d   1       0.366  -2.011   0.263  0.00  0.00    -0.107 A 
ATOM      5  C4  BZF d   1      -0.674  -1.212   0.641  0.00  0.00     0.055 A 
ATOM      6  C5  BZF d   1      -0.415   0.051   1.070  0.00  0.00    -0.016 A 
ATOM      7  C6  BZF d   1       0.872   0.545   1.139  0.00  0.00     0.022 A 
ATOM      8  C7  BZF d   1       1.936  -0.209   0.770  0.00  0.00     0.029 A 
ATOM      9  C7A BZF d   1       1.674  -1.475   0.305  0.00  0.00     0.058 A 
ENDROOT
TORSDOF 0
ENDMDL
