MODEL 1
REMARK minimizedAffinity -0.093394652
REMARK minimizedRMSD -1
REMARK  0 active torsions:
REMARK  status: ('A' for Active; 'I' for Inactive)
ROOT
ATOM      1  O1  BZF d   1       0.702  -1.268   1.915  0.00  0.00    -0.204 OA
ATOM      2  C2  BZF d   1       0.571  -2.309   1.017  0.00  0.00     0.174 A 
ATOM      3  C3  BZF d   1      -0.611  -2.239   0.372  0.00  0.00    -0.012 A 
ATOM      4  C3A BZF d   1      -1.220  -1.029   0.833  0.00  0.00    -0.107 A 
ATOM      5  C4  BZF d   1      -2.400  -0.403   0.547  0.00  0.00     0.055 A 
ATOM      6  C5  BZF d   1      -2.729   0.727   1.225  0.00  0.00    -0.016 A 
ATOM      7  C6  BZF d   1      -1.907   1.255   2.199  0.00  0.00     0.022 A 
ATOM      8  C7  BZF d   1      -0.725   0.673   2.514  0.00  0.00     0.029 A 
ATOM      9  C7A BZF d   1      -0.374  -0.451   1.807  0.00  0.00     0.058 A 
ENDROOT
TORSDOF 0
ENDMDL
