MODEL 1
REMARK minimizedAffinity 4.37091637
REMARK minimizedRMSD -1
REMARK  0 active torsions:
REMARK  status: ('A' for Active; 'I' for Inactive)
ROOT
ATOM      1  O1  BZF d   1       2.148  -3.029  -0.371  0.00  0.00    -0.204 OA
ATOM      2  C2  BZF d   1       1.152  -3.890  -0.791  0.00  0.00     0.174 A 
ATOM      3  C3  BZF d   1      -0.061  -3.439  -0.412  0.00  0.00    -0.012 A 
ATOM      4  C3A BZF d   1       0.185  -2.173   0.208  0.00  0.00    -0.107 A 
ATOM      5  C4  BZF d   1      -0.627  -1.232   0.773  0.00  0.00     0.055 A 
ATOM      6  C5  BZF d   1      -0.065  -0.140   1.356  0.00  0.00    -0.016 A 
ATOM      7  C6  BZF d   1       1.302   0.040   1.395  0.00  0.00     0.022 A 
ATOM      8  C7  BZF d   1       2.147  -0.864   0.843  0.00  0.00     0.029 A 
ATOM      9  C7A BZF d   1       1.581  -1.953   0.225  0.00  0.00     0.058 A 
ENDROOT
TORSDOF 0
ENDMDL
