MODEL 1
REMARK minimizedAffinity 2.46641207
REMARK minimizedRMSD -1
REMARK  0 active torsions:
REMARK  status: ('A' for Active; 'I' for Inactive)
ROOT
ATOM      1  O1  BZF d   1       4.340  -1.977   0.256  0.00  0.00    -0.204 OA
ATOM      2  C2  BZF d   1       4.034  -0.762   0.837  0.00  0.00     0.174 A 
ATOM      3  C3  BZF d   1       2.701  -0.632   1.000  0.00  0.00    -0.012 A 
ATOM      4  C3A BZF d   1       2.147  -1.880   0.574  0.00  0.00    -0.107 A 
ATOM      5  C4  BZF d   1       0.873  -2.369   0.512  0.00  0.00     0.055 A 
ATOM      6  C5  BZF d   1       0.664  -3.601  -0.022  0.00  0.00    -0.016 A 
ATOM      7  C6  BZF d   1       1.702  -4.367  -0.509  0.00  0.00     0.022 A 
ATOM      8  C7  BZF d   1       2.983  -3.926  -0.466  0.00  0.00     0.029 A 
ATOM      9  C7A BZF d   1       3.202  -2.696   0.104  0.00  0.00     0.058 A 
ENDROOT
TORSDOF 0
ENDMDL
