MODEL 1
REMARK minimizedAffinity -2.38288665
REMARK minimizedRMSD -1
REMARK  1 active torsions:
REMARK  status: ('A' for Active; 'I' for Inactive)
REMARK    1  A    between atoms: C1_2  and  C2_3 
ROOT
ATOM      1  C2  UNL d   1      -2.218  -0.720   2.028  0.00  0.00    -0.073 A 
ATOM      2  C3  UNL d   1      -1.613  -1.510   3.011  0.00  0.00    -0.002 A 
ATOM      3  C4  UNL d   1      -0.306  -1.970   2.840  0.00  0.00     0.004 A 
ATOM      4  C5  UNL d   1       0.410  -1.639   1.691  0.00  0.00    -0.004 A 
ATOM      5  C6  UNL d   1      -0.173  -0.839   0.702  0.00  0.00    -0.075 A 
ATOM      6  C7  UNL d   1       0.584  -0.476  -0.542  0.00  0.00     0.076 C 
ATOM      7  C8  UNL d   1      -1.486  -0.384   0.879  0.00  0.00     0.001 A 
ENDROOT
BRANCH   1   8
ATOM      8  C1  UNL d   1      -3.626  -0.216   2.210  0.00  0.00     0.053 C 
ATOM      9  C   UNL d   1      -4.591  -0.850   1.221  0.00  0.00     0.018 C 
ENDBRANCH   1   8
TORSDOF 1
ENDMDL
