MODEL 1
REMARK minimizedAffinity -4.75936937
REMARK minimizedRMSD -1
REMARK  0 active torsions:
REMARK  status: ('A' for Active; 'I' for Inactive)
ROOT
ATOM      1  C1  BNZ d   1       0.001  -0.571   0.009  0.00  0.00     0.000 A 
ATOM      2  C2  BNZ d   1       0.363  -1.298  -1.093  0.00  0.00     0.000 A 
ATOM      3  C3  BNZ d   1       0.317  -2.664  -1.078  0.00  0.00     0.000 A 
ATOM      4  C4  BNZ d   1      -0.052  -3.302   0.051  0.00  0.00     0.000 A 
ATOM      5  C5  BNZ d   1      -0.411  -2.584   1.175  0.00  0.00     0.000 A 
ATOM      6  C6  BNZ d   1      -0.401  -1.208   1.143  0.00  0.00     0.000 A 
ENDROOT
TORSDOF 0
ENDMDL
