MODEL 1
REMARK minimizedAffinity -3.34762931
REMARK minimizedRMSD -1
REMARK  0 active torsions:
REMARK  status: ('A' for Active; 'I' for Inactive)
ROOT
ATOM      1  C1  BNZ d   1       0.691  -1.992  -0.690  0.00  0.00     0.000 A 
ATOM      2  C2  BNZ d   1       0.610  -0.628  -0.601  0.00  0.00     0.000 A 
ATOM      3  C3  BNZ d   1      -0.205  -0.033   0.321  0.00  0.00     0.000 A 
ATOM      4  C4  BNZ d   1      -0.968  -0.802   1.124  0.00  0.00     0.000 A 
ATOM      5  C5  BNZ d   1      -0.905  -2.178   1.040  0.00  0.00     0.000 A 
ATOM      6  C6  BNZ d   1      -0.054  -2.774   0.138  0.00  0.00     0.000 A 
ENDROOT
TORSDOF 0
ENDMDL
