MODEL 1
REMARK minimizedAffinity -3.73167157
REMARK minimizedRMSD -1
REMARK  0 active torsions:
REMARK  status: ('A' for Active; 'I' for Inactive)
ROOT
ATOM      1  C1  BNZ d   1       0.011  -1.102  -0.017  0.00  0.00     0.000 A 
ATOM      2  C2  BNZ d   1      -0.804  -0.461   0.878  0.00  0.00     0.000 A 
ATOM      3  C3  BNZ d   1      -1.153   0.847   0.693  0.00  0.00     0.000 A 
ATOM      4  C4  BNZ d   1      -0.657   1.523  -0.363  0.00  0.00     0.000 A 
ATOM      5  C5  BNZ d   1       0.173   0.893  -1.269  0.00  0.00     0.000 A 
ATOM      6  C6  BNZ d   1       0.492  -0.435  -1.101  0.00  0.00     0.000 A 
ENDROOT
TORSDOF 0
ENDMDL
