MODEL 1
REMARK minimizedAffinity -5.0452137
REMARK minimizedRMSD -1
REMARK  0 active torsions:
REMARK  status: ('A' for Active; 'I' for Inactive)
ROOT
ATOM      1  C1  BNZ d   1      -0.135   0.346   0.199  0.00  0.00     0.000 A 
ATOM      2  C2  BNZ d   1      -0.623  -0.456   1.196  0.00  0.00     0.000 A 
ATOM      3  C3  BNZ d   1      -0.817  -1.793   0.988  0.00  0.00     0.000 A 
ATOM      4  C4  BNZ d   1      -0.562  -2.318  -0.227  0.00  0.00     0.000 A 
ATOM      5  C5  BNZ d   1      -0.079  -1.521  -1.246  0.00  0.00     0.000 A 
ATOM      6  C6  BNZ d   1       0.152  -0.184  -1.022  0.00  0.00     0.000 A 
ENDROOT
TORSDOF 0
ENDMDL
