MODEL 1
REMARK minimizedAffinity -4.4390111
REMARK minimizedRMSD -1
REMARK  0 active torsions:
REMARK  status: ('A' for Active; 'I' for Inactive)
ROOT
ATOM      1  C1  BNZ d   1      -0.367  -2.273   0.825  0.00  0.00     0.000 A 
ATOM      2  C2  BNZ d   1      -0.006  -1.378  -0.146  0.00  0.00     0.000 A 
ATOM      3  C3  BNZ d   1      -0.170  -0.034   0.044  0.00  0.00     0.000 A 
ATOM      4  C4  BNZ d   1      -0.731   0.410   1.186  0.00  0.00     0.000 A 
ATOM      5  C5  BNZ d   1      -1.110  -0.480   2.172  0.00  0.00     0.000 A 
ATOM      6  C6  BNZ d   1      -0.907  -1.830   1.993  0.00  0.00     0.000 A 
ENDROOT
TORSDOF 0
ENDMDL
