MODEL 1
REMARK minimizedAffinity -4.65695906
REMARK minimizedRMSD -1
REMARK  0 active torsions:
REMARK  status: ('A' for Active; 'I' for Inactive)
ROOT
ATOM      1  C1  BNZ d   1       0.152  -1.371  -0.310  0.00  0.00     0.000 A 
ATOM      2  C2  BNZ d   1       0.378  -0.063   0.030  0.00  0.00     0.000 A 
ATOM      3  C3  BNZ d   1       0.119   0.386   1.295  0.00  0.00     0.000 A 
ATOM      4  C4  BNZ d   1      -0.402  -0.462   2.205  0.00  0.00     0.000 A 
ATOM      5  C5  BNZ d   1      -0.644  -1.780   1.875  0.00  0.00     0.000 A 
ATOM      6  C6  BNZ d   1      -0.346  -2.238   0.613  0.00  0.00     0.000 A 
ENDROOT
TORSDOF 0
ENDMDL
