MODEL 1
REMARK minimizedAffinity -2.59836102
REMARK minimizedRMSD -1
REMARK  0 active torsions:
REMARK  status: ('A' for Active; 'I' for Inactive)
ROOT
ATOM      1  C1  BNZ d   1       0.049  -1.518  -0.905  0.00  0.00     0.000 A 
ATOM      2  C2  BNZ d   1       0.280  -0.303  -0.318  0.00  0.00     0.000 A 
ATOM      3  C3  BNZ d   1      -0.166  -0.041   0.947  0.00  0.00     0.000 A 
ATOM      4  C4  BNZ d   1      -0.876  -0.978   1.607  0.00  0.00     0.000 A 
ATOM      5  C5  BNZ d   1      -1.126  -2.205   1.025  0.00  0.00     0.000 A 
ATOM      6  C6  BNZ d   1      -0.642  -2.479  -0.233  0.00  0.00     0.000 A 
ENDROOT
TORSDOF 0
ENDMDL
