MODEL 1
REMARK minimizedAffinity -4.32794237
REMARK minimizedRMSD -1
REMARK  0 active torsions:
REMARK  status: ('A' for Active; 'I' for Inactive)
ROOT
ATOM      1  C1  BNZ d   1      -0.772  -2.269   1.653  0.00  0.00     0.000 A 
ATOM      2  C2  BNZ d   1      -0.883  -0.975   2.090  0.00  0.00     0.000 A 
ATOM      3  C3  BNZ d   1      -0.598   0.071   1.258  0.00  0.00     0.000 A 
ATOM      4  C4  BNZ d   1      -0.166  -0.177   0.005  0.00  0.00     0.000 A 
ATOM      5  C5  BNZ d   1      -0.040  -1.476  -0.447  0.00  0.00     0.000 A 
ATOM      6  C6  BNZ d   1      -0.365  -2.526   0.380  0.00  0.00     0.000 A 
ENDROOT
TORSDOF 0
ENDMDL
