MODEL 1
REMARK minimizedAffinity -2.59831619
REMARK minimizedRMSD -1
REMARK  0 active torsions:
REMARK  status: ('A' for Active; 'I' for Inactive)
ROOT
ATOM      1  C1  BNZ d   1       0.028  -0.024  -1.725  0.00  0.00     0.000 A 
ATOM      2  C2  BNZ d   1       0.317  -1.165  -1.024  0.00  0.00     0.000 A 
ATOM      3  C3  BNZ d   1       0.576  -1.116   0.317  0.00  0.00     0.000 A 
ATOM      4  C4  BNZ d   1       0.586   0.076   0.947  0.00  0.00     0.000 A 
ATOM      5  C5  BNZ d   1       0.306   1.236   0.252  0.00  0.00     0.000 A 
ATOM      6  C6  BNZ d   1       0.007   1.179  -1.090  0.00  0.00     0.000 A 
ENDROOT
TORSDOF 0
ENDMDL
