MODEL 1
REMARK minimizedAffinity -3.43205976
REMARK minimizedRMSD -1
REMARK  0 active torsions:
REMARK  status: ('A' for Active; 'I' for Inactive)
ROOT
ATOM      1  C1  BNZ d   1      -0.169  -2.160  -0.060  0.00  0.00     0.000 A 
ATOM      2  C2  BNZ d   1       0.224  -1.287  -1.040  0.00  0.00     0.000 A 
ATOM      3  C3  BNZ d   1       0.229   0.061  -0.816  0.00  0.00     0.000 A 
ATOM      4  C4  BNZ d   1      -0.196   0.537   0.373  0.00  0.00     0.000 A 
ATOM      5  C5  BNZ d   1      -0.604  -0.329   1.367  0.00  0.00     0.000 A 
ATOM      6  C6  BNZ d   1      -0.571  -1.688   1.151  0.00  0.00     0.000 A 
ENDROOT
TORSDOF 0
ENDMDL
