MODEL 1
REMARK minimizedAffinity -4.60013676
REMARK minimizedRMSD -1
REMARK  0 active torsions:
REMARK  status: ('A' for Active; 'I' for Inactive)
ROOT
ATOM      1  C1  BNZ d   1       0.749  -2.005  -0.595  0.00  0.00     0.000 A 
ATOM      2  C2  BNZ d   1       0.644  -0.641  -0.647  0.00  0.00     0.000 A 
ATOM      3  C3  BNZ d   1      -0.100   0.040   0.276  0.00  0.00     0.000 A 
ATOM      4  C4  BNZ d   1      -0.771  -0.646   1.223  0.00  0.00     0.000 A 
ATOM      5  C5  BNZ d   1      -0.683  -2.023   1.283  0.00  0.00     0.000 A 
ATOM      6  C6  BNZ d   1       0.098  -2.702   0.376  0.00  0.00     0.000 A 
ENDROOT
TORSDOF 0
ENDMDL
