MODEL 1
REMARK minimizedAffinity -4.02054596
REMARK minimizedRMSD -1
REMARK  0 active torsions:
REMARK  status: ('A' for Active; 'I' for Inactive)
ROOT
ATOM      1  C1  BNZ d   1       1.093  -1.911  -0.549  0.00  0.00     0.000 A 
ATOM      2  C2  BNZ d   1       0.779  -0.579  -0.593  0.00  0.00     0.000 A 
ATOM      3  C3  BNZ d   1      -0.170  -0.056   0.241  0.00  0.00     0.000 A 
ATOM      4  C4  BNZ d   1      -0.831  -0.872   1.088  0.00  0.00     0.000 A 
ATOM      5  C5  BNZ d   1      -0.532  -2.219   1.137  0.00  0.00     0.000 A 
ATOM      6  C6  BNZ d   1       0.451  -2.735   0.324  0.00  0.00     0.000 A 
ENDROOT
TORSDOF 0
ENDMDL
