MODEL 1
REMARK minimizedAffinity -4.95862389
REMARK minimizedRMSD -1
REMARK  0 active torsions:
REMARK  status: ('A' for Active; 'I' for Inactive)
ROOT
ATOM      1  C1  BNZ d   1      -0.610  -0.496   1.124  0.00  0.00     0.000 A 
ATOM      2  C2  BNZ d   1      -0.118   0.359   0.173  0.00  0.00     0.000 A 
ATOM      3  C3  BNZ d   1       0.477  -0.121  -0.960  0.00  0.00     0.000 A 
ATOM      4  C4  BNZ d   1       0.616  -1.453  -1.122  0.00  0.00     0.000 A 
ATOM      5  C5  BNZ d   1       0.133  -2.327  -0.169  0.00  0.00     0.000 A 
ATOM      6  C6  BNZ d   1      -0.500  -1.841   0.952  0.00  0.00     0.000 A 
ENDROOT
TORSDOF 0
ENDMDL
