MODEL 1
REMARK minimizedAffinity -2.74402905
REMARK minimizedRMSD -1
REMARK  0 active torsions:
REMARK  status: ('A' for Active; 'I' for Inactive)
ROOT
ATOM      1  C1  BNZ d   1       0.384  -0.603  -0.578  0.00  0.00     0.000 A 
ATOM      2  C2  BNZ d   1       0.299  -1.969  -0.544  0.00  0.00     0.000 A 
ATOM      3  C3  BNZ d   1      -0.450  -2.601   0.409  0.00  0.00     0.000 A 
ATOM      4  C4  BNZ d   1      -1.080  -1.868   1.350  0.00  0.00     0.000 A 
ATOM      5  C5  BNZ d   1      -0.997  -0.490   1.335  0.00  0.00     0.000 A 
ATOM      6  C6  BNZ d   1      -0.274   0.144   0.351  0.00  0.00     0.000 A 
ENDROOT
TORSDOF 0
ENDMDL
