MODEL 1
REMARK minimizedAffinity 12.26612
REMARK minimizedRMSD -1
REMARK  0 active torsions:
REMARK  status: ('A' for Active; 'I' for Inactive)
ROOT
ATOM      1  O1  BZF d   1      -3.666  -1.938   5.956  0.00  0.00    -0.204 OA
ATOM      2  C2  BZF d   1      -3.715  -3.051   5.139  0.00  0.00     0.174 A 
ATOM      3  C3  BZF d   1      -3.786  -2.688   3.842  0.00  0.00    -0.012 A 
ATOM      4  C3A BZF d   1      -3.688  -1.261   3.844  0.00  0.00    -0.107 A 
ATOM      5  C4  BZF d   1      -3.682  -0.319   2.855  0.00  0.00     0.055 A 
ATOM      6  C5  BZF d   1      -3.647   0.996   3.196  0.00  0.00    -0.016 A 
ATOM      7  C6  BZF d   1      -3.622   1.404   4.514  0.00  0.00     0.022 A 
ATOM      8  C7  BZF d   1      -3.622   0.506   5.529  0.00  0.00     0.029 A 
ATOM      9  C7A BZF d   1      -3.624  -0.824   5.187  0.00  0.00     0.058 A 
ENDROOT
TORSDOF 0
ENDMDL
