MODEL 1
REMARK minimizedAffinity 11.2168961
REMARK minimizedRMSD -1
REMARK  0 active torsions:
REMARK  status: ('A' for Active; 'I' for Inactive)
ROOT
ATOM      1  O1  BZF d   1       4.604   0.345   0.636  0.00  0.00    -0.204 OA
ATOM      2  C2  BZF d   1       4.094   1.580   0.284  0.00  0.00     0.174 A 
ATOM      3  C3  BZF d   1       3.025   1.444  -0.526  0.00  0.00    -0.012 A 
ATOM      4  C3A BZF d   1       2.800   0.034  -0.617  0.00  0.00    -0.107 A 
ATOM      5  C4  BZF d   1       1.870  -0.729  -1.266  0.00  0.00     0.055 A 
ATOM      6  C5  BZF d   1       1.972  -2.083  -1.210  0.00  0.00    -0.016 A 
ATOM      7  C6  BZF d   1       2.991  -2.707  -0.521  0.00  0.00     0.022 A 
ATOM      8  C7  BZF d   1       3.933  -1.993   0.142  0.00  0.00     0.029 A 
ATOM      9  C7A BZF d   1       3.814  -0.625   0.115  0.00  0.00     0.058 A 
ENDROOT
TORSDOF 0
ENDMDL
