MODEL 1
REMARK minimizedAffinity 11.4154491
REMARK minimizedRMSD -1
REMARK  0 active torsions:
REMARK  status: ('A' for Active; 'I' for Inactive)
ROOT
ATOM      1  O1  BZF d   1      -3.618  -1.438   5.815  0.00  0.00    -0.204 OA
ATOM      2  C2  BZF d   1      -3.800  -2.465   4.909  0.00  0.00     0.174 A 
ATOM      3  C3  BZF d   1      -3.882  -1.984   3.651  0.00  0.00    -0.012 A 
ATOM      4  C3A BZF d   1      -3.651  -0.577   3.770  0.00  0.00    -0.107 A 
ATOM      5  C4  BZF d   1      -3.591   0.444   2.865  0.00  0.00     0.055 A 
ATOM      6  C5  BZF d   1      -3.421   1.715   3.315  0.00  0.00    -0.016 A 
ATOM      7  C6  BZF d   1      -3.313   2.002   4.660  0.00  0.00     0.022 A 
ATOM      8  C7  BZF d   1      -3.361   1.021   5.594  0.00  0.00     0.029 A 
ATOM      9  C7A BZF d   1      -3.500  -0.268   5.141  0.00  0.00     0.058 A 
ENDROOT
TORSDOF 0
ENDMDL
