MODEL 1
REMARK minimizedAffinity 26.4859505
REMARK minimizedRMSD -1
REMARK  0 active torsions:
REMARK  status: ('A' for Active; 'I' for Inactive)
ROOT
ATOM      1  O1  BZF d   1       4.828   0.581   0.785  0.00  0.00    -0.204 OA
ATOM      2  C2  BZF d   1       4.276   1.809   0.476  0.00  0.00     0.174 A 
ATOM      3  C3  BZF d   1       3.114   1.657  -0.191  0.00  0.00    -0.012 A 
ATOM      4  C3A BZF d   1       2.881   0.246  -0.225  0.00  0.00    -0.107 A 
ATOM      5  C4  BZF d   1       1.879  -0.528  -0.737  0.00  0.00     0.055 A 
ATOM      6  C5  BZF d   1       1.989  -1.881  -0.668  0.00  0.00    -0.016 A 
ATOM      7  C6  BZF d   1       3.088  -2.492  -0.100  0.00  0.00     0.022 A 
ATOM      8  C7  BZF d   1       4.104  -1.766   0.426  0.00  0.00     0.029 A 
ATOM      9  C7A BZF d   1       3.981  -0.398   0.387  0.00  0.00     0.058 A 
ENDROOT
TORSDOF 0
ENDMDL
