MODEL 1
REMARK minimizedAffinity 14.2567663
REMARK minimizedRMSD -1
REMARK  0 active torsions:
REMARK  status: ('A' for Active; 'I' for Inactive)
ROOT
ATOM      1  O1  BZF d   1       4.923   0.558   0.289  0.00  0.00    -0.204 OA
ATOM      2  C2  BZF d   1       4.536   1.840  -0.050  0.00  0.00     0.174 A 
ATOM      3  C3  BZF d   1       3.401   1.821  -0.777  0.00  0.00    -0.012 A 
ATOM      4  C3A BZF d   1       3.006   0.446  -0.822  0.00  0.00    -0.107 A 
ATOM      5  C4  BZF d   1       1.948  -0.209  -1.385  0.00  0.00     0.055 A 
ATOM      6  C5  BZF d   1       1.894  -1.564  -1.308  0.00  0.00    -0.016 A 
ATOM      7  C6  BZF d   1       2.882  -2.296  -0.682  0.00  0.00     0.022 A 
ATOM      8  C7  BZF d   1       3.948  -1.690  -0.105  0.00  0.00     0.029 A 
ATOM      9  C7A BZF d   1       3.988  -0.318  -0.152  0.00  0.00     0.058 A 
ENDROOT
TORSDOF 0
ENDMDL
