MODEL 1
REMARK minimizedAffinity 8.44971848
REMARK minimizedRMSD -1
REMARK  0 active torsions:
REMARK  status: ('A' for Active; 'I' for Inactive)
ROOT
ATOM      1  O1  BZF d   1      -2.528   2.459  -6.000  0.00  0.00    -0.204 OA
ATOM      2  C2  BZF d   1      -1.784   1.667  -5.148  0.00  0.00     0.174 A 
ATOM      3  C3  BZF d   1      -1.284   2.397  -4.130  0.00  0.00    -0.012 A 
ATOM      4  C3A BZF d   1      -1.822   3.711  -4.309  0.00  0.00    -0.107 A 
ATOM      5  C4  BZF d   1      -1.705   4.877  -3.609  0.00  0.00     0.055 A 
ATOM      6  C5  BZF d   1      -2.299   6.000  -4.092  0.00  0.00    -0.016 A 
ATOM      7  C6  BZF d   1      -3.012   5.994  -5.273  0.00  0.00     0.022 A 
ATOM      8  C7  BZF d   1      -3.161   4.859  -6.000  0.00  0.00     0.029 A 
ATOM      9  C7A BZF d   1      -2.589   3.716  -5.497  0.00  0.00     0.058 A 
ENDROOT
TORSDOF 0
ENDMDL
