MODEL 1
REMARK minimizedAffinity 15.5925827
REMARK minimizedRMSD -1
REMARK  0 active torsions:
REMARK  status: ('A' for Active; 'I' for Inactive)
ROOT
ATOM      1  O1  BZF d   1       2.904   0.996  -1.185  0.00  0.00    -0.204 OA
ATOM      2  C2  BZF d   1       3.952   1.306  -0.340  0.00  0.00     0.174 A 
ATOM      3  C3  BZF d   1       4.401   0.201   0.289  0.00  0.00    -0.012 A 
ATOM      4  C3A BZF d   1       3.644  -0.880  -0.262  0.00  0.00    -0.107 A 
ATOM      5  C4  BZF d   1       3.643  -2.230  -0.051  0.00  0.00     0.055 A 
ATOM      6  C5  BZF d   1       2.728  -2.999  -0.698  0.00  0.00    -0.016 A 
ATOM      7  C6  BZF d   1       1.798  -2.452  -1.557  0.00  0.00     0.022 A 
ATOM      8  C7  BZF d   1       1.763  -1.120  -1.802  0.00  0.00     0.029 A 
ATOM      9  C7A BZF d   1       2.707  -0.344  -1.176  0.00  0.00     0.058 A 
ENDROOT
TORSDOF 0
ENDMDL
