MODEL 1
REMARK minimizedAffinity 20.5635509
REMARK minimizedRMSD -1
REMARK  0 active torsions:
REMARK  status: ('A' for Active; 'I' for Inactive)
ROOT
ATOM      1  O1  BZF d   1      -3.213   1.401   2.143  0.00  0.00    -0.204 OA
ATOM      2  C2  BZF d   1      -3.664   0.450   3.038  0.00  0.00     0.174 A 
ATOM      3  C3  BZF d   1      -2.629  -0.164   3.647  0.00  0.00    -0.012 A 
ATOM      4  C3A BZF d   1      -1.459   0.505   3.166  0.00  0.00    -0.107 A 
ATOM      5  C4  BZF d   1      -0.125   0.360   3.416  0.00  0.00     0.055 A 
ATOM      6  C5  BZF d   1       0.763   1.123   2.726  0.00  0.00    -0.016 A 
ATOM      7  C6  BZF d   1       0.353   2.036   1.777  0.00  0.00     0.022 A 
ATOM      8  C7  BZF d   1      -0.960   2.219   1.498  0.00  0.00     0.029 A 
ATOM      9  C7A BZF d   1      -1.862   1.473   2.217  0.00  0.00     0.058 A 
ENDROOT
TORSDOF 0
ENDMDL
