MODEL 1
REMARK minimizedAffinity 6.62487078
REMARK minimizedRMSD -1
REMARK  0 active torsions:
REMARK  status: ('A' for Active; 'I' for Inactive)
ROOT
ATOM      1  O1  BZF d   1       4.574   0.619   0.935  0.00  0.00    -0.204 OA
ATOM      2  C2  BZF d   1       4.301   1.791   0.255  0.00  0.00     0.174 A 
ATOM      3  C3  BZF d   1       3.495   1.555  -0.800  0.00  0.00    -0.012 A 
ATOM      4  C3A BZF d   1       3.174   0.163  -0.726  0.00  0.00    -0.107 A 
ATOM      5  C4  BZF d   1       2.398  -0.664  -1.487  0.00  0.00     0.055 A 
ATOM      6  C5  BZF d   1       2.353  -1.988  -1.187  0.00  0.00    -0.016 A 
ATOM      7  C6  BZF d   1       3.074  -2.520  -0.138  0.00  0.00     0.022 A 
ATOM      8  C7  BZF d   1       3.854  -1.739   0.648  0.00  0.00     0.029 A 
ATOM      9  C7A BZF d   1       3.876  -0.395   0.368  0.00  0.00     0.058 A 
ENDROOT
TORSDOF 0
ENDMDL
