MODEL 1
REMARK minimizedAffinity 21.1822071
REMARK minimizedRMSD -1
REMARK  0 active torsions:
REMARK  status: ('A' for Active; 'I' for Inactive)
ROOT
ATOM      1  O1  BZF d   1       1.807  -1.534  -0.784  0.00  0.00    -0.204 OA
ATOM      2  C2  BZF d   1       2.687  -0.492  -1.006  0.00  0.00     0.174 A 
ATOM      3  C3  BZF d   1       3.949  -0.859  -0.700  0.00  0.00    -0.012 A 
ATOM      4  C3A BZF d   1       3.863  -2.243  -0.347  0.00  0.00    -0.107 A 
ATOM      5  C4  BZF d   1       4.787  -3.173   0.036  0.00  0.00     0.055 A 
ATOM      6  C5  BZF d   1       4.366  -4.418   0.380  0.00  0.00    -0.016 A 
ATOM      7  C6  BZF d   1       3.032  -4.767   0.357  0.00  0.00     0.022 A 
ATOM      8  C7  BZF d   1       2.079  -3.880  -0.022  0.00  0.00     0.029 A 
ATOM      9  C7A BZF d   1       2.504  -2.630  -0.402  0.00  0.00     0.058 A 
ENDROOT
TORSDOF 0
ENDMDL
