MODEL 1
REMARK minimizedAffinity 6.08601618
REMARK minimizedRMSD -1
REMARK  0 active torsions:
REMARK  status: ('A' for Active; 'I' for Inactive)
ROOT
ATOM      1  O1  BZF d   1       4.708  -2.844   0.801  0.00  0.00    -0.204 OA
ATOM      2  C2  BZF d   1       4.048  -3.945   0.290  0.00  0.00     0.174 A 
ATOM      3  C3  BZF d   1       3.019  -3.564  -0.493  0.00  0.00    -0.012 A 
ATOM      4  C3A BZF d   1       3.093  -2.136  -0.545  0.00  0.00    -0.107 A 
ATOM      5  C4  BZF d   1       2.352  -1.180  -1.178  0.00  0.00     0.055 A 
ATOM      6  C5  BZF d   1       2.642   0.130  -0.963  0.00  0.00    -0.016 A 
ATOM      7  C6  BZF d   1       3.661   0.519  -0.119  0.00  0.00     0.022 A 
ATOM      8  C7  BZF d   1       4.427  -0.393   0.527  0.00  0.00     0.029 A 
ATOM      9  C7A BZF d   1       4.158  -1.719   0.287  0.00  0.00     0.058 A 
ENDROOT
TORSDOF 0
ENDMDL
