MODEL 1
REMARK minimizedAffinity 17.8702087
REMARK minimizedRMSD -1
REMARK  0 active torsions:
REMARK  status: ('A' for Active; 'I' for Inactive)
ROOT
ATOM      1  O1  BZF d   1       0.413   0.264   2.909  0.00  0.00    -0.204 OA
ATOM      2  C2  BZF d   1      -0.629   0.778   2.162  0.00  0.00     0.174 A 
ATOM      3  C3  BZF d   1      -1.165   1.857   2.767  0.00  0.00    -0.012 A 
ATOM      4  C3A BZF d   1      -0.351   2.084   3.922  0.00  0.00    -0.107 A 
ATOM      5  C4  BZF d   1      -0.370   3.021   4.915  0.00  0.00     0.055 A 
ATOM      6  C5  BZF d   1       0.520   2.919   5.937  0.00  0.00    -0.016 A 
ATOM      7  C6  BZF d   1       1.438   1.891   6.000  0.00  0.00     0.022 A 
ATOM      8  C7  BZF d   1       1.499   0.941   5.036  0.00  0.00     0.029 A 
ATOM      9  C7A BZF d   1       0.622   1.060   3.985  0.00  0.00     0.058 A 
ENDROOT
TORSDOF 0
ENDMDL
