MODEL 1
REMARK minimizedAffinity 18.5521431
REMARK minimizedRMSD -1
REMARK  0 active torsions:
REMARK  status: ('A' for Active; 'I' for Inactive)
ROOT
ATOM      1  O1  BZF d   1      -5.022  -1.119   2.969  0.00  0.00    -0.204 OA
ATOM      2  C2  BZF d   1      -4.720  -2.315   2.347  0.00  0.00     0.174 A 
ATOM      3  C3  BZF d   1      -3.477  -2.283   1.825  0.00  0.00    -0.012 A 
ATOM      4  C3A BZF d   1      -2.935  -1.019   2.221  0.00  0.00    -0.107 A 
ATOM      5  C4  BZF d   1      -1.729  -0.411   2.021  0.00  0.00     0.055 A 
ATOM      6  C5  BZF d   1      -1.545   0.856   2.478  0.00  0.00    -0.016 A 
ATOM      7  C6  BZF d   1      -2.545   1.544   3.133  0.00  0.00     0.022 A 
ATOM      8  C7  BZF d   1      -3.756   0.980   3.359  0.00  0.00     0.029 A 
ATOM      9  C7A BZF d   1      -3.935  -0.312   2.928  0.00  0.00     0.058 A 
ENDROOT
TORSDOF 0
ENDMDL
