MODEL 1
REMARK minimizedAffinity 20.9850006
REMARK minimizedRMSD -1
REMARK  0 active torsions:
REMARK  status: ('A' for Active; 'I' for Inactive)
ROOT
ATOM      1  O1  BZF d   1      -2.564  -0.147   1.375  0.00  0.00    -0.204 OA
ATOM      2  C2  BZF d   1      -3.637   0.337   2.097  0.00  0.00     0.174 A 
ATOM      3  C3  BZF d   1      -3.217   0.970   3.212  0.00  0.00    -0.012 A 
ATOM      4  C3A BZF d   1      -1.789   0.955   3.138  0.00  0.00    -0.107 A 
ATOM      5  C4  BZF d   1      -0.801   1.444   3.945  0.00  0.00     0.055 A 
ATOM      6  C5  BZF d   1       0.496   1.198   3.625  0.00  0.00    -0.016 A 
ATOM      7  C6  BZF d   1       0.842   0.464   2.509  0.00  0.00     0.022 A 
ATOM      8  C7  BZF d   1      -0.102  -0.037   1.675  0.00  0.00     0.029 A 
ATOM      9  C7A BZF d   1      -1.413   0.238   1.978  0.00  0.00     0.058 A 
ENDROOT
TORSDOF 0
ENDMDL
