MODEL 1
REMARK minimizedAffinity 15.5974731
REMARK minimizedRMSD -1
REMARK  0 active torsions:
REMARK  status: ('A' for Active; 'I' for Inactive)
ROOT
ATOM      1  O1  BZF d   1      -5.526  -1.056   1.136  0.00  0.00    -0.204 OA
ATOM      2  C2  BZF d   1      -6.000  -2.305   1.490  0.00  0.00     0.174 A 
ATOM      3  C3  BZF d   1      -5.509  -2.681   2.688  0.00  0.00    -0.012 A 
ATOM      4  C3A BZF d   1      -4.750  -1.560   3.153  0.00  0.00    -0.107 A 
ATOM      5  C4  BZF d   1      -4.033  -1.318   4.290  0.00  0.00     0.055 A 
ATOM      6  C5  BZF d   1      -3.349  -0.149   4.402  0.00  0.00    -0.016 A 
ATOM      7  C6  BZF d   1      -3.355   0.795   3.397  0.00  0.00     0.022 A 
ATOM      8  C7  BZF d   1      -4.055   0.602   2.253  0.00  0.00     0.029 A 
ATOM      9  C7A BZF d   1      -4.774  -0.564   2.150  0.00  0.00     0.058 A 
ENDROOT
TORSDOF 0
ENDMDL
