MODEL 1
REMARK minimizedAffinity 14.7739401
REMARK minimizedRMSD -1
REMARK  0 active torsions:
REMARK  status: ('A' for Active; 'I' for Inactive)
ROOT
ATOM      1  O1  BZF d   1       0.746   0.473   4.645  0.00  0.00    -0.204 OA
ATOM      2  C2  BZF d   1       0.358   0.926   5.891  0.00  0.00     0.174 A 
ATOM      3  C3  BZF d   1      -0.884   1.451   5.843  0.00  0.00    -0.012 A 
ATOM      4  C3A BZF d   1      -1.333   1.233   4.502  0.00  0.00    -0.107 A 
ATOM      5  C4  BZF d   1      -2.495   1.519   3.843  0.00  0.00     0.055 A 
ATOM      6  C5  BZF d   1      -2.587   1.240   2.517  0.00  0.00    -0.016 A 
ATOM      7  C6  BZF d   1      -1.537   0.682   1.817  0.00  0.00     0.022 A 
ATOM      8  C7  BZF d   1      -0.366   0.377   2.429  0.00  0.00     0.029 A 
ATOM      9  C7A BZF d   1      -0.282   0.627   3.777  0.00  0.00     0.058 A 
ENDROOT
TORSDOF 0
ENDMDL
