MODEL 1
REMARK minimizedAffinity 10.7251663
REMARK minimizedRMSD -1
REMARK  0 active torsions:
REMARK  status: ('A' for Active; 'I' for Inactive)
ROOT
ATOM      1  O1  BZF d   1      -3.130   1.873   3.087  0.00  0.00    -0.204 OA
ATOM      2  C2  BZF d   1      -3.914   0.757   2.868  0.00  0.00     0.174 A 
ATOM      3  C3  BZF d   1      -3.149  -0.343   2.720  0.00  0.00    -0.012 A 
ATOM      4  C3A BZF d   1      -1.807   0.098   2.947  0.00  0.00    -0.107 A 
ATOM      5  C4  BZF d   1      -0.598  -0.538   2.955  0.00  0.00     0.055 A 
ATOM      6  C5  BZF d   1       0.532   0.194   3.138  0.00  0.00    -0.016 A 
ATOM      7  C6  BZF d   1       0.491   1.562   3.311  0.00  0.00     0.022 A 
ATOM      8  C7  BZF d   1      -0.685   2.236   3.316  0.00  0.00     0.029 A 
ATOM      9  C7A BZF d   1      -1.831   1.495   3.164  0.00  0.00     0.058 A 
ENDROOT
TORSDOF 0
ENDMDL
