MODEL 1
REMARK minimizedAffinity -2.71756196
REMARK minimizedRMSD -1
REMARK  0 active torsions:
REMARK  status: ('A' for Active; 'I' for Inactive)
ROOT
ATOM      1  C   UNL d   1       1.114  -1.203   1.941  0.00  0.00     0.078 C 
ATOM      2  C1  UNL d   1       1.135   0.047   1.114  0.00  0.00    -0.077 A 
ATOM      3  C2  UNL d   1      -0.053   0.622   0.645  0.00  0.00    -0.001 A 
ATOM      4  C3  UNL d   1      -0.018   1.780  -0.133  0.00  0.00     0.003 A 
ATOM      5  C4  UNL d   1       1.202   2.374  -0.449  0.00  0.00    -0.005 A 
ATOM      6  C5  UNL d   1       2.389   1.809   0.011  0.00  0.00     0.003 A 
ATOM      7  C6  UNL d   1       2.356   0.650   0.789  0.00  0.00    -0.001 A 
ENDROOT
TORSDOF 0
ENDMDL
