MODEL 1
REMARK minimizedAffinity -1.40484583
REMARK minimizedRMSD -1
REMARK  0 active torsions:
REMARK  status: ('A' for Active; 'I' for Inactive)
ROOT
ATOM      1  C   UNL d   1       1.103  -2.624   4.543  0.00  0.00     0.078 C 
ATOM      2  C1  UNL d   1       1.116  -1.711   3.354  0.00  0.00    -0.077 A 
ATOM      3  C2  UNL d   1       0.427  -2.044   2.181  0.00  0.00    -0.001 A 
ATOM      4  C3  UNL d   1       0.456  -1.189   1.078  0.00  0.00     0.003 A 
ATOM      5  C4  UNL d   1       1.174   0.004   1.136  0.00  0.00    -0.005 A 
ATOM      6  C5  UNL d   1       1.865   0.342   2.298  0.00  0.00     0.003 A 
ATOM      7  C6  UNL d   1       1.837  -0.511   3.402  0.00  0.00    -0.001 A 
ENDROOT
TORSDOF 0
ENDMDL
