MODEL 1
REMARK minimizedAffinity 3.99610305
REMARK minimizedRMSD -1
REMARK  0 active torsions:
REMARK  status: ('A' for Active; 'I' for Inactive)
ROOT
ATOM      1  C   UNL d   1       0.340  -2.227   0.397  0.00  0.00     0.078 C 
ATOM      2  C1  UNL d   1       0.945  -1.748   1.682  0.00  0.00    -0.077 A 
ATOM      3  C2  UNL d   1       1.479  -0.458   1.792  0.00  0.00    -0.001 A 
ATOM      4  C3  UNL d   1       2.048  -0.029   2.992  0.00  0.00     0.003 A 
ATOM      5  C4  UNL d   1       2.090  -0.884   4.091  0.00  0.00    -0.005 A 
ATOM      6  C5  UNL d   1       1.563  -2.170   3.991  0.00  0.00     0.003 A 
ATOM      7  C6  UNL d   1       0.994  -2.601   2.792  0.00  0.00    -0.001 A 
ENDROOT
TORSDOF 0
ENDMDL
