MODEL 1
REMARK minimizedAffinity 2.071558
REMARK minimizedRMSD -1
REMARK  0 active torsions:
REMARK  status: ('A' for Active; 'I' for Inactive)
ROOT
ATOM      1  C   UNL d   1      -4.408   2.328  -2.606  0.00  0.00     0.078 C 
ATOM      2  C1  UNL d   1      -4.516   2.289  -1.111  0.00  0.00    -0.077 A 
ATOM      3  C2  UNL d   1      -3.508   2.827  -0.301  0.00  0.00    -0.001 A 
ATOM      4  C3  UNL d   1      -3.617   2.775   1.089  0.00  0.00     0.003 A 
ATOM      5  C4  UNL d   1      -4.732   2.186   1.682  0.00  0.00    -0.005 A 
ATOM      6  C5  UNL d   1      -5.739   1.646   0.885  0.00  0.00     0.003 A 
ATOM      7  C6  UNL d   1      -5.632   1.697  -0.506  0.00  0.00    -0.001 A 
ENDROOT
TORSDOF 0
ENDMDL
