MODEL 1
REMARK minimizedAffinity 4.61498642
REMARK minimizedRMSD -1
REMARK  0 active torsions:
REMARK  status: ('A' for Active; 'I' for Inactive)
ROOT
ATOM      1  C   UNL d   1       4.009  -1.291  -2.501  0.00  0.00     0.078 C 
ATOM      2  C1  UNL d   1       2.746  -2.022  -2.154  0.00  0.00    -0.077 A 
ATOM      3  C2  UNL d   1       1.514  -1.358  -2.123  0.00  0.00    -0.001 A 
ATOM      4  C3  UNL d   1       0.348  -2.049  -1.788  0.00  0.00     0.003 A 
ATOM      5  C4  UNL d   1       0.403  -3.407  -1.480  0.00  0.00    -0.005 A 
ATOM      6  C5  UNL d   1       1.625  -4.075  -1.506  0.00  0.00     0.003 A 
ATOM      7  C6  UNL d   1       2.792  -3.386  -1.841  0.00  0.00    -0.001 A 
ENDROOT
TORSDOF 0
ENDMDL
