MODEL 1
REMARK minimizedAffinity 3.83145261
REMARK minimizedRMSD -1
REMARK  0 active torsions:
REMARK  status: ('A' for Active; 'I' for Inactive)
ROOT
ATOM      1  C   UNL d   1       1.346  -3.425  -0.849  0.00  0.00     0.078 C 
ATOM      2  C1  UNL d   1       1.461  -2.844   0.529  0.00  0.00    -0.077 A 
ATOM      3  C2  UNL d   1       1.346  -1.464   0.741  0.00  0.00    -0.001 A 
ATOM      4  C3  UNL d   1       1.464  -0.936   2.027  0.00  0.00     0.003 A 
ATOM      5  C4  UNL d   1       1.699  -1.779   3.111  0.00  0.00    -0.005 A 
ATOM      6  C5  UNL d   1       1.817  -3.153   2.910  0.00  0.00     0.003 A 
ATOM      7  C6  UNL d   1       1.699  -3.683   1.624  0.00  0.00    -0.001 A 
ENDROOT
TORSDOF 0
ENDMDL
