MODEL 1
REMARK minimizedAffinity 5.46924257
REMARK minimizedRMSD -1
REMARK  0 active torsions:
REMARK  status: ('A' for Active; 'I' for Inactive)
ROOT
ATOM      1  C   UNL d   1       0.627  -3.651  -0.568  0.00  0.00     0.078 C 
ATOM      2  C1  UNL d   1       0.900  -2.857   0.674  0.00  0.00    -0.077 A 
ATOM      3  C2  UNL d   1       0.866  -1.457   0.658  0.00  0.00    -0.001 A 
ATOM      4  C3  UNL d   1       1.131  -0.731   1.820  0.00  0.00     0.003 A 
ATOM      5  C4  UNL d   1       1.435  -1.396   3.007  0.00  0.00    -0.005 A 
ATOM      6  C5  UNL d   1       1.474  -2.788   3.032  0.00  0.00     0.003 A 
ATOM      7  C6  UNL d   1       1.208  -3.516   1.871  0.00  0.00    -0.001 A 
ENDROOT
TORSDOF 0
ENDMDL
