MODEL 1
REMARK minimizedAffinity 0.863356709
REMARK minimizedRMSD -1
REMARK  0 active torsions:
REMARK  status: ('A' for Active; 'I' for Inactive)
ROOT
ATOM      1  C   UNL d   1      -5.999  -3.088  -2.383  0.00  0.00     0.078 C 
ATOM      2  C1  UNL d   1      -5.763  -3.870  -3.641  0.00  0.00    -0.077 A 
ATOM      3  C2  UNL d   1      -5.400  -3.228  -4.832  0.00  0.00    -0.001 A 
ATOM      4  C3  UNL d   1      -5.193  -3.966  -5.997  0.00  0.00     0.003 A 
ATOM      5  C4  UNL d   1      -5.348  -5.351  -5.985  0.00  0.00    -0.005 A 
ATOM      6  C5  UNL d   1      -5.711  -5.999  -4.806  0.00  0.00     0.003 A 
ATOM      7  C6  UNL d   1      -5.919  -5.261  -3.639  0.00  0.00    -0.001 A 
ENDROOT
TORSDOF 0
ENDMDL
