MODEL 1
REMARK minimizedAffinity -1.71959651
REMARK minimizedRMSD -1
REMARK  0 active torsions:
REMARK  status: ('A' for Active; 'I' for Inactive)
ROOT
ATOM      1  C   UNL d   1       5.999  -3.302  -1.182  0.00  0.00     0.078 C 
ATOM      2  C1  UNL d   1       5.986  -3.841  -2.581  0.00  0.00    -0.077 A 
ATOM      3  C2  UNL d   1       5.949  -2.980  -3.685  0.00  0.00    -0.001 A 
ATOM      4  C3  UNL d   1       5.928  -3.496  -4.982  0.00  0.00     0.003 A 
ATOM      5  C4  UNL d   1       5.942  -4.874  -5.187  0.00  0.00    -0.005 A 
ATOM      6  C5  UNL d   1       5.977  -5.738  -4.095  0.00  0.00     0.003 A 
ATOM      7  C6  UNL d   1       5.999  -5.225  -2.798  0.00  0.00    -0.001 A 
ENDROOT
TORSDOF 0
ENDMDL
