MODEL 1
REMARK minimizedAffinity -3.10061646
REMARK minimizedRMSD -1
REMARK  0 active torsions:
REMARK  status: ('A' for Active; 'I' for Inactive)
ROOT
ATOM      1  C   UNL d   1       3.714  -5.933   4.170  0.00  0.00     0.078 C 
ATOM      2  C1  UNL d   1       4.513  -4.664   4.162  0.00  0.00    -0.077 A 
ATOM      3  C2  UNL d   1       4.517  -3.807   5.270  0.00  0.00    -0.001 A 
ATOM      4  C3  UNL d   1       5.258  -2.625   5.244  0.00  0.00     0.003 A 
ATOM      5  C4  UNL d   1       5.999  -2.287   4.114  0.00  0.00    -0.005 A 
ATOM      6  C5  UNL d   1       6.000  -3.133   3.006  0.00  0.00     0.003 A 
ATOM      7  C6  UNL d   1       5.260  -4.316   3.029  0.00  0.00    -0.001 A 
ENDROOT
TORSDOF 0
ENDMDL
