MODEL 1
REMARK minimizedAffinity -3.2742157
REMARK minimizedRMSD -1
REMARK  0 active torsions:
REMARK  status: ('A' for Active; 'I' for Inactive)
ROOT
ATOM      1  C   UNL d   1       6.000  -4.320   1.856  0.00  0.00     0.078 C 
ATOM      2  C1  UNL d   1       6.000  -3.896   3.294  0.00  0.00    -0.077 A 
ATOM      3  C2  UNL d   1       5.986  -4.843   4.325  0.00  0.00    -0.001 A 
ATOM      4  C3  UNL d   1       5.976  -4.433   5.660  0.00  0.00     0.003 A 
ATOM      5  C4  UNL d   1       5.979  -3.076   5.975  0.00  0.00    -0.005 A 
ATOM      6  C5  UNL d   1       5.990  -2.126   4.956  0.00  0.00     0.003 A 
ATOM      7  C6  UNL d   1       5.999  -2.534   3.621  0.00  0.00    -0.001 A 
ENDROOT
TORSDOF 0
ENDMDL
