MODEL 1
REMARK minimizedAffinity -2.27066946
REMARK minimizedRMSD -1
REMARK  0 active torsions:
REMARK  status: ('A' for Active; 'I' for Inactive)
ROOT
ATOM      1  C   UNL d   1       5.214  -4.119   1.990  0.00  0.00     0.078 C 
ATOM      2  C1  UNL d   1       5.175  -3.586   3.391  0.00  0.00    -0.077 A 
ATOM      3  C2  UNL d   1       4.316  -4.137   4.349  0.00  0.00    -0.001 A 
ATOM      4  C3  UNL d   1       4.283  -3.625   5.647  0.00  0.00     0.003 A 
ATOM      5  C4  UNL d   1       5.107  -2.557   5.998  0.00  0.00    -0.005 A 
ATOM      6  C5  UNL d   1       5.964  -2.001   5.051  0.00  0.00     0.003 A 
ATOM      7  C6  UNL d   1       5.998  -2.512   3.753  0.00  0.00    -0.001 A 
ENDROOT
TORSDOF 0
ENDMDL
