MODEL 1
REMARK minimizedAffinity 0.122384034
REMARK minimizedRMSD -1
REMARK  0 active torsions:
REMARK  status: ('A' for Active; 'I' for Inactive)
ROOT
ATOM      1  C   UNL d   1       5.898  -1.907   5.610  0.00  0.00     0.078 C 
ATOM      2  C1  UNL d   1       5.233  -3.244   5.751  0.00  0.00    -0.077 A 
ATOM      3  C2  UNL d   1       5.989  -4.417   5.865  0.00  0.00    -0.001 A 
ATOM      4  C3  UNL d   1       5.357  -5.655   5.986  0.00  0.00     0.003 A 
ATOM      5  C4  UNL d   1       3.966  -5.733   5.992  0.00  0.00    -0.005 A 
ATOM      6  C5  UNL d   1       3.205  -4.571   5.877  0.00  0.00     0.003 A 
ATOM      7  C6  UNL d   1       3.835  -3.332   5.756  0.00  0.00    -0.001 A 
ENDROOT
TORSDOF 0
ENDMDL
