MODEL 1
REMARK minimizedAffinity -3.36493635
REMARK minimizedRMSD -1
REMARK  0 active torsions:
REMARK  status: ('A' for Active; 'I' for Inactive)
ROOT
ATOM      1  C   UNL d   1       6.000  -5.269   0.742  0.00  0.00     0.078 C 
ATOM      2  C1  UNL d   1       5.868  -4.980  -0.724  0.00  0.00    -0.077 A 
ATOM      3  C2  UNL d   1       6.000  -6.000  -1.675  0.00  0.00    -0.001 A 
ATOM      4  C3  UNL d   1       5.884  -5.715  -3.036  0.00  0.00     0.003 A 
ATOM      5  C4  UNL d   1       5.637  -4.410  -3.459  0.00  0.00    -0.005 A 
ATOM      6  C5  UNL d   1       5.507  -3.389  -2.520  0.00  0.00     0.003 A 
ATOM      7  C6  UNL d   1       5.622  -3.672  -1.158  0.00  0.00    -0.001 A 
ENDROOT
TORSDOF 0
ENDMDL
