MODEL 1
REMARK minimizedAffinity -2.04344225
REMARK minimizedRMSD -1
REMARK  0 active torsions:
REMARK  status: ('A' for Active; 'I' for Inactive)
ROOT
ATOM      1  C   UNL d   1       5.961  -4.135   2.051  0.00  0.00     0.078 C 
ATOM      2  C1  UNL d   1       5.507  -3.760   3.430  0.00  0.00    -0.077 A 
ATOM      3  C2  UNL d   1       4.582  -4.550   4.124  0.00  0.00    -0.001 A 
ATOM      4  C3  UNL d   1       4.160  -4.184   5.403  0.00  0.00     0.003 A 
ATOM      5  C4  UNL d   1       4.658  -3.027   5.999  0.00  0.00    -0.005 A 
ATOM      6  C5  UNL d   1       5.577  -2.234   5.316  0.00  0.00     0.003 A 
ATOM      7  C6  UNL d   1       5.999  -2.598   4.036  0.00  0.00    -0.001 A 
ENDROOT
TORSDOF 0
ENDMDL
