MODEL 1
REMARK minimizedAffinity -2.18183422
REMARK minimizedRMSD -1
REMARK  0 active torsions:
REMARK  status: ('A' for Active; 'I' for Inactive)
ROOT
ATOM      1  C   UNL d   1       5.997  -3.438  -2.737  0.00  0.00     0.078 C 
ATOM      2  C1  UNL d   1       5.991  -3.319  -1.243  0.00  0.00    -0.077 A 
ATOM      3  C2  UNL d   1       5.996  -2.065  -0.619  0.00  0.00    -0.001 A 
ATOM      4  C3  UNL d   1       5.999  -1.970   0.774  0.00  0.00     0.003 A 
ATOM      5  C4  UNL d   1       5.999  -3.124   1.554  0.00  0.00    -0.005 A 
ATOM      6  C5  UNL d   1       5.996  -4.376   0.943  0.00  0.00     0.003 A 
ATOM      7  C6  UNL d   1       5.993  -4.474  -0.450  0.00  0.00    -0.001 A 
ENDROOT
TORSDOF 0
ENDMDL
