MODEL 1
REMARK minimizedAffinity -3.54200506
REMARK minimizedRMSD -1
REMARK  0 active torsions:
REMARK  status: ('A' for Active; 'I' for Inactive)
ROOT
ATOM      1  C   UNL d   1       5.323  -4.513   1.231  0.00  0.00     0.078 C 
ATOM      2  C1  UNL d   1       5.384  -3.986   2.634  0.00  0.00    -0.077 A 
ATOM      3  C2  UNL d   1       5.941  -2.731   2.909  0.00  0.00    -0.001 A 
ATOM      4  C3  UNL d   1       6.000  -2.258   4.221  0.00  0.00     0.003 A 
ATOM      5  C4  UNL d   1       5.506  -3.034   5.268  0.00  0.00    -0.005 A 
ATOM      6  C5  UNL d   1       4.953  -4.285   5.004  0.00  0.00     0.003 A 
ATOM      7  C6  UNL d   1       4.893  -4.760   3.693  0.00  0.00    -0.001 A 
ENDROOT
TORSDOF 0
ENDMDL
