MODEL 1
REMARK minimizedAffinity -3.5369823
REMARK minimizedRMSD -1
REMARK  0 active torsions:
REMARK  status: ('A' for Active; 'I' for Inactive)
ROOT
ATOM      1  C   UNL d   1       5.994  -4.206   2.103  0.00  0.00     0.078 C 
ATOM      2  C1  UNL d   1       5.637  -3.690   3.465  0.00  0.00    -0.077 A 
ATOM      3  C2  UNL d   1       4.973  -4.502   4.393  0.00  0.00    -0.001 A 
ATOM      4  C3  UNL d   1       4.638  -4.006   5.654  0.00  0.00     0.003 A 
ATOM      5  C4  UNL d   1       4.963  -2.695   5.998  0.00  0.00    -0.005 A 
ATOM      6  C5  UNL d   1       5.622  -1.879   5.081  0.00  0.00     0.003 A 
ATOM      7  C6  UNL d   1       5.958  -2.374   3.820  0.00  0.00    -0.001 A 
ENDROOT
TORSDOF 0
ENDMDL
