MODEL 1
REMARK minimizedAffinity 2.75243926
REMARK minimizedRMSD -1
REMARK  0 active torsions:
REMARK  status: ('A' for Active; 'I' for Inactive)
ROOT
ATOM      1  C   UNL d   1       4.247  -5.153   5.999  0.00  0.00     0.078 C 
ATOM      2  C1  UNL d   1       4.492  -4.153   4.909  0.00  0.00    -0.077 A 
ATOM      3  C2  UNL d   1       3.475  -3.798   4.014  0.00  0.00    -0.001 A 
ATOM      4  C3  UNL d   1       3.720  -2.873   2.998  0.00  0.00     0.003 A 
ATOM      5  C4  UNL d   1       4.981  -2.296   2.867  0.00  0.00    -0.005 A 
ATOM      6  C5  UNL d   1       6.000  -2.644   3.752  0.00  0.00     0.003 A 
ATOM      7  C6  UNL d   1       5.757  -3.569   4.768  0.00  0.00    -0.001 A 
ENDROOT
TORSDOF 0
ENDMDL
