MODEL 1
REMARK minimizedAffinity -3.16494012
REMARK minimizedRMSD -1
REMARK  0 active torsions:
REMARK  status: ('A' for Active; 'I' for Inactive)
ROOT
ATOM      1  C   UNL d   1       4.919  -5.928   5.994  0.00  0.00     0.078 C 
ATOM      2  C1  UNL d   1       5.289  -4.723   5.181  0.00  0.00    -0.077 A 
ATOM      3  C2  UNL d   1       5.627  -4.843   3.828  0.00  0.00    -0.001 A 
ATOM      4  C3  UNL d   1       5.979  -3.714   3.086  0.00  0.00     0.003 A 
ATOM      5  C4  UNL d   1       5.997  -2.458   3.689  0.00  0.00    -0.005 A 
ATOM      6  C5  UNL d   1       5.663  -2.330   5.036  0.00  0.00     0.003 A 
ATOM      7  C6  UNL d   1       5.311  -3.457   5.779  0.00  0.00    -0.001 A 
ENDROOT
TORSDOF 0
ENDMDL
