MODEL 1
REMARK minimizedAffinity -2.51057792
REMARK minimizedRMSD -1
REMARK  0 active torsions:
REMARK  status: ('A' for Active; 'I' for Inactive)
ROOT
ATOM      1  C   UNL d   1       5.731  -4.873   2.190  0.00  0.00     0.078 C 
ATOM      2  C1  UNL d   1       5.481  -4.233   3.523  0.00  0.00    -0.077 A 
ATOM      3  C2  UNL d   1       4.723  -4.883   4.504  0.00  0.00    -0.001 A 
ATOM      4  C3  UNL d   1       4.491  -4.272   5.737  0.00  0.00     0.003 A 
ATOM      5  C4  UNL d   1       5.013  -3.007   6.000  0.00  0.00    -0.005 A 
ATOM      6  C5  UNL d   1       5.766  -2.351   5.029  0.00  0.00     0.003 A 
ATOM      7  C6  UNL d   1       6.000  -2.961   3.795  0.00  0.00    -0.001 A 
ENDROOT
TORSDOF 0
ENDMDL
