MODEL 1
REMARK minimizedAffinity -1.1009804
REMARK minimizedRMSD -1
REMARK  0 active torsions:
REMARK  status: ('A' for Active; 'I' for Inactive)
ROOT
ATOM      1  C   UNL d   1       4.712  -5.635   5.998  0.00  0.00     0.078 C 
ATOM      2  C1  UNL d   1       5.167  -4.387   5.301  0.00  0.00    -0.077 A 
ATOM      3  C2  UNL d   1       5.307  -3.182   5.999  0.00  0.00    -0.001 A 
ATOM      4  C3  UNL d   1       5.722  -2.026   5.336  0.00  0.00     0.003 A 
ATOM      5  C4  UNL d   1       5.999  -2.064   3.971  0.00  0.00    -0.005 A 
ATOM      6  C5  UNL d   1       5.860  -3.259   3.267  0.00  0.00     0.003 A 
ATOM      7  C6  UNL d   1       5.445  -4.415   3.929  0.00  0.00    -0.001 A 
ENDROOT
TORSDOF 0
ENDMDL
