MODEL 1
REMARK minimizedAffinity -2.93971562
REMARK minimizedRMSD -1
REMARK  0 active torsions:
REMARK  status: ('A' for Active; 'I' for Inactive)
ROOT
ATOM      1  C   UNL d   1       5.995  -4.102   1.942  0.00  0.00     0.078 C 
ATOM      2  C1  UNL d   1       5.989  -3.592   3.352  0.00  0.00    -0.077 A 
ATOM      3  C2  UNL d   1       5.996  -2.218   3.623  0.00  0.00    -0.001 A 
ATOM      4  C3  UNL d   1       6.000  -1.758   4.940  0.00  0.00     0.003 A 
ATOM      5  C4  UNL d   1       6.000  -2.665   5.998  0.00  0.00    -0.005 A 
ATOM      6  C5  UNL d   1       5.996  -4.034   5.739  0.00  0.00     0.003 A 
ATOM      7  C6  UNL d   1       5.991  -4.496   4.422  0.00  0.00    -0.001 A 
ENDROOT
TORSDOF 0
ENDMDL
