MODEL 1
REMARK minimizedAffinity -2.12454915
REMARK minimizedRMSD -1
REMARK  0 active torsions:
REMARK  status: ('A' for Active; 'I' for Inactive)
ROOT
ATOM      1  C   UNL d   1       4.503  -3.755  -1.775  0.00  0.00     0.078 C 
ATOM      2  C1  UNL d   1       4.640  -4.156  -3.213  0.00  0.00    -0.077 A 
ATOM      3  C2  UNL d   1       5.886  -4.507  -3.748  0.00  0.00    -0.001 A 
ATOM      4  C3  UNL d   1       6.000  -4.869  -5.091  0.00  0.00     0.003 A 
ATOM      5  C4  UNL d   1       4.873  -4.883  -5.911  0.00  0.00    -0.005 A 
ATOM      6  C5  UNL d   1       3.630  -4.534  -5.388  0.00  0.00     0.003 A 
ATOM      7  C6  UNL d   1       3.513  -4.171  -4.045  0.00  0.00    -0.001 A 
ENDROOT
TORSDOF 0
ENDMDL
