MODEL 1
REMARK minimizedAffinity -3.30771875
REMARK minimizedRMSD -1
REMARK  0 active torsions:
REMARK  status: ('A' for Active; 'I' for Inactive)
ROOT
ATOM      1  C   UNL d   1       6.000  -2.484   2.276  0.00  0.00     0.078 C 
ATOM      2  C1  UNL d   1       5.629  -3.147   3.569  0.00  0.00    -0.077 A 
ATOM      3  C2  UNL d   1       5.853  -4.515   3.769  0.00  0.00    -0.001 A 
ATOM      4  C3  UNL d   1       5.494  -5.120   4.974  0.00  0.00     0.003 A 
ATOM      5  C4  UNL d   1       4.907  -4.366   5.988  0.00  0.00    -0.005 A 
ATOM      6  C5  UNL d   1       4.677  -3.005   5.797  0.00  0.00     0.003 A 
ATOM      7  C6  UNL d   1       5.036  -2.398   4.593  0.00  0.00    -0.001 A 
ENDROOT
TORSDOF 0
ENDMDL
