MODEL 1
REMARK minimizedAffinity -4.92201519
REMARK minimizedRMSD -1
REMARK  3 active torsions:
REMARK  status: ('A' for Active; 'I' for Inactive)
REMARK    1  A    between atoms: C3'_2  and  C2'_3 
REMARK    2  A    between atoms: C2'_3  and  C1'_4 
REMARK    3  A    between atoms: C1'_4  and  C1_5 
ROOT
ATOM      1  C1  N4B d   1       0.186  -0.394   0.695  0.00  0.00    -0.075 A 
ATOM      2  C2  N4B d   1       1.280  -0.978   0.020  0.00  0.00     0.002 A 
ATOM      3  C3  N4B d   1       2.231  -1.672   0.727  0.00  0.00     0.002 A 
ATOM      4  C4  N4B d   1       2.120  -1.777   2.105  0.00  0.00    -0.004 A 
ATOM      5  C5  N4B d   1       1.047  -1.232   2.747  0.00  0.00     0.002 A 
ATOM      6  C6  N4B d   1       0.081  -0.535   2.048  0.00  0.00     0.002 A 
ENDROOT
BRANCH   1   7
ATOM      7  C1' N4B d   1      -0.834   0.447  -0.024  0.00  0.00     0.057 C 
BRANCH   7   8
ATOM      8  C2' N4B d   1      -0.371   0.675  -1.460  0.00  0.00     0.009 C 
BRANCH   8   9
ATOM      9  C3' N4B d   1      -1.184   1.755  -2.154  0.00  0.00     0.004 C 
ATOM     10  C4' N4B d   1      -0.339   2.675  -2.983  0.00  0.00     0.003 C 
ENDBRANCH   8   9
ENDBRANCH   7   8
ENDBRANCH   1   7
TORSDOF 3
ENDMDL
