MODEL 1
REMARK minimizedAffinity -5.56504202
REMARK minimizedRMSD -1
REMARK  3 active torsions:
REMARK  status: ('A' for Active; 'I' for Inactive)
REMARK    1  A    between atoms: C3'_2  and  C2'_3 
REMARK    2  A    between atoms: C2'_3  and  C1'_4 
REMARK    3  A    between atoms: C1'_4  and  C1_5 
ROOT
ATOM      1  C1  N4B d   1       0.011  -0.172   0.181  0.00  0.00    -0.075 A 
ATOM      2  C2  N4B d   1      -0.616  -0.286   1.441  0.00  0.00     0.002 A 
ATOM      3  C3  N4B d   1       0.142  -0.484   2.569  0.00  0.00     0.002 A 
ATOM      4  C4  N4B d   1       1.520  -0.591   2.460  0.00  0.00    -0.004 A 
ATOM      5  C5  N4B d   1       2.120  -0.454   1.242  0.00  0.00     0.002 A 
ATOM      6  C6  N4B d   1       1.371  -0.250   0.101  0.00  0.00     0.002 A 
ENDROOT
BRANCH   1   7
ATOM      7  C1' N4B d   1      -0.781  -0.040  -1.091  0.00  0.00     0.057 C 
BRANCH   7   8
ATOM      8  C2' N4B d   1      -0.160   1.053  -1.957  0.00  0.00     0.009 C 
BRANCH   8   9
ATOM      9  C3' N4B d   1      -1.214   1.952  -2.580  0.00  0.00     0.004 C 
ATOM     10  C4' N4B d   1      -1.005   3.401  -2.258  0.00  0.00     0.003 C 
ENDBRANCH   8   9
ENDBRANCH   7   8
ENDBRANCH   1   7
TORSDOF 3
ENDMDL
