MODEL 1
REMARK minimizedAffinity -4.79220486
REMARK minimizedRMSD -1
REMARK  3 active torsions:
REMARK  status: ('A' for Active; 'I' for Inactive)
REMARK    1  A    between atoms: C3'_2  and  C2'_3 
REMARK    2  A    between atoms: C2'_3  and  C1'_4 
REMARK    3  A    between atoms: C1'_4  and  C1_5 
ROOT
ATOM      1  C1  N4B d   1       0.676  -0.369   0.932  0.00  0.00    -0.075 A 
ATOM      2  C2  N4B d   1       0.913  -0.655   2.295  0.00  0.00     0.002 A 
ATOM      3  C3  N4B d   1       1.977  -1.447   2.655  0.00  0.00     0.002 A 
ATOM      4  C4  N4B d   1       2.801  -1.976   1.673  0.00  0.00    -0.004 A 
ATOM      5  C5  N4B d   1       2.580  -1.674   0.361  0.00  0.00     0.002 A 
ATOM      6  C6  N4B d   1       1.517  -0.877  -0.015  0.00  0.00     0.002 A 
ENDROOT
BRANCH   1   7
ATOM      7  C1' N4B d   1      -0.523   0.421   0.484  0.00  0.00     0.057 C 
BRANCH   7   8
ATOM      8  C2' N4B d   1      -0.763   0.168  -1.001  0.00  0.00     0.009 C 
BRANCH   8   9
ATOM      9  C3' N4B d   1      -0.493   1.407  -1.839  0.00  0.00     0.004 C 
ATOM     10  C4' N4B d   1      -1.747   2.032  -2.372  0.00  0.00     0.003 C 
ENDBRANCH   8   9
ENDBRANCH   7   8
ENDBRANCH   1   7
TORSDOF 3
ENDMDL
