MODEL 1
REMARK minimizedAffinity -5.8861475
REMARK minimizedRMSD -1
REMARK  3 active torsions:
REMARK  status: ('A' for Active; 'I' for Inactive)
REMARK    1  A    between atoms: C3'_2  and  C2'_3 
REMARK    2  A    between atoms: C2'_3  and  C1'_4 
REMARK    3  A    between atoms: C1'_4  and  C1_5 
ROOT
ATOM      1  C1  N4B d   1       0.700  -0.435  -0.141  0.00  0.00    -0.075 A 
ATOM      2  C2  N4B d   1      -0.105  -0.190   0.993  0.00  0.00     0.002 A 
ATOM      3  C3  N4B d   1       0.369  -0.486   2.248  0.00  0.00     0.002 A 
ATOM      4  C4  N4B d   1       1.631  -1.042   2.391  0.00  0.00    -0.004 A 
ATOM      5  C5  N4B d   1       2.412  -1.252   1.292  0.00  0.00     0.002 A 
ATOM      6  C6  N4B d   1       1.951  -0.956   0.025  0.00  0.00     0.002 A 
ENDROOT
BRANCH   1   7
ATOM      7  C1' N4B d   1       0.193  -0.208  -1.539  0.00  0.00     0.057 C 
BRANCH   7   8
ATOM      8  C2' N4B d   1      -0.621   1.082  -1.573  0.00  0.00     0.009 C 
BRANCH   8   9
ATOM      9  C3' N4B d   1       0.119   2.202  -2.284  0.00  0.00     0.004 C 
ATOM     10  C4' N4B d   1      -0.749   3.397  -2.545  0.00  0.00     0.003 C 
ENDBRANCH   8   9
ENDBRANCH   7   8
ENDBRANCH   1   7
TORSDOF 3
ENDMDL
