MODEL 1
REMARK minimizedAffinity -5.52286148
REMARK minimizedRMSD -1
REMARK  3 active torsions:
REMARK  status: ('A' for Active; 'I' for Inactive)
REMARK    1  A    between atoms: C3'_2  and  C2'_3 
REMARK    2  A    between atoms: C2'_3  and  C1'_4 
REMARK    3  A    between atoms: C1'_4  and  C1_5 
ROOT
ATOM      1  C1  N4B d   1       0.313  -0.658   0.210  0.00  0.00    -0.075 A 
ATOM      2  C2  N4B d   1      -0.362  -0.694   1.450  0.00  0.00     0.002 A 
ATOM      3  C3  N4B d   1       0.271  -1.191   2.563  0.00  0.00     0.002 A 
ATOM      4  C4  N4B d   1       1.567  -1.673   2.456  0.00  0.00    -0.004 A 
ATOM      5  C5  N4B d   1       2.221  -1.611   1.260  0.00  0.00     0.002 A 
ATOM      6  C6  N4B d   1       1.598  -1.110   0.135  0.00  0.00     0.002 A 
ENDROOT
BRANCH   1   7
ATOM      7  C1' N4B d   1      -0.368  -0.203  -1.052  0.00  0.00     0.057 C 
BRANCH   7   8
ATOM      8  C2' N4B d   1       0.186   1.160  -1.456  0.00  0.00     0.009 C 
BRANCH   8   9
ATOM      9  C3' N4B d   1      -0.837   1.986  -2.216  0.00  0.00     0.004 C 
ATOM     10  C4' N4B d   1      -0.332   3.353  -2.572  0.00  0.00     0.003 C 
ENDBRANCH   8   9
ENDBRANCH   7   8
ENDBRANCH   1   7
TORSDOF 3
ENDMDL
