MODEL 1
REMARK minimizedAffinity -2.97882557
REMARK minimizedRMSD -1
REMARK  1 active torsions:
REMARK  status: ('A' for Active; 'I' for Inactive)
REMARK    1  A    between atoms: N_2  and  C1_3 
ROOT
ATOM      1  C1  UNL d   1      -0.062   0.627  -0.111  0.00  0.00     0.143 A 
ATOM      2  C2  UNL d   1      -1.001  -0.080   0.649  0.00  0.00    -0.057 A 
ATOM      3  C3  UNL d   1      -1.361   0.343   1.934  0.00  0.00     0.033 A 
ATOM      4  C4  UNL d   1      -0.764   1.467   2.496  0.00  0.00    -0.042 A 
ATOM      5  C5  UNL d   1       0.190   2.170   1.769  0.00  0.00     0.033 A 
ATOM      6  C6  UNL d   1       0.540   1.747   0.483  0.00  0.00    -0.057 A 
ENDROOT
BRANCH   1   7
ATOM      7  N   UNL d   1       0.410   0.202  -1.355  0.00  0.00    -0.732 N 
ATOM      8  C   UNL d   1      -0.462   0.192  -2.510  0.00  0.00     0.284 C 
ATOM      9  H3  UNL d   1       1.352   0.535  -1.548  0.00  0.00     0.395 HD
ENDBRANCH   1   7
TORSDOF 1
ENDMDL
