MODEL 1
REMARK minimizedAffinity 0.216377348
REMARK minimizedRMSD -1
REMARK  1 active torsions:
REMARK  status: ('A' for Active; 'I' for Inactive)
REMARK    1  A    between atoms: N_2  and  C1_3 
ROOT
ATOM      1  C1  UNL d   1      -2.019   0.266   2.700  0.00  0.00     0.143 A 
ATOM      2  C2  UNL d   1      -1.266   1.378   3.094  0.00  0.00    -0.057 A 
ATOM      3  C3  UNL d   1      -0.434   2.048   2.190  0.00  0.00     0.033 A 
ATOM      4  C4  UNL d   1      -0.318   1.600   0.878  0.00  0.00    -0.042 A 
ATOM      5  C5  UNL d   1      -1.037   0.483   0.471  0.00  0.00     0.033 A 
ATOM      6  C6  UNL d   1      -1.872  -0.179   1.377  0.00  0.00    -0.057 A 
ENDROOT
BRANCH   1   7
ATOM      7  N   UNL d   1      -2.788  -0.502   3.577  0.00  0.00    -0.732 N 
ATOM      8  C   UNL d   1      -2.382  -1.846   3.930  0.00  0.00     0.284 C 
ATOM      9  H3  UNL d   1      -3.148   0.042   4.358  0.00  0.00     0.395 HD
ENDBRANCH   1   7
TORSDOF 1
ENDMDL
