MODEL 1
REMARK minimizedAffinity -2.27205324
REMARK minimizedRMSD -1
REMARK  1 active torsions:
REMARK  status: ('A' for Active; 'I' for Inactive)
REMARK    1  A    between atoms: N_2  and  C1_3 
ROOT
ATOM      1  C1  UNL d   1       0.250   0.377   0.893  0.00  0.00     0.143 A 
ATOM      2  C2  UNL d   1      -0.803   1.199   1.308  0.00  0.00    -0.057 A 
ATOM      3  C3  UNL d   1      -0.916   1.620   2.638  0.00  0.00     0.033 A 
ATOM      4  C4  UNL d   1       0.011   1.201   3.587  0.00  0.00    -0.042 A 
ATOM      5  C5  UNL d   1       1.052   0.364   3.203  0.00  0.00     0.033 A 
ATOM      6  C6  UNL d   1       1.163  -0.048   1.872  0.00  0.00    -0.057 A 
ENDROOT
BRANCH   1   7
ATOM      7  N   UNL d   1       0.362  -0.155  -0.393  0.00  0.00    -0.732 N 
ATOM      8  C   UNL d   1       0.656   0.701  -1.522  0.00  0.00     0.284 C 
ATOM      9  H3  UNL d   1       0.858  -1.043  -0.404  0.00  0.00     0.395 HD
ENDBRANCH   1   7
TORSDOF 1
ENDMDL
