MODEL 1
REMARK minimizedAffinity -2.17441583
REMARK minimizedRMSD -1
REMARK  1 active torsions:
REMARK  status: ('A' for Active; 'I' for Inactive)
REMARK    1  A    between atoms: N_2  and  C1_3 
ROOT
ATOM      1  C1  UNL d   1       0.656   0.158   0.402  0.00  0.00     0.143 A 
ATOM      2  C2  UNL d   1       0.994   1.030   1.442  0.00  0.00    -0.057 A 
ATOM      3  C3  UNL d   1       0.059   1.392   2.420  0.00  0.00     0.033 A 
ATOM      4  C4  UNL d   1      -1.244   0.908   2.358  0.00  0.00    -0.042 A 
ATOM      5  C5  UNL d   1      -1.609   0.060   1.318  0.00  0.00     0.033 A 
ATOM      6  C6  UNL d   1      -0.669  -0.303   0.349  0.00  0.00    -0.057 A 
ENDROOT
BRANCH   1   7
ATOM      7  N   UNL d   1       1.512  -0.161  -0.655  0.00  0.00    -0.732 N 
ATOM      8  C   UNL d   1       1.244   0.324  -1.992  0.00  0.00     0.284 C 
ATOM      9  H3  UNL d   1       2.492  -0.120  -0.386  0.00  0.00     0.395 HD
ENDBRANCH   1   7
TORSDOF 1
ENDMDL
