MODEL 1
REMARK minimizedAffinity -3.07736278
REMARK minimizedRMSD -1
REMARK  1 active torsions:
REMARK  status: ('A' for Active; 'I' for Inactive)
REMARK    1  A    between atoms: N_2  and  C1_3 
ROOT
ATOM      1  C1  UNL d   1       0.730  -0.008  -0.948  0.00  0.00     0.143 A 
ATOM      2  C2  UNL d   1       1.530  -0.623   0.021  0.00  0.00    -0.057 A 
ATOM      3  C3  UNL d   1       1.387  -0.319   1.380  0.00  0.00     0.033 A 
ATOM      4  C4  UNL d   1       0.459   0.631   1.793  0.00  0.00    -0.042 A 
ATOM      5  C5  UNL d   1      -0.329   1.274   0.845  0.00  0.00     0.033 A 
ATOM      6  C6  UNL d   1      -0.187   0.961  -0.510  0.00  0.00    -0.057 A 
ENDROOT
BRANCH   1   7
ATOM      7  N   UNL d   1       0.891  -0.195  -2.323  0.00  0.00    -0.732 N 
ATOM      8  C   UNL d   1       0.725   0.911  -3.242  0.00  0.00     0.284 C 
ATOM      9  H3  UNL d   1       1.676  -0.804  -2.543  0.00  0.00     0.395 HD
ENDBRANCH   1   7
TORSDOF 1
ENDMDL
