MODEL 1
REMARK minimizedAffinity -3.58619571
REMARK minimizedRMSD -1
REMARK  1 active torsions:
REMARK  status: ('A' for Active; 'I' for Inactive)
REMARK    1  A    between atoms: N_2  and  C1_3 
ROOT
ATOM      1  C1  UNL d   1       0.020  -0.761  -3.166  0.00  0.00     0.143 A 
ATOM      2  C2  UNL d   1      -1.002  -1.085  -4.065  0.00  0.00    -0.057 A 
ATOM      3  C3  UNL d   1      -1.000  -0.592  -5.375  0.00  0.00     0.033 A 
ATOM      4  C4  UNL d   1       0.013   0.261  -5.802  0.00  0.00    -0.042 A 
ATOM      5  C5  UNL d   1       1.025   0.617  -4.918  0.00  0.00     0.033 A 
ATOM      6  C6  UNL d   1       1.021   0.115  -3.612  0.00  0.00    -0.057 A 
ENDROOT
BRANCH   1   7
ATOM      7  N   UNL d   1       0.021  -1.140  -1.821  0.00  0.00    -0.732 N 
ATOM      8  C   UNL d   1       0.826  -0.423  -0.854  0.00  0.00     0.284 C 
ATOM      9  H3  UNL d   1      -0.906  -1.389  -1.486  0.00  0.00     0.395 HD
ENDBRANCH   1   7
TORSDOF 1
ENDMDL
