MODEL 1
REMARK minimizedAffinity -5.5361557
REMARK minimizedRMSD -1
REMARK  0 active torsions:
REMARK  status: ('A' for Active; 'I' for Inactive)
ROOT
ATOM      1  C4' PXY d   1      -1.131   2.745   1.538  0.00  0.00     0.077 C 
ATOM      2  C1' PXY d   1      -1.051  -1.612  -2.261  0.00  0.00     0.077 C 
ATOM      3  C1  PXY d   1      -1.064  -0.462  -1.272  0.00  0.00    -0.082 A 
ATOM      4  C2  PXY d   1      -1.343  -0.696  -0.000  0.00  0.00     0.003 A 
ATOM      5  C3  PXY d   1      -1.391   0.336   0.901  0.00  0.00     0.003 A 
ATOM      6  C4  PXY d   1      -1.098   1.614   0.507  0.00  0.00    -0.082 A 
ATOM      7  C5  PXY d   1      -0.801   1.859  -0.787  0.00  0.00     0.003 A 
ATOM      8  C6  PXY d   1      -0.799   0.804  -1.694  0.00  0.00     0.003 A 
ENDROOT
TORSDOF 0
ENDMDL
