MODEL 1
REMARK minimizedAffinity -3.51763368
REMARK minimizedRMSD -1
REMARK  0 active torsions:
REMARK  status: ('A' for Active; 'I' for Inactive)
ROOT
ATOM      1  C4' PXY d   1      -1.294   2.395  -1.449  0.00  0.00     0.077 C 
ATOM      2  C1' PXY d   1       1.100  -0.942   2.619  0.00  0.00     0.077 C 
ATOM      3  C1  PXY d   1       0.464  -0.062   1.561  0.00  0.00    -0.082 A 
ATOM      4  C2  PXY d   1       0.574  -0.391   0.284  0.00  0.00     0.003 A 
ATOM      5  C3  PXY d   1       0.032   0.410  -0.688  0.00  0.00     0.003 A 
ATOM      6  C4  PXY d   1      -0.676   1.531  -0.346  0.00  0.00    -0.082 A 
ATOM      7  C5  PXY d   1      -0.803   1.867   0.955  0.00  0.00     0.003 A 
ATOM      8  C6  PXY d   1      -0.210   1.063   1.924  0.00  0.00     0.003 A 
ENDROOT
TORSDOF 0
ENDMDL
