MODEL 1
REMARK minimizedAffinity -5.43557835
REMARK minimizedRMSD -1
REMARK  0 active torsions:
REMARK  status: ('A' for Active; 'I' for Inactive)
ROOT
ATOM      1  C4' PXY d   1      -1.238   3.098  -1.595  0.00  0.00     0.077 C 
ATOM      2  C1' PXY d   1       0.343   0.494   3.317  0.00  0.00     0.077 C 
ATOM      3  C1  PXY d   1      -0.063   1.169   2.022  0.00  0.00    -0.082 A 
ATOM      4  C2  PXY d   1      -0.583   2.386   2.054  0.00  0.00     0.003 A 
ATOM      5  C3  PXY d   1      -0.985   2.999   0.896  0.00  0.00     0.003 A 
ATOM      6  C4  PXY d   1      -0.805   2.382  -0.313  0.00  0.00    -0.082 A 
ATOM      7  C5  PXY d   1      -0.265   1.145  -0.355  0.00  0.00     0.003 A 
ATOM      8  C6  PXY d   1       0.099   0.523   0.836  0.00  0.00     0.003 A 
ENDROOT
TORSDOF 0
ENDMDL
