MODEL 1
REMARK minimizedAffinity -5.49865246
REMARK minimizedRMSD -1
REMARK  0 active torsions:
REMARK  status: ('A' for Active; 'I' for Inactive)
ROOT
ATOM      1  C4' PXY d   1       0.963  -1.885  -0.878  0.00  0.00     0.077 C 
ATOM      2  C1' PXY d   1      -1.101   2.619   2.101  0.00  0.00     0.077 C 
ATOM      3  C1  PXY d   1      -0.569   1.439   1.310  0.00  0.00    -0.082 A 
ATOM      4  C2  PXY d   1       0.119   0.494   1.930  0.00  0.00     0.003 A 
ATOM      5  C3  PXY d   1       0.635  -0.563   1.225  0.00  0.00     0.003 A 
ATOM      6  C4  PXY d   1       0.398  -0.681  -0.119  0.00  0.00    -0.082 A 
ATOM      7  C5  PXY d   1      -0.312   0.274  -0.756  0.00  0.00     0.003 A 
ATOM      8  C6  PXY d   1      -0.791   1.360  -0.030  0.00  0.00     0.003 A 
ENDROOT
TORSDOF 0
ENDMDL
