MODEL 1
REMARK minimizedAffinity -5.15345287
REMARK minimizedRMSD -1
REMARK  0 active torsions:
REMARK  status: ('A' for Active; 'I' for Inactive)
ROOT
ATOM      1  C4' PXY d   1      -1.309   3.146  -0.920  0.00  0.00     0.077 C 
ATOM      2  C1' PXY d   1       0.661   0.002   3.513  0.00  0.00     0.077 C 
ATOM      3  C1  PXY d   1       0.142   0.836   2.358  0.00  0.00    -0.082 A 
ATOM      4  C2  PXY d   1      -0.375   0.237   1.298  0.00  0.00     0.003 A 
ATOM      5  C3  PXY d   1      -0.819   0.975   0.232  0.00  0.00     0.003 A 
ATOM      6  C4  PXY d   1      -0.782   2.343   0.273  0.00  0.00    -0.082 A 
ATOM      7  C5  PXY d   1      -0.265   2.963   1.355  0.00  0.00     0.003 A 
ATOM      8  C6  PXY d   1       0.218   2.194   2.410  0.00  0.00     0.003 A 
ENDROOT
TORSDOF 0
ENDMDL
