MODEL 1
REMARK minimizedAffinity -4.33043146
REMARK minimizedRMSD -1
REMARK  0 active torsions:
REMARK  status: ('A' for Active; 'I' for Inactive)
ROOT
ATOM      1  C4' PXY d   1       0.479  -1.133  -0.108  0.00  0.00     0.077 C 
ATOM      2  C1' PXY d   1      -1.442   4.045   1.597  0.00  0.00     0.077 C 
ATOM      3  C1  PXY d   1      -0.932   2.686   1.161  0.00  0.00    -0.082 A 
ATOM      4  C2  PXY d   1      -0.809   2.416  -0.128  0.00  0.00     0.003 A 
ATOM      5  C3  PXY d   1      -0.380   1.180  -0.540  0.00  0.00     0.003 A 
ATOM      6  C4  PXY d   1      -0.023   0.229   0.378  0.00  0.00    -0.082 A 
ATOM      7  C5  PXY d   1      -0.136   0.501   1.695  0.00  0.00     0.003 A 
ATOM      8  C6  PXY d   1      -0.613   1.746   2.093  0.00  0.00     0.003 A 
ENDROOT
TORSDOF 0
ENDMDL
