MODEL 1
REMARK minimizedAffinity -5.1212306
REMARK minimizedRMSD -1
REMARK  0 active torsions:
REMARK  status: ('A' for Active; 'I' for Inactive)
ROOT
ATOM      1  C4' PXY d   1      -0.680   2.302  -1.682  0.00  0.00     0.077 C 
ATOM      2  C1' PXY d   1       0.963  -0.807   2.906  0.00  0.00     0.077 C 
ATOM      3  C1  PXY d   1       0.525   0.016   1.710  0.00  0.00    -0.082 A 
ATOM      4  C2  PXY d   1       0.554  -0.520   0.501  0.00  0.00     0.003 A 
ATOM      5  C3  PXY d   1       0.192   0.220  -0.595  0.00  0.00     0.003 A 
ATOM      6  C4  PXY d   1      -0.255   1.505  -0.445  0.00  0.00    -0.082 A 
ATOM      7  C5  PXY d   1      -0.298   2.056   0.786  0.00  0.00     0.003 A 
ATOM      8  C6  PXY d   1       0.113   1.302   1.881  0.00  0.00     0.003 A 
ENDROOT
TORSDOF 0
ENDMDL
