MODEL 1
REMARK minimizedAffinity -5.2768569
REMARK minimizedRMSD -1
REMARK  0 active torsions:
REMARK  status: ('A' for Active; 'I' for Inactive)
ROOT
ATOM      1  C4' PXY d   1      -1.815   2.316   2.013  0.00  0.00     0.077 C 
ATOM      2  C1' PXY d   1       1.358  -1.288  -1.206  0.00  0.00     0.077 C 
ATOM      3  C1  PXY d   1       0.530  -0.349  -0.351  0.00  0.00    -0.082 A 
ATOM      4  C2  PXY d   1      -0.512   0.271  -0.881  0.00  0.00     0.003 A 
ATOM      5  C3  PXY d   1      -1.253   1.148  -0.131  0.00  0.00     0.003 A 
ATOM      6  C4  PXY d   1      -0.956   1.352   1.190  0.00  0.00    -0.082 A 
ATOM      7  C5  PXY d   1       0.099   0.715   1.741  0.00  0.00     0.003 A 
ATOM      8  C6  PXY d   1       0.863  -0.139   0.952  0.00  0.00     0.003 A 
ENDROOT
TORSDOF 0
ENDMDL
