MODEL 1
REMARK minimizedAffinity -5.13982439
REMARK minimizedRMSD -1
REMARK  0 active torsions:
REMARK  status: ('A' for Active; 'I' for Inactive)
ROOT
ATOM      1  C4' PXY d   1      -1.229   1.558  -1.895  0.00  0.00     0.077 C 
ATOM      2  C1' PXY d   1       1.325  -0.498   2.866  0.00  0.00     0.077 C 
ATOM      3  C1  PXY d   1       0.665   0.036   1.610  0.00  0.00    -0.082 A 
ATOM      4  C2  PXY d   1      -0.167   1.062   1.694  0.00  0.00     0.003 A 
ATOM      5  C3  PXY d   1      -0.797   1.537   0.573  0.00  0.00     0.003 A 
ATOM      6  C4  PXY d   1      -0.533   0.992  -0.654  0.00  0.00    -0.082 A 
ATOM      7  C5  PXY d   1       0.323  -0.048  -0.750  0.00  0.00     0.003 A 
ATOM      8  C6  PXY d   1       0.921  -0.543   0.406  0.00  0.00     0.003 A 
ENDROOT
TORSDOF 0
ENDMDL
