MODEL 1
REMARK minimizedAffinity -4.47688437
REMARK minimizedRMSD -1
REMARK  0 active torsions:
REMARK  status: ('A' for Active; 'I' for Inactive)
ROOT
ATOM      1  C4' PXY d   1      -0.145   2.259  -2.320  0.00  0.00     0.077 C 
ATOM      2  C1' PXY d   1       0.291  -0.494   2.744  0.00  0.00     0.077 C 
ATOM      3  C1  PXY d   1       0.186   0.221   1.411  0.00  0.00    -0.082 A 
ATOM      4  C2  PXY d   1      -0.361   1.424   1.355  0.00  0.00     0.003 A 
ATOM      5  C3  PXY d   1      -0.493   2.071   0.154  0.00  0.00     0.003 A 
ATOM      6  C4  PXY d   1      -0.010   1.504  -0.995  0.00  0.00    -0.082 A 
ATOM      7  C5  PXY d   1       0.560   0.281  -0.945  0.00  0.00     0.003 A 
ATOM      8  C6  PXY d   1       0.646  -0.377   0.279  0.00  0.00     0.003 A 
ENDROOT
TORSDOF 0
ENDMDL
