MODEL 1
REMARK minimizedAffinity 3.30994916
REMARK minimizedRMSD -1
REMARK  0 active torsions:
REMARK  status: ('A' for Active; 'I' for Inactive)
ROOT
ATOM      1  C   UNL d   1      -3.373   2.614  -2.998  0.00  0.00     0.020 A 
ATOM      2  C1  UNL d   1      -3.597   2.880  -4.348  0.00  0.00     0.020 A 
ATOM      3  C2  UNL d   1      -3.706   1.826  -5.258  0.00  0.00     0.034 A 
ATOM      4  C3  UNL d   1      -3.591   0.502  -4.819  0.00  0.00     0.017 A 
ATOM      5  C4  UNL d   1      -3.367   0.237  -3.464  0.00  0.00     0.017 A 
ATOM      6  C5  UNL d   1      -3.259   1.295  -2.556  0.00  0.00     0.034 A 
ATOM      7 Cl   UNL d   1      -3.215  -1.371  -2.847  0.00  0.00    -0.070 Cl
ATOM      8 Cl1  UNL d   1      -3.737  -0.751  -6.000  0.00  0.00    -0.070 Cl
ENDROOT
TORSDOF 0
ENDMDL
