MODEL 1
REMARK minimizedAffinity 4.24090195
REMARK minimizedRMSD -1
REMARK  0 active torsions:
REMARK  status: ('A' for Active; 'I' for Inactive)
ROOT
ATOM      1  C   UNL d   1      -4.877   0.370  -5.999  0.00  0.00     0.020 A 
ATOM      2  C1  UNL d   1      -5.271   0.988  -4.813  0.00  0.00     0.020 A 
ATOM      3  C2  UNL d   1      -4.587   0.720  -3.626  0.00  0.00     0.034 A 
ATOM      4  C3  UNL d   1      -3.505  -0.167  -3.621  0.00  0.00     0.017 A 
ATOM      5  C4  UNL d   1      -3.110  -0.787  -4.812  0.00  0.00     0.017 A 
ATOM      6  C5  UNL d   1      -3.798  -0.515  -5.999  0.00  0.00     0.034 A 
ATOM      7 Cl   UNL d   1      -1.784  -1.893  -4.886  0.00  0.00    -0.070 Cl
ATOM      8 Cl1  UNL d   1      -2.705  -0.451  -2.117  0.00  0.00    -0.070 Cl
ENDROOT
TORSDOF 0
ENDMDL
