MODEL 1
REMARK minimizedAffinity 5.24717903
REMARK minimizedRMSD -1
REMARK  0 active torsions:
REMARK  status: ('A' for Active; 'I' for Inactive)
ROOT
ATOM      1  C   UNL d   1       1.473  -2.576   0.990  0.00  0.00     0.020 A 
ATOM      2  C1  UNL d   1       2.399  -3.577   1.282  0.00  0.00     0.020 A 
ATOM      3  C2  UNL d   1       3.761  -3.353   1.066  0.00  0.00     0.034 A 
ATOM      4  C3  UNL d   1       4.200  -2.125   0.557  0.00  0.00     0.017 A 
ATOM      5  C4  UNL d   1       3.270  -1.122   0.264  0.00  0.00     0.017 A 
ATOM      6  C5  UNL d   1       1.908  -1.351   0.482  0.00  0.00     0.034 A 
ATOM      7 Cl   UNL d   1       3.736   0.419  -0.367  0.00  0.00    -0.070 Cl
ATOM      8 Cl1  UNL d   1       5.898  -1.917   0.315  0.00  0.00    -0.070 Cl
ENDROOT
TORSDOF 0
ENDMDL
