MODEL 1
REMARK minimizedAffinity 1.33156097
REMARK minimizedRMSD -1
REMARK  0 active torsions:
REMARK  status: ('A' for Active; 'I' for Inactive)
ROOT
ATOM      1  C   UNL d   1      -5.466   0.028  -5.127  0.00  0.00     0.020 A 
ATOM      2  C1  UNL d   1      -4.247   0.521  -5.590  0.00  0.00     0.020 A 
ATOM      3  C2  UNL d   1      -3.057   0.133  -4.971  0.00  0.00     0.034 A 
ATOM      4  C3  UNL d   1      -3.083  -0.750  -3.886  0.00  0.00     0.017 A 
ATOM      5  C4  UNL d   1      -4.308  -1.245  -3.422  0.00  0.00     0.017 A 
ATOM      6  C5  UNL d   1      -5.496  -0.853  -4.045  0.00  0.00     0.034 A 
ATOM      7 Cl   UNL d   1      -4.420  -2.338  -2.088  0.00  0.00    -0.070 Cl
ATOM      8 Cl1  UNL d   1      -1.573  -1.188  -3.169  0.00  0.00    -0.070 Cl
ENDROOT
TORSDOF 0
ENDMDL
