MODEL 1
REMARK minimizedAffinity -2.53917027
REMARK minimizedRMSD -1
REMARK  0 active torsions:
REMARK  status: ('A' for Active; 'I' for Inactive)
ROOT
ATOM      1  C   UNL d   1       1.511  -1.583   2.048  0.00  0.00     0.020 A 
ATOM      2  C1  UNL d   1       1.930  -1.636   0.719  0.00  0.00     0.020 A 
ATOM      3  C2  UNL d   1       3.138  -2.254   0.392  0.00  0.00     0.034 A 
ATOM      4  C3  UNL d   1       3.932  -2.822   1.395  0.00  0.00     0.017 A 
ATOM      5  C4  UNL d   1       3.511  -2.768   2.728  0.00  0.00     0.017 A 
ATOM      6  C5  UNL d   1       2.300  -2.148   3.050  0.00  0.00     0.034 A 
ATOM      7 Cl   UNL d   1       4.437  -3.446   4.021  0.00  0.00    -0.070 Cl
ATOM      8 Cl1  UNL d   1       5.415  -3.571   0.918  0.00  0.00    -0.070 Cl
ENDROOT
TORSDOF 0
ENDMDL
