MODEL 1
REMARK minimizedAffinity -1.01123178
REMARK minimizedRMSD -1
REMARK  0 active torsions:
REMARK  status: ('A' for Active; 'I' for Inactive)
ROOT
ATOM      1  C   UNL d   1      -5.382  -0.986  -3.761  0.00  0.00     0.020 A 
ATOM      2  C1  UNL d   1      -5.569   0.143  -4.558  0.00  0.00     0.020 A 
ATOM      3  C2  UNL d   1      -4.487   0.703  -5.240  0.00  0.00     0.034 A 
ATOM      4  C3  UNL d   1      -3.213   0.135  -5.127  0.00  0.00     0.017 A 
ATOM      5  C4  UNL d   1      -3.027  -0.998  -4.327  0.00  0.00     0.017 A 
ATOM      6  C5  UNL d   1      -4.114  -1.555  -3.646  0.00  0.00     0.034 A 
ATOM      7 Cl   UNL d   1      -1.484  -1.756  -4.139  0.00  0.00    -0.070 Cl
ATOM      8 Cl1  UNL d   1      -1.921   0.880  -5.999  0.00  0.00    -0.070 Cl
ENDROOT
TORSDOF 0
ENDMDL
