MODEL 1
REMARK minimizedAffinity -1.85371661
REMARK minimizedRMSD -1
REMARK  0 active torsions:
REMARK  status: ('A' for Active; 'I' for Inactive)
ROOT
ATOM      1  C   UNL d   1      -4.120   0.964  -5.879  0.00  0.00     0.020 A 
ATOM      2  C1  UNL d   1      -5.208   0.857  -5.014  0.00  0.00     0.020 A 
ATOM      3  C2  UNL d   1      -5.109   0.077  -3.860  0.00  0.00     0.034 A 
ATOM      4  C3  UNL d   1      -3.919  -0.600  -3.568  0.00  0.00     0.017 A 
ATOM      5  C4  UNL d   1      -2.827  -0.492  -4.437  0.00  0.00     0.017 A 
ATOM      6  C5  UNL d   1      -2.932   0.291  -5.591  0.00  0.00     0.034 A 
ATOM      7 Cl   UNL d   1      -1.326  -1.297  -4.144  0.00  0.00    -0.070 Cl
ATOM      8 Cl1  UNL d   1      -3.867  -1.547  -2.124  0.00  0.00    -0.070 Cl
ENDROOT
TORSDOF 0
ENDMDL
