MODEL 1
REMARK minimizedAffinity 4.48996782
REMARK minimizedRMSD -1
REMARK  0 active torsions:
REMARK  status: ('A' for Active; 'I' for Inactive)
ROOT
ATOM      1  C   UNL d   1      -4.496   0.359  -6.000  0.00  0.00     0.020 A 
ATOM      2  C1  UNL d   1      -5.151   0.734  -4.828  0.00  0.00     0.020 A 
ATOM      3  C2  UNL d   1      -4.640   0.346  -3.587  0.00  0.00     0.034 A 
ATOM      4  C3  UNL d   1      -3.471  -0.420  -3.516  0.00  0.00     0.017 A 
ATOM      5  C4  UNL d   1      -2.814  -0.796  -4.694  0.00  0.00     0.017 A 
ATOM      6  C5  UNL d   1      -3.330  -0.404  -5.933  0.00  0.00     0.034 A 
ATOM      7 Cl   UNL d   1      -1.366  -1.740  -4.686  0.00  0.00    -0.070 Cl
ATOM      8 Cl1  UNL d   1      -2.895  -0.864  -1.949  0.00  0.00    -0.070 Cl
ENDROOT
TORSDOF 0
ENDMDL
