MODEL 1
REMARK minimizedAffinity -4.16732645
REMARK minimizedRMSD -1
REMARK  0 active torsions:
REMARK  status: ('A' for Active; 'I' for Inactive)
ROOT
ATOM      1  C4' PXY d   1       0.883  -1.403  -1.205  0.00  0.00     0.077 C 
ATOM      2  C1' PXY d   1      -2.147   2.407   1.913  0.00  0.00     0.077 C 
ATOM      3  C1  PXY d   1      -1.357   1.413   1.084  0.00  0.00    -0.082 A 
ATOM      4  C2  PXY d   1      -0.983   0.263   1.622  0.00  0.00     0.003 A 
ATOM      5  C3  PXY d   1      -0.240  -0.633   0.897  0.00  0.00     0.003 A 
ATOM      6  C4  PXY d   1       0.077  -0.374  -0.409  0.00  0.00    -0.082 A 
ATOM      7  C5  PXY d   1      -0.311   0.792  -0.969  0.00  0.00     0.003 A 
ATOM      8  C6  PXY d   1      -1.028   1.707  -0.203  0.00  0.00     0.003 A 
ENDROOT
TORSDOF 0
ENDMDL
