MODEL 1
REMARK minimizedAffinity -4.3491683
REMARK minimizedRMSD -1
REMARK  0 active torsions:
REMARK  status: ('A' for Active; 'I' for Inactive)
ROOT
ATOM      1  C4' PXY d   1       1.484  -1.300  -0.498  0.00  0.00     0.077 C 
ATOM      2  C1' PXY d   1      -2.292   2.609   1.472  0.00  0.00     0.077 C 
ATOM      3  C1  PXY d   1      -1.303   1.588   0.944  0.00  0.00    -0.082 A 
ATOM      4  C2  PXY d   1      -1.094   0.469   1.618  0.00  0.00     0.003 A 
ATOM      5  C3  PXY d   1      -0.180  -0.450   1.171  0.00  0.00     0.003 A 
ATOM      6  C4  PXY d   1       0.488  -0.246  -0.006  0.00  0.00    -0.082 A 
ATOM      7  C5  PXY d   1       0.272   0.888  -0.706  0.00  0.00     0.003 A 
ATOM      8  C6  PXY d   1      -0.629   1.828  -0.214  0.00  0.00     0.003 A 
ENDROOT
TORSDOF 0
ENDMDL
