MODEL 1
REMARK minimizedAffinity -4.76687288
REMARK minimizedRMSD -1
REMARK  0 active torsions:
REMARK  status: ('A' for Active; 'I' for Inactive)
ROOT
ATOM      1  C4' PXY d   1      -1.009  -0.998   3.034  0.00  0.00     0.077 C 
ATOM      2  C1' PXY d   1       0.508   2.614  -1.217  0.00  0.00     0.077 C 
ATOM      3  C1  PXY d   1       0.113   1.656  -0.110  0.00  0.00    -0.082 A 
ATOM      4  C2  PXY d   1      -0.756   2.042   0.809  0.00  0.00     0.003 A 
ATOM      5  C3  PXY d   1      -1.100   1.201   1.836  0.00  0.00     0.003 A 
ATOM      6  C4  PXY d   1      -0.589  -0.068   1.892  0.00  0.00    -0.082 A 
ATOM      7  C5  PXY d   1       0.291  -0.473   0.952  0.00  0.00     0.003 A 
ATOM      8  C6  PXY d   1       0.658   0.410  -0.059  0.00  0.00     0.003 A 
ENDROOT
TORSDOF 0
ENDMDL
