MODEL 1
REMARK minimizedAffinity -3.23361516
REMARK minimizedRMSD -1
REMARK  0 active torsions:
REMARK  status: ('A' for Active; 'I' for Inactive)
ROOT
ATOM      1  C4' PXY d   1       1.033  -1.994  -1.307  0.00  0.00     0.077 C 
ATOM      2  C1' PXY d   1      -1.009   2.040   2.295  0.00  0.00     0.077 C 
ATOM      3  C1  PXY d   1      -0.475   0.990   1.340  0.00  0.00    -0.082 A 
ATOM      4  C2  PXY d   1      -0.586  -0.292   1.648  0.00  0.00     0.003 A 
ATOM      5  C3  PXY d   1      -0.080  -1.253   0.812  0.00  0.00     0.003 A 
ATOM      6  C4  PXY d   1       0.500  -0.901  -0.378  0.00  0.00    -0.082 A 
ATOM      7  C5  PXY d   1       0.608   0.405  -0.704  0.00  0.00     0.003 A 
ATOM      8  C6  PXY d   1       0.124   1.367   0.178  0.00  0.00     0.003 A 
ENDROOT
TORSDOF 0
ENDMDL
