MODEL 1
REMARK minimizedAffinity -4.45507574
REMARK minimizedRMSD -1
REMARK  0 active torsions:
REMARK  status: ('A' for Active; 'I' for Inactive)
ROOT
ATOM      1  C4' PXY d   1       0.821  -0.830  -0.719  0.00  0.00     0.077 C 
ATOM      2  C1' PXY d   1      -1.234   4.373   0.736  0.00  0.00     0.077 C 
ATOM      3  C1  PXY d   1      -0.693   3.013   0.342  0.00  0.00    -0.082 A 
ATOM      4  C2  PXY d   1      -1.051   1.942   1.032  0.00  0.00     0.003 A 
ATOM      5  C3  PXY d   1      -0.546   0.709   0.710  0.00  0.00     0.003 A 
ATOM      6  C4  PXY d   1       0.292   0.562  -0.363  0.00  0.00    -0.082 A 
ATOM      7  C5  PXY d   1       0.654   1.648  -1.078  0.00  0.00     0.003 A 
ATOM      8  C6  PXY d   1       0.163   2.897  -0.710  0.00  0.00     0.003 A 
ENDROOT
TORSDOF 0
ENDMDL
