MODEL 1
REMARK minimizedAffinity -4.26751757
REMARK minimizedRMSD -1
REMARK  0 active torsions:
REMARK  status: ('A' for Active; 'I' for Inactive)
ROOT
ATOM      1  C4' PXY d   1       0.062  -3.830  -2.400  0.00  0.00     0.077 C 
ATOM      2  C1' PXY d   1      -0.615   0.642   1.199  0.00  0.00     0.077 C 
ATOM      3  C1  PXY d   1      -0.426  -0.526   0.252  0.00  0.00    -0.082 A 
ATOM      4  C2  PXY d   1      -1.485  -1.134  -0.258  0.00  0.00     0.003 A 
ATOM      5  C3  PXY d   1      -1.332  -2.212  -1.090  0.00  0.00     0.003 A 
ATOM      6  C4  PXY d   1      -0.081  -2.640  -1.447  0.00  0.00    -0.082 A 
ATOM      7  C5  PXY d   1       1.004  -2.019  -0.940  0.00  0.00     0.003 A 
ATOM      8  C6  PXY d   1       0.828  -0.952  -0.063  0.00  0.00     0.003 A 
ENDROOT
TORSDOF 0
ENDMDL
