MODEL 1
REMARK minimizedAffinity -4.3491106
REMARK minimizedRMSD -1
REMARK  0 active torsions:
REMARK  status: ('A' for Active; 'I' for Inactive)
ROOT
ATOM      1  C4' PXY d   1      -2.645   2.019   1.198  0.00  0.00     0.077 C 
ATOM      2  C1' PXY d   1       1.602  -1.445  -0.640  0.00  0.00     0.077 C 
ATOM      3  C1  PXY d   1       0.487  -0.544  -0.147  0.00  0.00    -0.082 A 
ATOM      4  C2  PXY d   1      -0.238   0.137  -1.019  0.00  0.00     0.003 A 
ATOM      5  C3  PXY d   1      -1.229   0.981  -0.589  0.00  0.00     0.003 A 
ATOM      6  C4  PXY d   1      -1.515   1.090   0.745  0.00  0.00    -0.082 A 
ATOM      7  C5  PXY d   1      -0.787   0.390   1.641  0.00  0.00     0.003 A 
ATOM      8  C6  PXY d   1       0.241  -0.430   1.187  0.00  0.00     0.003 A 
ENDROOT
TORSDOF 0
ENDMDL
