MODEL 1
REMARK minimizedAffinity -0.875385582
REMARK minimizedRMSD -1
REMARK  0 active torsions:
REMARK  status: ('A' for Active; 'I' for Inactive)
ROOT
ATOM      1  C4' PXY d   1       1.142  -1.797  -1.010  0.00  0.00     0.077 C 
ATOM      2  C1' PXY d   1      -0.978   2.489   2.238  0.00  0.00     0.077 C 
ATOM      3  C1  PXY d   1      -0.424   1.372   1.375  0.00  0.00    -0.082 A 
ATOM      4  C2  PXY d   1      -0.406   0.133   1.841  0.00  0.00     0.003 A 
ATOM      5  C3  PXY d   1       0.120  -0.883   1.087  0.00  0.00     0.003 A 
ATOM      6  C4  PXY d   1       0.584  -0.639  -0.178  0.00  0.00    -0.082 A 
ATOM      7  C5  PXY d   1       0.559   0.619  -0.665  0.00  0.00     0.003 A 
ATOM      8  C6  PXY d   1       0.058   1.645   0.133  0.00  0.00     0.003 A 
ENDROOT
TORSDOF 0
ENDMDL
