MODEL 1
REMARK minimizedAffinity -5.16222048
REMARK minimizedRMSD -1
REMARK  0 active torsions:
REMARK  status: ('A' for Active; 'I' for Inactive)
ROOT
ATOM      1  C4' PXY d   1      -1.667   2.356   1.691  0.00  0.00     0.077 C 
ATOM      2  C1' PXY d   1       0.186  -2.001  -1.626  0.00  0.00     0.077 C 
ATOM      3  C1  PXY d   1      -0.288  -0.853  -0.755  0.00  0.00    -0.082 A 
ATOM      4  C2  PXY d   1      -1.390  -0.990  -0.035  0.00  0.00     0.003 A 
ATOM      5  C3  PXY d   1      -1.850   0.049   0.732  0.00  0.00     0.003 A 
ATOM      6  C4  PXY d   1      -1.146   1.221   0.805  0.00  0.00    -0.082 A 
ATOM      7  C5  PXY d   1      -0.015   1.364   0.082  0.00  0.00     0.003 A 
ATOM      8  C6  PXY d   1       0.413   0.313  -0.723  0.00  0.00     0.003 A 
ENDROOT
TORSDOF 0
ENDMDL
