MODEL 1
REMARK minimizedAffinity -4.44051218
REMARK minimizedRMSD -1
REMARK  0 active torsions:
REMARK  status: ('A' for Active; 'I' for Inactive)
ROOT
ATOM      1  C4' PXY d   1       1.199  -0.608  -0.524  0.00  0.00     0.077 C 
ATOM      2  C1' PXY d   1      -2.510   3.352   1.473  0.00  0.00     0.077 C 
ATOM      3  C1  PXY d   1      -1.535   2.321   0.939  0.00  0.00    -0.082 A 
ATOM      4  C2  PXY d   1      -1.649   1.057   1.314  0.00  0.00     0.003 A 
ATOM      5  C3  PXY d   1      -0.756   0.118   0.866  0.00  0.00     0.003 A 
ATOM      6  C4  PXY d   1       0.231   0.466  -0.017  0.00  0.00    -0.082 A 
ATOM      7  C5  PXY d   1       0.347   1.751  -0.413  0.00  0.00     0.003 A 
ATOM      8  C6  PXY d   1      -0.544   2.697   0.086  0.00  0.00     0.003 A 
ENDROOT
TORSDOF 0
ENDMDL
