MODEL 1
REMARK minimizedAffinity -2.22430062
REMARK minimizedRMSD -1
REMARK  0 active torsions:
REMARK  status: ('A' for Active; 'I' for Inactive)
ROOT
ATOM      1  C4' PXY d   1       0.276   3.703  -0.833  0.00  0.00     0.077 C 
ATOM      2  C1' PXY d   1      -0.740  -1.121   2.186  0.00  0.00     0.077 C 
ATOM      3  C1  PXY d   1      -0.485   0.149   1.399  0.00  0.00    -0.082 A 
ATOM      4  C2  PXY d   1       0.307   0.114   0.340  0.00  0.00     0.003 A 
ATOM      5  C3  PXY d   1       0.575   1.260  -0.365  0.00  0.00     0.003 A 
ATOM      6  C4  PXY d   1      -0.017   2.443  -0.013  0.00  0.00    -0.082 A 
ATOM      7  C5  PXY d   1      -0.835   2.485   1.060  0.00  0.00     0.003 A 
ATOM      8  C6  PXY d   1      -1.061   1.320   1.786  0.00  0.00     0.003 A 
ENDROOT
TORSDOF 0
ENDMDL
