MODEL 1
REMARK minimizedAffinity -6.1580081
REMARK minimizedRMSD -1
REMARK  0 active torsions:
REMARK  status: ('A' for Active; 'I' for Inactive)
ROOT
ATOM      1  C4' PXY d   1      -1.097   3.921  -0.867  0.00  0.00     0.077 C 
ATOM      2  C1' PXY d   1      -0.104  -0.962   2.063  0.00  0.00     0.077 C 
ATOM      3  C1  PXY d   1      -0.375   0.320   1.302  0.00  0.00    -0.082 A 
ATOM      4  C2  PXY d   1       0.136   0.484   0.093  0.00  0.00     0.003 A 
ATOM      5  C3  PXY d   1      -0.073   1.650  -0.597  0.00  0.00     0.003 A 
ATOM      6  C4  PXY d   1      -0.857   2.638  -0.065  0.00  0.00    -0.082 A 
ATOM      7  C5  PXY d   1      -1.392   2.475   1.164  0.00  0.00     0.003 A 
ATOM      8  C6  PXY d   1      -1.134   1.300   1.864  0.00  0.00     0.003 A 
ENDROOT
TORSDOF 0
ENDMDL
