MODEL 1
REMARK minimizedAffinity -4.59015703
REMARK minimizedRMSD -1
REMARK  0 active torsions:
REMARK  status: ('A' for Active; 'I' for Inactive)
ROOT
ATOM      1  C4' PXY d   1      -0.399   3.707  -1.317  0.00  0.00     0.077 C 
ATOM      2  C1' PXY d   1      -0.351  -0.629   2.505  0.00  0.00     0.077 C 
ATOM      3  C1  PXY d   1      -0.375   0.511   1.507  0.00  0.00    -0.082 A 
ATOM      4  C2  PXY d   1       0.379   0.447   0.421  0.00  0.00     0.003 A 
ATOM      5  C3  PXY d   1       0.393   1.484  -0.476  0.00  0.00     0.003 A 
ATOM      6  C4  PXY d   1      -0.413   2.574  -0.287  0.00  0.00    -0.082 A 
ATOM      7  C5  PXY d   1      -1.193   2.643   0.812  0.00  0.00     0.003 A 
ATOM      8  C6  PXY d   1      -1.162   1.598   1.732  0.00  0.00     0.003 A 
ENDROOT
TORSDOF 0
ENDMDL
