MODEL 1
REMARK minimizedAffinity -3.89793348
REMARK minimizedRMSD -1
REMARK  0 active torsions:
REMARK  status: ('A' for Active; 'I' for Inactive)
ROOT
ATOM      1  C4' PXY d   1       1.189  -2.191  -1.832  0.00  0.00     0.077 C 
ATOM      2  C1' PXY d   1      -0.999   1.567   1.976  0.00  0.00     0.077 C 
ATOM      3  C1  PXY d   1      -0.417   0.591   0.973  0.00  0.00    -0.082 A 
ATOM      4  C2  PXY d   1      -1.136  -0.448   0.580  0.00  0.00     0.003 A 
ATOM      5  C3  PXY d   1      -0.613  -1.359  -0.303  0.00  0.00     0.003 A 
ATOM      6  C4  PXY d   1       0.638  -1.175  -0.828  0.00  0.00    -0.082 A 
ATOM      7  C5  PXY d   1       1.373  -0.111  -0.439  0.00  0.00     0.003 A 
ATOM      8  C6  PXY d   1       0.840   0.779   0.488  0.00  0.00     0.003 A 
ENDROOT
TORSDOF 0
ENDMDL
