MODEL 1
REMARK minimizedAffinity -5.41389751
REMARK minimizedRMSD -1
REMARK  0 active torsions:
REMARK  status: ('A' for Active; 'I' for Inactive)
ROOT
ATOM      1  C4' PXY d   1      -0.854   3.467  -1.148  0.00  0.00     0.077 C 
ATOM      2  C1' PXY d   1      -0.082  -0.836   2.634  0.00  0.00     0.077 C 
ATOM      3  C1  PXY d   1      -0.295   0.297   1.650  0.00  0.00    -0.082 A 
ATOM      4  C2  PXY d   1       0.121   0.165   0.401  0.00  0.00     0.003 A 
ATOM      5  C3  PXY d   1      -0.034   1.191  -0.495  0.00  0.00     0.003 A 
ATOM      6  C4  PXY d   1      -0.669   2.346  -0.122  0.00  0.00    -0.082 A 
ATOM      7  C5  PXY d   1      -1.106   2.485   1.148  0.00  0.00     0.003 A 
ATOM      8  C6  PXY d   1      -0.902   1.446   2.053  0.00  0.00     0.003 A 
ENDROOT
TORSDOF 0
ENDMDL
