MODEL 1
REMARK minimizedAffinity -3.88421392
REMARK minimizedRMSD -1
REMARK  0 active torsions:
REMARK  status: ('A' for Active; 'I' for Inactive)
ROOT
ATOM      1  C4' PXY d   1       0.898  -1.296  -0.458  0.00  0.00     0.077 C 
ATOM      2  C1' PXY d   1      -2.204   3.139   1.572  0.00  0.00     0.077 C 
ATOM      3  C1  PXY d   1      -1.385   1.975   1.051  0.00  0.00    -0.082 A 
ATOM      4  C2  PXY d   1      -1.172   1.854  -0.249  0.00  0.00     0.003 A 
ATOM      5  C3  PXY d   1      -0.460   0.790  -0.740  0.00  0.00     0.003 A 
ATOM      6  C4  PXY d   1       0.084  -0.132   0.114  0.00  0.00    -0.082 A 
ATOM      7  C5  PXY d   1      -0.119  -0.010   1.443  0.00  0.00     0.003 A 
ATOM      8  C6  PXY d   1      -0.879   1.055   1.917  0.00  0.00     0.003 A 
ENDROOT
TORSDOF 0
ENDMDL
