MODEL 1
REMARK minimizedAffinity -2.85936928
REMARK minimizedRMSD -1
REMARK  0 active torsions:
REMARK  status: ('A' for Active; 'I' for Inactive)
ROOT
ATOM      1  C4' PXY d   1      -0.382   1.779   2.602  0.00  0.00     0.077 C 
ATOM      2  C1' PXY d   1       0.412  -1.747  -1.909  0.00  0.00     0.077 C 
ATOM      3  C1  PXY d   1       0.199  -0.813  -0.734  0.00  0.00    -0.082 A 
ATOM      4  C2  PXY d   1       0.922  -0.967   0.364  0.00  0.00     0.003 A 
ATOM      5  C3  PXY d   1       0.720  -0.152   1.448  0.00  0.00     0.003 A 
ATOM      6  C4  PXY d   1      -0.194   0.866   1.388  0.00  0.00    -0.082 A 
ATOM      7  C5  PXY d   1      -0.928   1.036   0.268  0.00  0.00     0.003 A 
ATOM      8  C6  PXY d   1      -0.737   0.172  -0.806  0.00  0.00     0.003 A 
ENDROOT
TORSDOF 0
ENDMDL
