MODEL 1
REMARK minimizedAffinity -2.57249331
REMARK minimizedRMSD -1
REMARK  0 active torsions:
REMARK  status: ('A' for Active; 'I' for Inactive)
ROOT
ATOM      1  C4' PXY d   1       0.806  -1.783  -0.791  0.00  0.00     0.077 C 
ATOM      2  C1' PXY d   1      -1.452   2.988   1.565  0.00  0.00     0.077 C 
ATOM      3  C1  PXY d   1      -0.860   1.743   0.935  0.00  0.00    -0.082 A 
ATOM      4  C2  PXY d   1      -0.977   0.579   1.554  0.00  0.00     0.003 A 
ATOM      5  C3  PXY d   1      -0.420  -0.552   1.014  0.00  0.00     0.003 A 
ATOM      6  C4  PXY d   1       0.217  -0.501  -0.197  0.00  0.00    -0.082 A 
ATOM      7  C5  PXY d   1       0.330   0.681  -0.839  0.00  0.00     0.003 A 
ATOM      8  C6  PXY d   1      -0.206   1.825  -0.255  0.00  0.00     0.003 A 
ENDROOT
TORSDOF 0
ENDMDL
