MODEL 1
REMARK minimizedAffinity -3.13044024
REMARK minimizedRMSD -1
REMARK  0 active torsions:
REMARK  status: ('A' for Active; 'I' for Inactive)
ROOT
ATOM      1  C4' PXY d   1       0.257   3.658  -1.050  0.00  0.00     0.077 C 
ATOM      2  C1' PXY d   1      -1.003  -0.748   2.473  0.00  0.00     0.077 C 
ATOM      3  C1  PXY d   1      -0.683   0.414   1.553  0.00  0.00    -0.082 A 
ATOM      4  C2  PXY d   1       0.077   0.215   0.489  0.00  0.00     0.003 A 
ATOM      5  C3  PXY d   1       0.402   1.261  -0.336  0.00  0.00     0.003 A 
ATOM      6  C4  PXY d   1      -0.099   2.513  -0.099  0.00  0.00    -0.082 A 
ATOM      7  C5  PXY d   1      -0.884   2.722   0.980  0.00  0.00     0.003 A 
ATOM      8  C6  PXY d   1      -1.169   1.655   1.828  0.00  0.00     0.003 A 
ENDROOT
TORSDOF 0
ENDMDL
