MODEL 1
REMARK minimizedAffinity -3.96587181
REMARK minimizedRMSD -1
REMARK  0 active torsions:
REMARK  status: ('A' for Active; 'I' for Inactive)
ROOT
ATOM      1  C4' PXY d   1      -1.018   3.239   1.517  0.00  0.00     0.077 C 
ATOM      2  C1' PXY d   1       0.730  -1.484  -1.322  0.00  0.00     0.077 C 
ATOM      3  C1  PXY d   1       0.263  -0.252  -0.570  0.00  0.00    -0.082 A 
ATOM      4  C2  PXY d   1       0.358   0.937  -1.141  0.00  0.00     0.003 A 
ATOM      5  C3  PXY d   1      -0.030   2.065  -0.463  0.00  0.00     0.003 A 
ATOM      6  C4  PXY d   1      -0.568   1.968   0.792  0.00  0.00    -0.082 A 
ATOM      7  C5  PXY d   1      -0.677   0.756   1.377  0.00  0.00     0.003 A 
ATOM      8  C6  PXY d   1      -0.240  -0.372   0.688  0.00  0.00     0.003 A 
ENDROOT
TORSDOF 0
ENDMDL
