MODEL 1
REMARK minimizedAffinity 0.82079792
REMARK minimizedRMSD -1
REMARK  0 active torsions:
REMARK  status: ('A' for Active; 'I' for Inactive)
ROOT
ATOM      1  C1  BNZ d   1       3.435  -5.999   5.026  0.00  0.00     0.000 A 
ATOM      2  C2  BNZ d   1       3.549  -5.999   3.662  0.00  0.00     0.000 A 
ATOM      3  C3  BNZ d   1       4.777  -6.000   3.062  0.00  0.00     0.000 A 
ATOM      4  C4  BNZ d   1       5.888  -5.961   3.826  0.00  0.00     0.000 A 
ATOM      5  C5  BNZ d   1       5.789  -5.951   5.203  0.00  0.00     0.000 A 
ATOM      6  C6  BNZ d   1       4.551  -5.990   5.804  0.00  0.00     0.000 A 
ENDROOT
TORSDOF 0
ENDMDL
