MODEL 1
REMARK minimizedAffinity 6.36055565
REMARK minimizedRMSD -1
REMARK  0 active torsions:
REMARK  status: ('A' for Active; 'I' for Inactive)
ROOT
ATOM      1  C1  BNZ d   1      -3.402  -3.902  -5.938  0.00  0.00     0.000 A 
ATOM      2  C2  BNZ d   1      -2.180  -3.285  -5.930  0.00  0.00     0.000 A 
ATOM      3  C3  BNZ d   1      -1.026  -4.015  -5.980  0.00  0.00     0.000 A 
ATOM      4  C4  BNZ d   1      -1.094  -5.362  -5.998  0.00  0.00     0.000 A 
ATOM      5  C5  BNZ d   1      -2.318  -6.000  -5.998  0.00  0.00     0.000 A 
ATOM      6  C6  BNZ d   1      -3.479  -5.260  -5.987  0.00  0.00     0.000 A 
ENDROOT
TORSDOF 0
ENDMDL
