MODEL 1
REMARK minimizedAffinity 9.38484383
REMARK minimizedRMSD -1
REMARK  0 active torsions:
REMARK  status: ('A' for Active; 'I' for Inactive)
ROOT
ATOM      1  C1  BNZ d   1       5.677   3.108  -5.883  0.00  0.00     0.000 A 
ATOM      2  C2  BNZ d   1       4.964   1.940  -5.923  0.00  0.00     0.000 A 
ATOM      3  C3  BNZ d   1       3.599   1.956  -5.993  0.00  0.00     0.000 A 
ATOM      4  C4  BNZ d   1       2.948   3.137  -5.982  0.00  0.00     0.000 A 
ATOM      5  C5  BNZ d   1       3.653   4.323  -5.932  0.00  0.00     0.000 A 
ATOM      6  C6  BNZ d   1       5.028   4.304  -5.901  0.00  0.00     0.000 A 
ENDROOT
TORSDOF 0
ENDMDL
