MODEL 1
REMARK minimizedAffinity 7.07240295
REMARK minimizedRMSD -1
REMARK  0 active torsions:
REMARK  status: ('A' for Active; 'I' for Inactive)
ROOT
ATOM      1  C1  BNZ d   1       4.634   2.389  -5.996  0.00  0.00     0.000 A 
ATOM      2  C2  BNZ d   1       3.400   2.983  -6.000  0.00  0.00     0.000 A 
ATOM      3  C3  BNZ d   1       3.269   4.327  -5.789  0.00  0.00     0.000 A 
ATOM      4  C4  BNZ d   1       4.367   5.068  -5.534  0.00  0.00     0.000 A 
ATOM      5  C5  BNZ d   1       5.617   4.483  -5.518  0.00  0.00     0.000 A 
ATOM      6  C6  BNZ d   1       5.748   3.136  -5.769  0.00  0.00     0.000 A 
ENDROOT
TORSDOF 0
ENDMDL
