MODEL 1
REMARK minimizedAffinity 11.3589096
REMARK minimizedRMSD -1
REMARK  0 active torsions:
REMARK  status: ('A' for Active; 'I' for Inactive)
ROOT
ATOM      1  C1  BNZ d   1      -3.794   2.606   0.972  0.00  0.00     0.000 A 
ATOM      2  C2  BNZ d   1      -3.415   1.431   0.379  0.00  0.00     0.000 A 
ATOM      3  C3  BNZ d   1      -2.215   0.850   0.679  0.00  0.00     0.000 A 
ATOM      4  C4  BNZ d   1      -1.378   1.464   1.540  0.00  0.00     0.000 A 
ATOM      5  C5  BNZ d   1      -1.741   2.654   2.140  0.00  0.00     0.000 A 
ATOM      6  C6  BNZ d   1      -2.967   3.216   1.865  0.00  0.00     0.000 A 
ENDROOT
TORSDOF 0
ENDMDL
