MODEL 1
REMARK minimizedAffinity 7.61454821
REMARK minimizedRMSD -1
REMARK  0 active torsions:
REMARK  status: ('A' for Active; 'I' for Inactive)
ROOT
ATOM      1  C1  BNZ d   1      -2.762   1.649   1.435  0.00  0.00     0.000 A 
ATOM      2  C2  BNZ d   1      -1.414   1.811   1.262  0.00  0.00     0.000 A 
ATOM      3  C3  BNZ d   1      -0.526   0.936   1.822  0.00  0.00     0.000 A 
ATOM      4  C4  BNZ d   1      -0.985  -0.076   2.587  0.00  0.00     0.000 A 
ATOM      5  C5  BNZ d   1      -2.341  -0.248   2.779  0.00  0.00     0.000 A 
ATOM      6  C6  BNZ d   1      -3.234   0.613   2.181  0.00  0.00     0.000 A 
ENDROOT
TORSDOF 0
ENDMDL
