MODEL 1
REMARK minimizedAffinity 1.1459372
REMARK minimizedRMSD -1
REMARK  0 active torsions:
REMARK  status: ('A' for Active; 'I' for Inactive)
ROOT
ATOM      1  C1  BNZ d   1       1.562   0.853   2.319  0.00  0.00     0.000 A 
ATOM      2  C2  BNZ d   1       2.671   0.082   2.546  0.00  0.00     0.000 A 
ATOM      3  C3  BNZ d   1       3.739   0.122   1.693  0.00  0.00     0.000 A 
ATOM      4  C4  BNZ d   1       3.680   0.902   0.594  0.00  0.00     0.000 A 
ATOM      5  C5  BNZ d   1       2.565   1.678   0.346  0.00  0.00     0.000 A 
ATOM      6  C6  BNZ d   1       1.509   1.664   1.228  0.00  0.00     0.000 A 
ENDROOT
TORSDOF 0
ENDMDL
