MODEL 1
REMARK minimizedAffinity 5.95450687
REMARK minimizedRMSD -1
REMARK  0 active torsions:
REMARK  status: ('A' for Active; 'I' for Inactive)
ROOT
ATOM      1  C1  BNZ d   1       3.285   5.264  -4.502  0.00  0.00     0.000 A 
ATOM      2  C2  BNZ d   1       4.422   4.500  -4.506  0.00  0.00     0.000 A 
ATOM      3  C3  BNZ d   1       4.504   3.370  -5.272  0.00  0.00     0.000 A 
ATOM      4  C4  BNZ d   1       3.436   2.984  -6.000  0.00  0.00     0.000 A 
ATOM      5  C5  BNZ d   1       2.280   3.739  -5.999  0.00  0.00     0.000 A 
ATOM      6  C6  BNZ d   1       2.215   4.896  -5.258  0.00  0.00     0.000 A 
ENDROOT
TORSDOF 0
ENDMDL
