MODEL 1
REMARK minimizedAffinity 2.2481854
REMARK minimizedRMSD -1
REMARK  0 active torsions:
REMARK  status: ('A' for Active; 'I' for Inactive)
ROOT
ATOM      1  C1  BNZ d   1      -0.776  -0.218   3.194  0.00  0.00     0.000 A 
ATOM      2  C2  BNZ d   1      -2.047   0.173   2.863  0.00  0.00     0.000 A 
ATOM      3  C3  BNZ d   1      -2.268   1.353   2.210  0.00  0.00     0.000 A 
ATOM      4  C4  BNZ d   1      -1.225   2.160   1.927  0.00  0.00     0.000 A 
ATOM      5  C5  BNZ d   1       0.060   1.785   2.262  0.00  0.00     0.000 A 
ATOM      6  C6  BNZ d   1       0.283   0.578   2.884  0.00  0.00     0.000 A 
ENDROOT
TORSDOF 0
ENDMDL
