MODEL 1
REMARK minimizedAffinity 4.3013916
REMARK minimizedRMSD -1
REMARK  0 active torsions:
REMARK  status: ('A' for Active; 'I' for Inactive)
ROOT
ATOM      1  C1  BNZ d   1      -2.490  -3.306  -6.000  0.00  0.00     0.000 A 
ATOM      2  C2  BNZ d   1      -1.122  -3.369  -5.997  0.00  0.00     0.000 A 
ATOM      3  C3  BNZ d   1      -0.377  -2.389  -5.404  0.00  0.00     0.000 A 
ATOM      4  C4  BNZ d   1      -0.999  -1.328  -4.850  0.00  0.00     0.000 A 
ATOM      5  C5  BNZ d   1      -2.377  -1.245  -4.852  0.00  0.00     0.000 A 
ATOM      6  C6  BNZ d   1      -3.125  -2.253  -5.416  0.00  0.00     0.000 A 
ENDROOT
TORSDOF 0
ENDMDL
