MODEL 1
REMARK minimizedAffinity 7.92351294
REMARK minimizedRMSD -1
REMARK  0 active torsions:
REMARK  status: ('A' for Active; 'I' for Inactive)
ROOT
ATOM      1  C1  BNZ d   1      -1.730  -0.157   3.198  0.00  0.00     0.000 A 
ATOM      2  C2  BNZ d   1      -2.948   0.453   3.346  0.00  0.00     0.000 A 
ATOM      3  C3  BNZ d   1      -3.604   0.976   2.267  0.00  0.00     0.000 A 
ATOM      4  C4  BNZ d   1      -3.026   0.924   1.050  0.00  0.00     0.000 A 
ATOM      5  C5  BNZ d   1      -1.795   0.321   0.886  0.00  0.00     0.000 A 
ATOM      6  C6  BNZ d   1      -1.155  -0.239   1.968  0.00  0.00     0.000 A 
ENDROOT
TORSDOF 0
ENDMDL
