MODEL 1
REMARK minimizedAffinity 8.56449223
REMARK minimizedRMSD -1
REMARK  0 active torsions:
REMARK  status: ('A' for Active; 'I' for Inactive)
ROOT
ATOM      1  C1  BNZ d   1       5.155   4.337  -5.086  0.00  0.00     0.000 A 
ATOM      2  C2  BNZ d   1       4.892   5.315  -4.164  0.00  0.00     0.000 A 
ATOM      3  C3  BNZ d   1       3.679   5.944  -4.139  0.00  0.00     0.000 A 
ATOM      4  C4  BNZ d   1       2.746   5.624  -5.058  0.00  0.00     0.000 A 
ATOM      5  C5  BNZ d   1       3.000   4.646  -6.000  0.00  0.00     0.000 A 
ATOM      6  C6  BNZ d   1       4.208   3.988  -5.998  0.00  0.00     0.000 A 
ENDROOT
TORSDOF 0
ENDMDL
