MODEL 1
REMARK minimizedAffinity 8.01643658
REMARK minimizedRMSD -1
REMARK  0 active torsions:
REMARK  status: ('A' for Active; 'I' for Inactive)
ROOT
ATOM      1  C1  BNZ d   1       0.750  -5.061   3.430  0.00  0.00     0.000 A 
ATOM      2  C2  BNZ d   1       0.816  -4.144   2.415  0.00  0.00     0.000 A 
ATOM      3  C3  BNZ d   1       1.851  -4.161   1.522  0.00  0.00     0.000 A 
ATOM      4  C4  BNZ d   1       2.837  -5.069   1.668  0.00  0.00     0.000 A 
ATOM      5  C5  BNZ d   1       2.790  -5.994   2.692  0.00  0.00     0.000 A 
ATOM      6  C6  BNZ d   1       1.727  -5.998   3.566  0.00  0.00     0.000 A 
ENDROOT
TORSDOF 0
ENDMDL
