MODEL 1
REMARK minimizedAffinity 11.6425514
REMARK minimizedRMSD -1
REMARK  0 active torsions:
REMARK  status: ('A' for Active; 'I' for Inactive)
ROOT
ATOM      1  C1  BNZ d   1      -2.550   1.126   1.246  0.00  0.00     0.000 A 
ATOM      2  C2  BNZ d   1      -2.208   1.516   2.513  0.00  0.00     0.000 A 
ATOM      3  C3  BNZ d   1      -1.399   0.737   3.292  0.00  0.00     0.000 A 
ATOM      4  C4  BNZ d   1      -0.966  -0.450   2.818  0.00  0.00     0.000 A 
ATOM      5  C5  BNZ d   1      -1.310  -0.862   1.546  0.00  0.00     0.000 A 
ATOM      6  C6  BNZ d   1      -2.093  -0.057   0.751  0.00  0.00     0.000 A 
ENDROOT
TORSDOF 0
ENDMDL
