MODEL 1
REMARK minimizedAffinity 4.29306746
REMARK minimizedRMSD -1
REMARK  0 active torsions:
REMARK  status: ('A' for Active; 'I' for Inactive)
ROOT
ATOM      1  C1  BNZ d   1       6.000  -2.275   5.606  0.00  0.00     0.000 A 
ATOM      2  C2  BNZ d   1       6.000  -1.868   4.298  0.00  0.00     0.000 A 
ATOM      3  C3  BNZ d   1       5.975  -2.781   3.281  0.00  0.00     0.000 A 
ATOM      4  C4  BNZ d   1       5.990  -4.098   3.571  0.00  0.00     0.000 A 
ATOM      5  C5  BNZ d   1       5.999  -4.524   4.884  0.00  0.00     0.000 A 
ATOM      6  C6  BNZ d   1       5.985  -3.603   5.906  0.00  0.00     0.000 A 
ENDROOT
TORSDOF 0
ENDMDL
