MODEL 1
REMARK minimizedAffinity 3.74431443
REMARK minimizedRMSD -1
REMARK  0 active torsions:
REMARK  status: ('A' for Active; 'I' for Inactive)
ROOT
ATOM      1  C1  BNZ d   1      -4.018  -0.195   1.394  0.00  0.00     0.000 A 
ATOM      2  C2  BNZ d   1      -2.875  -0.881   1.709  0.00  0.00     0.000 A 
ATOM      3  C3  BNZ d   1      -1.727  -0.215   2.036  0.00  0.00     0.000 A 
ATOM      4  C4  BNZ d   1      -1.712   1.133   2.011  0.00  0.00     0.000 A 
ATOM      5  C5  BNZ d   1      -2.854   1.839   1.687  0.00  0.00     0.000 A 
ATOM      6  C6  BNZ d   1      -4.018   1.166   1.395  0.00  0.00     0.000 A 
ENDROOT
TORSDOF 0
ENDMDL
