MODEL 1
REMARK minimizedAffinity -3.10269976
REMARK minimizedRMSD -1
REMARK  2 active torsions:
REMARK  status: ('A' for Active; 'I' for Inactive)
REMARK    1  A    between atoms: C1_2  and  C2_3 
REMARK    2  A    between atoms: C2_3  and  C3_4 
ROOT
ATOM      1  C3  UNL d   1       1.316   1.594   0.471  0.00  0.00    -0.075 A 
ATOM      2  C4  UNL d   1       0.699   2.839   0.281  0.00  0.00     0.002 A 
ATOM      3  C5  UNL d   1       1.300   4.007   0.751  0.00  0.00     0.002 A 
ATOM      4  C6  UNL d   1       2.518   3.945   1.423  0.00  0.00    -0.004 A 
ATOM      5  C7  UNL d   1       3.133   2.712   1.632  0.00  0.00     0.002 A 
ATOM      6  C8  UNL d   1       2.536   1.542   1.159  0.00  0.00     0.002 A 
ENDROOT
BRANCH   1   7
ATOM      7  C2  UNL d   1       0.685   0.330  -0.061  0.00  0.00     0.056 C 
BRANCH   7   8
ATOM      8  C1  UNL d   1      -0.839   0.282   0.090  0.00  0.00     0.007 C 
ATOM      9  C   UNL d   1      -1.308  -0.722   1.134  0.00  0.00     0.009 C 
ENDBRANCH   7   8
ENDBRANCH   1   7
TORSDOF 2
ENDMDL
