MODEL 1
REMARK minimizedAffinity -4.67667341
REMARK minimizedRMSD -1
REMARK  2 active torsions:
REMARK  status: ('A' for Active; 'I' for Inactive)
REMARK    1  A    between atoms: C1_2  and  C2_3 
REMARK    2  A    between atoms: C2_3  and  C3_4 
ROOT
ATOM      1  C3  UNL d   1      -0.790  -2.889  -0.467  0.00  0.00    -0.075 A 
ATOM      2  C4  UNL d   1      -0.969  -3.237  -1.814  0.00  0.00     0.002 A 
ATOM      3  C5  UNL d   1      -2.128  -3.894  -2.227  0.00  0.00     0.002 A 
ATOM      4  C6  UNL d   1      -3.115  -4.222  -1.300  0.00  0.00    -0.004 A 
ATOM      5  C7  UNL d   1      -2.940  -3.897   0.043  0.00  0.00     0.002 A 
ATOM      6  C8  UNL d   1      -1.783  -3.235   0.458  0.00  0.00     0.002 A 
ENDROOT
BRANCH   1   7
ATOM      7  C2  UNL d   1       0.449  -2.151  -0.019  0.00  0.00     0.056 C 
BRANCH   7   8
ATOM      8  C1  UNL d   1       0.514  -0.696  -0.494  0.00  0.00     0.007 C 
ATOM      9  C   UNL d   1      -0.611   0.168   0.062  0.00  0.00     0.009 C 
ENDBRANCH   7   8
ENDBRANCH   1   7
TORSDOF 2
ENDMDL
