MODEL 1
REMARK minimizedAffinity -1.35473454
REMARK minimizedRMSD -1
REMARK  2 active torsions:
REMARK  status: ('A' for Active; 'I' for Inactive)
REMARK    1  A    between atoms: C1_2  and  C2_3 
REMARK    2  A    between atoms: C2_3  and  C3_4 
ROOT
ATOM      1  C3  UNL d   1      -0.350   0.380   0.332  0.00  0.00    -0.075 A 
ATOM      2  C4  UNL d   1      -0.233  -0.237  -0.922  0.00  0.00     0.002 A 
ATOM      3  C5  UNL d   1      -0.548  -1.587  -1.079  0.00  0.00     0.002 A 
ATOM      4  C6  UNL d   1      -0.973  -2.338   0.014  0.00  0.00    -0.004 A 
ATOM      5  C7  UNL d   1      -1.077  -1.740   1.268  0.00  0.00     0.002 A 
ATOM      6  C8  UNL d   1      -0.767  -0.388   1.428  0.00  0.00     0.002 A 
ENDROOT
BRANCH   1   7
ATOM      7  C2  UNL d   1      -0.040   1.848   0.503  0.00  0.00     0.056 C 
BRANCH   7   8
ATOM      8  C1  UNL d   1       1.457   2.162   0.596  0.00  0.00     0.007 C 
ATOM      9  C   UNL d   1       1.752   3.476   1.308  0.00  0.00     0.009 C 
ENDBRANCH   7   8
ENDBRANCH   1   7
TORSDOF 2
ENDMDL
