MODEL 1
REMARK minimizedAffinity -3.35601139
REMARK minimizedRMSD -1
REMARK  2 active torsions:
REMARK  status: ('A' for Active; 'I' for Inactive)
REMARK    1  A    between atoms: C1_2  and  C2_3 
REMARK    2  A    between atoms: C2_3  and  C3_4 
ROOT
ATOM      1  C3  UNL d   1      -0.155   0.378   0.395  0.00  0.00    -0.075 A 
ATOM      2  C4  UNL d   1       0.103  -0.225  -0.845  0.00  0.00     0.002 A 
ATOM      3  C5  UNL d   1      -0.191  -1.573  -1.052  0.00  0.00     0.002 A 
ATOM      4  C6  UNL d   1      -0.736  -2.336  -0.023  0.00  0.00    -0.004 A 
ATOM      5  C7  UNL d   1      -0.981  -1.752   1.218  0.00  0.00     0.002 A 
ATOM      6  C8  UNL d   1      -0.692  -0.403   1.427  0.00  0.00     0.002 A 
ENDROOT
BRANCH   1   7
ATOM      7  C2  UNL d   1       0.134   1.843   0.617  0.00  0.00     0.056 C 
BRANCH   7   8
ATOM      8  C1  UNL d   1       1.615   2.214   0.483  0.00  0.00     0.007 C 
ATOM      9  C   UNL d   1       1.992   3.470   1.258  0.00  0.00     0.009 C 
ENDBRANCH   7   8
ENDBRANCH   1   7
TORSDOF 2
ENDMDL
