MODEL 1
REMARK minimizedAffinity -4.4282074
REMARK minimizedRMSD -1
REMARK  2 active torsions:
REMARK  status: ('A' for Active; 'I' for Inactive)
REMARK    1  A    between atoms: C1_2  and  C2_3 
REMARK    2  A    between atoms: C2_3  and  C3_4 
ROOT
ATOM      1  C3  UNL d   1       0.702   1.195   0.285  0.00  0.00    -0.075 A 
ATOM      2  C4  UNL d   1       2.076   1.128   0.555  0.00  0.00     0.002 A 
ATOM      3  C5  UNL d   1       2.776   2.268   0.954  0.00  0.00     0.002 A 
ATOM      4  C6  UNL d   1       2.114   3.488   1.077  0.00  0.00    -0.004 A 
ATOM      5  C7  UNL d   1       0.752   3.569   0.795  0.00  0.00     0.002 A 
ATOM      6  C8  UNL d   1       0.049   2.429   0.400  0.00  0.00     0.002 A 
ENDROOT
BRANCH   1   7
ATOM      7  C2  UNL d   1      -0.067  -0.041  -0.119  0.00  0.00     0.056 C 
BRANCH   7   8
ATOM      8  C1  UNL d   1      -0.419  -0.966   1.051  0.00  0.00     0.007 C 
ATOM      9  C   UNL d   1      -0.932  -2.329   0.606  0.00  0.00     0.009 C 
ENDBRANCH   7   8
ENDBRANCH   1   7
TORSDOF 2
ENDMDL
