MODEL 1
REMARK minimizedAffinity -4.79620218
REMARK minimizedRMSD -1
REMARK  2 active torsions:
REMARK  status: ('A' for Active; 'I' for Inactive)
REMARK    1  A    between atoms: C1_2  and  C2_3 
REMARK    2  A    between atoms: C2_3  and  C3_4 
ROOT
ATOM      1  C3  UNL d   1       0.785   1.366   0.218  0.00  0.00    -0.075 A 
ATOM      2  C4  UNL d   1       2.184   1.472   0.214  0.00  0.00     0.002 A 
ATOM      3  C5  UNL d   1       2.803   2.692   0.484  0.00  0.00     0.002 A 
ATOM      4  C6  UNL d   1       2.034   3.823   0.751  0.00  0.00    -0.004 A 
ATOM      5  C7  UNL d   1       0.643   3.733   0.742  0.00  0.00     0.002 A 
ATOM      6  C8  UNL d   1       0.021   2.512   0.476  0.00  0.00     0.002 A 
ENDROOT
BRANCH   1   7
ATOM      7  C2  UNL d   1       0.110   0.041  -0.045  0.00  0.00     0.056 C 
BRANCH   7   8
ATOM      8  C1  UNL d   1      -0.685  -0.501   1.148  0.00  0.00     0.007 C 
ATOM      9  C   UNL d   1      -0.693  -2.022   1.223  0.00  0.00     0.009 C 
ENDBRANCH   7   8
ENDBRANCH   1   7
TORSDOF 2
ENDMDL
