MODEL 1
REMARK minimizedAffinity 5.52669048
REMARK minimizedRMSD -1
REMARK  2 active torsions:
REMARK  status: ('A' for Active; 'I' for Inactive)
REMARK    1  A    between atoms: C1_2  and  C2_3 
REMARK    2  A    between atoms: C2_3  and  C3_4 
ROOT
ATOM      1  C3  UNL d   1      -1.058  -2.300  -1.025  0.00  0.00    -0.075 A 
ATOM      2  C4  UNL d   1      -1.763  -2.852   0.055  0.00  0.00     0.002 A 
ATOM      3  C5  UNL d   1      -1.732  -2.240   1.308  0.00  0.00     0.002 A 
ATOM      4  C6  UNL d   1      -0.989  -1.077   1.500  0.00  0.00    -0.004 A 
ATOM      5  C7  UNL d   1      -0.271  -0.530   0.439  0.00  0.00     0.002 A 
ATOM      6  C8  UNL d   1      -0.305  -1.138  -0.818  0.00  0.00     0.002 A 
ENDROOT
BRANCH   1   7
ATOM      7  C2  UNL d   1      -1.112  -2.942  -2.391  0.00  0.00     0.056 C 
BRANCH   7   8
ATOM      8  C1  UNL d   1      -2.242  -3.963  -2.557  0.00  0.00     0.007 C 
ATOM      9  C   UNL d   1      -1.787  -5.262  -3.209  0.00  0.00     0.009 C 
ENDBRANCH   7   8
ENDBRANCH   1   7
TORSDOF 2
ENDMDL
