MODEL 1
REMARK minimizedAffinity -2.29510164
REMARK minimizedRMSD -1
REMARK  2 active torsions:
REMARK  status: ('A' for Active; 'I' for Inactive)
REMARK    1  A    between atoms: C1_2  and  C2_3 
REMARK    2  A    between atoms: C2_3  and  C3_4 
ROOT
ATOM      1  C3  UNL d   1       0.719   1.271   0.463  0.00  0.00    -0.075 A 
ATOM      2  C4  UNL d   1       2.061   1.271   0.056  0.00  0.00     0.002 A 
ATOM      3  C5  UNL d   1       2.915   2.309   0.431  0.00  0.00     0.002 A 
ATOM      4  C6  UNL d   1       2.437   3.363   1.206  0.00  0.00    -0.004 A 
ATOM      5  C7  UNL d   1       1.101   3.382   1.602  0.00  0.00     0.002 A 
ATOM      6  C8  UNL d   1       0.246   2.342   1.232  0.00  0.00     0.002 A 
ENDROOT
BRANCH   1   7
ATOM      7  C2  UNL d   1      -0.202   0.136   0.085  0.00  0.00     0.056 C 
BRANCH   7   8
ATOM      8  C1  UNL d   1      -1.227  -0.222   1.167  0.00  0.00     0.007 C 
ATOM      9  C   UNL d   1      -0.838  -1.450   1.980  0.00  0.00     0.009 C 
ENDBRANCH   7   8
ENDBRANCH   1   7
TORSDOF 2
ENDMDL
