MODEL 1
REMARK minimizedAffinity -4.20960808
REMARK minimizedRMSD -1
REMARK  2 active torsions:
REMARK  status: ('A' for Active; 'I' for Inactive)
REMARK    1  A    between atoms: C1_2  and  C2_3 
REMARK    2  A    between atoms: C2_3  and  C3_4 
ROOT
ATOM      1  C3  UNL d   1       0.051   0.496   0.200  0.00  0.00    -0.075 A 
ATOM      2  C4  UNL d   1       0.288  -0.231  -0.975  0.00  0.00     0.002 A 
ATOM      3  C5  UNL d   1      -0.079  -1.574  -1.063  0.00  0.00     0.002 A 
ATOM      4  C6  UNL d   1      -0.678  -2.208   0.023  0.00  0.00    -0.004 A 
ATOM      5  C7  UNL d   1      -0.904  -1.500   1.201  0.00  0.00     0.002 A 
ATOM      6  C8  UNL d   1      -0.541  -0.155   1.291  0.00  0.00     0.002 A 
ENDROOT
BRANCH   1   7
ATOM      7  C2  UNL d   1       0.420   1.958   0.291  0.00  0.00     0.056 C 
BRANCH   7   8
ATOM      8  C1  UNL d   1       1.924   2.214   0.435  0.00  0.00     0.007 C 
ATOM      9  C   UNL d   1       2.251   3.350   1.395  0.00  0.00     0.009 C 
ENDBRANCH   7   8
ENDBRANCH   1   7
TORSDOF 2
ENDMDL
