MODEL 1
REMARK minimizedAffinity -3.55754423
REMARK minimizedRMSD -1
REMARK  2 active torsions:
REMARK  status: ('A' for Active; 'I' for Inactive)
REMARK    1  A    between atoms: C1_2  and  C2_3 
REMARK    2  A    between atoms: C2_3  and  C3_4 
ROOT
ATOM      1  C3  UNL d   1       0.219   1.407   0.036  0.00  0.00    -0.075 A 
ATOM      2  C4  UNL d   1      -0.121   0.836  -1.199  0.00  0.00     0.002 A 
ATOM      3  C5  UNL d   1      -0.805  -0.378  -1.253  0.00  0.00     0.002 A 
ATOM      4  C6  UNL d   1      -1.149  -1.041  -0.077  0.00  0.00    -0.004 A 
ATOM      5  C7  UNL d   1      -0.802  -0.491   1.155  0.00  0.00     0.002 A 
ATOM      6  C8  UNL d   1      -0.121   0.726   1.213  0.00  0.00     0.002 A 
ENDROOT
BRANCH   1   7
ATOM      7  C2  UNL d   1       0.933   2.736   0.103  0.00  0.00     0.056 C 
BRANCH   7   8
ATOM      8  C1  UNL d   1       2.282   2.683   0.827  0.00  0.00     0.007 C 
ATOM      9  C   UNL d   1       2.316   3.524   2.096  0.00  0.00     0.009 C 
ENDBRANCH   7   8
ENDBRANCH   1   7
TORSDOF 2
ENDMDL
