MODEL 1
REMARK minimizedAffinity -5.9847703
REMARK minimizedRMSD -1
REMARK  2 active torsions:
REMARK  status: ('A' for Active; 'I' for Inactive)
REMARK    1  A    between atoms: C1_2  and  C2_3 
REMARK    2  A    between atoms: C2_3  and  C3_4 
ROOT
ATOM      1  C3  UNL d   1       0.636  -1.352  -0.175  0.00  0.00    -0.075 A 
ATOM      2  C4  UNL d   1       0.251  -2.521   0.498  0.00  0.00     0.002 A 
ATOM      3  C5  UNL d   1      -0.203  -3.631  -0.214  0.00  0.00     0.002 A 
ATOM      4  C6  UNL d   1      -0.290  -3.584  -1.603  0.00  0.00    -0.004 A 
ATOM      5  C7  UNL d   1       0.074  -2.423  -2.281  0.00  0.00     0.002 A 
ATOM      6  C8  UNL d   1       0.533  -1.312  -1.572  0.00  0.00     0.002 A 
ENDROOT
BRANCH   1   7
ATOM      7  C2  UNL d   1       1.157  -0.158   0.587  0.00  0.00     0.056 C 
BRANCH   7   8
ATOM      8  C1  UNL d   1       0.646   1.188   0.063  0.00  0.00     0.007 C 
ATOM      9  C   UNL d   1      -0.837   1.174  -0.285  0.00  0.00     0.009 C 
ENDBRANCH   7   8
ENDBRANCH   1   7
TORSDOF 2
ENDMDL
