MODEL 1
REMARK minimizedAffinity -4.53229761
REMARK minimizedRMSD -1
REMARK  2 active torsions:
REMARK  status: ('A' for Active; 'I' for Inactive)
REMARK    1  A    between atoms: C1_2  and  C2_3 
REMARK    2  A    between atoms: C2_3  and  C3_4 
ROOT
ATOM      1  C3  UNL d   1       0.271  -0.122   0.469  0.00  0.00    -0.075 A 
ATOM      2  C4  UNL d   1      -0.193  -0.453  -0.812  0.00  0.00     0.002 A 
ATOM      3  C5  UNL d   1      -0.910  -1.631  -1.024  0.00  0.00     0.002 A 
ATOM      4  C6  UNL d   1      -1.165  -2.495   0.039  0.00  0.00    -0.004 A 
ATOM      5  C7  UNL d   1      -0.695  -2.185   1.313  0.00  0.00     0.002 A 
ATOM      6  C8  UNL d   1       0.020  -1.005   1.528  0.00  0.00     0.002 A 
ENDROOT
BRANCH   1   7
ATOM      7  C2  UNL d   1       1.023   1.165   0.710  0.00  0.00     0.056 C 
BRANCH   7   8
ATOM      8  C1  UNL d   1       0.608   2.313  -0.217  0.00  0.00     0.007 C 
ATOM      9  C   UNL d   1       1.782   3.167  -0.677  0.00  0.00     0.009 C 
ENDBRANCH   7   8
ENDBRANCH   1   7
TORSDOF 2
ENDMDL
