MODEL 1
REMARK minimizedAffinity -4.49837923
REMARK minimizedRMSD -1
REMARK  2 active torsions:
REMARK  status: ('A' for Active; 'I' for Inactive)
REMARK    1  A    between atoms: C1_2  and  C2_3 
REMARK    2  A    between atoms: C2_3  and  C3_4 
ROOT
ATOM      1  C3  UNL d   1      -0.452   0.420   0.429  0.00  0.00    -0.075 A 
ATOM      2  C4  UNL d   1      -0.706   0.227   1.794  0.00  0.00     0.002 A 
ATOM      3  C5  UNL d   1      -1.130  -1.016   2.268  0.00  0.00     0.002 A 
ATOM      4  C6  UNL d   1      -1.314  -2.076   1.382  0.00  0.00    -0.004 A 
ATOM      5  C7  UNL d   1      -1.080  -1.891   0.022  0.00  0.00     0.002 A 
ATOM      6  C8  UNL d   1      -0.652  -0.650  -0.454  0.00  0.00     0.002 A 
ENDROOT
BRANCH   1   7
ATOM      7  C2  UNL d   1       0.035   1.753  -0.086  0.00  0.00     0.056 C 
BRANCH   7   8
ATOM      8  C1  UNL d   1       1.469   2.096   0.330  0.00  0.00     0.007 C 
ATOM      9  C   UNL d   1       1.671   3.576   0.628  0.00  0.00     0.009 C 
ENDBRANCH   7   8
ENDBRANCH   1   7
TORSDOF 2
ENDMDL
