MODEL 1
REMARK minimizedAffinity -2.73013377
REMARK minimizedRMSD -1
REMARK  2 active torsions:
REMARK  status: ('A' for Active; 'I' for Inactive)
REMARK    1  A    between atoms: C1_2  and  C2_3 
REMARK    2  A    between atoms: C2_3  and  C3_4 
ROOT
ATOM      1  C3  UNL d   1      -0.618  -0.220  -0.248  0.00  0.00    -0.075 A 
ATOM      2  C4  UNL d   1      -1.101  -1.393   0.349  0.00  0.00     0.002 A 
ATOM      3  C5  UNL d   1      -1.200  -2.574  -0.387  0.00  0.00     0.002 A 
ATOM      4  C6  UNL d   1      -0.829  -2.594  -1.730  0.00  0.00    -0.004 A 
ATOM      5  C7  UNL d   1      -0.363  -1.430  -2.338  0.00  0.00     0.002 A 
ATOM      6  C8  UNL d   1      -0.259  -0.248  -1.602  0.00  0.00     0.002 A 
ENDROOT
BRANCH   1   7
ATOM      7  C2  UNL d   1      -0.480   1.054   0.552  0.00  0.00     0.056 C 
BRANCH   7   8
ATOM      8  C1  UNL d   1       0.087   2.233  -0.245  0.00  0.00     0.007 C 
ATOM      9  C   UNL d   1       0.879   3.212   0.611  0.00  0.00     0.009 C 
ENDBRANCH   7   8
ENDBRANCH   1   7
TORSDOF 2
ENDMDL
