MODEL 1
REMARK minimizedAffinity -6.1281724
REMARK minimizedRMSD -1
REMARK  2 active torsions:
REMARK  status: ('A' for Active; 'I' for Inactive)
REMARK    1  A    between atoms: C1_2  and  C2_3 
REMARK    2  A    between atoms: C2_3  and  C3_4 
ROOT
ATOM      1  C3  UNL d   1       0.146  -1.731  -0.247  0.00  0.00    -0.075 A 
ATOM      2  C4  UNL d   1       0.105  -3.024   0.296  0.00  0.00     0.002 A 
ATOM      3  C5  UNL d   1       0.154  -4.143  -0.536  0.00  0.00     0.002 A 
ATOM      4  C6  UNL d   1       0.235  -3.985  -1.917  0.00  0.00    -0.004 A 
ATOM      5  C7  UNL d   1       0.260  -2.705  -2.468  0.00  0.00     0.002 A 
ATOM      6  C8  UNL d   1       0.216  -1.584  -1.638  0.00  0.00     0.002 A 
ENDROOT
BRANCH   1   7
ATOM      7  C2  UNL d   1       0.123  -0.516   0.650  0.00  0.00     0.056 C 
BRANCH   7   8
ATOM      8  C1  UNL d   1      -1.044   0.439   0.376  0.00  0.00     0.007 C 
ATOM      9  C   UNL d   1      -2.193   0.281   1.362  0.00  0.00     0.009 C 
ENDBRANCH   7   8
ENDBRANCH   1   7
TORSDOF 2
ENDMDL
