MODEL 1
REMARK minimizedAffinity -2.97269154
REMARK minimizedRMSD -1
REMARK  0 active torsions:
REMARK  status: ('A' for Active; 'I' for Inactive)
ROOT
ATOM      1  C   UNL d   1      -1.085  -0.093   0.004  0.00  0.00     0.172 C 
ATOM      2  N   UNL d   1      -0.802   0.612   1.232  0.00  0.00    -0.070 N 
ATOM      3  C1  UNL d   1      -1.401   0.382   2.442  0.00  0.00    -0.004 A 
ATOM      4  C2  UNL d   1      -0.857   1.257   3.356  0.00  0.00    -0.047 A 
ATOM      5  C3  UNL d   1       0.102   2.042   2.672  0.00  0.00    -0.047 A 
ATOM      6  C4  UNL d   1       0.115   1.622   1.359  0.00  0.00    -0.004 A 
ENDROOT
TORSDOF 0
ENDMDL
