MODEL 1
REMARK minimizedAffinity -1.32009912
REMARK minimizedRMSD -1
REMARK  0 active torsions:
REMARK  status: ('A' for Active; 'I' for Inactive)
ROOT
ATOM      1  C   UNL d   1       0.449   2.180   2.377  0.00  0.00     0.172 C 
ATOM      2  N   UNL d   1      -0.516   1.216   1.901  0.00  0.00    -0.070 N 
ATOM      3  C1  UNL d   1      -0.669   0.815   0.601  0.00  0.00    -0.004 A 
ATOM      4  C2  UNL d   1      -1.689  -0.111   0.563  0.00  0.00    -0.047 A 
ATOM      5  C3  UNL d   1      -2.166  -0.271   1.886  0.00  0.00    -0.047 A 
ATOM      6  C4  UNL d   1      -1.422   0.562   2.694  0.00  0.00    -0.004 A 
ENDROOT
TORSDOF 0
ENDMDL
