MODEL 1
REMARK minimizedAffinity -2.02517271
REMARK minimizedRMSD -1
REMARK  0 active torsions:
REMARK  status: ('A' for Active; 'I' for Inactive)
ROOT
ATOM      1  C   UNL d   1       2.231   1.715   1.132  0.00  0.00     0.172 C 
ATOM      2  N   UNL d   1       1.049   1.419   1.906  0.00  0.00    -0.070 N 
ATOM      3  C1  UNL d   1       0.238   0.329   1.740  0.00  0.00    -0.004 A 
ATOM      4  C2  UNL d   1      -0.777   0.411   2.669  0.00  0.00    -0.047 A 
ATOM      5  C3  UNL d   1      -0.569   1.594   3.419  0.00  0.00    -0.047 A 
ATOM      6  C4  UNL d   1       0.568   2.198   2.925  0.00  0.00    -0.004 A 
ENDROOT
TORSDOF 0
ENDMDL
