MODEL 1
REMARK minimizedAffinity 0.229153678
REMARK minimizedRMSD -1
REMARK  0 active torsions:
REMARK  status: ('A' for Active; 'I' for Inactive)
ROOT
ATOM      1  C   UNL d   1      -1.630  -0.389   0.324  0.00  0.00     0.172 C 
ATOM      2  N   UNL d   1      -0.981   0.409   1.338  0.00  0.00    -0.070 N 
ATOM      3  C1  UNL d   1       0.118   1.203   1.147  0.00  0.00    -0.004 A 
ATOM      4  C2  UNL d   1       0.427   1.794   2.353  0.00  0.00    -0.047 A 
ATOM      5  C3  UNL d   1      -0.519   1.339   3.302  0.00  0.00    -0.047 A 
ATOM      6  C4  UNL d   1      -1.379   0.483   2.647  0.00  0.00    -0.004 A 
ENDROOT
TORSDOF 0
ENDMDL
