MODEL 1
REMARK minimizedAffinity -2.98911548
REMARK minimizedRMSD -1
REMARK  0 active torsions:
REMARK  status: ('A' for Active; 'I' for Inactive)
ROOT
ATOM      1  C   UNL d   1      -1.476  -0.774   0.322  0.00  0.00     0.172 C 
ATOM      2  N   UNL d   1      -0.548   0.051   1.058  0.00  0.00    -0.070 N 
ATOM      3  C1  UNL d   1       0.778   0.221   0.761  0.00  0.00    -0.004 A 
ATOM      4  C2  UNL d   1       1.313   1.080   1.697  0.00  0.00    -0.047 A 
ATOM      5  C3  UNL d   1       0.273   1.438   2.587  0.00  0.00    -0.047 A 
ATOM      6  C4  UNL d   1      -0.868   0.787   2.169  0.00  0.00    -0.004 A 
ENDROOT
TORSDOF 0
ENDMDL
