MODEL 1
REMARK minimizedAffinity -0.742102623
REMARK minimizedRMSD -1
REMARK  0 active torsions:
REMARK  status: ('A' for Active; 'I' for Inactive)
ROOT
ATOM      1  C   UNL d   1       2.219   1.586   1.107  0.00  0.00     0.172 C 
ATOM      2  N   UNL d   1       0.967   1.210   1.721  0.00  0.00    -0.070 N 
ATOM      3  C1  UNL d   1       0.135   0.211   1.291  0.00  0.00    -0.004 A 
ATOM      4  C2  UNL d   1      -0.949   0.169   2.141  0.00  0.00    -0.047 A 
ATOM      5  C3  UNL d   1      -0.764   1.179   3.114  0.00  0.00    -0.047 A 
ATOM      6  C4  UNL d   1       0.430   1.808   2.831  0.00  0.00    -0.004 A 
ENDROOT
TORSDOF 0
ENDMDL
