MODEL 1
REMARK minimizedAffinity -0.0117060449
REMARK minimizedRMSD -1
REMARK  0 active torsions:
REMARK  status: ('A' for Active; 'I' for Inactive)
ROOT
ATOM      1  C   UNL d   1      -0.016  -0.864   3.935  0.00  0.00     0.172 C 
ATOM      2  N   UNL d   1      -0.516  -0.554   2.616  0.00  0.00    -0.070 N 
ATOM      3  C1  UNL d   1       0.251  -0.260   1.520  0.00  0.00    -0.004 A 
ATOM      4  C2  UNL d   1      -0.598  -0.026   0.461  0.00  0.00    -0.047 A 
ATOM      5  C3  UNL d   1      -1.922  -0.185   0.936  0.00  0.00    -0.047 A 
ATOM      6  C4  UNL d   1      -1.841  -0.511   2.273  0.00  0.00    -0.004 A 
ENDROOT
TORSDOF 0
ENDMDL
