MODEL 1
REMARK minimizedAffinity -5.13078785
REMARK minimizedRMSD -1
REMARK  2 active torsions:
REMARK  status: ('A' for Active; 'I' for Inactive)
REMARK    1  A    between atoms: C1_2  and  C2_3 
REMARK    2  A    between atoms: C2_3  and  C3_4 
ROOT
ATOM      1  C3  UNL d   1      -0.155   0.072   0.090  0.00  0.00    -0.075 A 
ATOM      2  C4  UNL d   1       1.197  -0.282   0.200  0.00  0.00     0.002 A 
ATOM      3  C5  UNL d   1       1.729  -0.674   1.428  0.00  0.00     0.002 A 
ATOM      4  C6  UNL d   1       0.921  -0.708   2.562  0.00  0.00    -0.004 A 
ATOM      5  C7  UNL d   1      -0.420  -0.342   2.468  0.00  0.00     0.002 A 
ATOM      6  C8  UNL d   1      -0.956   0.047   1.239  0.00  0.00     0.002 A 
ENDROOT
BRANCH   1   7
ATOM      7  C2  UNL d   1      -0.744   0.470  -1.242  0.00  0.00     0.056 C 
BRANCH   7   8
ATOM      8  C1  UNL d   1      -0.791   1.983  -1.477  0.00  0.00     0.007 C 
ATOM      9  C   UNL d   1      -1.489   2.368  -2.775  0.00  0.00     0.009 C 
ENDBRANCH   7   8
ENDBRANCH   1   7
TORSDOF 2
ENDMDL
