MODEL 1
REMARK minimizedAffinity -5.28006315
REMARK minimizedRMSD -1
REMARK  2 active torsions:
REMARK  status: ('A' for Active; 'I' for Inactive)
REMARK    1  A    between atoms: C1_2  and  C2_3 
REMARK    2  A    between atoms: C2_3  and  C3_4 
ROOT
ATOM      1  C3  UNL d   1      -1.113   0.267  -0.400  0.00  0.00    -0.075 A 
ATOM      2  C4  UNL d   1       0.278   0.365  -0.251  0.00  0.00     0.002 A 
ATOM      3  C5  UNL d   1       0.884   0.047   0.965  0.00  0.00     0.002 A 
ATOM      4  C6  UNL d   1       0.108  -0.363   2.047  0.00  0.00    -0.004 A 
ATOM      5  C7  UNL d   1      -1.276  -0.448   1.915  0.00  0.00     0.002 A 
ATOM      6  C8  UNL d   1      -1.884  -0.134   0.698  0.00  0.00     0.002 A 
ENDROOT
BRANCH   1   7
ATOM      7  C2  UNL d   1      -1.772   0.582  -1.722  0.00  0.00     0.056 C 
BRANCH   7   8
ATOM      8  C1  UNL d   1      -1.286   1.885  -2.366  0.00  0.00     0.007 C 
ATOM      9  C   UNL d   1      -2.136   3.092  -1.995  0.00  0.00     0.009 C 
ENDBRANCH   7   8
ENDBRANCH   1   7
TORSDOF 2
ENDMDL
