MODEL 1
REMARK minimizedAffinity -1.96469271
REMARK minimizedRMSD -1
REMARK  2 active torsions:
REMARK  status: ('A' for Active; 'I' for Inactive)
REMARK    1  A    between atoms: C1_2  and  C2_3 
REMARK    2  A    between atoms: C2_3  and  C3_4 
ROOT
ATOM      1  C3  UNL d   1       0.037  -0.005  -0.548  0.00  0.00    -0.075 A 
ATOM      2  C4  UNL d   1       1.087  -0.897  -0.814  0.00  0.00     0.002 A 
ATOM      3  C5  UNL d   1       2.319  -0.426  -1.266  0.00  0.00     0.002 A 
ATOM      4  C6  UNL d   1       2.516   0.938  -1.468  0.00  0.00    -0.004 A 
ATOM      5  C7  UNL d   1       1.475   1.832  -1.223  0.00  0.00     0.002 A 
ATOM      6  C8  UNL d   1       0.242   1.364  -0.767  0.00  0.00     0.002 A 
ENDROOT
BRANCH   1   7
ATOM      7  C2  UNL d   1      -1.290  -0.505  -0.030  0.00  0.00     0.056 C 
BRANCH   7   8
ATOM      8  C1  UNL d   1      -1.530  -0.213   1.454  0.00  0.00     0.007 C 
ATOM      9  C   UNL d   1      -0.694  -1.086   2.381  0.00  0.00     0.009 C 
ENDBRANCH   7   8
ENDBRANCH   1   7
TORSDOF 2
ENDMDL
