MODEL 1
REMARK minimizedAffinity -2.78679585
REMARK minimizedRMSD -1
REMARK  2 active torsions:
REMARK  status: ('A' for Active; 'I' for Inactive)
REMARK    1  A    between atoms: C1_2  and  C2_3 
REMARK    2  A    between atoms: C2_3  and  C3_4 
ROOT
ATOM      1  C3  UNL d   1      -0.035  -0.497   0.510  0.00  0.00    -0.075 A 
ATOM      2  C4  UNL d   1       1.367  -0.546   0.507  0.00  0.00     0.002 A 
ATOM      3  C5  UNL d   1       2.066  -0.866   1.671  0.00  0.00     0.002 A 
ATOM      4  C6  UNL d   1       1.376  -1.130   2.852  0.00  0.00    -0.004 A 
ATOM      5  C7  UNL d   1      -0.016  -1.068   2.870  0.00  0.00     0.002 A 
ATOM      6  C8  UNL d   1      -0.719  -0.753   1.706  0.00  0.00     0.002 A 
ENDROOT
BRANCH   1   7
ATOM      7  C2  UNL d   1      -0.799  -0.180  -0.754  0.00  0.00     0.056 C 
BRANCH   7   8
ATOM      8  C1  UNL d   1      -0.711   1.288  -1.184  0.00  0.00     0.007 C 
ATOM      9  C   UNL d   1      -1.946   1.768  -1.936  0.00  0.00     0.009 C 
ENDBRANCH   7   8
ENDBRANCH   1   7
TORSDOF 2
ENDMDL
