MODEL 1
REMARK minimizedAffinity -5.39765072
REMARK minimizedRMSD -1
REMARK  2 active torsions:
REMARK  status: ('A' for Active; 'I' for Inactive)
REMARK    1  A    between atoms: C1_2  and  C2_3 
REMARK    2  A    between atoms: C2_3  and  C3_4 
ROOT
ATOM      1  C3  UNL d   1       0.021  -0.014   0.244  0.00  0.00    -0.075 A 
ATOM      2  C4  UNL d   1      -0.498  -0.112   1.543  0.00  0.00     0.002 A 
ATOM      3  C5  UNL d   1       0.222  -0.759   2.547  0.00  0.00     0.002 A 
ATOM      4  C6  UNL d   1       1.464  -1.324   2.263  0.00  0.00    -0.004 A 
ATOM      5  C7  UNL d   1       1.982  -1.247   0.972  0.00  0.00     0.002 A 
ATOM      6  C8  UNL d   1       1.265  -0.596  -0.033  0.00  0.00     0.002 A 
ENDROOT
BRANCH   1   7
ATOM      7  C2  UNL d   1      -0.741   0.711  -0.840  0.00  0.00     0.056 C 
BRANCH   7   8
ATOM      8  C1  UNL d   1       0.050   1.840  -1.510  0.00  0.00     0.007 C 
ATOM      9  C   UNL d   1      -0.839   2.896  -2.152  0.00  0.00     0.009 C 
ENDBRANCH   7   8
ENDBRANCH   1   7
TORSDOF 2
ENDMDL
