MODEL 1
REMARK minimizedAffinity 4.48314381
REMARK minimizedRMSD -1
REMARK  2 active torsions:
REMARK  status: ('A' for Active; 'I' for Inactive)
REMARK    1  A    between atoms: C1_2  and  C2_3 
REMARK    2  A    between atoms: C2_3  and  C3_4 
ROOT
ATOM      1  C3  UNL d   1       0.808  -1.605   2.129  0.00  0.00    -0.075 A 
ATOM      2  C4  UNL d   1       0.824  -3.002   2.017  0.00  0.00     0.002 A 
ATOM      3  C5  UNL d   1      -0.094  -3.780   2.724  0.00  0.00     0.002 A 
ATOM      4  C6  UNL d   1      -1.029  -3.173   3.559  0.00  0.00    -0.004 A 
ATOM      5  C7  UNL d   1      -1.043  -1.786   3.691  0.00  0.00     0.002 A 
ATOM      6  C8  UNL d   1      -0.129  -1.005   2.982  0.00  0.00     0.002 A 
ENDROOT
BRANCH   1   7
ATOM      7  C2  UNL d   1       1.779  -0.755   1.344  0.00  0.00     0.056 C 
BRANCH   7   8
ATOM      8  C1  UNL d   1       2.260  -1.402   0.040  0.00  0.00     0.007 C 
ATOM      9  C   UNL d   1       1.384  -1.060  -1.158  0.00  0.00     0.009 C 
ENDBRANCH   7   8
ENDBRANCH   1   7
TORSDOF 2
ENDMDL
