MODEL 1
REMARK minimizedAffinity -4.40415716
REMARK minimizedRMSD -1
REMARK  0 active torsions:
REMARK  status: ('A' for Active; 'I' for Inactive)
ROOT
ATOM      1  C1  DEN d   1       0.758  -0.566   0.583  0.00  0.00     0.130 A 
ATOM      2  C2  DEN d   1       0.976   0.451  -0.442  0.00  0.00    -0.031 A 
ATOM      3  C3  DEN d   1      -0.232   0.512  -1.289  0.00  0.00     0.027 A 
ATOM      4  C4  DEN d   1      -2.409  -0.859  -1.111  0.00  0.00     0.027 A 
ATOM      5  C5  DEN d   1      -3.056  -1.852  -0.409  0.00  0.00    -0.003 A 
ATOM      6  C6  DEN d   1      -2.469  -2.503   0.643  0.00  0.00     0.001 A 
ATOM      7  C7  DEN d   1      -1.214  -2.139   1.052  0.00  0.00     0.017 A 
ATOM      8  C8  DEN d   1      -0.552  -1.144   0.344  0.00  0.00    -0.094 A 
ATOM      9  C9  DEN d   1      -1.167  -0.489  -0.709  0.00  0.00    -0.072 A 
ENDROOT
TORSDOF 0
ENDMDL
