MODEL 1
REMARK minimizedAffinity -5.69412041
REMARK minimizedRMSD -1
REMARK  0 active torsions:
REMARK  status: ('A' for Active; 'I' for Inactive)
ROOT
ATOM      1  C1  DEN d   1       0.551  -0.658   0.766  0.00  0.00     0.130 A 
ATOM      2  C2  DEN d   1       0.531   0.399  -0.242  0.00  0.00    -0.031 A 
ATOM      3  C3  DEN d   1      -0.813   0.421  -0.854  0.00  0.00     0.027 A 
ATOM      4  C4  DEN d   1      -2.855  -1.067  -0.338  0.00  0.00     0.027 A 
ATOM      5  C5  DEN d   1      -3.317  -2.112   0.431  0.00  0.00    -0.003 A 
ATOM      6  C6  DEN d   1      -2.518  -2.763   1.334  0.00  0.00     0.001 A 
ATOM      7  C7  DEN d   1      -1.227  -2.345   1.523  0.00  0.00     0.017 A 
ATOM      8  C8  DEN d   1      -0.753  -1.297   0.746  0.00  0.00    -0.094 A 
ATOM      9  C9  DEN d   1      -1.579  -0.644  -0.153  0.00  0.00    -0.072 A 
ENDROOT
TORSDOF 0
ENDMDL
