MODEL 1
REMARK minimizedAffinity -6.00509262
REMARK minimizedRMSD -1
REMARK  0 active torsions:
REMARK  status: ('A' for Active; 'I' for Inactive)
ROOT
ATOM      1  C1  DEN d   1      -0.064   0.712  -0.689  0.00  0.00     0.130 A 
ATOM      2  C2  DEN d   1       1.253   0.262  -0.246  0.00  0.00    -0.031 A 
ATOM      3  C3  DEN d   1       1.060  -0.855   0.700  0.00  0.00     0.027 A 
ATOM      4  C4  DEN d   1      -1.139  -1.929   1.515  0.00  0.00     0.027 A 
ATOM      5  C5  DEN d   1      -2.513  -1.879   1.426  0.00  0.00    -0.003 A 
ATOM      6  C6  DEN d   1      -3.162  -0.948   0.659  0.00  0.00     0.001 A 
ATOM      7  C7  DEN d   1      -2.436  -0.057  -0.086  0.00  0.00     0.017 A 
ATOM      8  C8  DEN d   1      -1.051  -0.096   0.004  0.00  0.00    -0.094 A 
ATOM      9  C9  DEN d   1      -0.413  -1.052   0.776  0.00  0.00    -0.072 A 
ENDROOT
TORSDOF 0
ENDMDL
