MODEL 1
REMARK minimizedAffinity -4.18464088
REMARK minimizedRMSD -1
REMARK  0 active torsions:
REMARK  status: ('A' for Active; 'I' for Inactive)
ROOT
ATOM      1  C1  DEN d   1       0.575  -0.154   0.742  0.00  0.00     0.130 A 
ATOM      2  C2  DEN d   1       0.959   0.334  -0.580  0.00  0.00    -0.031 A 
ATOM      3  C3  DEN d   1      -0.140   0.026  -1.517  0.00  0.00     0.027 A 
ATOM      4  C4  DEN d   1      -2.389  -1.147  -1.050  0.00  0.00     0.027 A 
ATOM      5  C5  DEN d   1      -3.161  -1.751  -0.081  0.00  0.00    -0.003 A 
ATOM      6  C6  DEN d   1      -2.731  -1.894   1.211  0.00  0.00     0.001 A 
ATOM      7  C7  DEN d   1      -1.513  -1.386   1.581  0.00  0.00     0.017 A 
ATOM      8  C8  DEN d   1      -0.726  -0.783   0.609  0.00  0.00    -0.094 A 
ATOM      9  C9  DEN d   1      -1.184  -0.638  -0.690  0.00  0.00    -0.072 A 
ENDROOT
TORSDOF 0
ENDMDL
