MODEL 1
REMARK minimizedAffinity -6.8154974
REMARK minimizedRMSD -1
REMARK  0 active torsions:
REMARK  status: ('A' for Active; 'I' for Inactive)
ROOT
ATOM      1  C1  DEN d   1      -2.951  -0.563  -0.155  0.00  0.00     0.130 A 
ATOM      2  C2  DEN d   1      -3.355  -1.320   1.027  0.00  0.00    -0.031 A 
ATOM      3  C3  DEN d   1      -2.137  -1.669   1.785  0.00  0.00     0.027 A 
ATOM      4  C4  DEN d   1       0.323  -1.110   1.248  0.00  0.00     0.027 A 
ATOM      5  C5  DEN d   1       1.164  -0.496   0.346  0.00  0.00    -0.003 A 
ATOM      6  C6  DEN d   1       0.699   0.104  -0.794  0.00  0.00     0.001 A 
ATOM      7  C7  DEN d   1      -0.648   0.142  -1.040  0.00  0.00     0.017 A 
ATOM      8  C8  DEN d   1      -1.502  -0.481  -0.139  0.00  0.00    -0.094 A 
ATOM      9  C9  DEN d   1      -1.013  -1.071   1.014  0.00  0.00    -0.072 A 
ENDROOT
TORSDOF 0
ENDMDL
