MODEL 1
REMARK minimizedAffinity -3.81577826
REMARK minimizedRMSD -1
REMARK  0 active torsions:
REMARK  status: ('A' for Active; 'I' for Inactive)
ROOT
ATOM      1  C1  DEN d   1      -0.200   0.262  -1.069  0.00  0.00     0.130 A 
ATOM      2  C2  DEN d   1       0.906   0.163  -0.121  0.00  0.00    -0.031 A 
ATOM      3  C3  DEN d   1       0.492  -0.739   0.971  0.00  0.00     0.027 A 
ATOM      4  C4  DEN d   1      -1.742  -1.991   1.282  0.00  0.00     0.027 A 
ATOM      5  C5  DEN d   1      -2.990  -2.210   0.743  0.00  0.00    -0.003 A 
ATOM      6  C6  DEN d   1      -3.405  -1.599  -0.410  0.00  0.00     0.001 A 
ATOM      7  C7  DEN d   1      -2.547  -0.773  -1.087  0.00  0.00     0.017 A 
ATOM      8  C8  DEN d   1      -1.289  -0.541  -0.546  0.00  0.00    -0.094 A 
ATOM      9  C9  DEN d   1      -0.884  -1.178   0.615  0.00  0.00    -0.072 A 
ENDROOT
TORSDOF 0
ENDMDL
