MODEL 1
REMARK minimizedAffinity 1.03388345
REMARK minimizedRMSD -1
REMARK  0 active torsions:
REMARK  status: ('A' for Active; 'I' for Inactive)
ROOT
ATOM      1  C1  DEN d   1       1.499   2.521   2.673  0.00  0.00     0.130 A 
ATOM      2  C2  DEN d   1       2.292   3.515   1.955  0.00  0.00    -0.031 A 
ATOM      3  C3  DEN d   1       2.344   3.118   0.534  0.00  0.00     0.027 A 
ATOM      4  C4  DEN d   1       1.275   1.075  -0.621  0.00  0.00     0.027 A 
ATOM      5  C5  DEN d   1       0.517  -0.058  -0.421  0.00  0.00    -0.003 A 
ATOM      6  C6  DEN d   1       0.066  -0.427   0.818  0.00  0.00     0.001 A 
ATOM      7  C7  DEN d   1       0.331   0.370   1.901  0.00  0.00     0.017 A 
ATOM      8  C8  DEN d   1       1.100   1.510   1.709  0.00  0.00    -0.094 A 
ATOM      9  C9  DEN d   1       1.536   1.872   0.446  0.00  0.00    -0.072 A 
ENDROOT
TORSDOF 0
ENDMDL
