MODEL 1
REMARK minimizedAffinity 0.793924868
REMARK minimizedRMSD -1
REMARK  0 active torsions:
REMARK  status: ('A' for Active; 'I' for Inactive)
ROOT
ATOM      1  C1  DEN d   1      -0.487  -0.659  -2.138  0.00  0.00     0.130 A 
ATOM      2  C2  DEN d   1      -0.459   0.757  -2.495  0.00  0.00    -0.031 A 
ATOM      3  C3  DEN d   1       0.038   1.512  -1.327  0.00  0.00     0.027 A 
ATOM      4  C4  DEN d   1       0.768   0.631   0.984  0.00  0.00     0.027 A 
ATOM      5  C5  DEN d   1       0.909  -0.497   1.762  0.00  0.00    -0.003 A 
ATOM      6  C6  DEN d   1       0.565  -1.743   1.310  0.00  0.00     0.001 A 
ATOM      7  C7  DEN d   1       0.106  -1.898   0.029  0.00  0.00     0.017 A 
ATOM      8  C8  DEN d   1      -0.046  -0.764  -0.759  0.00  0.00    -0.094 A 
ATOM      9  C9  DEN d   1       0.318   0.486  -0.288  0.00  0.00    -0.072 A 
ENDROOT
TORSDOF 0
ENDMDL
