MODEL 1
REMARK minimizedAffinity -2.35416555
REMARK minimizedRMSD -1
REMARK  0 active torsions:
REMARK  status: ('A' for Active; 'I' for Inactive)
ROOT
ATOM      1  C1  DEN d   1       0.120  -1.848   1.491  0.00  0.00     0.130 A 
ATOM      2  C2  DEN d   1       1.215  -0.896   1.330  0.00  0.00    -0.031 A 
ATOM      3  C3  DEN d   1       0.793   0.124   0.349  0.00  0.00     0.027 A 
ATOM      4  C4  DEN d   1      -1.439   0.321  -0.928  0.00  0.00     0.027 A 
ATOM      5  C5  DEN d   1      -2.671  -0.260  -1.131  0.00  0.00    -0.003 A 
ATOM      6  C6  DEN d   1      -3.043  -1.420  -0.505  0.00  0.00     0.001 A 
ATOM      7  C7  DEN d   1      -2.191  -2.012   0.389  0.00  0.00     0.017 A 
ATOM      8  C8  DEN d   1      -0.944  -1.436   0.593  0.00  0.00    -0.094 A 
ATOM      9  C9  DEN d   1      -0.592  -0.257  -0.039  0.00  0.00    -0.072 A 
ENDROOT
TORSDOF 0
ENDMDL
