MODEL 1
REMARK minimizedAffinity -4.78747129
REMARK minimizedRMSD -1
REMARK  0 active torsions:
REMARK  status: ('A' for Active; 'I' for Inactive)
ROOT
ATOM      1  C   UNL d   1      -0.656  -2.885   0.050  0.00  0.00     0.023 A 
ATOM      2  C1  UNL d   1      -0.830  -2.007   1.120  0.00  0.00     0.003 A 
ATOM      3  C2  UNL d   1      -0.280  -0.725   1.068  0.00  0.00     0.048 A 
ATOM      4  C3  UNL d   1       0.442  -0.326  -0.056  0.00  0.00     0.023 A 
ATOM      5  C4  UNL d   1       0.618  -1.201  -1.129  0.00  0.00     0.048 A 
ATOM      6  C5  UNL d   1       0.067  -2.483  -1.073  0.00  0.00     0.003 A 
ATOM      7  I   UNL d   1       1.261   1.583  -0.135  0.00  0.00    -0.146 I 
ENDROOT
TORSDOF 0
ENDMDL
