MODEL 1
REMARK minimizedAffinity -3.77771711
REMARK minimizedRMSD -1
REMARK  0 active torsions:
REMARK  status: ('A' for Active; 'I' for Inactive)
ROOT
ATOM      1  C   UNL d   1       0.664   2.063  -0.840  0.00  0.00     0.023 A 
ATOM      2  C1  UNL d   1       0.009   1.213  -1.731  0.00  0.00     0.003 A 
ATOM      3  C2  UNL d   1      -0.246  -0.113  -1.373  0.00  0.00     0.048 A 
ATOM      4  C3  UNL d   1       0.155  -0.581  -0.122  0.00  0.00     0.023 A 
ATOM      5  C4  UNL d   1       0.810   0.267   0.773  0.00  0.00     0.048 A 
ATOM      6  C5  UNL d   1       1.064   1.591   0.410  0.00  0.00     0.003 A 
ATOM      7  I   UNL d   1      -0.224  -2.553   0.413  0.00  0.00    -0.146 I 
ENDROOT
TORSDOF 0
ENDMDL
