MODEL 1
REMARK minimizedAffinity -3.23529673
REMARK minimizedRMSD -1
REMARK  0 active torsions:
REMARK  status: ('A' for Active; 'I' for Inactive)
ROOT
ATOM      1  C   UNL d   1      -0.221  -3.372   0.598  0.00  0.00     0.023 A 
ATOM      2  C1  UNL d   1      -1.386  -2.619   0.743  0.00  0.00     0.003 A 
ATOM      3  C2  UNL d   1      -1.381  -1.256   0.441  0.00  0.00     0.048 A 
ATOM      4  C3  UNL d   1      -0.207  -0.652  -0.007  0.00  0.00     0.023 A 
ATOM      5  C4  UNL d   1       0.962  -1.401  -0.155  0.00  0.00     0.048 A 
ATOM      6  C5  UNL d   1       0.952  -2.763   0.150  0.00  0.00     0.003 A 
ATOM      7  I   UNL d   1      -0.197   1.377  -0.458  0.00  0.00    -0.146 I 
ENDROOT
TORSDOF 0
ENDMDL
