MODEL 1
REMARK minimizedAffinity -2.10774541
REMARK minimizedRMSD -1
REMARK  0 active torsions:
REMARK  status: ('A' for Active; 'I' for Inactive)
ROOT
ATOM      1  C   UNL d   1      -0.614  -1.575   0.014  0.00  0.00     0.023 A 
ATOM      2  C1  UNL d   1       0.424  -1.203  -0.841  0.00  0.00     0.003 A 
ATOM      3  C2  UNL d   1       0.975   0.077  -0.757  0.00  0.00     0.048 A 
ATOM      4  C3  UNL d   1       0.484   0.981   0.186  0.00  0.00     0.023 A 
ATOM      5  C4  UNL d   1      -0.553   0.613   1.044  0.00  0.00     0.048 A 
ATOM      6  C5  UNL d   1      -1.102  -0.668   0.956  0.00  0.00     0.003 A 
ATOM      7  I   UNL d   1       1.303   2.887   0.313  0.00  0.00    -0.146 I 
ENDROOT
TORSDOF 0
ENDMDL
