MODEL 1
REMARK minimizedAffinity -2.2205658
REMARK minimizedRMSD -1
REMARK  0 active torsions:
REMARK  status: ('A' for Active; 'I' for Inactive)
ROOT
ATOM      1  C   UNL d   1      -1.633  -1.905   1.850  0.00  0.00     0.023 A 
ATOM      2  C1  UNL d   1      -1.204  -0.578   1.806  0.00  0.00     0.003 A 
ATOM      3  C2  UNL d   1      -0.441  -0.125   0.728  0.00  0.00     0.048 A 
ATOM      4  C3  UNL d   1      -0.111  -1.004  -0.303  0.00  0.00     0.023 A 
ATOM      5  C4  UNL d   1      -0.539  -2.332  -0.264  0.00  0.00     0.048 A 
ATOM      6  C5  UNL d   1      -1.301  -2.781   0.816  0.00  0.00     0.003 A 
ATOM      7  I   UNL d   1       1.025  -0.332  -1.909  0.00  0.00    -0.146 I 
ENDROOT
TORSDOF 0
ENDMDL
