MODEL 1
REMARK minimizedAffinity -3.5677855
REMARK minimizedRMSD -1
REMARK  0 active torsions:
REMARK  status: ('A' for Active; 'I' for Inactive)
ROOT
ATOM      1  C   UNL d   1      -1.095  -2.135   1.656  0.00  0.00     0.023 A 
ATOM      2  C1  UNL d   1      -0.426  -2.145   0.432  0.00  0.00     0.003 A 
ATOM      3  C2  UNL d   1       0.081  -0.957  -0.099  0.00  0.00     0.048 A 
ATOM      4  C3  UNL d   1      -0.082   0.238   0.601  0.00  0.00     0.023 A 
ATOM      5  C4  UNL d   1      -0.750   0.253   1.827  0.00  0.00     0.048 A 
ATOM      6  C5  UNL d   1      -1.256  -0.937   2.353  0.00  0.00     0.003 A 
ATOM      7  I   UNL d   1       0.673   2.007  -0.186  0.00  0.00    -0.146 I 
ENDROOT
TORSDOF 0
ENDMDL
