MODEL 1
REMARK minimizedAffinity -4.99403477
REMARK minimizedRMSD -1
REMARK  0 active torsions:
REMARK  status: ('A' for Active; 'I' for Inactive)
ROOT
ATOM      1  C   UNL d   1      -0.461  -2.190   1.079  0.00  0.00     0.023 A 
ATOM      2  C1  UNL d   1      -0.071  -1.815  -0.207  0.00  0.00     0.003 A 
ATOM      3  C2  UNL d   1       0.329  -0.502  -0.461  0.00  0.00     0.048 A 
ATOM      4  C3  UNL d   1       0.337   0.431   0.575  0.00  0.00     0.023 A 
ATOM      5  C4  UNL d   1      -0.051   0.060   1.863  0.00  0.00     0.048 A 
ATOM      6  C5  UNL d   1      -0.451  -1.254   2.113  0.00  0.00     0.003 A 
ATOM      7  I   UNL d   1       0.932   2.387   0.199  0.00  0.00    -0.146 I 
ENDROOT
TORSDOF 0
ENDMDL
