MODEL 1
REMARK minimizedAffinity -5.07989168
REMARK minimizedRMSD -1
REMARK  0 active torsions:
REMARK  status: ('A' for Active; 'I' for Inactive)
ROOT
ATOM      1  C   UNL d   1       1.341   2.564   0.065  0.00  0.00     0.023 A 
ATOM      2  C1  UNL d   1       2.240   1.664   0.637  0.00  0.00     0.003 A 
ATOM      3  C2  UNL d   1       1.831   0.365   0.944  0.00  0.00     0.048 A 
ATOM      4  C3  UNL d   1       0.520  -0.028   0.676  0.00  0.00     0.023 A 
ATOM      5  C4  UNL d   1      -0.383   0.869   0.103  0.00  0.00     0.048 A 
ATOM      6  C5  UNL d   1       0.031   2.167  -0.202  0.00  0.00     0.003 A 
ATOM      7  I   UNL d   1      -0.093  -1.961   1.132  0.00  0.00    -0.146 I 
ENDROOT
TORSDOF 0
ENDMDL
