MODEL 1
REMARK minimizedAffinity -1.0430373
REMARK minimizedRMSD -1
REMARK  0 active torsions:
REMARK  status: ('A' for Active; 'I' for Inactive)
ROOT
ATOM      1  C   UNL d   1      -0.704  -0.596   1.819  0.00  0.00     0.023 A 
ATOM      2  C1  UNL d   1      -1.245  -1.846   1.514  0.00  0.00     0.003 A 
ATOM      3  C2  UNL d   1      -1.058  -2.398   0.245  0.00  0.00     0.048 A 
ATOM      4  C3  UNL d   1      -0.329  -1.696  -0.714  0.00  0.00     0.023 A 
ATOM      5  C4  UNL d   1       0.214  -0.446  -0.413  0.00  0.00     0.048 A 
ATOM      6  C5  UNL d   1       0.025   0.102   0.856  0.00  0.00     0.003 A 
ATOM      7  I   UNL d   1      -0.051  -2.516  -2.603  0.00  0.00    -0.146 I 
ENDROOT
TORSDOF 0
ENDMDL
