MODEL 1
REMARK minimizedAffinity -4.45874071
REMARK minimizedRMSD -1
REMARK  0 active torsions:
REMARK  status: ('A' for Active; 'I' for Inactive)
ROOT
ATOM      1  C   UNL d   1       0.643  -3.564  -1.707  0.00  0.00     0.023 A 
ATOM      2  C1  UNL d   1       0.601  -2.295  -2.284  0.00  0.00     0.003 A 
ATOM      3  C2  UNL d   1       0.121  -1.209  -1.549  0.00  0.00     0.048 A 
ATOM      4  C3  UNL d   1      -0.314  -1.398  -0.238  0.00  0.00     0.023 A 
ATOM      5  C4  UNL d   1      -0.273  -2.666   0.343  0.00  0.00     0.048 A 
ATOM      6  C5  UNL d   1       0.207  -3.750  -0.395  0.00  0.00     0.003 A 
ATOM      7  I   UNL d   1      -1.028   0.217   0.857  0.00  0.00    -0.146 I 
ENDROOT
TORSDOF 0
ENDMDL
