MODEL 1
REMARK minimizedAffinity -4.31649923
REMARK minimizedRMSD -1
REMARK  0 active torsions:
REMARK  status: ('A' for Active; 'I' for Inactive)
ROOT
ATOM      1  C   UNL d   1      -0.777  -2.385   1.117  0.00  0.00     0.023 A 
ATOM      2  C1  UNL d   1      -0.189  -2.114  -0.119  0.00  0.00     0.003 A 
ATOM      3  C2  UNL d   1       0.172  -0.807  -0.450  0.00  0.00     0.048 A 
ATOM      4  C3  UNL d   1      -0.057   0.225   0.460  0.00  0.00     0.023 A 
ATOM      5  C4  UNL d   1      -0.644  -0.041   1.697  0.00  0.00     0.048 A 
ATOM      6  C5  UNL d   1      -1.004  -1.350   2.024  0.00  0.00     0.003 A 
ATOM      7  I   UNL d   1       0.480   2.172  -0.031  0.00  0.00    -0.146 I 
ENDROOT
TORSDOF 0
ENDMDL
