MODEL 1
REMARK minimizedAffinity -1.98880649
REMARK minimizedRMSD -1
REMARK  0 active torsions:
REMARK  status: ('A' for Active; 'I' for Inactive)
ROOT
ATOM      1  C   UNL d   1      -0.419  -2.303   0.527  0.00  0.00     0.023 A 
ATOM      2  C1  UNL d   1       0.913  -1.968   0.281  0.00  0.00     0.003 A 
ATOM      3  C2  UNL d   1       1.293  -0.627   0.196  0.00  0.00     0.048 A 
ATOM      4  C3  UNL d   1       0.336   0.374   0.358  0.00  0.00     0.023 A 
ATOM      5  C4  UNL d   1      -0.998   0.044   0.605  0.00  0.00     0.048 A 
ATOM      6  C5  UNL d   1      -1.373  -1.298   0.688  0.00  0.00     0.003 A 
ATOM      7  I   UNL d   1       0.899   2.371   0.231  0.00  0.00    -0.146 I 
ENDROOT
TORSDOF 0
ENDMDL
