MODEL 1
REMARK minimizedAffinity -2.51083779
REMARK minimizedRMSD -1
REMARK  0 active torsions:
REMARK  status: ('A' for Active; 'I' for Inactive)
ROOT
ATOM      1  C   UNL d   1      -0.405  -2.704   0.382  0.00  0.00     0.023 A 
ATOM      2  C1  UNL d   1       0.619  -2.257  -0.453  0.00  0.00     0.003 A 
ATOM      3  C2  UNL d   1       0.995  -0.912  -0.441  0.00  0.00     0.048 A 
ATOM      4  C3  UNL d   1       0.344  -0.020   0.410  0.00  0.00     0.023 A 
ATOM      5  C4  UNL d   1      -0.681  -0.463   1.248  0.00  0.00     0.048 A 
ATOM      6  C5  UNL d   1      -1.054  -1.808   1.232  0.00  0.00     0.003 A 
ATOM      7  I   UNL d   1       0.902   1.982   0.431  0.00  0.00    -0.146 I 
ENDROOT
TORSDOF 0
ENDMDL
