MODEL 1
REMARK minimizedAffinity -2.89075589
REMARK minimizedRMSD -1
REMARK  0 active torsions:
REMARK  status: ('A' for Active; 'I' for Inactive)
ROOT
ATOM      1  C   UNL d   1      -0.474  -2.104   0.079  0.00  0.00     0.023 A 
ATOM      2  C1  UNL d   1       0.085  -1.530  -1.063  0.00  0.00     0.003 A 
ATOM      3  C2  UNL d   1       0.412  -0.172  -1.075  0.00  0.00     0.048 A 
ATOM      4  C3  UNL d   1       0.179   0.605   0.059  0.00  0.00     0.023 A 
ATOM      5  C4  UNL d   1      -0.379   0.035   1.204  0.00  0.00     0.048 A 
ATOM      6  C5  UNL d   1      -0.705  -1.323   1.211  0.00  0.00     0.003 A 
ATOM      7  I   UNL d   1       0.666   2.626   0.044  0.00  0.00    -0.146 I 
ENDROOT
TORSDOF 0
ENDMDL
