MODEL 1
REMARK minimizedAffinity -1.47224534
REMARK minimizedRMSD -1
REMARK  0 active torsions:
REMARK  status: ('A' for Active; 'I' for Inactive)
ROOT
ATOM      1  C   UNL d   1      -0.588  -3.397   0.556  0.00  0.00     0.023 A 
ATOM      2  C1  UNL d   1      -1.472  -2.451   1.076  0.00  0.00     0.003 A 
ATOM      3  C2  UNL d   1      -1.113  -1.103   1.109  0.00  0.00     0.048 A 
ATOM      4  C3  UNL d   1       0.132  -0.706   0.620  0.00  0.00     0.023 A 
ATOM      5  C4  UNL d   1       1.019  -1.649   0.098  0.00  0.00     0.048 A 
ATOM      6  C5  UNL d   1       0.655  -2.997   0.067  0.00  0.00     0.003 A 
ATOM      7  I   UNL d   1       0.669   1.301   0.668  0.00  0.00    -0.146 I 
ENDROOT
TORSDOF 0
ENDMDL
