MODEL 1
REMARK minimizedAffinity -5.12481928
REMARK minimizedRMSD -1
REMARK  0 active torsions:
REMARK  status: ('A' for Active; 'I' for Inactive)
ROOT
ATOM      1  C   UNL d   1      -0.291  -2.572   0.346  0.00  0.00     0.023 A 
ATOM      2  C1  UNL d   1       0.413  -2.223  -0.806  0.00  0.00     0.003 A 
ATOM      3  C2  UNL d   1       0.661  -0.880  -1.095  0.00  0.00     0.048 A 
ATOM      4  C3  UNL d   1       0.204   0.110  -0.226  0.00  0.00     0.023 A 
ATOM      5  C4  UNL d   1      -0.500  -0.234   0.929  0.00  0.00     0.048 A 
ATOM      6  C5  UNL d   1      -0.747  -1.578   1.213  0.00  0.00     0.003 A 
ATOM      7  I   UNL d   1       0.572   2.110  -0.653  0.00  0.00    -0.146 I 
ENDROOT
TORSDOF 0
ENDMDL
