MODEL 1
REMARK minimizedAffinity -4.02684307
REMARK minimizedRMSD -1
REMARK  0 active torsions:
REMARK  status: ('A' for Active; 'I' for Inactive)
ROOT
ATOM      1  C   UNL d   1      -0.026  -0.794  -0.552  0.00  0.00     0.023 A 
ATOM      2  C1  UNL d   1       0.548  -0.722   0.717  0.00  0.00     0.003 A 
ATOM      3  C2  UNL d   1       1.099   0.479   1.169  0.00  0.00     0.048 A 
ATOM      4  C3  UNL d   1       1.072   1.605   0.346  0.00  0.00     0.023 A 
ATOM      5  C4  UNL d   1       0.497   1.538  -0.924  0.00  0.00     0.048 A 
ATOM      6  C5  UNL d   1      -0.051   0.335  -1.372  0.00  0.00     0.003 A 
ATOM      7  I   UNL d   1       1.890   3.394   1.016  0.00  0.00    -0.146 I 
ENDROOT
TORSDOF 0
ENDMDL
