MODEL 1
REMARK minimizedAffinity -1.90117407
REMARK minimizedRMSD -1
REMARK  0 active torsions:
REMARK  status: ('A' for Active; 'I' for Inactive)
ROOT
ATOM      1  C   UNL d   1      -0.944  -2.658   0.767  0.00  0.00     0.023 A 
ATOM      2  C1  UNL d   1      -0.024  -2.461  -0.263  0.00  0.00     0.003 A 
ATOM      3  C2  UNL d   1       0.441  -1.176  -0.550  0.00  0.00     0.048 A 
ATOM      4  C3  UNL d   1      -0.018  -0.092   0.197  0.00  0.00     0.023 A 
ATOM      5  C4  UNL d   1      -0.938  -0.284   1.230  0.00  0.00     0.048 A 
ATOM      6  C5  UNL d   1      -1.400  -1.571   1.512  0.00  0.00     0.003 A 
ATOM      7  I   UNL d   1       0.672   1.821  -0.228  0.00  0.00    -0.146 I 
ENDROOT
TORSDOF 0
ENDMDL
