MODEL 1
REMARK minimizedAffinity 11.2554989
REMARK minimizedRMSD -1
REMARK  0 active torsions:
REMARK  status: ('A' for Active; 'I' for Inactive)
ROOT
ATOM      1  C   UNL d   1      -0.721   0.990  -5.128  0.00  0.00     0.023 A 
ATOM      2  C1  UNL d   1       0.377   0.393  -5.747  0.00  0.00     0.003 A 
ATOM      3  C2  UNL d   1       0.378  -0.981  -5.996  0.00  0.00     0.048 A 
ATOM      4  C3  UNL d   1      -0.723  -1.752  -5.624  0.00  0.00     0.023 A 
ATOM      5  C4  UNL d   1      -1.824  -1.159  -5.006  0.00  0.00     0.048 A 
ATOM      6  C5  UNL d   1      -1.821   0.215  -4.758  0.00  0.00     0.003 A 
ATOM      7  I   UNL d   1      -0.723  -3.797  -5.993  0.00  0.00    -0.146 I 
ENDROOT
TORSDOF 0
ENDMDL
