MODEL 1
REMARK minimizedAffinity 4.68739986
REMARK minimizedRMSD -1
REMARK  0 active torsions:
REMARK  status: ('A' for Active; 'I' for Inactive)
ROOT
ATOM      1  C   UNL d   1       0.813  -1.288   2.053  0.00  0.00     0.023 A 
ATOM      2  C1  UNL d   1       0.738  -2.133   3.161  0.00  0.00     0.003 A 
ATOM      3  C2  UNL d   1       1.714  -2.068   4.157  0.00  0.00     0.048 A 
ATOM      4  C3  UNL d   1       2.762  -1.155   4.040  0.00  0.00     0.023 A 
ATOM      5  C4  UNL d   1       2.841  -0.308   2.934  0.00  0.00     0.048 A 
ATOM      6  C5  UNL d   1       1.863  -0.377   1.940  0.00  0.00     0.003 A 
ATOM      7  I   UNL d   1       4.216  -1.056   5.522  0.00  0.00    -0.146 I 
ENDROOT
TORSDOF 0
ENDMDL
