MODEL 1
REMARK minimizedAffinity 2.93936038
REMARK minimizedRMSD -1
REMARK  0 active torsions:
REMARK  status: ('A' for Active; 'I' for Inactive)
ROOT
ATOM      1  C   UNL d   1      -0.694  -1.305   2.486  0.00  0.00     0.023 A 
ATOM      2  C1  UNL d   1       0.333  -0.370   2.617  0.00  0.00     0.003 A 
ATOM      3  C2  UNL d   1       1.416  -0.634   3.459  0.00  0.00     0.048 A 
ATOM      4  C3  UNL d   1       1.466  -1.835   4.166  0.00  0.00     0.023 A 
ATOM      5  C4  UNL d   1       0.441  -2.773   4.038  0.00  0.00     0.048 A 
ATOM      6  C5  UNL d   1      -0.640  -2.505   3.196  0.00  0.00     0.003 A 
ATOM      7  I   UNL d   1       3.076  -2.229   5.419  0.00  0.00    -0.146 I 
ENDROOT
TORSDOF 0
ENDMDL
