MODEL 1
REMARK minimizedAffinity 9.03963566
REMARK minimizedRMSD -1
REMARK  0 active torsions:
REMARK  status: ('A' for Active; 'I' for Inactive)
ROOT
ATOM      1  C   UNL d   1      -2.751   0.287   1.372  0.00  0.00     0.023 A 
ATOM      2  C1  UNL d   1      -1.745   1.199   1.692  0.00  0.00     0.003 A 
ATOM      3  C2  UNL d   1      -0.569   0.758   2.301  0.00  0.00     0.048 A 
ATOM      4  C3  UNL d   1      -0.404  -0.597   2.587  0.00  0.00     0.023 A 
ATOM      5  C4  UNL d   1      -1.408  -1.513   2.268  0.00  0.00     0.048 A 
ATOM      6  C5  UNL d   1      -2.582  -1.067   1.659  0.00  0.00     0.003 A 
ATOM      7  I   UNL d   1       1.346  -1.256   3.493  0.00  0.00    -0.146 I 
ENDROOT
TORSDOF 0
ENDMDL
