MODEL 1
REMARK minimizedAffinity 8.65741444
REMARK minimizedRMSD -1
REMARK  0 active torsions:
REMARK  status: ('A' for Active; 'I' for Inactive)
ROOT
ATOM      1  C   UNL d   1       0.225   2.713   1.884  0.00  0.00     0.023 A 
ATOM      2  C1  UNL d   1      -0.003   1.395   2.281  0.00  0.00     0.003 A 
ATOM      3  C2  UNL d   1       0.968   0.418   2.052  0.00  0.00     0.048 A 
ATOM      4  C3  UNL d   1       2.165   0.766   1.425  0.00  0.00     0.023 A 
ATOM      5  C4  UNL d   1       2.397   2.083   1.027  0.00  0.00     0.048 A 
ATOM      6  C5  UNL d   1       1.423   3.056   1.258  0.00  0.00     0.003 A 
ATOM      7  I   UNL d   1       3.611  -0.687   1.082  0.00  0.00    -0.146 I 
ENDROOT
TORSDOF 0
ENDMDL
