MODEL 1
REMARK minimizedAffinity 13.8083048
REMARK minimizedRMSD -1
REMARK  0 active torsions:
REMARK  status: ('A' for Active; 'I' for Inactive)
ROOT
ATOM      1  C1  DEN d   1       1.128   5.726   1.141  0.00  0.00     0.130 A 
ATOM      2  C2  DEN d   1       0.034   4.876   1.602  0.00  0.00    -0.031 A 
ATOM      3  C3  DEN d   1       0.519   4.093   2.756  0.00  0.00     0.027 A 
ATOM      4  C4  DEN d   1       2.844   4.118   3.872  0.00  0.00     0.027 A 
ATOM      5  C5  DEN d   1       4.106   4.669   3.825  0.00  0.00    -0.003 A 
ATOM      6  C6  DEN d   1       4.471   5.578   2.868  0.00  0.00     0.001 A 
ATOM      7  C7  DEN d   1       3.550   5.998   1.944  0.00  0.00     0.017 A 
ATOM      8  C8  DEN d   1       2.278   5.441   1.980  0.00  0.00    -0.094 A 
ATOM      9  C9  DEN d   1       1.925   4.533   2.964  0.00  0.00    -0.072 A 
ENDROOT
TORSDOF 0
ENDMDL
