MODEL 1
REMARK minimizedAffinity 9.1753149
REMARK minimizedRMSD -1
REMARK  0 active torsions:
REMARK  status: ('A' for Active; 'I' for Inactive)
ROOT
ATOM      1  C1  DEN d   1       1.154   3.383   1.163  0.00  0.00     0.130 A 
ATOM      2  C2  DEN d   1      -0.131   3.946   0.760  0.00  0.00    -0.031 A 
ATOM      3  C3  DEN d   1      -0.714   3.063  -0.270  0.00  0.00     0.027 A 
ATOM      4  C4  DEN d   1       0.241   0.887  -1.271  0.00  0.00     0.027 A 
ATOM      5  C5  DEN d   1       1.309   0.017  -1.252  0.00  0.00    -0.003 A 
ATOM      6  C6  DEN d   1       2.405   0.223  -0.458  0.00  0.00     0.001 A 
ATOM      7  C7  DEN d   1       2.440   1.303   0.384  0.00  0.00     0.017 A 
ATOM      8  C8  DEN d   1       1.371   2.190   0.365  0.00  0.00    -0.094 A 
ATOM      9  C9  DEN d   1       0.266   1.957  -0.436  0.00  0.00    -0.072 A 
ENDROOT
TORSDOF 0
ENDMDL
