MODEL 1
REMARK minimizedAffinity 6.86455441
REMARK minimizedRMSD -1
REMARK  0 active torsions:
REMARK  status: ('A' for Active; 'I' for Inactive)
ROOT
ATOM      1  C1  DEN d   1       4.764   1.709  -3.042  0.00  0.00     0.130 A 
ATOM      2  C2  DEN d   1       5.787   2.599  -2.500  0.00  0.00    -0.031 A 
ATOM      3  C3  DEN d   1       5.710   2.540  -1.027  0.00  0.00     0.027 A 
ATOM      4  C4  DEN d   1       4.118   1.160   0.460  0.00  0.00     0.027 A 
ATOM      5  C5  DEN d   1       3.070   0.266   0.456  0.00  0.00    -0.003 A 
ATOM      6  C6  DEN d   1       2.496  -0.181  -0.705  0.00  0.00     0.001 A 
ATOM      7  C7  DEN d   1       2.996   0.232  -1.912  0.00  0.00     0.017 A 
ATOM      8  C8  DEN d   1       4.048   1.139  -1.915  0.00  0.00    -0.094 A 
ATOM      9  C9  DEN d   1       4.622   1.569  -0.731  0.00  0.00    -0.072 A 
ENDROOT
TORSDOF 0
ENDMDL
