MODEL 1
REMARK minimizedAffinity 3.87837219
REMARK minimizedRMSD -1
REMARK  0 active torsions:
REMARK  status: ('A' for Active; 'I' for Inactive)
ROOT
ATOM      1  C1  DEN d   1       4.900   1.884  -3.032  0.00  0.00     0.130 A 
ATOM      2  C2  DEN d   1       5.999   2.601  -2.392  0.00  0.00    -0.031 A 
ATOM      3  C3  DEN d   1       5.859   2.441  -0.931  0.00  0.00     0.027 A 
ATOM      4  C4  DEN d   1       4.059   1.155   0.396  0.00  0.00     0.027 A 
ATOM      5  C5  DEN d   1       2.914   0.397   0.290  0.00  0.00    -0.003 A 
ATOM      6  C6  DEN d   1       2.336   0.112  -0.919  0.00  0.00     0.001 A 
ATOM      7  C7  DEN d   1       2.928   0.550  -2.074  0.00  0.00     0.017 A 
ATOM      8  C8  DEN d   1       4.078   1.322  -1.975  0.00  0.00    -0.094 A 
ATOM      9  C9  DEN d   1       4.654   1.589  -0.744  0.00  0.00    -0.072 A 
ENDROOT
TORSDOF 0
ENDMDL
