MODEL 1
REMARK minimizedAffinity 2.01227379
REMARK minimizedRMSD -1
REMARK  0 active torsions:
REMARK  status: ('A' for Active; 'I' for Inactive)
ROOT
ATOM      1  C1  DEN d   1       4.571   1.295   0.417  0.00  0.00     0.130 A 
ATOM      2  C2  DEN d   1       3.293   0.620   0.626  0.00  0.00    -0.031 A 
ATOM      3  C3  DEN d   1       2.800   0.158  -0.687  0.00  0.00     0.027 A 
ATOM      4  C4  DEN d   1       3.887   0.417  -3.011  0.00  0.00     0.027 A 
ATOM      5  C5  DEN d   1       4.969   0.929  -3.694  0.00  0.00    -0.003 A 
ATOM      6  C6  DEN d   1       5.969   1.621  -3.064  0.00  0.00     0.001 A 
ATOM      7  C7  DEN d   1       5.930   1.783  -1.704  0.00  0.00     0.017 A 
ATOM      8  C8  DEN d   1       4.839   1.277  -1.010  0.00  0.00    -0.094 A 
ATOM      9  C9  DEN d   1       3.844   0.569  -1.663  0.00  0.00    -0.072 A 
ENDROOT
TORSDOF 0
ENDMDL
