MODEL 1
REMARK minimizedAffinity 3.42394257
REMARK minimizedRMSD -1
REMARK  0 active torsions:
REMARK  status: ('A' for Active; 'I' for Inactive)
ROOT
ATOM      1  C1  DEN d   1       2.319   1.697   1.103  0.00  0.00     0.130 A 
ATOM      2  C2  DEN d   1       2.678   0.697   0.100  0.00  0.00    -0.031 A 
ATOM      3  C3  DEN d   1       1.570   0.607  -0.872  0.00  0.00     0.027 A 
ATOM      4  C4  DEN d   1      -0.653   1.913  -0.924  0.00  0.00     0.027 A 
ATOM      5  C5  DEN d   1      -1.413   2.862  -0.277  0.00  0.00    -0.003 A 
ATOM      6  C6  DEN d   1      -1.001   3.459   0.885  0.00  0.00     0.001 A 
ATOM      7  C7  DEN d   1       0.225   3.147   1.411  0.00  0.00     0.017 A 
ATOM      8  C8  DEN d   1       0.993   2.186   0.768  0.00  0.00    -0.094 A 
ATOM      9  C9  DEN d   1       0.565   1.602  -0.412  0.00  0.00    -0.072 A 
ENDROOT
TORSDOF 0
ENDMDL
