MODEL 1
REMARK minimizedAffinity 14.7164211
REMARK minimizedRMSD -1
REMARK  0 active torsions:
REMARK  status: ('A' for Active; 'I' for Inactive)
ROOT
ATOM      1  C1  DEN d   1      -0.058   1.559  -0.124  0.00  0.00     0.130 A 
ATOM      2  C2  DEN d   1      -1.176   1.329  -1.034  0.00  0.00    -0.031 A 
ATOM      3  C3  DEN d   1      -2.037   2.528  -1.013  0.00  0.00     0.027 A 
ATOM      4  C4  DEN d   1      -1.745   4.711   0.330  0.00  0.00     0.027 A 
ATOM      5  C5  DEN d   1      -0.955   5.368   1.247  0.00  0.00    -0.003 A 
ATOM      6  C6  DEN d   1       0.163   4.793   1.792  0.00  0.00     0.001 A 
ATOM      7  C7  DEN d   1       0.546   3.540   1.391  0.00  0.00     0.017 A 
ATOM      8  C8  DEN d   1      -0.250   2.869   0.472  0.00  0.00    -0.094 A 
ATOM      9  C9  DEN d   1      -1.370   3.472  -0.076  0.00  0.00    -0.072 A 
ENDROOT
TORSDOF 0
ENDMDL
