MODEL 1
REMARK minimizedAffinity 5.13602877
REMARK minimizedRMSD -1
REMARK  0 active torsions:
REMARK  status: ('A' for Active; 'I' for Inactive)
ROOT
ATOM      1  C1  DEN d   1       0.899  -2.020  -1.938  0.00  0.00     0.130 A 
ATOM      2  C2  DEN d   1       0.752  -2.917  -3.080  0.00  0.00    -0.031 A 
ATOM      3  C3  DEN d   1       1.676  -2.463  -4.139  0.00  0.00     0.027 A 
ATOM      4  C4  DEN d   1       3.313  -0.470  -4.118  0.00  0.00     0.027 A 
ATOM      5  C5  DEN d   1       3.784   0.588  -3.373  0.00  0.00    -0.003 A 
ATOM      6  C6  DEN d   1       3.306   0.870  -2.121  0.00  0.00     0.001 A 
ATOM      7  C7  DEN d   1       2.358   0.056  -1.558  0.00  0.00     0.017 A 
ATOM      8  C8  DEN d   1       1.874  -1.009  -2.306  0.00  0.00    -0.094 A 
ATOM      9  C9  DEN d   1       2.379  -1.284  -3.565  0.00  0.00    -0.072 A 
ENDROOT
TORSDOF 0
ENDMDL
