MODEL 1
REMARK minimizedAffinity 18.260149
REMARK minimizedRMSD -1
REMARK  0 active torsions:
REMARK  status: ('A' for Active; 'I' for Inactive)
ROOT
ATOM      1  C1  DEN d   1       2.658   0.701   4.519  0.00  0.00     0.130 A 
ATOM      2  C2  DEN d   1       2.373   0.581   3.092  0.00  0.00    -0.031 A 
ATOM      3  C3  DEN d   1       3.383  -0.317   2.499  0.00  0.00     0.027 A 
ATOM      4  C4  DEN d   1       5.347  -1.533   3.646  0.00  0.00     0.027 A 
ATOM      5  C5  DEN d   1       6.000  -1.730   4.843  0.00  0.00    -0.003 A 
ATOM      6  C6  DEN d   1       5.608  -1.110   6.000  0.00  0.00     0.001 A 
ATOM      7  C7  DEN d   1       4.506  -0.296   5.994  0.00  0.00     0.017 A 
ATOM      8  C8  DEN d   1       3.847  -0.087   4.789  0.00  0.00    -0.094 A 
ATOM      9  C9  DEN d   1       4.251  -0.733   3.633  0.00  0.00    -0.072 A 
ENDROOT
TORSDOF 0
ENDMDL
