MODEL 1
REMARK minimizedAffinity 5.82116842
REMARK minimizedRMSD -1
REMARK  0 active torsions:
REMARK  status: ('A' for Active; 'I' for Inactive)
ROOT
ATOM      1  N1  IND d   1      -1.893  -2.038  -0.573  0.00  0.00    -0.196 N 
ATOM      2  C2  IND d   1      -1.958  -1.330   0.596  0.00  0.00     0.054 A 
ATOM      3  C3  IND d   1      -2.336  -0.055   0.353  0.00  0.00    -0.031 A 
ATOM      4  C4  IND d   1      -2.999   1.059  -1.870  0.00  0.00     0.051 A 
ATOM      5  C5  IND d   1      -3.062   0.826  -3.216  0.00  0.00    -0.031 A 
ATOM      6  C6  IND d   1      -2.735  -0.399  -3.759  0.00  0.00     0.015 A 
ATOM      7  C7  IND d   1      -2.341  -1.445  -2.973  0.00  0.00    -0.016 A 
ATOM      8  C8  IND d   1      -2.269  -1.210  -1.607  0.00  0.00    -0.047 A 
ATOM      9  C9  IND d   1      -2.559   0.044  -1.054  0.00  0.00    -0.096 A 
ATOM     10  HN1 IND d   1      -1.657  -2.861  -0.648  0.00  0.00     0.298 HD
ENDROOT
TORSDOF 0
ENDMDL
