MODEL 1
REMARK minimizedAffinity 6.24739933
REMARK minimizedRMSD -1
REMARK  0 active torsions:
REMARK  status: ('A' for Active; 'I' for Inactive)
ROOT
ATOM      1  N1  IND d   1      -3.374   2.567  -4.729  0.00  0.00    -0.196 N 
ATOM      2  C2  IND d   1      -3.635   3.556  -3.823  0.00  0.00     0.054 A 
ATOM      3  C3  IND d   1      -3.453   3.101  -2.563  0.00  0.00    -0.031 A 
ATOM      4  C4  IND d   1      -2.631   0.797  -1.760  0.00  0.00     0.051 A 
ATOM      5  C5  IND d   1      -2.301  -0.448  -2.217  0.00  0.00    -0.031 A 
ATOM      6  C6  IND d   1      -2.308  -0.757  -3.562  0.00  0.00     0.015 A 
ATOM      7  C7  IND d   1      -2.638   0.175  -4.505  0.00  0.00    -0.016 A 
ATOM      8  C8  IND d   1      -2.981   1.438  -4.044  0.00  0.00    -0.047 A 
ATOM      9  C9  IND d   1      -3.016   1.745  -2.678  0.00  0.00    -0.096 A 
ATOM     10  HN1 IND d   1      -3.444   2.637  -5.583  0.00  0.00     0.298 HD
ENDROOT
TORSDOF 0
ENDMDL
