MODEL 1
REMARK minimizedAffinity 6.77701521
REMARK minimizedRMSD -1
REMARK  0 active torsions:
REMARK  status: ('A' for Active; 'I' for Inactive)
ROOT
ATOM      1  N1  IND d   1      -1.859  -1.338  -0.155  0.00  0.00    -0.196 N 
ATOM      2  C2  IND d   1      -1.888  -0.279   0.709  0.00  0.00     0.054 A 
ATOM      3  C3  IND d   1      -2.157   0.866   0.042  0.00  0.00    -0.031 A 
ATOM      4  C4  IND d   1      -2.685   1.220  -2.452  0.00  0.00     0.051 A 
ATOM      5  C5  IND d   1      -2.740   0.557  -3.646  0.00  0.00    -0.031 A 
ATOM      6  C6  IND d   1      -2.503  -0.799  -3.739  0.00  0.00     0.015 A 
ATOM      7  C7  IND d   1      -2.211  -1.549  -2.635  0.00  0.00    -0.016 A 
ATOM      8  C8  IND d   1      -2.146  -0.878  -1.422  0.00  0.00    -0.047 A 
ATOM      9  C9  IND d   1      -2.345   0.506  -1.328  0.00  0.00    -0.096 A 
ATOM     10  HN1 IND d   1      -1.689  -2.154   0.056  0.00  0.00     0.298 HD
ENDROOT
TORSDOF 0
ENDMDL
