MODEL 1
REMARK minimizedAffinity 15.8496008
REMARK minimizedRMSD -1
REMARK  0 active torsions:
REMARK  status: ('A' for Active; 'I' for Inactive)
ROOT
ATOM      1  N1  IND d   1      -2.481  -2.522  -2.371  0.00  0.00    -0.196 N 
ATOM      2  C2  IND d   1      -3.385  -2.815  -3.354  0.00  0.00     0.054 A 
ATOM      3  C3  IND d   1      -3.671  -1.707  -4.074  0.00  0.00    -0.031 A 
ATOM      4  C4  IND d   1      -2.697   0.668  -3.879  0.00  0.00     0.051 A 
ATOM      5  C5  IND d   1      -1.866   1.431  -3.108  0.00  0.00    -0.031 A 
ATOM      6  C6  IND d   1      -1.182   0.905  -2.032  0.00  0.00     0.015 A 
ATOM      7  C7  IND d   1      -1.295  -0.414  -1.692  0.00  0.00    -0.016 A 
ATOM      8  C8  IND d   1      -2.143  -1.190  -2.468  0.00  0.00    -0.047 A 
ATOM      9  C9  IND d   1      -2.873  -0.652  -3.535  0.00  0.00    -0.096 A 
ATOM     10  HN1 IND d   1      -2.175  -3.077  -1.789  0.00  0.00     0.298 HD
ENDROOT
TORSDOF 0
ENDMDL
