MODEL 1
REMARK minimizedAffinity 10.00986
REMARK minimizedRMSD -1
REMARK  0 active torsions:
REMARK  status: ('A' for Active; 'I' for Inactive)
ROOT
ATOM      1  N1  IND d   1      -2.704  -2.881  -2.890  0.00  0.00    -0.196 N 
ATOM      2  C2  IND d   1      -4.030  -3.085  -3.151  0.00  0.00     0.054 A 
ATOM      3  C3  IND d   1      -4.640  -1.912  -3.434  0.00  0.00    -0.031 A 
ATOM      4  C4  IND d   1      -3.634   0.450  -3.624  0.00  0.00     0.051 A 
ATOM      5  C5  IND d   1      -2.471   1.144  -3.438  0.00  0.00    -0.031 A 
ATOM      6  C6  IND d   1      -1.302   0.519  -3.054  0.00  0.00     0.015 A 
ATOM      7  C7  IND d   1      -1.250  -0.831  -2.853  0.00  0.00    -0.016 A 
ATOM      8  C8  IND d   1      -2.430  -1.538  -3.034  0.00  0.00    -0.047 A 
ATOM      9  C9  IND d   1      -3.629  -0.903  -3.382  0.00  0.00    -0.096 A 
ATOM     10  HN1 IND d   1      -2.136  -3.488  -2.671  0.00  0.00     0.298 HD
ENDROOT
TORSDOF 0
ENDMDL
