MODEL 1
REMARK minimizedAffinity 7.12279272
REMARK minimizedRMSD -1
REMARK  0 active torsions:
REMARK  status: ('A' for Active; 'I' for Inactive)
ROOT
ATOM      1  N1  IND d   1      -2.800   1.897  -3.978  0.00  0.00    -0.196 N 
ATOM      2  C2  IND d   1      -3.149   2.435  -2.771  0.00  0.00     0.054 A 
ATOM      3  C3  IND d   1      -2.763   1.621  -1.764  0.00  0.00    -0.031 A 
ATOM      4  C4  IND d   1      -1.456  -0.595  -1.861  0.00  0.00     0.051 A 
ATOM      5  C5  IND d   1      -0.948  -1.508  -2.742  0.00  0.00    -0.031 A 
ATOM      6  C6  IND d   1      -1.031  -1.328  -4.108  0.00  0.00     0.015 A 
ATOM      7  C7  IND d   1      -1.618  -0.218  -4.645  0.00  0.00    -0.016 A 
ATOM      8  C8  IND d   1      -2.140   0.708  -3.754  0.00  0.00    -0.047 A 
ATOM      9  C9  IND d   1      -2.097   0.511  -2.368  0.00  0.00    -0.096 A 
ATOM     10  HN1 IND d   1      -2.965   2.242  -4.748  0.00  0.00     0.298 HD
ENDROOT
TORSDOF 0
ENDMDL
