MODEL 1
REMARK minimizedAffinity -2.4043076
REMARK minimizedRMSD -1
REMARK  1 active torsions:
REMARK  status: ('A' for Active; 'I' for Inactive)
REMARK    1  A    between atoms: N_2  and  C1_3 
ROOT
ATOM      1  C1  UNL d   1      -1.729  -0.421   1.772  0.00  0.00     0.143 A 
ATOM      2  C2  UNL d   1      -1.385  -0.601   0.427  0.00  0.00    -0.057 A 
ATOM      3  C3  UNL d   1      -0.228  -0.023  -0.109  0.00  0.00     0.033 A 
ATOM      4  C4  UNL d   1       0.593   0.770   0.685  0.00  0.00    -0.042 A 
ATOM      5  C5  UNL d   1       0.258   0.983   2.017  0.00  0.00     0.033 A 
ATOM      6  C6  UNL d   1      -0.896   0.398   2.549  0.00  0.00    -0.057 A 
ENDROOT
BRANCH   1   7
ATOM      7  N   UNL d   1      -2.918  -0.887   2.339  0.00  0.00    -0.732 N 
ATOM      8  C   UNL d   1      -2.896  -1.662   3.561  0.00  0.00     0.284 C 
ATOM      9  H3  UNL d   1      -3.665  -0.198   2.297  0.00  0.00     0.395 HD
ENDBRANCH   1   7
TORSDOF 1
ENDMDL
