MODEL 1
REMARK minimizedAffinity -1.64297104
REMARK minimizedRMSD -1
REMARK  1 active torsions:
REMARK  status: ('A' for Active; 'I' for Inactive)
REMARK    1  A    between atoms: N_2  and  C1_3 
ROOT
ATOM      1  C1  UNL d   1      -0.157  -0.060  -0.428  0.00  0.00     0.143 A 
ATOM      2  C2  UNL d   1       0.868   0.403   0.403  0.00  0.00    -0.057 A 
ATOM      3  C3  UNL d   1       0.588   1.008   1.634  0.00  0.00     0.033 A 
ATOM      4  C4  UNL d   1      -0.729   1.187   2.045  0.00  0.00    -0.042 A 
ATOM      5  C5  UNL d   1      -1.765   0.756   1.224  0.00  0.00     0.033 A 
ATOM      6  C6  UNL d   1      -1.479   0.147  -0.002  0.00  0.00    -0.057 A 
ENDROOT
BRANCH   1   7
ATOM      7  N   UNL d   1       0.054  -0.581  -1.707  0.00  0.00    -0.732 N 
ATOM      8  C   UNL d   1       0.764   0.187  -2.707  0.00  0.00     0.284 C 
ATOM      9  H3  UNL d   1       0.299  -1.568  -1.689  0.00  0.00     0.395 HD
ENDBRANCH   1   7
TORSDOF 1
ENDMDL
