MODEL 1
REMARK minimizedAffinity -3.0051434
REMARK minimizedRMSD -1
REMARK  1 active torsions:
REMARK  status: ('A' for Active; 'I' for Inactive)
REMARK    1  A    between atoms: N_2  and  C1_3 
ROOT
ATOM      1  C1  UNL d   1       0.698  -0.204  -0.183  0.00  0.00     0.143 A 
ATOM      2  C2  UNL d   1      -0.556   0.370   0.053  0.00  0.00    -0.057 A 
ATOM      3  C3  UNL d   1      -0.799   1.140   1.197  0.00  0.00     0.033 A 
ATOM      4  C4  UNL d   1       0.204   1.326   2.143  0.00  0.00    -0.042 A 
ATOM      5  C5  UNL d   1       1.450   0.745   1.942  0.00  0.00     0.033 A 
ATOM      6  C6  UNL d   1       1.689  -0.018   0.794  0.00  0.00    -0.057 A 
ENDROOT
BRANCH   1   7
ATOM      7  N   UNL d   1       0.974  -1.061  -1.251  0.00  0.00    -0.732 N 
ATOM      8  C   UNL d   1       0.739  -0.637  -2.615  0.00  0.00     0.284 C 
ATOM      9  H3  UNL d   1       1.839  -1.579  -1.120  0.00  0.00     0.395 HD
ENDBRANCH   1   7
TORSDOF 1
ENDMDL
