MODEL 1
REMARK minimizedAffinity -3.99348569
REMARK minimizedRMSD -1
REMARK  1 active torsions:
REMARK  status: ('A' for Active; 'I' for Inactive)
REMARK    1  A    between atoms: N_2  and  C1_3 
ROOT
ATOM      1  C1  UNL d   1       0.541  -0.287  -0.483  0.00  0.00     0.143 A 
ATOM      2  C2  UNL d   1      -0.342   0.613   0.123  0.00  0.00    -0.057 A 
ATOM      3  C3  UNL d   1      -0.087   1.133   1.398  0.00  0.00     0.033 A 
ATOM      4  C4  UNL d   1       1.044   0.738   2.103  0.00  0.00    -0.042 A 
ATOM      5  C5  UNL d   1       1.923  -0.175   1.531  0.00  0.00     0.033 A 
ATOM      6  C6  UNL d   1       1.667  -0.685   0.255  0.00  0.00    -0.057 A 
ENDROOT
BRANCH   1   7
ATOM      7  N   UNL d   1       0.294  -0.915  -1.706  0.00  0.00    -0.732 N 
ATOM      8  C   UNL d   1       0.772  -0.334  -2.942  0.00  0.00     0.284 C 
ATOM      9  H3  UNL d   1       0.400  -1.925  -1.653  0.00  0.00     0.395 HD
ENDBRANCH   1   7
TORSDOF 1
ENDMDL
