MODEL 1
REMARK minimizedAffinity -3.33158851
REMARK minimizedRMSD -1
REMARK  1 active torsions:
REMARK  status: ('A' for Active; 'I' for Inactive)
REMARK    1  A    between atoms: N_2  and  C1_3 
ROOT
ATOM      1  C1  UNL d   1      -2.259  -0.032   1.919  0.00  0.00     0.143 A 
ATOM      2  C2  UNL d   1      -1.942  -0.503   0.641  0.00  0.00    -0.057 A 
ATOM      3  C3  UNL d   1      -0.725  -0.179   0.028  0.00  0.00     0.033 A 
ATOM      4  C4  UNL d   1       0.186   0.650   0.673  0.00  0.00    -0.042 A 
ATOM      5  C5  UNL d   1      -0.118   1.151   1.934  0.00  0.00     0.033 A 
ATOM      6  C6  UNL d   1      -1.332   0.818   2.544  0.00  0.00    -0.057 A 
ENDROOT
BRANCH   1   7
ATOM      7  N   UNL d   1      -3.493  -0.238   2.541  0.00  0.00    -0.732 N 
ATOM      8  C   UNL d   1      -3.673  -1.325   3.479  0.00  0.00     0.284 C 
ATOM      9  H3  UNL d   1      -3.936   0.633   2.824  0.00  0.00     0.395 HD
ENDBRANCH   1   7
TORSDOF 1
ENDMDL
