MODEL 1
REMARK minimizedAffinity -2.61560678
REMARK minimizedRMSD -1
REMARK  1 active torsions:
REMARK  status: ('A' for Active; 'I' for Inactive)
REMARK    1  A    between atoms: N_2  and  C1_3 
ROOT
ATOM      1  C1  UNL d   1       5.176   4.953  -3.058  0.00  0.00     0.143 A 
ATOM      2  C2  UNL d   1       4.371   5.896  -3.707  0.00  0.00    -0.057 A 
ATOM      3  C3  UNL d   1       4.351   5.996  -5.103  0.00  0.00     0.033 A 
ATOM      4  C4  UNL d   1       5.161   5.172  -5.877  0.00  0.00    -0.042 A 
ATOM      5  C5  UNL d   1       5.988   4.245  -5.253  0.00  0.00     0.033 A 
ATOM      6  C6  UNL d   1       5.998   4.145  -3.858  0.00  0.00    -0.057 A 
ENDROOT
BRANCH   1   7
ATOM      7  N   UNL d   1       5.313   4.871  -1.670  0.00  0.00    -0.732 N 
ATOM      8  C   UNL d   1       5.999   5.911  -0.935  0.00  0.00     0.284 C 
ATOM      9  H3  UNL d   1       4.470   4.528  -1.216  0.00  0.00     0.395 HD
ENDBRANCH   1   7
TORSDOF 1
ENDMDL
