MODEL 1
REMARK minimizedAffinity 5.22006941
REMARK minimizedRMSD -1
REMARK  1 active torsions:
REMARK  status: ('A' for Active; 'I' for Inactive)
REMARK    1  A    between atoms: N_2  and  C1_3 
ROOT
ATOM      1  C1  UNL d   1       4.808   5.614  -3.798  0.00  0.00     0.143 A 
ATOM      2  C2  UNL d   1       3.848   4.763  -3.240  0.00  0.00    -0.057 A 
ATOM      3  C3  UNL d   1       3.944   4.332  -1.912  0.00  0.00     0.033 A 
ATOM      4  C4  UNL d   1       5.021   4.724  -1.123  0.00  0.00    -0.042 A 
ATOM      5  C5  UNL d   1       6.000   5.550  -1.664  0.00  0.00     0.033 A 
ATOM      6  C6  UNL d   1       5.895   5.982  -2.989  0.00  0.00    -0.057 A 
ENDROOT
BRANCH   1   7
ATOM      7  N   UNL d   1       4.822   5.998  -5.141  0.00  0.00    -0.732 N 
ATOM      8  C   UNL d   1       3.606   5.976  -5.926  0.00  0.00     0.284 C 
ATOM      9  H3  UNL d   1       5.409   6.812  -5.307  0.00  0.00     0.395 HD
ENDBRANCH   1   7
TORSDOF 1
ENDMDL
