MODEL 1
REMARK minimizedAffinity 1.11488414
REMARK minimizedRMSD -1
REMARK  1 active torsions:
REMARK  status: ('A' for Active; 'I' for Inactive)
REMARK    1  A    between atoms: N_2  and  C1_3 
ROOT
ATOM      1  C1  UNL d   1       4.599   5.278  -3.307  0.00  0.00     0.143 A 
ATOM      2  C2  UNL d   1       5.289   4.111  -2.961  0.00  0.00    -0.057 A 
ATOM      3  C3  UNL d   1       5.995   3.374  -3.919  0.00  0.00     0.033 A 
ATOM      4  C4  UNL d   1       5.999   3.776  -5.250  0.00  0.00    -0.042 A 
ATOM      5  C5  UNL d   1       5.300   4.919  -5.622  0.00  0.00     0.033 A 
ATOM      6  C6  UNL d   1       4.602   5.654  -4.659  0.00  0.00    -0.057 A 
ENDROOT
BRANCH   1   7
ATOM      7  N   UNL d   1       3.797   6.000  -2.419  0.00  0.00    -0.732 N 
ATOM      8  C   UNL d   1       2.356   5.976  -2.542  0.00  0.00     0.284 C 
ATOM      9  H3  UNL d   1       4.134   5.947  -1.461  0.00  0.00     0.395 HD
ENDBRANCH   1   7
TORSDOF 1
ENDMDL
