MODEL 1
REMARK minimizedAffinity 1.47010612
REMARK minimizedRMSD -1
REMARK  1 active torsions:
REMARK  status: ('A' for Active; 'I' for Inactive)
REMARK    1  A    between atoms: N_2  and  C1_3 
ROOT
ATOM      1  C1  UNL d   1       5.520   4.031  -4.181  0.00  0.00     0.143 A 
ATOM      2  C2  UNL d   1       5.999   4.066  -2.867  0.00  0.00    -0.057 A 
ATOM      3  C3  UNL d   1       5.551   5.030  -1.956  0.00  0.00     0.033 A 
ATOM      4  C4  UNL d   1       4.634   5.997  -2.352  0.00  0.00    -0.042 A 
ATOM      5  C5  UNL d   1       4.163   5.998  -3.660  0.00  0.00     0.033 A 
ATOM      6  C6  UNL d   1       4.609   5.028  -4.564  0.00  0.00    -0.057 A 
ENDROOT
BRANCH   1   7
ATOM      7  N   UNL d   1       6.000   3.160  -5.161  0.00  0.00    -0.732 N 
ATOM      8  C   UNL d   1       5.894   1.727  -4.990  0.00  0.00     0.284 C 
ATOM      9  H3  UNL d   1       5.791   3.482  -6.104  0.00  0.00     0.395 HD
ENDBRANCH   1   7
TORSDOF 1
ENDMDL
