MODEL 1
REMARK minimizedAffinity -2.6773088
REMARK minimizedRMSD -1
REMARK  1 active torsions:
REMARK  status: ('A' for Active; 'I' for Inactive)
REMARK    1  A    between atoms: N_2  and  C1_3 
ROOT
ATOM      1  C1  UNL d   1       4.508   6.000  -2.577  0.00  0.00     0.143 A 
ATOM      2  C2  UNL d   1       5.797   5.973  -3.122  0.00  0.00    -0.057 A 
ATOM      3  C3  UNL d   1       5.999   5.987  -4.507  0.00  0.00     0.033 A 
ATOM      4  C4  UNL d   1       4.913   5.998  -5.375  0.00  0.00    -0.042 A 
ATOM      5  C5  UNL d   1       3.623   5.999  -4.856  0.00  0.00     0.033 A 
ATOM      6  C6  UNL d   1       3.427   5.992  -3.471  0.00  0.00    -0.057 A 
ENDROOT
BRANCH   1   7
ATOM      7  N   UNL d   1       4.240   5.889  -1.210  0.00  0.00    -0.732 N 
ATOM      8  C   UNL d   1       3.208   4.993  -0.732  0.00  0.00     0.284 C 
ATOM      9  H3  UNL d   1       5.087   5.886  -0.647  0.00  0.00     0.395 HD
ENDBRANCH   1   7
TORSDOF 1
ENDMDL
