MODEL 1
REMARK minimizedAffinity -1.3972311
REMARK minimizedRMSD -1
REMARK  1 active torsions:
REMARK  status: ('A' for Active; 'I' for Inactive)
REMARK    1  A    between atoms: N_2  and  C1_3 
ROOT
ATOM      1  C1  UNL d   1       3.512   4.410  -2.657  0.00  0.00     0.143 A 
ATOM      2  C2  UNL d   1       4.086   3.753  -3.750  0.00  0.00    -0.057 A 
ATOM      3  C3  UNL d   1       5.325   4.151  -4.267  0.00  0.00     0.033 A 
ATOM      4  C4  UNL d   1       6.000   5.235  -3.716  0.00  0.00    -0.042 A 
ATOM      5  C5  UNL d   1       5.436   5.919  -2.644  0.00  0.00     0.033 A 
ATOM      6  C6  UNL d   1       4.202   5.512  -2.128  0.00  0.00    -0.057 A 
ENDROOT
BRANCH   1   7
ATOM      7  N   UNL d   1       2.238   4.124  -2.159  0.00  0.00    -0.732 N 
ATOM      8  C   UNL d   1       1.987   4.116  -0.734  0.00  0.00     0.284 C 
ATOM      9  H3  UNL d   1       1.500   4.559  -2.709  0.00  0.00     0.395 HD
ENDBRANCH   1   7
TORSDOF 1
ENDMDL
