MODEL 1
REMARK minimizedAffinity 1.76232874
REMARK minimizedRMSD -1
REMARK  1 active torsions:
REMARK  status: ('A' for Active; 'I' for Inactive)
REMARK    1  A    between atoms: N_2  and  C1_3 
ROOT
ATOM      1  C1  UNL d   1       5.389   3.591  -4.447  0.00  0.00     0.143 A 
ATOM      2  C2  UNL d   1       5.999   4.226  -3.360  0.00  0.00    -0.057 A 
ATOM      3  C3  UNL d   1       5.390   5.311  -2.718  0.00  0.00     0.033 A 
ATOM      4  C4  UNL d   1       4.170   5.801  -3.172  0.00  0.00    -0.042 A 
ATOM      5  C5  UNL d   1       3.558   5.201  -4.267  0.00  0.00     0.033 A 
ATOM      6  C6  UNL d   1       4.167   4.114  -4.900  0.00  0.00    -0.057 A 
ENDROOT
BRANCH   1   7
ATOM      7  N   UNL d   1       5.990   2.571  -5.189  0.00  0.00    -0.732 N 
ATOM      8  C   UNL d   1       5.980   1.206  -4.708  0.00  0.00     0.284 C 
ATOM      9  H3  UNL d   1       5.814   2.662  -6.187  0.00  0.00     0.395 HD
ENDBRANCH   1   7
TORSDOF 1
ENDMDL
