MODEL 1
REMARK minimizedAffinity 4.86015892
REMARK minimizedRMSD -1
REMARK  1 active torsions:
REMARK  status: ('A' for Active; 'I' for Inactive)
REMARK    1  A    between atoms: N_2  and  C1_3 
ROOT
ATOM      1  C1  UNL d   1       5.020   4.922  -2.827  0.00  0.00     0.143 A 
ATOM      2  C2  UNL d   1       5.150   5.861  -3.857  0.00  0.00    -0.057 A 
ATOM      3  C3  UNL d   1       4.181   5.976  -4.861  0.00  0.00     0.033 A 
ATOM      4  C4  UNL d   1       3.076   5.130  -4.869  0.00  0.00    -0.042 A 
ATOM      5  C5  UNL d   1       2.940   4.173  -3.870  0.00  0.00     0.033 A 
ATOM      6  C6  UNL d   1       3.907   4.068  -2.867  0.00  0.00    -0.057 A 
ENDROOT
BRANCH   1   7
ATOM      7  N   UNL d   1       5.998   4.693  -1.856  0.00  0.00    -0.732 N 
ATOM      8  C   UNL d   1       5.993   5.437  -0.615  0.00  0.00     0.284 C 
ATOM      9  H3  UNL d   1       6.214   3.705  -1.748  0.00  0.00     0.395 HD
ENDBRANCH   1   7
TORSDOF 1
ENDMDL
