MODEL 1
REMARK minimizedAffinity -3.07018852
REMARK minimizedRMSD -1
REMARK  1 active torsions:
REMARK  status: ('A' for Active; 'I' for Inactive)
REMARK    1  A    between atoms: N_2  and  C1_3 
ROOT
ATOM      1  C1  UNL d   1       5.542   5.157  -3.863  0.00  0.00     0.143 A 
ATOM      2  C2  UNL d   1       4.793   5.595  -4.960  0.00  0.00    -0.057 A 
ATOM      3  C3  UNL d   1       4.450   4.722  -6.000  0.00  0.00     0.033 A 
ATOM      4  C4  UNL d   1       4.876   3.398  -5.975  0.00  0.00    -0.042 A 
ATOM      5  C5  UNL d   1       5.643   2.948  -4.906  0.00  0.00     0.033 A 
ATOM      6  C6  UNL d   1       5.977   3.822  -3.868  0.00  0.00    -0.057 A 
ENDROOT
BRANCH   1   7
ATOM      7  N   UNL d   1       5.999   6.000  -2.847  0.00  0.00    -0.732 N 
ATOM      8  C   UNL d   1       5.962   5.574  -1.464  0.00  0.00     0.284 C 
ATOM      9  H3  UNL d   1       6.848   6.496  -3.106  0.00  0.00     0.395 HD
ENDBRANCH   1   7
TORSDOF 1
ENDMDL
