MODEL 1
REMARK minimizedAffinity -2.9952774
REMARK minimizedRMSD -1
REMARK  1 active torsions:
REMARK  status: ('A' for Active; 'I' for Inactive)
REMARK    1  A    between atoms: N_2  and  C1_3 
ROOT
ATOM      1  C1  UNL d   1       5.423   4.539  -3.493  0.00  0.00     0.143 A 
ATOM      2  C2  UNL d   1       4.441   5.532  -3.581  0.00  0.00    -0.057 A 
ATOM      3  C3  UNL d   1       3.974   5.983  -4.821  0.00  0.00     0.033 A 
ATOM      4  C4  UNL d   1       4.502   5.468  -6.000  0.00  0.00    -0.042 A 
ATOM      5  C5  UNL d   1       5.497   4.498  -5.937  0.00  0.00     0.033 A 
ATOM      6  C6  UNL d   1       5.955   4.047  -4.696  0.00  0.00    -0.057 A 
ENDROOT
BRANCH   1   7
ATOM      7  N   UNL d   1       6.000   4.119  -2.292  0.00  0.00    -0.732 N 
ATOM      8  C   UNL d   1       5.930   4.952  -1.110  0.00  0.00     0.284 C 
ATOM      9  H3  UNL d   1       5.847   3.130  -2.113  0.00  0.00     0.395 HD
ENDBRANCH   1   7
TORSDOF 1
ENDMDL
