MODEL 1
REMARK minimizedAffinity -1.77770913
REMARK minimizedRMSD -1
REMARK  1 active torsions:
REMARK  status: ('A' for Active; 'I' for Inactive)
REMARK    1  A    between atoms: N_2  and  C1_3 
ROOT
ATOM      1  C1  UNL d   1       5.599   4.868  -3.353  0.00  0.00     0.143 A 
ATOM      2  C2  UNL d   1       5.914   3.905  -4.318  0.00  0.00    -0.057 A 
ATOM      3  C3  UNL d   1       5.416   3.995  -5.623  0.00  0.00     0.033 A 
ATOM      4  C4  UNL d   1       4.568   5.039  -5.980  0.00  0.00    -0.042 A 
ATOM      5  C5  UNL d   1       4.222   5.994  -5.030  0.00  0.00     0.033 A 
ATOM      6  C6  UNL d   1       4.727   5.901  -3.730  0.00  0.00    -0.057 A 
ENDROOT
BRANCH   1   7
ATOM      7  N   UNL d   1       5.983   4.780  -2.012  0.00  0.00    -0.732 N 
ATOM      8  C   UNL d   1       5.995   5.957  -1.170  0.00  0.00     0.284 C 
ATOM      9  H3  UNL d   1       5.616   3.947  -1.557  0.00  0.00     0.395 HD
ENDBRANCH   1   7
TORSDOF 1
ENDMDL
