MODEL 1
REMARK minimizedAffinity -2.52748322
REMARK minimizedRMSD -1
REMARK  1 active torsions:
REMARK  status: ('A' for Active; 'I' for Inactive)
REMARK    1  A    between atoms: N_2  and  C1_3 
ROOT
ATOM      1  C1  UNL d   1       5.547   4.577  -3.230  0.00  0.00     0.143 A 
ATOM      2  C2  UNL d   1       4.784   5.595  -3.811  0.00  0.00    -0.057 A 
ATOM      3  C3  UNL d   1       4.445   5.564  -5.169  0.00  0.00     0.033 A 
ATOM      4  C4  UNL d   1       4.889   4.524  -5.979  0.00  0.00    -0.042 A 
ATOM      5  C5  UNL d   1       5.669   3.514  -5.429  0.00  0.00     0.033 A 
ATOM      6  C6  UNL d   1       5.999   3.547  -4.071  0.00  0.00    -0.057 A 
ENDROOT
BRANCH   1   7
ATOM      7  N   UNL d   1       5.999   4.601  -1.909  0.00  0.00    -0.732 N 
ATOM      8  C   UNL d   1       5.979   5.830  -1.145  0.00  0.00     0.284 C 
ATOM      9  H3  UNL d   1       5.707   3.780  -1.383  0.00  0.00     0.395 HD
ENDBRANCH   1   7
TORSDOF 1
ENDMDL
