MODEL 1
REMARK minimizedAffinity 0.461105406
REMARK minimizedRMSD -1
REMARK  1 active torsions:
REMARK  status: ('A' for Active; 'I' for Inactive)
REMARK    1  A    between atoms: N_2  and  C1_3 
ROOT
ATOM      1  C1  UNL d   1       5.506   3.266  -3.967  0.00  0.00     0.143 A 
ATOM      2  C2  UNL d   1       6.000   4.056  -2.923  0.00  0.00    -0.057 A 
ATOM      3  C3  UNL d   1       5.535   5.361  -2.717  0.00  0.00     0.033 A 
ATOM      4  C4  UNL d   1       4.586   5.910  -3.573  0.00  0.00    -0.042 A 
ATOM      5  C5  UNL d   1       4.100   5.152  -4.632  0.00  0.00     0.033 A 
ATOM      6  C6  UNL d   1       4.563   3.848  -4.828  0.00  0.00    -0.057 A 
ENDROOT
BRANCH   1   7
ATOM      7  N   UNL d   1       6.000   1.998  -4.282  0.00  0.00    -0.732 N 
ATOM      8  C   UNL d   1       5.971   1.515  -5.646  0.00  0.00     0.284 C 
ATOM      9  H3  UNL d   1       6.858   1.779  -3.782  0.00  0.00     0.395 HD
ENDBRANCH   1   7
TORSDOF 1
ENDMDL
