MODEL 1
REMARK minimizedAffinity 1.64942479
REMARK minimizedRMSD -1
REMARK  1 active torsions:
REMARK  status: ('A' for Active; 'I' for Inactive)
REMARK    1  A    between atoms: N_2  and  C1_3 
ROOT
ATOM      1  C1  UNL d   1       4.915   4.947  -4.272  0.00  0.00     0.143 A 
ATOM      2  C2  UNL d   1       6.000   5.404  -3.516  0.00  0.00    -0.057 A 
ATOM      3  C3  UNL d   1       5.823   5.900  -2.219  0.00  0.00     0.033 A 
ATOM      4  C4  UNL d   1       4.549   5.975  -1.664  0.00  0.00    -0.042 A 
ATOM      5  C5  UNL d   1       3.454   5.549  -2.407  0.00  0.00     0.033 A 
ATOM      6  C6  UNL d   1       3.638   5.049  -3.699  0.00  0.00    -0.057 A 
ENDROOT
BRANCH   1   7
ATOM      7  N   UNL d   1       5.014   4.534  -5.603  0.00  0.00    -0.732 N 
ATOM      8  C   UNL d   1       6.000   3.552  -6.000  0.00  0.00     0.284 C 
ATOM      9  H3  UNL d   1       4.103   4.408  -6.040  0.00  0.00     0.395 HD
ENDBRANCH   1   7
TORSDOF 1
ENDMDL
