MODEL 1
REMARK minimizedAffinity -1.73242259
REMARK minimizedRMSD -1
REMARK  0 active torsions:
REMARK  status: ('A' for Active; 'I' for Inactive)
ROOT
ATOM      1  C   UNL d   1      -5.803  -4.776  -2.398  0.00  0.00     0.172 C 
ATOM      2  N   UNL d   1      -5.697  -4.887  -3.834  0.00  0.00    -0.070 N 
ATOM      3  C1  UNL d   1      -5.284  -5.997  -4.520  0.00  0.00    -0.004 A 
ATOM      4  C2  UNL d   1      -5.323  -5.700  -5.866  0.00  0.00    -0.047 A 
ATOM      5  C3  UNL d   1      -5.774  -4.365  -5.992  0.00  0.00    -0.047 A 
ATOM      6  C4  UNL d   1      -5.998  -3.885  -4.719  0.00  0.00    -0.004 A 
ENDROOT
TORSDOF 0
ENDMDL
