MODEL 1
REMARK minimizedAffinity -2.55214596
REMARK minimizedRMSD -1
REMARK  0 active torsions:
REMARK  status: ('A' for Active; 'I' for Inactive)
ROOT
ATOM      1  C   UNL d   1      -6.000  -4.228  -2.479  0.00  0.00     0.172 C 
ATOM      2  N   UNL d   1      -5.758  -4.683  -3.828  0.00  0.00    -0.070 N 
ATOM      3  C1  UNL d   1      -5.805  -5.984  -4.251  0.00  0.00    -0.004 A 
ATOM      4  C2  UNL d   1      -5.518  -6.000  -5.599  0.00  0.00    -0.047 A 
ATOM      5  C3  UNL d   1      -5.290  -4.662  -5.999  0.00  0.00    -0.047 A 
ATOM      6  C4  UNL d   1      -5.445  -3.867  -4.883  0.00  0.00    -0.004 A 
ENDROOT
TORSDOF 0
ENDMDL
