MODEL 1
REMARK minimizedAffinity -3.02851915
REMARK minimizedRMSD -1
REMARK  0 active torsions:
REMARK  status: ('A' for Active; 'I' for Inactive)
ROOT
ATOM      1  C   UNL d   1      -4.520  -5.863  -2.290  0.00  0.00     0.172 C 
ATOM      2  N   UNL d   1      -5.077  -5.313  -3.504  0.00  0.00    -0.070 N 
ATOM      3  C1  UNL d   1      -5.275  -5.997  -4.673  0.00  0.00    -0.004 A 
ATOM      4  C2  UNL d   1      -5.823  -5.122  -5.586  0.00  0.00    -0.047 A 
ATOM      5  C3  UNL d   1      -5.958  -3.869  -4.944  0.00  0.00    -0.047 A 
ATOM      6  C4  UNL d   1      -5.488  -4.015  -3.655  0.00  0.00    -0.004 A 
ENDROOT
TORSDOF 0
ENDMDL
