MODEL 1
REMARK minimizedAffinity -1.11686087
REMARK minimizedRMSD -1
REMARK  0 active torsions:
REMARK  status: ('A' for Active; 'I' for Inactive)
ROOT
ATOM      1  C   UNL d   1      -5.255  -3.746  -2.643  0.00  0.00     0.172 C 
ATOM      2  N   UNL d   1      -5.251  -4.447  -3.905  0.00  0.00    -0.070 N 
ATOM      3  C1  UNL d   1      -5.999  -4.117  -5.004  0.00  0.00    -0.004 A 
ATOM      4  C2  UNL d   1      -5.710  -5.026  -5.999  0.00  0.00    -0.047 A 
ATOM      5  C3  UNL d   1      -4.756  -5.933  -5.480  0.00  0.00    -0.047 A 
ATOM      6  C4  UNL d   1      -4.490  -5.552  -4.182  0.00  0.00    -0.004 A 
ENDROOT
TORSDOF 0
ENDMDL
