MODEL 1
REMARK minimizedAffinity -2.88868952
REMARK minimizedRMSD -1
REMARK  0 active torsions:
REMARK  status: ('A' for Active; 'I' for Inactive)
ROOT
ATOM      1  C   UNL d   1       4.492   3.887  -6.000  0.00  0.00     0.172 C 
ATOM      2  N   UNL d   1       4.667   2.488  -5.686  0.00  0.00    -0.070 N 
ATOM      3  C1  UNL d   1       3.722   1.672  -5.123  0.00  0.00    -0.004 A 
ATOM      4  C2  UNL d   1       4.276   0.418  -4.986  0.00  0.00    -0.047 A 
ATOM      5  C3  UNL d   1       5.599   0.482  -5.482  0.00  0.00    -0.047 A 
ATOM      6  C4  UNL d   1       5.815   1.776  -5.909  0.00  0.00    -0.004 A 
ENDROOT
TORSDOF 0
ENDMDL
