MODEL 1
REMARK minimizedAffinity -3.09130931
REMARK minimizedRMSD -1
REMARK  0 active torsions:
REMARK  status: ('A' for Active; 'I' for Inactive)
ROOT
ATOM      1  C   UNL d   1      -4.521  -5.506  -5.611  0.00  0.00     0.172 C 
ATOM      2  N   UNL d   1      -4.922  -5.337  -4.234  0.00  0.00    -0.070 N 
ATOM      3  C1  UNL d   1      -4.391  -6.000  -3.160  0.00  0.00    -0.004 A 
ATOM      4  C2  UNL d   1      -5.041  -5.559  -2.028  0.00  0.00    -0.047 A 
ATOM      5  C3  UNL d   1      -5.997  -4.599  -2.435  0.00  0.00    -0.047 A 
ATOM      6  C4  UNL d   1      -5.902  -4.481  -3.805  0.00  0.00    -0.004 A 
ENDROOT
TORSDOF 0
ENDMDL
