MODEL 1
REMARK minimizedAffinity -2.88258123
REMARK minimizedRMSD -1
REMARK  0 active torsions:
REMARK  status: ('A' for Active; 'I' for Inactive)
ROOT
ATOM      1  C   UNL d   1      -5.628  -5.147  -2.460  0.00  0.00     0.172 C 
ATOM      2  N   UNL d   1      -5.285  -5.128  -3.863  0.00  0.00    -0.070 N 
ATOM      3  C1  UNL d   1      -4.433  -5.999  -4.489  0.00  0.00    -0.004 A 
ATOM      4  C2  UNL d   1      -4.372  -5.647  -5.820  0.00  0.00    -0.047 A 
ATOM      5  C3  UNL d   1      -5.215  -4.525  -6.000  0.00  0.00    -0.047 A 
ATOM      6  C4  UNL d   1      -5.767  -4.224  -4.772  0.00  0.00    -0.004 A 
ENDROOT
TORSDOF 0
ENDMDL
