MODEL 1
REMARK minimizedAffinity -2.47975254
REMARK minimizedRMSD -1
REMARK  0 active torsions:
REMARK  status: ('A' for Active; 'I' for Inactive)
ROOT
ATOM      1  C4' PXY d   1       0.128   3.782  -0.725  0.00  0.00     0.077 C 
ATOM      2  C1' PXY d   1       0.884  -1.113   2.255  0.00  0.00     0.077 C 
ATOM      3  C1  PXY d   1       0.694   0.166   1.464  0.00  0.00    -0.082 A 
ATOM      4  C2  PXY d   1       0.321   1.272   2.088  0.00  0.00     0.003 A 
ATOM      5  C3  PXY d   1       0.114   2.429   1.384  0.00  0.00     0.003 A 
ATOM      6  C4  PXY d   1       0.341   2.470   0.034  0.00  0.00    -0.082 A 
ATOM      7  C5  PXY d   1       0.732   1.348  -0.608  0.00  0.00     0.003 A 
ATOM      8  C6  PXY d   1       0.898   0.173   0.118  0.00  0.00     0.003 A 
ENDROOT
TORSDOF 0
ENDMDL
