MODEL 1
REMARK minimizedAffinity 6.91135931
REMARK minimizedRMSD -1
REMARK  0 active torsions:
REMARK  status: ('A' for Active; 'I' for Inactive)
ROOT
ATOM      1  C4' PXY d   1       1.454   2.517   3.073  0.00  0.00     0.077 C 
ATOM      2  C1' PXY d   1       0.292  -2.518   0.482  0.00  0.00     0.077 C 
ATOM      3  C1  PXY d   1       0.590  -1.191   1.152  0.00  0.00    -0.082 A 
ATOM      4  C2  PXY d   1       1.624  -1.090   1.971  0.00  0.00     0.003 A 
ATOM      5  C3  PXY d   1       1.890   0.093   2.610  0.00  0.00     0.003 A 
ATOM      6  C4  PXY d   1       1.120   1.200   2.367  0.00  0.00    -0.082 A 
ATOM      7  C5  PXY d   1       0.070   1.108   1.525  0.00  0.00     0.003 A 
ATOM      8  C6  PXY d   1      -0.207  -0.114   0.917  0.00  0.00     0.003 A 
ENDROOT
TORSDOF 0
ENDMDL
