MODEL 1
REMARK minimizedAffinity -3.83059502
REMARK minimizedRMSD -1
REMARK  0 active torsions:
REMARK  status: ('A' for Active; 'I' for Inactive)
ROOT
ATOM      1  C4' PXY d   1      -5.405   0.012   2.006  0.00  0.00     0.077 C 
ATOM      2  C1' PXY d   1      -6.000  -4.125   6.000  0.00  0.00     0.077 C 
ATOM      3  C1  PXY d   1      -5.847  -3.031   4.961  0.00  0.00    -0.082 A 
ATOM      4  C2  PXY d   1      -5.997  -3.321   3.679  0.00  0.00     0.003 A 
ATOM      5  C3  PXY d   1      -5.831  -2.350   2.725  0.00  0.00     0.003 A 
ATOM      6  C4  PXY d   1      -5.560  -1.059   3.090  0.00  0.00    -0.082 A 
ATOM      7  C5  PXY d   1      -5.416  -0.753   4.397  0.00  0.00     0.003 A 
ATOM      8  C6  PXY d   1      -5.548  -1.761   5.347  0.00  0.00     0.003 A 
ENDROOT
TORSDOF 0
ENDMDL
