MODEL 1
REMARK minimizedAffinity -4.0817771
REMARK minimizedRMSD -1
REMARK  0 active torsions:
REMARK  status: ('A' for Active; 'I' for Inactive)
ROOT
ATOM      1  C4' PXY d   1       0.273  -0.437   2.194  0.00  0.00     0.077 C 
ATOM      2  C1' PXY d   1       0.376   4.867  -0.101  0.00  0.00     0.077 C 
ATOM      3  C1  PXY d   1       0.344   3.471   0.490  0.00  0.00    -0.082 A 
ATOM      4  C2  PXY d   1       0.231   3.317   1.799  0.00  0.00     0.003 A 
ATOM      5  C3  PXY d   1       0.233   2.063   2.352  0.00  0.00     0.003 A 
ATOM      6  C4  PXY d   1       0.299   0.953   1.553  0.00  0.00    -0.082 A 
ATOM      7  C5  PXY d   1       0.404   1.102   0.215  0.00  0.00     0.003 A 
ATOM      8  C6  PXY d   1       0.441   2.385  -0.323  0.00  0.00     0.003 A 
ENDROOT
TORSDOF 0
ENDMDL
