MODEL 1
REMARK minimizedAffinity -3.37761664
REMARK minimizedRMSD -1
REMARK  0 active torsions:
REMARK  status: ('A' for Active; 'I' for Inactive)
ROOT
ATOM      1  C4' PXY d   1       0.928   5.249   0.511  0.00  0.00     0.077 C 
ATOM      2  C1' PXY d   1       0.215  -0.328   1.855  0.00  0.00     0.077 C 
ATOM      3  C1  PXY d   1       0.398   1.138   1.515  0.00  0.00    -0.082 A 
ATOM      4  C2  PXY d   1       0.304   1.534   0.256  0.00  0.00     0.003 A 
ATOM      5  C3  PXY d   1       0.499   2.851  -0.074  0.00  0.00     0.003 A 
ATOM      6  C4  PXY d   1       0.740   3.781   0.902  0.00  0.00    -0.082 A 
ATOM      7  C5  PXY d   1       0.828   3.386   2.190  0.00  0.00     0.003 A 
ATOM      8  C6  PXY d   1       0.668   2.038   2.499  0.00  0.00     0.003 A 
ENDROOT
TORSDOF 0
ENDMDL
