MODEL 1
REMARK minimizedAffinity 1.98629141
REMARK minimizedRMSD -1
REMARK  1 active torsions:
REMARK  status: ('A' for Active; 'I' for Inactive)
REMARK    1  A    between atoms: C1_2  and  C2_3 
ROOT
ATOM      1  C2  UNL d   1       0.159   1.928   0.240  0.00  0.00    -0.076 A 
ATOM      2  C3  UNL d   1       0.050   2.094   1.631  0.00  0.00     0.004 A 
ATOM      3  C4  UNL d   1       0.204   1.012   2.497  0.00  0.00    -0.003 A 
ATOM      4  C5  UNL d   1       0.472  -0.253   1.986  0.00  0.00     0.000 A 
ATOM      5  C6  UNL d   1       0.601  -0.432   0.609  0.00  0.00     0.000 A 
ATOM      6  C7  UNL d   1       0.464   0.650  -0.277  0.00  0.00    -0.073 A 
ATOM      7  C8  UNL d   1       0.608   0.398  -1.753  0.00  0.00     0.078 C 
ENDROOT
BRANCH   1   8
ATOM      8  C1  UNL d   1      -0.046   3.132  -0.652  0.00  0.00     0.053 C 
ATOM      9  C   UNL d   1       0.468   4.417  -0.022  0.00  0.00     0.018 C 
ENDBRANCH   1   8
TORSDOF 1
ENDMDL
