MODEL 1
REMARK minimizedAffinity 9.22172928
REMARK minimizedRMSD -1
REMARK  1 active torsions:
REMARK  status: ('A' for Active; 'I' for Inactive)
REMARK    1  A    between atoms: C1_2  and  C2_3 
ROOT
ATOM      1  C2  UNL d   1      -5.971  -2.258   2.592  0.00  0.00    -0.076 A 
ATOM      2  C3  UNL d   1      -5.986  -2.858   1.321  0.00  0.00     0.004 A 
ATOM      3  C4  UNL d   1      -5.999  -2.083   0.162  0.00  0.00    -0.003 A 
ATOM      4  C5  UNL d   1      -5.997  -0.696   0.256  0.00  0.00     0.000 A 
ATOM      5  C6  UNL d   1      -5.965  -0.084   1.509  0.00  0.00     0.000 A 
ATOM      6  C7  UNL d   1      -5.935  -0.851   2.686  0.00  0.00    -0.073 A 
ATOM      7  C8  UNL d   1      -5.908  -0.138   4.011  0.00  0.00     0.078 C 
ENDROOT
BRANCH   1   8
ATOM      8  C1  UNL d   1      -5.985  -3.150   3.813  0.00  0.00     0.053 C 
ATOM      9  C   UNL d   1      -5.785  -2.372   5.105  0.00  0.00     0.018 C 
ENDBRANCH   1   8
TORSDOF 1
ENDMDL
