MODEL 1
REMARK minimizedAffinity 9.70214653
REMARK minimizedRMSD -1
REMARK  1 active torsions:
REMARK  status: ('A' for Active; 'I' for Inactive)
REMARK    1  A    between atoms: C1_2  and  C2_3 
ROOT
ATOM      1  C2  UNL d   1      -1.558  -0.114  -3.091  0.00  0.00    -0.076 A 
ATOM      2  C3  UNL d   1      -0.404   0.687  -3.135  0.00  0.00     0.004 A 
ATOM      3  C4  UNL d   1      -0.019   1.452  -2.035  0.00  0.00    -0.003 A 
ATOM      4  C5  UNL d   1      -0.782   1.428  -0.873  0.00  0.00     0.000 A 
ATOM      5  C6  UNL d   1      -1.920   0.625  -0.806  0.00  0.00     0.000 A 
ATOM      6  C7  UNL d   1      -2.313  -0.165  -1.900  0.00  0.00    -0.073 A 
ATOM      7  C8  UNL d   1      -3.553  -1.007  -1.774  0.00  0.00     0.078 C 
ENDROOT
BRANCH   1   8
ATOM      8  C1  UNL d   1      -1.941  -0.901  -4.324  0.00  0.00     0.053 C 
ATOM      9  C   UNL d   1      -1.427  -0.262  -5.606  0.00  0.00     0.018 C 
ENDBRANCH   1   8
TORSDOF 1
ENDMDL
