MODEL 1
REMARK minimizedAffinity 13.4299517
REMARK minimizedRMSD -1
REMARK  1 active torsions:
REMARK  status: ('A' for Active; 'I' for Inactive)
REMARK    1  A    between atoms: C1_2  and  C2_3 
ROOT
ATOM      1  C2  UNL d   1      -1.441   0.883  -1.125  0.00  0.00    -0.076 A 
ATOM      2  C3  UNL d   1      -1.807  -0.312  -1.769  0.00  0.00     0.004 A 
ATOM      3  C4  UNL d   1      -2.921  -1.039  -1.352  0.00  0.00    -0.003 A 
ATOM      4  C5  UNL d   1      -3.687  -0.583  -0.285  0.00  0.00     0.000 A 
ATOM      5  C6  UNL d   1      -3.349   0.609   0.354  0.00  0.00     0.000 A 
ATOM      6  C7  UNL d   1      -2.239   1.363  -0.064  0.00  0.00    -0.073 A 
ATOM      7  C8  UNL d   1      -1.916   2.639   0.665  0.00  0.00     0.078 C 
ENDROOT
BRANCH   1   8
ATOM      8  C1  UNL d   1      -0.207   1.615  -1.603  0.00  0.00     0.053 C 
ATOM      9  C   UNL d   1      -0.215   1.849  -3.106  0.00  0.00     0.018 C 
ENDBRANCH   1   8
TORSDOF 1
ENDMDL
