MODEL 1
REMARK minimizedAffinity -3.7126894
REMARK minimizedRMSD -1
REMARK  1 active torsions:
REMARK  status: ('A' for Active; 'I' for Inactive)
REMARK    1  A    between atoms: C1_2  and  C2_3 
ROOT
ATOM      1  C2  UNL d   1       0.270   1.195   0.350  0.00  0.00    -0.076 A 
ATOM      2  C3  UNL d   1       0.094   1.794   1.610  0.00  0.00     0.004 A 
ATOM      3  C4  UNL d   1      -0.235   3.144   1.722  0.00  0.00    -0.003 A 
ATOM      4  C5  UNL d   1      -0.395   3.916   0.577  0.00  0.00     0.000 A 
ATOM      5  C6  UNL d   1      -0.242   3.334  -0.681  0.00  0.00     0.000 A 
ATOM      6  C7  UNL d   1       0.075   1.971  -0.812  0.00  0.00    -0.073 A 
ATOM      7  C8  UNL d   1       0.234   1.396  -2.193  0.00  0.00     0.078 C 
ENDROOT
BRANCH   1   8
ATOM      8  C1  UNL d   1       0.654  -0.266   0.291  0.00  0.00     0.053 C 
ATOM      9  C   UNL d   1      -0.534  -1.169  -0.006  0.00  0.00     0.018 C 
ENDBRANCH   1   8
TORSDOF 1
ENDMDL
