MODEL 1
REMARK minimizedAffinity -1.76242936
REMARK minimizedRMSD -1
REMARK  1 active torsions:
REMARK  status: ('A' for Active; 'I' for Inactive)
REMARK    1  A    between atoms: N_2  and  C1_3 
ROOT
ATOM      1  C1  UNL d   1      -0.233   0.072  -0.020  0.00  0.00     0.143 A 
ATOM      2  C2  UNL d   1       0.423   1.189  -0.547  0.00  0.00    -0.057 A 
ATOM      3  C3  UNL d   1       1.655   1.615  -0.037  0.00  0.00     0.033 A 
ATOM      4  C4  UNL d   1       2.241   0.946   1.033  0.00  0.00    -0.042 A 
ATOM      5  C5  UNL d   1       1.594  -0.152   1.589  0.00  0.00     0.033 A 
ATOM      6  C6  UNL d   1       0.367  -0.577   1.071  0.00  0.00    -0.057 A 
ENDROOT
BRANCH   1   7
ATOM      7  N   UNL d   1      -1.506  -0.342  -0.419  0.00  0.00    -0.732 N 
ATOM      8  C   UNL d   1      -2.225   0.373  -1.451  0.00  0.00     0.284 C 
ATOM      9  H3  UNL d   1      -1.583  -1.355  -0.485  0.00  0.00     0.395 HD
ENDBRANCH   1   7
TORSDOF 1
ENDMDL
