MODEL 1
REMARK minimizedAffinity -3.54531407
REMARK minimizedRMSD -1
REMARK  1 active torsions:
REMARK  status: ('A' for Active; 'I' for Inactive)
REMARK    1  A    between atoms: N_2  and  C1_3 
ROOT
ATOM      1  C1  UNL d   1       0.517  -0.103   0.815  0.00  0.00     0.143 A 
ATOM      2  C2  UNL d   1       1.765   0.336   1.271  0.00  0.00    -0.057 A 
ATOM      3  C3  UNL d   1       2.505  -0.412   2.194  0.00  0.00     0.033 A 
ATOM      4  C4  UNL d   1       1.996  -1.603   2.700  0.00  0.00    -0.042 A 
ATOM      5  C5  UNL d   1       0.747  -2.047   2.280  0.00  0.00     0.033 A 
ATOM      6  C6  UNL d   1       0.015  -1.298   1.353  0.00  0.00    -0.057 A 
ENDROOT
BRANCH   1   7
ATOM      7  N   UNL d   1      -0.310   0.645  -0.026  0.00  0.00    -0.732 N 
ATOM      8  C   UNL d   1      -1.745   0.650   0.165  0.00  0.00     0.284 C 
ATOM      9  H3  UNL d   1       0.083   1.557  -0.248  0.00  0.00     0.395 HD
ENDBRANCH   1   7
TORSDOF 1
ENDMDL
