MODEL 1
REMARK minimizedAffinity -1.70831037
REMARK minimizedRMSD -1
REMARK  1 active torsions:
REMARK  status: ('A' for Active; 'I' for Inactive)
REMARK    1  A    between atoms: N_2  and  C1_3 
ROOT
ATOM      1  C1  UNL d   1      -0.969   0.515  -0.432  0.00  0.00     0.143 A 
ATOM      2  C2  UNL d   1      -0.015   1.457  -0.033  0.00  0.00    -0.057 A 
ATOM      3  C3  UNL d   1       1.239   1.061   0.449  0.00  0.00     0.033 A 
ATOM      4  C4  UNL d   1       1.550  -0.290   0.567  0.00  0.00    -0.042 A 
ATOM      5  C5  UNL d   1       0.608  -1.244   0.200  0.00  0.00     0.033 A 
ATOM      6  C6  UNL d   1      -0.640  -0.842  -0.286  0.00  0.00    -0.057 A 
ENDROOT
BRANCH   1   7
ATOM      7  N   UNL d   1      -2.268   0.843  -0.826  0.00  0.00    -0.732 N 
ATOM      8  C   UNL d   1      -2.641   0.827  -2.224  0.00  0.00     0.284 C 
ATOM      9  H3  UNL d   1      -2.973   0.455  -0.204  0.00  0.00     0.395 HD
ENDBRANCH   1   7
TORSDOF 1
ENDMDL
