MODEL 1
REMARK minimizedAffinity -3.85258842
REMARK minimizedRMSD -1
REMARK  1 active torsions:
REMARK  status: ('A' for Active; 'I' for Inactive)
REMARK    1  A    between atoms: N_2  and  C1_3 
ROOT
ATOM      1  C1  UNL d   1      -1.418  -0.045  -1.187  0.00  0.00     0.143 A 
ATOM      2  C2  UNL d   1      -1.843   1.151  -1.775  0.00  0.00    -0.057 A 
ATOM      3  C3  UNL d   1      -2.572   1.154  -2.970  0.00  0.00     0.033 A 
ATOM      4  C4  UNL d   1      -2.865  -0.043  -3.616  0.00  0.00    -0.042 A 
ATOM      5  C5  UNL d   1      -2.431  -1.242  -3.063  0.00  0.00     0.033 A 
ATOM      6  C6  UNL d   1      -1.708  -1.239  -1.866  0.00  0.00    -0.057 A 
ENDROOT
BRANCH   1   7
ATOM      7  N   UNL d   1      -0.605  -0.109  -0.052  0.00  0.00    -0.732 N 
ATOM      8  C   UNL d   1       0.554   0.749   0.073  0.00  0.00     0.284 C 
ATOM      9  H3  UNL d   1      -1.143  -0.209   0.805  0.00  0.00     0.395 HD
ENDBRANCH   1   7
TORSDOF 1
ENDMDL
