MODEL 1
REMARK minimizedAffinity -1.01682758
REMARK minimizedRMSD -1
REMARK  1 active torsions:
REMARK  status: ('A' for Active; 'I' for Inactive)
REMARK    1  A    between atoms: N_2  and  C1_3 
ROOT
ATOM      1  C1  UNL d   1       0.967   0.477   0.868  0.00  0.00     0.143 A 
ATOM      2  C2  UNL d   1       0.114   1.383   0.229  0.00  0.00    -0.057 A 
ATOM      3  C3  UNL d   1      -1.170   1.007  -0.182  0.00  0.00     0.033 A 
ATOM      4  C4  UNL d   1      -1.615  -0.296   0.014  0.00  0.00    -0.042 A 
ATOM      5  C5  UNL d   1      -0.776  -1.221   0.624  0.00  0.00     0.033 A 
ATOM      6  C6  UNL d   1       0.503  -0.837   1.038  0.00  0.00    -0.057 A 
ENDROOT
BRANCH   1   7
ATOM      7  N   UNL d   1       2.290   0.763   1.211  0.00  0.00    -0.732 N 
ATOM      8  C   UNL d   1       3.371  -0.079   0.745  0.00  0.00     0.284 C 
ATOM      9  H3  UNL d   1       2.494   1.759   1.175  0.00  0.00     0.395 HD
ENDBRANCH   1   7
TORSDOF 1
ENDMDL
