MODEL 1
REMARK minimizedAffinity -3.05388808
REMARK minimizedRMSD -1
REMARK  1 active torsions:
REMARK  status: ('A' for Active; 'I' for Inactive)
REMARK    1  A    between atoms: N_2  and  C1_3 
ROOT
ATOM      1  C1  UNL d   1      -1.954   0.435  -0.668  0.00  0.00     0.143 A 
ATOM      2  C2  UNL d   1      -2.093  -0.576   0.289  0.00  0.00    -0.057 A 
ATOM      3  C3  UNL d   1      -1.054  -0.885   1.175  0.00  0.00     0.033 A 
ATOM      4  C4  UNL d   1       0.158  -0.206   1.100  0.00  0.00    -0.042 A 
ATOM      5  C5  UNL d   1       0.328   0.785   0.140  0.00  0.00     0.033 A 
ATOM      6  C6  UNL d   1      -0.716   1.094  -0.737  0.00  0.00    -0.057 A 
ENDROOT
BRANCH   1   7
ATOM      7  N   UNL d   1      -2.914   0.723  -1.641  0.00  0.00    -0.732 N 
ATOM      8  C   UNL d   1      -2.614   0.550  -3.046  0.00  0.00     0.284 C 
ATOM      9  H3  UNL d   1      -3.844   0.410  -1.373  0.00  0.00     0.395 HD
ENDBRANCH   1   7
TORSDOF 1
ENDMDL
