MODEL 1
REMARK minimizedAffinity -2.43788791
REMARK minimizedRMSD -1
REMARK  2 active torsions:
REMARK  status: ('A' for Active; 'I' for Inactive)
REMARK    1  A    between atoms: C1_2  and  C2_3 
REMARK    2  A    between atoms: C2_3  and  C3_4 
ROOT
ATOM      1  C3  UNL d   1      -1.025  -0.072   1.179  0.00  0.00    -0.075 A 
ATOM      2  C4  UNL d   1      -1.720  -0.241   2.385  0.00  0.00     0.002 A 
ATOM      3  C5  UNL d   1      -1.051  -0.155   3.606  0.00  0.00     0.002 A 
ATOM      4  C6  UNL d   1       0.320   0.090   3.637  0.00  0.00    -0.004 A 
ATOM      5  C7  UNL d   1       1.024   0.243   2.445  0.00  0.00     0.002 A 
ATOM      6  C8  UNL d   1       0.356   0.161   1.221  0.00  0.00     0.002 A 
ENDROOT
BRANCH   1   7
ATOM      7  C2  UNL d   1      -1.748  -0.135  -0.145  0.00  0.00     0.056 C 
BRANCH   7   8
ATOM      8  C1  UNL d   1      -1.144   0.764  -1.229  0.00  0.00     0.007 C 
ATOM      9  C   UNL d   1      -0.023   0.093  -2.010  0.00  0.00     0.009 C 
ENDBRANCH   7   8
ENDBRANCH   1   7
TORSDOF 2
ENDMDL
