MODEL 1
REMARK minimizedAffinity -3.62279677
REMARK minimizedRMSD -1
REMARK  2 active torsions:
REMARK  status: ('A' for Active; 'I' for Inactive)
REMARK    1  A    between atoms: C1_2  and  C2_3 
REMARK    2  A    between atoms: C2_3  and  C3_4 
ROOT
ATOM      1  C3  UNL d   1      -0.215   0.258  -0.564  0.00  0.00    -0.075 A 
ATOM      2  C4  UNL d   1       1.019   0.387   0.091  0.00  0.00     0.002 A 
ATOM      3  C5  UNL d   1       1.083   0.390   1.485  0.00  0.00     0.002 A 
ATOM      4  C6  UNL d   1      -0.082   0.275   2.239  0.00  0.00    -0.004 A 
ATOM      5  C7  UNL d   1      -1.314   0.164   1.599  0.00  0.00     0.002 A 
ATOM      6  C8  UNL d   1      -1.381   0.156   0.205  0.00  0.00     0.002 A 
ENDROOT
BRANCH   1   7
ATOM      7  C2  UNL d   1      -0.288   0.225  -2.072  0.00  0.00     0.056 C 
BRANCH   7   8
ATOM      8  C1  UNL d   1       0.947  -0.385  -2.744  0.00  0.00     0.007 C 
ATOM      9  C   UNL d   1       0.603  -1.437  -3.790  0.00  0.00     0.009 C 
ENDBRANCH   7   8
ENDBRANCH   1   7
TORSDOF 2
ENDMDL
