MODEL 1
REMARK minimizedAffinity -4.49393034
REMARK minimizedRMSD -1
REMARK  2 active torsions:
REMARK  status: ('A' for Active; 'I' for Inactive)
REMARK    1  A    between atoms: C1_2  and  C2_3 
REMARK    2  A    between atoms: C2_3  and  C3_4 
ROOT
ATOM      1  C3  UNL d   1      -0.011   0.161  -0.324  0.00  0.00    -0.075 A 
ATOM      2  C4  UNL d   1      -1.159  -0.512   0.119  0.00  0.00     0.002 A 
ATOM      3  C5  UNL d   1      -1.461  -0.576   1.480  0.00  0.00     0.002 A 
ATOM      4  C6  UNL d   1      -0.617   0.022   2.413  0.00  0.00    -0.004 A 
ATOM      5  C7  UNL d   1       0.534   0.680   1.985  0.00  0.00     0.002 A 
ATOM      6  C8  UNL d   1       0.837   0.749   0.624  0.00  0.00     0.002 A 
ENDROOT
BRANCH   1   7
ATOM      7  C2  UNL d   1       0.306   0.259  -1.797  0.00  0.00     0.056 C 
BRANCH   7   8
ATOM      8  C1  UNL d   1       0.292  -1.087  -2.529  0.00  0.00     0.007 C 
ATOM      9  C   UNL d   1       1.391  -1.214  -3.576  0.00  0.00     0.009 C 
ENDBRANCH   7   8
ENDBRANCH   1   7
TORSDOF 2
ENDMDL
