MODEL 1
REMARK minimizedAffinity -2.74462199
REMARK minimizedRMSD -1
REMARK  2 active torsions:
REMARK  status: ('A' for Active; 'I' for Inactive)
REMARK    1  A    between atoms: C1_2  and  C2_3 
REMARK    2  A    between atoms: C2_3  and  C3_4 
ROOT
ATOM      1  C3  UNL d   1       0.365   0.460  -1.416  0.00  0.00    -0.075 A 
ATOM      2  C4  UNL d   1       1.423   0.533  -0.498  0.00  0.00     0.002 A 
ATOM      3  C5  UNL d   1       1.169   0.570   0.874  0.00  0.00     0.002 A 
ATOM      4  C6  UNL d   1      -0.142   0.545   1.343  0.00  0.00    -0.004 A 
ATOM      5  C7  UNL d   1      -1.201   0.489   0.440  0.00  0.00     0.002 A 
ATOM      6  C8  UNL d   1      -0.950   0.447  -0.933  0.00  0.00     0.002 A 
ENDROOT
BRANCH   1   7
ATOM      7  C2  UNL d   1       0.634   0.389  -2.900  0.00  0.00     0.056 C 
BRANCH   7   8
ATOM      8  C1  UNL d   1       1.284  -0.922  -3.355  0.00  0.00     0.007 C 
ATOM      9  C   UNL d   1       0.286  -1.919  -3.930  0.00  0.00     0.009 C 
ENDBRANCH   7   8
ENDBRANCH   1   7
TORSDOF 2
ENDMDL
