MODEL 1
REMARK minimizedAffinity -4.0821476
REMARK minimizedRMSD -1
REMARK  2 active torsions:
REMARK  status: ('A' for Active; 'I' for Inactive)
REMARK    1  A    between atoms: C1_2  and  C2_3 
REMARK    2  A    between atoms: C2_3  and  C3_4 
ROOT
ATOM      1  C3  UNL d   1       0.142   0.237  -0.117  0.00  0.00    -0.075 A 
ATOM      2  C4  UNL d   1       1.316   0.385   0.635  0.00  0.00     0.002 A 
ATOM      3  C5  UNL d   1       1.297   0.205   2.019  0.00  0.00     0.002 A 
ATOM      4  C6  UNL d   1       0.106  -0.113   2.667  0.00  0.00    -0.004 A 
ATOM      5  C7  UNL d   1      -1.069  -0.246   1.931  0.00  0.00     0.002 A 
ATOM      6  C8  UNL d   1      -1.053  -0.072   0.546  0.00  0.00     0.002 A 
ENDROOT
BRANCH   1   7
ATOM      7  C2  UNL d   1       0.161   0.401  -1.618  0.00  0.00     0.056 C 
BRANCH   7   8
ATOM      8  C1  UNL d   1       0.467  -0.891  -2.383  0.00  0.00     0.007 C 
ATOM      9  C   UNL d   1       1.630  -0.752  -3.357  0.00  0.00     0.009 C 
ENDBRANCH   7   8
ENDBRANCH   1   7
TORSDOF 2
ENDMDL
