MODEL 1
REMARK minimizedAffinity -3.142905
REMARK minimizedRMSD -1
REMARK  2 active torsions:
REMARK  status: ('A' for Active; 'I' for Inactive)
REMARK    1  A    between atoms: C1_2  and  C2_3 
REMARK    2  A    between atoms: C2_3  and  C3_4 
ROOT
ATOM      1  C3  UNL d   1       0.188  -0.111   0.163  0.00  0.00    -0.075 A 
ATOM      2  C4  UNL d   1       0.898   0.034   1.364  0.00  0.00     0.002 A 
ATOM      3  C5  UNL d   1       0.232   0.006   2.589  0.00  0.00     0.002 A 
ATOM      4  C6  UNL d   1      -1.151  -0.156   2.629  0.00  0.00    -0.004 A 
ATOM      5  C7  UNL d   1      -1.869  -0.283   1.442  0.00  0.00     0.002 A 
ATOM      6  C8  UNL d   1      -1.204  -0.261   0.215  0.00  0.00     0.002 A 
ENDROOT
BRANCH   1   7
ATOM      7  C2  UNL d   1       0.907  -0.111  -1.165  0.00  0.00     0.056 C 
BRANCH   7   8
ATOM      8  C1  UNL d   1       0.402  -1.174  -2.147  0.00  0.00     0.007 C 
ATOM      9  C   UNL d   1       1.470  -1.643  -3.125  0.00  0.00     0.009 C 
ENDBRANCH   7   8
ENDBRANCH   1   7
TORSDOF 2
ENDMDL
