MODEL 1
REMARK minimizedAffinity -4.83865023
REMARK minimizedRMSD -1
REMARK  2 active torsions:
REMARK  status: ('A' for Active; 'I' for Inactive)
REMARK    1  A    between atoms: C1_2  and  C2_3 
REMARK    2  A    between atoms: C2_3  and  C3_4 
ROOT
ATOM      1  C3  UNL d   1      -0.685   0.191   0.136  0.00  0.00    -0.075 A 
ATOM      2  C4  UNL d   1      -1.960  -0.203   0.568  0.00  0.00     0.002 A 
ATOM      3  C5  UNL d   1      -2.209  -0.434   1.921  0.00  0.00     0.002 A 
ATOM      4  C6  UNL d   1      -1.187  -0.286   2.856  0.00  0.00    -0.004 A 
ATOM      5  C7  UNL d   1       0.087   0.088   2.436  0.00  0.00     0.002 A 
ATOM      6  C8  UNL d   1       0.339   0.325   1.083  0.00  0.00     0.002 A 
ENDROOT
BRANCH   1   7
ATOM      7  C2  UNL d   1      -0.416   0.472  -1.323  0.00  0.00     0.056 C 
BRANCH   7   8
ATOM      8  C1  UNL d   1       1.066   0.419  -1.706  0.00  0.00     0.007 C 
ATOM      9  C   UNL d   1       1.296   0.331  -3.209  0.00  0.00     0.009 C 
ENDBRANCH   7   8
ENDBRANCH   1   7
TORSDOF 2
ENDMDL
