MODEL 1
REMARK minimizedAffinity -3.57523441
REMARK minimizedRMSD -1
REMARK  2 active torsions:
REMARK  status: ('A' for Active; 'I' for Inactive)
REMARK    1  A    between atoms: C1_2  and  C2_3 
REMARK    2  A    between atoms: C2_3  and  C3_4 
ROOT
ATOM      1  C3  UNL d   1       0.273   0.280  -1.475  0.00  0.00    -0.075 A 
ATOM      2  C4  UNL d   1       1.025   0.350  -0.293  0.00  0.00     0.002 A 
ATOM      3  C5  UNL d   1       0.390   0.467   0.944  0.00  0.00     0.002 A 
ATOM      4  C6  UNL d   1      -1.000   0.525   1.015  0.00  0.00    -0.004 A 
ATOM      5  C7  UNL d   1      -1.756   0.472  -0.154  0.00  0.00     0.002 A 
ATOM      6  C8  UNL d   1      -1.124   0.351  -1.393  0.00  0.00     0.002 A 
ENDROOT
BRANCH   1   7
ATOM      7  C2  UNL d   1       0.952   0.124  -2.815  0.00  0.00     0.056 C 
BRANCH   7   8
ATOM      8  C1  UNL d   1       1.405  -1.308  -3.121  0.00  0.00     0.007 C 
ATOM      9  C   UNL d   1       0.342  -2.134  -3.833  0.00  0.00     0.009 C 
ENDBRANCH   7   8
ENDBRANCH   1   7
TORSDOF 2
ENDMDL
