MODEL 1
REMARK minimizedAffinity -4.25078583
REMARK minimizedRMSD -1
REMARK  2 active torsions:
REMARK  status: ('A' for Active; 'I' for Inactive)
REMARK    1  A    between atoms: C1_2  and  C2_3 
REMARK    2  A    between atoms: C2_3  and  C3_4 
ROOT
ATOM      1  C3  UNL d   1      -0.151   0.149   0.305  0.00  0.00    -0.075 A 
ATOM      2  C4  UNL d   1      -1.403  -0.324   0.722  0.00  0.00     0.002 A 
ATOM      3  C5  UNL d   1      -1.592  -0.770   2.031  0.00  0.00     0.002 A 
ATOM      4  C6  UNL d   1      -0.532  -0.758   2.934  0.00  0.00    -0.004 A 
ATOM      5  C7  UNL d   1       0.721  -0.305   2.526  0.00  0.00     0.002 A 
ATOM      6  C8  UNL d   1       0.912   0.146   1.218  0.00  0.00     0.002 A 
ENDROOT
BRANCH   1   7
ATOM      7  C2  UNL d   1       0.052   0.661  -1.101  0.00  0.00     0.056 C 
BRANCH   7   8
ATOM      8  C1  UNL d   1       1.367   0.208  -1.745  0.00  0.00     0.007 C 
ATOM      9  C   UNL d   1       1.178  -0.875  -2.799  0.00  0.00     0.009 C 
ENDBRANCH   7   8
ENDBRANCH   1   7
TORSDOF 2
ENDMDL
