MODEL 1
REMARK minimizedAffinity -5.86960554
REMARK minimizedRMSD -1
REMARK  2 active torsions:
REMARK  status: ('A' for Active; 'I' for Inactive)
REMARK    1  A    between atoms: C1_2  and  C2_3 
REMARK    2  A    between atoms: C2_3  and  C3_4 
ROOT
ATOM      1  C3  UNL d   1      -0.220   0.109   0.254  0.00  0.00    -0.075 A 
ATOM      2  C4  UNL d   1      -1.404  -0.539   0.635  0.00  0.00     0.002 A 
ATOM      3  C5  UNL d   1      -1.590  -0.957   1.953  0.00  0.00     0.002 A 
ATOM      4  C6  UNL d   1      -0.594  -0.742   2.902  0.00  0.00    -0.004 A 
ATOM      5  C7  UNL d   1       0.593  -0.114   2.531  0.00  0.00     0.002 A 
ATOM      6  C8  UNL d   1       0.780   0.309   1.214  0.00  0.00     0.002 A 
ENDROOT
BRANCH   1   7
ATOM      7  C2  UNL d   1      -0.025   0.590  -1.164  0.00  0.00     0.056 C 
BRANCH   7   8
ATOM      8  C1  UNL d   1       0.362  -0.517  -2.151  0.00  0.00     0.007 C 
ATOM      9  C   UNL d   1       1.522  -0.134  -3.059  0.00  0.00     0.009 C 
ENDBRANCH   7   8
ENDBRANCH   1   7
TORSDOF 2
ENDMDL
