MODEL 1
REMARK minimizedAffinity -5.23393631
REMARK minimizedRMSD -1
REMARK  2 active torsions:
REMARK  status: ('A' for Active; 'I' for Inactive)
REMARK    1  A    between atoms: C1_2  and  C2_3 
REMARK    2  A    between atoms: C2_3  and  C3_4 
ROOT
ATOM      1  C3  UNL d   1       0.147  -0.030  -0.407  0.00  0.00    -0.075 A 
ATOM      2  C4  UNL d   1      -1.149  -0.087   0.125  0.00  0.00     0.002 A 
ATOM      3  C5  UNL d   1      -1.350  -0.395   1.471  0.00  0.00     0.002 A 
ATOM      4  C6  UNL d   1      -0.260  -0.659   2.298  0.00  0.00    -0.004 A 
ATOM      5  C7  UNL d   1       1.031  -0.621   1.776  0.00  0.00     0.002 A 
ATOM      6  C8  UNL d   1       1.235  -0.309   0.431  0.00  0.00     0.002 A 
ENDROOT
BRANCH   1   7
ATOM      7  C2  UNL d   1       0.372   0.332  -1.856  0.00  0.00     0.056 C 
BRANCH   7   8
ATOM      8  C1  UNL d   1       1.150  -0.724  -2.649  0.00  0.00     0.007 C 
ATOM      9  C   UNL d   1       0.265  -1.834  -3.199  0.00  0.00     0.009 C 
ENDBRANCH   7   8
ENDBRANCH   1   7
TORSDOF 2
ENDMDL
