MODEL 1
REMARK minimizedAffinity -3.03084326
REMARK minimizedRMSD -1
REMARK  2 active torsions:
REMARK  status: ('A' for Active; 'I' for Inactive)
REMARK    1  A    between atoms: C1_2  and  C2_3 
REMARK    2  A    between atoms: C2_3  and  C3_4 
ROOT
ATOM      1  C3  UNL d   1       0.219   0.107   0.874  0.00  0.00    -0.075 A 
ATOM      2  C4  UNL d   1      -1.005  -0.574   0.946  0.00  0.00     0.002 A 
ATOM      3  C5  UNL d   1      -1.585  -0.859   2.182  0.00  0.00     0.002 A 
ATOM      4  C6  UNL d   1      -0.945  -0.478   3.360  0.00  0.00    -0.004 A 
ATOM      5  C7  UNL d   1       0.280   0.183   3.300  0.00  0.00     0.002 A 
ATOM      6  C8  UNL d   1       0.860   0.474   2.064  0.00  0.00     0.002 A 
ENDROOT
BRANCH   1   7
ATOM      7  C2  UNL d   1       0.838   0.445  -0.462  0.00  0.00     0.056 C 
BRANCH   7   8
ATOM      8  C1  UNL d   1       0.652  -0.641  -1.528  0.00  0.00     0.007 C 
ATOM      9  C   UNL d   1       1.712  -0.597  -2.620  0.00  0.00     0.009 C 
ENDBRANCH   7   8
ENDBRANCH   1   7
TORSDOF 2
ENDMDL
