MODEL 1
REMARK minimizedAffinity -1.83241618
REMARK minimizedRMSD -1
REMARK  2 active torsions:
REMARK  status: ('A' for Active; 'I' for Inactive)
REMARK    1  A    between atoms: C1_2  and  C2_3 
REMARK    2  A    between atoms: C2_3  and  C3_4 
ROOT
ATOM      1  C3  UNL d   1       0.361  -0.348   2.023  0.00  0.00    -0.075 A 
ATOM      2  C4  UNL d   1       0.151  -0.200   3.402  0.00  0.00     0.002 A 
ATOM      3  C5  UNL d   1      -1.032  -0.648   3.991  0.00  0.00     0.002 A 
ATOM      4  C6  UNL d   1      -2.022  -1.240   3.209  0.00  0.00    -0.004 A 
ATOM      5  C7  UNL d   1      -1.831  -1.377   1.836  0.00  0.00     0.002 A 
ATOM      6  C8  UNL d   1      -0.647  -0.934   1.245  0.00  0.00     0.002 A 
ENDROOT
BRANCH   1   7
ATOM      7  C2  UNL d   1       1.651   0.109   1.385  0.00  0.00     0.056 C 
BRANCH   7   8
ATOM      8  C1  UNL d   1       1.461   1.124   0.253  0.00  0.00     0.007 C 
ATOM      9  C   UNL d   1       0.928   0.499  -1.030  0.00  0.00     0.009 C 
ENDBRANCH   7   8
ENDBRANCH   1   7
TORSDOF 2
ENDMDL
