MODEL 1
REMARK minimizedAffinity -1.32270563
REMARK minimizedRMSD -1
REMARK  2 active torsions:
REMARK  status: ('A' for Active; 'I' for Inactive)
REMARK    1  A    between atoms: C1_2  and  C2_3 
REMARK    2  A    between atoms: C2_3  and  C3_4 
ROOT
ATOM      1  C3  UNL d   1      -0.798  -0.924   0.589  0.00  0.00    -0.075 A 
ATOM      2  C4  UNL d   1      -1.213  -0.338  -0.616  0.00  0.00     0.002 A 
ATOM      3  C5  UNL d   1      -0.354   0.499  -1.329  0.00  0.00     0.002 A 
ATOM      4  C6  UNL d   1       0.923   0.769  -0.843  0.00  0.00    -0.004 A 
ATOM      5  C7  UNL d   1       1.340   0.205   0.361  0.00  0.00     0.002 A 
ATOM      6  C8  UNL d   1       0.485  -0.637   1.074  0.00  0.00     0.002 A 
ENDROOT
BRANCH   1   7
ATOM      7  C2  UNL d   1      -1.711  -1.855   1.350  0.00  0.00     0.056 C 
BRANCH   7   8
ATOM      8  C1  UNL d   1      -1.027  -2.594   2.505  0.00  0.00     0.007 C 
ATOM      9  C   UNL d   1      -0.336  -3.879   2.070  0.00  0.00     0.009 C 
ENDBRANCH   7   8
ENDBRANCH   1   7
TORSDOF 2
ENDMDL
