MODEL 1
REMARK minimizedAffinity 1.80351555
REMARK minimizedRMSD -1
REMARK  1 active torsions:
REMARK  status: ('A' for Active; 'I' for Inactive)
REMARK    1  A    between atoms: C1_2  and  C2_3 
ROOT
ATOM      1  C2  UNL d   1       2.147  -0.068   1.530  0.00  0.00    -0.077 A 
ATOM      2  C3  UNL d   1       2.602  -0.792   2.641  0.00  0.00     0.002 A 
ATOM      3  C4  UNL d   1       1.981  -1.987   3.008  0.00  0.00     0.002 A 
ATOM      4  C5  UNL d   1       0.906  -2.472   2.267  0.00  0.00    -0.004 A 
ATOM      5  C6  UNL d   1       0.444  -1.758   1.162  0.00  0.00     0.002 A 
ATOM      6  C7  UNL d   1       1.063  -0.563   0.794  0.00  0.00     0.002 A 
ENDROOT
BRANCH   1   7
ATOM      7  C1  UNL d   1       2.847   1.196   1.103  0.00  0.00     0.055 C 
ATOM      8  C   UNL d   1       2.037   1.951   0.059  0.00  0.00     0.019 C 
ENDBRANCH   1   7
TORSDOF 1
ENDMDL
