MODEL 1
REMARK minimizedAffinity 4.64657068
REMARK minimizedRMSD -1
REMARK  1 active torsions:
REMARK  status: ('A' for Active; 'I' for Inactive)
REMARK    1  A    between atoms: C1_2  and  C2_3 
ROOT
ATOM      1  C2  UNL d   1       3.303  -2.623   3.922  0.00  0.00    -0.077 A 
ATOM      2  C3  UNL d   1       2.269  -3.520   3.621  0.00  0.00     0.002 A 
ATOM      3  C4  UNL d   1       1.229  -3.139   2.771  0.00  0.00     0.002 A 
ATOM      4  C5  UNL d   1       1.215  -1.863   2.213  0.00  0.00    -0.004 A 
ATOM      5  C6  UNL d   1       2.238  -0.963   2.508  0.00  0.00     0.002 A 
ATOM      6  C7  UNL d   1       3.278  -1.341   3.358  0.00  0.00     0.002 A 
ENDROOT
BRANCH   1   7
ATOM      7  C1  UNL d   1       4.452  -3.049   4.799  0.00  0.00     0.055 C 
ATOM      8  C   UNL d   1       5.732  -3.214   3.993  0.00  0.00     0.019 C 
ENDBRANCH   1   7
TORSDOF 1
ENDMDL
