MODEL 1
REMARK minimizedAffinity 8.18103409
REMARK minimizedRMSD -1
REMARK  1 active torsions:
REMARK  status: ('A' for Active; 'I' for Inactive)
REMARK    1  A    between atoms: C1_2  and  C2_3 
ROOT
ATOM      1  C2  UNL d   1      -5.089   2.966  -4.262  0.00  0.00    -0.077 A 
ATOM      2  C3  UNL d   1      -3.709   2.795  -4.441  0.00  0.00     0.002 A 
ATOM      3  C4  UNL d   1      -2.872   2.610  -3.338  0.00  0.00     0.002 A 
ATOM      4  C5  UNL d   1      -3.406   2.591  -2.052  0.00  0.00    -0.004 A 
ATOM      5  C6  UNL d   1      -4.777   2.763  -1.864  0.00  0.00     0.002 A 
ATOM      6  C7  UNL d   1      -5.615   2.948  -2.964  0.00  0.00     0.002 A 
ENDROOT
BRANCH   1   7
ATOM      7  C1  UNL d   1      -6.000   3.116  -5.453  0.00  0.00     0.055 C 
ATOM      8  C   UNL d   1      -5.996   4.545  -5.976  0.00  0.00     0.019 C 
ENDBRANCH   1   7
TORSDOF 1
ENDMDL
