MODEL 1
REMARK minimizedAffinity 6.16302299
REMARK minimizedRMSD -1
REMARK  1 active torsions:
REMARK  status: ('A' for Active; 'I' for Inactive)
REMARK    1  A    between atoms: C1_2  and  C2_3 
ROOT
ATOM      1  C2  UNL d   1       2.298  -0.931   2.444  0.00  0.00    -0.077 A 
ATOM      2  C3  UNL d   1       2.616  -0.669   1.104  0.00  0.00     0.002 A 
ATOM      3  C4  UNL d   1       2.800   0.643   0.665  0.00  0.00     0.002 A 
ATOM      4  C5  UNL d   1       2.671   1.703   1.560  0.00  0.00    -0.004 A 
ATOM      5  C6  UNL d   1       2.353   1.453   2.895  0.00  0.00     0.002 A 
ATOM      6  C7  UNL d   1       2.168   0.142   3.335  0.00  0.00     0.002 A 
ENDROOT
BRANCH   1   7
ATOM      7  C1  UNL d   1       2.149  -2.349   2.930  0.00  0.00     0.055 C 
ATOM      8  C   UNL d   1       3.354  -2.783   3.752  0.00  0.00     0.019 C 
ENDBRANCH   1   7
TORSDOF 1
ENDMDL
