MODEL 1
REMARK minimizedAffinity -0.764466345
REMARK minimizedRMSD -1
REMARK  1 active torsions:
REMARK  status: ('A' for Active; 'I' for Inactive)
REMARK    1  A    between atoms: C1_2  and  C2_3 
ROOT
ATOM      1  C2  UNL d   1       1.438  -1.980   1.493  0.00  0.00    -0.077 A 
ATOM      2  C3  UNL d   1       1.503  -2.883   2.563  0.00  0.00     0.002 A 
ATOM      3  C4  UNL d   1       2.311  -2.611   3.668  0.00  0.00     0.002 A 
ATOM      4  C5  UNL d   1       3.056  -1.434   3.716  0.00  0.00    -0.004 A 
ATOM      5  C6  UNL d   1       2.999  -0.530   2.656  0.00  0.00     0.002 A 
ATOM      6  C7  UNL d   1       2.193  -0.802   1.550  0.00  0.00     0.002 A 
ENDROOT
BRANCH   1   7
ATOM      7  C1  UNL d   1       0.529  -2.249   0.321  0.00  0.00     0.055 C 
ATOM      8  C   UNL d   1       1.238  -3.057  -0.755  0.00  0.00     0.019 C 
ENDBRANCH   1   7
TORSDOF 1
ENDMDL
