MODEL 1
REMARK minimizedAffinity 3.05010867
REMARK minimizedRMSD -1
REMARK  1 active torsions:
REMARK  status: ('A' for Active; 'I' for Inactive)
REMARK    1  A    between atoms: C1_2  and  C2_3 
ROOT
ATOM      1  C2  UNL d   1       3.310   5.299  -2.312  0.00  0.00    -0.077 A 
ATOM      2  C3  UNL d   1       3.392   5.647  -3.668  0.00  0.00     0.002 A 
ATOM      3  C4  UNL d   1       4.620   5.998  -4.233  0.00  0.00     0.002 A 
ATOM      4  C5  UNL d   1       5.773   6.000  -3.452  0.00  0.00    -0.004 A 
ATOM      5  C6  UNL d   1       5.701   5.657  -2.103  0.00  0.00     0.002 A 
ATOM      6  C7  UNL d   1       4.475   5.307  -1.535  0.00  0.00     0.002 A 
ENDROOT
BRANCH   1   7
ATOM      7  C1  UNL d   1       1.995   4.872  -1.712  0.00  0.00     0.055 C 
ATOM      8  C   UNL d   1       2.102   3.499  -1.065  0.00  0.00     0.019 C 
ENDBRANCH   1   7
TORSDOF 1
ENDMDL
