MODEL 1
REMARK minimizedAffinity 1.80325997
REMARK minimizedRMSD -1
REMARK  1 active torsions:
REMARK  status: ('A' for Active; 'I' for Inactive)
REMARK    1  A    between atoms: C1_2  and  C2_3 
ROOT
ATOM      1  C2  UNL d   1       0.126  -1.202   0.081  0.00  0.00    -0.077 A 
ATOM      2  C3  UNL d   1       0.597  -1.797  -1.098  0.00  0.00     0.002 A 
ATOM      3  C4  UNL d   1      -0.249  -1.952  -2.197  0.00  0.00     0.002 A 
ATOM      4  C5  UNL d   1      -1.570  -1.512  -2.131  0.00  0.00    -0.004 A 
ATOM      5  C6  UNL d   1      -2.048  -0.920  -0.962  0.00  0.00     0.002 A 
ATOM      6  C7  UNL d   1      -1.204  -0.765   0.139  0.00  0.00     0.002 A 
ENDROOT
BRANCH   1   7
ATOM      7  C1  UNL d   1       1.050  -0.988   1.251  0.00  0.00     0.055 C 
ATOM      8  C   UNL d   1       1.107  -2.220   2.143  0.00  0.00     0.019 C 
ENDBRANCH   1   7
TORSDOF 1
ENDMDL
