MODEL 1
REMARK minimizedAffinity 3.00125694
REMARK minimizedRMSD -1
REMARK  1 active torsions:
REMARK  status: ('A' for Active; 'I' for Inactive)
REMARK    1  A    between atoms: C1_2  and  C2_3 
ROOT
ATOM      1  C2  UNL d   1      -3.525   1.890   1.002  0.00  0.00    -0.077 A 
ATOM      2  C3  UNL d   1      -4.059   1.965   2.296  0.00  0.00     0.002 A 
ATOM      3  C4  UNL d   1      -5.263   2.633   2.525  0.00  0.00     0.002 A 
ATOM      4  C5  UNL d   1      -5.945   3.228   1.466  0.00  0.00    -0.004 A 
ATOM      5  C6  UNL d   1      -5.421   3.160   0.175  0.00  0.00     0.002 A 
ATOM      6  C7  UNL d   1      -4.217   2.494  -0.056  0.00  0.00     0.002 A 
ENDROOT
BRANCH   1   7
ATOM      7  C1  UNL d   1      -2.252   1.127   0.744  0.00  0.00     0.055 C 
ATOM      8  C   UNL d   1      -2.420   0.140  -0.402  0.00  0.00     0.019 C 
ENDBRANCH   1   7
TORSDOF 1
ENDMDL
