MODEL 1
REMARK minimizedAffinity 2.1098783
REMARK minimizedRMSD -1
REMARK  1 active torsions:
REMARK  status: ('A' for Active; 'I' for Inactive)
REMARK    1  A    between atoms: C1_2  and  C2_3 
ROOT
ATOM      1  C2  UNL d   1       1.451  -2.478  -2.582  0.00  0.00    -0.077 A 
ATOM      2  C3  UNL d   1       2.354  -1.585  -1.988  0.00  0.00     0.002 A 
ATOM      3  C4  UNL d   1       3.730  -1.783  -2.114  0.00  0.00     0.002 A 
ATOM      4  C5  UNL d   1       4.216  -2.871  -2.837  0.00  0.00    -0.004 A 
ATOM      5  C6  UNL d   1       3.326  -3.766  -3.430  0.00  0.00     0.002 A 
ATOM      6  C7  UNL d   1       1.950  -3.570  -3.303  0.00  0.00     0.002 A 
ENDROOT
BRANCH   1   7
ATOM      7  C1  UNL d   1      -0.033  -2.239  -2.488  0.00  0.00     0.055 C 
ATOM      8  C   UNL d   1      -0.422  -1.707  -1.116  0.00  0.00     0.019 C 
ENDBRANCH   1   7
TORSDOF 1
ENDMDL
