MODEL 1
REMARK minimizedAffinity 2.73749304
REMARK minimizedRMSD -1
REMARK  1 active torsions:
REMARK  status: ('A' for Active; 'I' for Inactive)
REMARK    1  A    between atoms: C1_2  and  C2_3 
ROOT
ATOM      1  C2  UNL d   1       0.898  -1.043   0.977  0.00  0.00    -0.077 A 
ATOM      2  C3  UNL d   1       1.065  -1.627   2.240  0.00  0.00     0.002 A 
ATOM      3  C4  UNL d   1       2.055  -1.162   3.108  0.00  0.00     0.002 A 
ATOM      4  C5  UNL d   1       2.881  -0.108   2.724  0.00  0.00    -0.004 A 
ATOM      5  C6  UNL d   1       2.724   0.479   1.469  0.00  0.00     0.002 A 
ATOM      6  C7  UNL d   1       1.736   0.014   0.600  0.00  0.00     0.002 A 
ENDROOT
BRANCH   1   7
ATOM      7  C1  UNL d   1      -0.201  -1.511   0.059  0.00  0.00     0.055 C 
ATOM      8  C   UNL d   1       0.336  -1.837  -1.327  0.00  0.00     0.019 C 
ENDBRANCH   1   7
TORSDOF 1
ENDMDL
