MODEL 1
REMARK minimizedAffinity 12.1260357
REMARK minimizedRMSD -1
REMARK  0 active torsions:
REMARK  status: ('A' for Active; 'I' for Inactive)
ROOT
ATOM      1  N1  IND d   1       1.114   1.116  -3.251  0.00  0.00    -0.196 N 
ATOM      2  C2  IND d   1       1.793   0.552  -4.294  0.00  0.00     0.054 A 
ATOM      3  C3  IND d   1       2.010  -0.762  -4.059  0.00  0.00    -0.031 A 
ATOM      4  C4  IND d   1       1.249  -2.215  -2.075  0.00  0.00     0.051 A 
ATOM      5  C5  IND d   1       0.632  -2.139  -0.858  0.00  0.00    -0.031 A 
ATOM      6  C6  IND d   1       0.131  -0.950  -0.368  0.00  0.00     0.015 A 
ATOM      7  C7  IND d   1       0.220   0.210  -1.084  0.00  0.00    -0.016 A 
ATOM      8  C8  IND d   1       0.852   0.137  -2.317  0.00  0.00    -0.047 A 
ATOM      9  C9  IND d   1       1.400  -1.058  -2.802  0.00  0.00    -0.096 A 
ATOM     10  HN1 IND d   1       0.889   1.943  -3.188  0.00  0.00     0.298 HD
ENDROOT
TORSDOF 0
ENDMDL
