MODEL 1
REMARK minimizedAffinity 8.29319096
REMARK minimizedRMSD -1
REMARK  0 active torsions:
REMARK  status: ('A' for Active; 'I' for Inactive)
ROOT
ATOM      1  N1  IND d   1      -1.085   0.856  -0.426  0.00  0.00    -0.196 N 
ATOM      2  C2  IND d   1      -0.303   1.819  -1.002  0.00  0.00     0.054 A 
ATOM      3  C3  IND d   1       0.912   1.315  -1.313  0.00  0.00    -0.031 A 
ATOM      4  C4  IND d   1       1.799  -1.088  -1.060  0.00  0.00     0.051 A 
ATOM      5  C5  IND d   1       1.464  -2.312  -0.553  0.00  0.00    -0.031 A 
ATOM      6  C6  IND d   1       0.237  -2.548   0.033  0.00  0.00     0.015 A 
ATOM      7  C7  IND d   1      -0.710  -1.567   0.122  0.00  0.00    -0.016 A 
ATOM      8  C8  IND d   1      -0.371  -0.321  -0.386  0.00  0.00    -0.047 A 
ATOM      9  C9  IND d   1       0.889  -0.065  -0.943  0.00  0.00    -0.096 A 
ATOM     10  HN1 IND d   1      -1.887   0.967  -0.138  0.00  0.00     0.298 HD
ENDROOT
TORSDOF 0
ENDMDL
