MODEL 1
REMARK minimizedAffinity -3.59746075
REMARK minimizedRMSD -1
REMARK  0 active torsions:
REMARK  status: ('A' for Active; 'I' for Inactive)
ROOT
ATOM      1  N1  IND d   1       0.845   1.576  -2.460  0.00  0.00    -0.196 N 
ATOM      2  C2  IND d   1       0.740   1.486  -1.100  0.00  0.00     0.054 A 
ATOM      3  C3  IND d   1       0.920   0.207  -0.698  0.00  0.00    -0.031 A 
ATOM      4  C4  IND d   1       1.499  -1.879  -2.091  0.00  0.00     0.051 A 
ATOM      5  C5  IND d   1       1.662  -2.302  -3.380  0.00  0.00    -0.031 A 
ATOM      6  C6  IND d   1       1.561  -1.436  -4.450  0.00  0.00     0.015 A 
ATOM      7  C7  IND d   1       1.305  -0.107  -4.269  0.00  0.00    -0.016 A 
ATOM      8  C8  IND d   1       1.132   0.325  -2.961  0.00  0.00    -0.047 A 
ATOM      9  C9  IND d   1       1.190  -0.557  -1.875  0.00  0.00    -0.096 A 
ATOM     10  HN1 IND d   1       0.749   2.294  -2.924  0.00  0.00     0.298 HD
ENDROOT
TORSDOF 0
ENDMDL
