MODEL 1
REMARK minimizedAffinity 4.34990597
REMARK minimizedRMSD -1
REMARK  0 active torsions:
REMARK  status: ('A' for Active; 'I' for Inactive)
ROOT
ATOM      1  N1  IND d   1       5.401   3.739   3.836  0.00  0.00    -0.196 N 
ATOM      2  C2  IND d   1       5.740   4.433   4.964  0.00  0.00     0.054 A 
ATOM      3  C3  IND d   1       5.987   3.580   5.984  0.00  0.00    -0.031 A 
ATOM      4  C4  IND d   1       5.993   1.006   5.999  0.00  0.00     0.051 A 
ATOM      5  C5  IND d   1       5.710  -0.076   5.214  0.00  0.00    -0.031 A 
ATOM      6  C6  IND d   1       5.304   0.060   3.902  0.00  0.00     0.015 A 
ATOM      7  C7  IND d   1       5.176   1.290   3.321  0.00  0.00    -0.016 A 
ATOM      8  C8  IND d   1       5.456   2.392   4.117  0.00  0.00    -0.047 A 
ATOM      9  C9  IND d   1       5.827   2.261   5.461  0.00  0.00    -0.096 A 
ATOM     10  HN1 IND d   1       5.189   4.086   3.078  0.00  0.00     0.298 HD
ENDROOT
TORSDOF 0
ENDMDL
