MODEL 1
REMARK minimizedAffinity 10.6598549
REMARK minimizedRMSD -1
REMARK  0 active torsions:
REMARK  status: ('A' for Active; 'I' for Inactive)
ROOT
ATOM      1  N1  IND d   1      -5.445  -0.720   3.870  0.00  0.00    -0.196 N 
ATOM      2  C2  IND d   1      -5.418  -2.066   3.628  0.00  0.00     0.054 A 
ATOM      3  C3  IND d   1      -4.187  -2.446   3.218  0.00  0.00    -0.031 A 
ATOM      4  C4  IND d   1      -2.041  -1.046   2.971  0.00  0.00     0.051 A 
ATOM      5  C5  IND d   1      -1.578   0.238   3.042  0.00  0.00    -0.031 A 
ATOM      6  C6  IND d   1      -2.396   1.289   3.403  0.00  0.00     0.015 A 
ATOM      7  C7  IND d   1      -3.711   1.092   3.718  0.00  0.00    -0.016 A 
ATOM      8  C8  IND d   1      -4.186  -0.209   3.640  0.00  0.00    -0.047 A 
ATOM      9  C9  IND d   1      -3.371  -1.273   3.233  0.00  0.00    -0.096 A 
ATOM     10  HN1 IND d   1      -6.132  -0.269   4.122  0.00  0.00     0.298 HD
ENDROOT
TORSDOF 0
ENDMDL
