MODEL 1
REMARK minimizedAffinity 2.75455213
REMARK minimizedRMSD -1
REMARK  0 active torsions:
REMARK  status: ('A' for Active; 'I' for Inactive)
ROOT
ATOM      1  N1  IND d   1       0.921   1.646  -2.899  0.00  0.00    -0.196 N 
ATOM      2  C2  IND d   1       1.513   1.370  -4.100  0.00  0.00     0.054 A 
ATOM      3  C3  IND d   1       1.997   0.108  -4.106  0.00  0.00    -0.031 A 
ATOM      4  C4  IND d   1       1.842  -1.714  -2.294  0.00  0.00     0.051 A 
ATOM      5  C5  IND d   1       1.426  -1.922  -1.009  0.00  0.00    -0.031 A 
ATOM      6  C6  IND d   1       0.806  -0.932  -0.274  0.00  0.00     0.015 A 
ATOM      7  C7  IND d   1       0.567   0.305  -0.803  0.00  0.00    -0.016 A 
ATOM      8  C8  IND d   1       0.994   0.522  -2.106  0.00  0.00    -0.047 A 
ATOM      9  C9  IND d   1       1.662  -0.465  -2.842  0.00  0.00    -0.096 A 
ATOM     10  HN1 IND d   1       0.563   2.395  -2.676  0.00  0.00     0.298 HD
ENDROOT
TORSDOF 0
ENDMDL
