MODEL 1
REMARK minimizedAffinity 0.520196795
REMARK minimizedRMSD -1
REMARK  0 active torsions:
REMARK  status: ('A' for Active; 'I' for Inactive)
ROOT
ATOM      1  N1  IND d   1       5.417   2.177   3.769  0.00  0.00    -0.196 N 
ATOM      2  C2  IND d   1       5.483   1.480   4.944  0.00  0.00     0.054 A 
ATOM      3  C3  IND d   1       5.676   2.325   5.981  0.00  0.00    -0.031 A 
ATOM      4  C4  IND d   1       5.812   4.896   5.993  0.00  0.00     0.051 A 
ATOM      5  C5  IND d   1       5.842   5.977   5.158  0.00  0.00    -0.031 A 
ATOM      6  C6  IND d   1       5.726   5.844   3.789  0.00  0.00     0.015 A 
ATOM      7  C7  IND d   1       5.565   4.621   3.203  0.00  0.00    -0.016 A 
ATOM      8  C8  IND d   1       5.541   3.520   4.048  0.00  0.00    -0.047 A 
ATOM      9  C9  IND d   1       5.700   3.645   5.434  0.00  0.00    -0.096 A 
ATOM     10  HN1 IND d   1       5.315   1.833   2.987  0.00  0.00     0.298 HD
ENDROOT
TORSDOF 0
ENDMDL
