MODEL 1
REMARK minimizedAffinity 6.64034367
REMARK minimizedRMSD -1
REMARK  0 active torsions:
REMARK  status: ('A' for Active; 'I' for Inactive)
ROOT
ATOM      1  N1  IND d   1       6.000   0.392   6.000  0.00  0.00    -0.196 N 
ATOM      2  C2  IND d   1       5.265  -0.577   5.376  0.00  0.00     0.054 A 
ATOM      3  C3  IND d   1       4.363  -0.018   4.539  0.00  0.00    -0.031 A 
ATOM      4  C4  IND d   1       3.987   2.462   3.959  0.00  0.00     0.051 A 
ATOM      5  C5  IND d   1       4.391   3.721   4.302  0.00  0.00    -0.031 A 
ATOM      6  C6  IND d   1       5.374   3.940   5.245  0.00  0.00     0.015 A 
ATOM      7  C7  IND d   1       6.000   2.902   5.876  0.00  0.00    -0.016 A 
ATOM      8  C8  IND d   1       5.587   1.622   5.535  0.00  0.00    -0.047 A 
ATOM      9  C9  IND d   1       4.560   1.395   4.609  0.00  0.00    -0.096 A 
ATOM     10  HN1 IND d   1       6.616   0.257   6.584  0.00  0.00     0.298 HD
ENDROOT
TORSDOF 0
ENDMDL
