MODEL 1
REMARK minimizedAffinity 0.340983629
REMARK minimizedRMSD -1
REMARK  0 active torsions:
REMARK  status: ('A' for Active; 'I' for Inactive)
ROOT
ATOM      1  N1  IND d   1       5.999  -0.484   5.996  0.00  0.00    -0.196 N 
ATOM      2  C2  IND d   1       5.483  -1.421   5.145  0.00  0.00     0.054 A 
ATOM      3  C3  IND d   1       4.845  -0.821   4.115  0.00  0.00    -0.031 A 
ATOM      4  C4  IND d   1       4.613   1.685   3.573  0.00  0.00     0.051 A 
ATOM      5  C5  IND d   1       4.886   2.926   4.077  0.00  0.00    -0.031 A 
ATOM      6  C6  IND d   1       5.561   3.097   5.268  0.00  0.00     0.015 A 
ATOM      7  C7  IND d   1       5.999   2.029   5.998  0.00  0.00    -0.016 A 
ATOM      8  C8  IND d   1       5.717   0.767   5.494  0.00  0.00    -0.047 A 
ATOM      9  C9  IND d   1       4.995   0.587   4.307  0.00  0.00    -0.096 A 
ATOM     10  HN1 IND d   1       6.428  -0.649   6.723  0.00  0.00     0.298 HD
ENDROOT
TORSDOF 0
ENDMDL
