MODEL 1
REMARK minimizedAffinity 5.31014109
REMARK minimizedRMSD -1
REMARK  0 active torsions:
REMARK  status: ('A' for Active; 'I' for Inactive)
ROOT
ATOM      1  N1  IND d   1       1.073  -0.209  -0.646  0.00  0.00    -0.196 N 
ATOM      2  C2  IND d   1      -0.045  -0.826  -0.159  0.00  0.00     0.054 A 
ATOM      3  C3  IND d   1      -0.766   0.032   0.596  0.00  0.00    -0.031 A 
ATOM      4  C4  IND d   1      -0.351   2.525   1.086  0.00  0.00     0.051 A 
ATOM      5  C5  IND d   1       0.562   3.524   0.890  0.00  0.00    -0.031 A 
ATOM      6  C6  IND d   1       1.713   3.326   0.155  0.00  0.00     0.015 A 
ATOM      7  C7  IND d   1       1.990   2.120  -0.423  0.00  0.00    -0.016 A 
ATOM      8  C8  IND d   1       1.070   1.102  -0.221  0.00  0.00    -0.047 A 
ATOM      9  C9  IND d   1      -0.079   1.284   0.559  0.00  0.00    -0.096 A 
ATOM     10  HN1 IND d   1       1.677  -0.576  -1.135  0.00  0.00     0.298 HD
ENDROOT
TORSDOF 0
ENDMDL
