MODEL 1
REMARK minimizedAffinity 3.7671876
REMARK minimizedRMSD -1
REMARK  0 active torsions:
REMARK  status: ('A' for Active; 'I' for Inactive)
ROOT
ATOM      1  N1  IND d   1       3.860  -1.406   4.960  0.00  0.00    -0.196 N 
ATOM      2  C2  IND d   1       4.989  -2.137   5.207  0.00  0.00     0.054 A 
ATOM      3  C3  IND d   1       5.998  -1.327   5.598  0.00  0.00    -0.031 A 
ATOM      4  C4  IND d   1       5.991   1.216   6.000  0.00  0.00     0.051 A 
ATOM      5  C5  IND d   1       5.201   2.324   5.874  0.00  0.00    -0.031 A 
ATOM      6  C6  IND d   1       3.897   2.244   5.431  0.00  0.00     0.015 A 
ATOM      7  C7  IND d   1       3.327   1.045   5.106  0.00  0.00    -0.016 A 
ATOM      8  C8  IND d   1       4.129  -0.082   5.226  0.00  0.00    -0.047 A 
ATOM      9  C9  IND d   1       5.466  -0.001   5.635  0.00  0.00    -0.096 A 
ATOM     10  HN1 IND d   1       3.109  -1.721   4.685  0.00  0.00     0.298 HD
ENDROOT
TORSDOF 0
ENDMDL
