MODEL 1
REMARK minimizedAffinity 3.75802302
REMARK minimizedRMSD -1
REMARK  0 active torsions:
REMARK  status: ('A' for Active; 'I' for Inactive)
ROOT
ATOM      1  N1  IND d   1       5.166  -0.065   3.936  0.00  0.00    -0.196 N 
ATOM      2  C2  IND d   1       5.621  -0.725   5.043  0.00  0.00     0.054 A 
ATOM      3  C3  IND d   1       5.987   0.158   6.000  0.00  0.00    -0.031 A 
ATOM      4  C4  IND d   1       5.828   2.728   6.000  0.00  0.00     0.051 A 
ATOM      5  C5  IND d   1       5.511   3.788   5.197  0.00  0.00    -0.031 A 
ATOM      6  C6  IND d   1       5.051   3.614   3.908  0.00  0.00     0.015 A 
ATOM      7  C7  IND d   1       4.879   2.368   3.375  0.00  0.00    -0.016 A 
ATOM      8  C8  IND d   1       5.207   1.289   4.185  0.00  0.00    -0.047 A 
ATOM      9  C9  IND d   1       5.715   1.461   5.479  0.00  0.00    -0.096 A 
ATOM     10  HN1 IND d   1       4.899  -0.434   3.206  0.00  0.00     0.298 HD
ENDROOT
TORSDOF 0
ENDMDL
