MODEL 1
REMARK minimizedAffinity 0.0880587697
REMARK minimizedRMSD -1
REMARK  0 active torsions:
REMARK  status: ('A' for Active; 'I' for Inactive)
ROOT
ATOM      1  N1  IND d   1      -0.922   0.888  -0.495  0.00  0.00    -0.196 N 
ATOM      2  C2  IND d   1      -0.038   1.874  -0.834  0.00  0.00     0.054 A 
ATOM      3  C3  IND d   1       1.191   1.352  -1.043  0.00  0.00    -0.031 A 
ATOM      4  C4  IND d   1       1.956  -1.105  -0.986  0.00  0.00     0.051 A 
ATOM      5  C5  IND d   1       1.515  -2.364  -0.688  0.00  0.00    -0.031 A 
ATOM      6  C6  IND d   1       0.212  -2.609  -0.306  0.00  0.00     0.015 A 
ATOM      7  C7  IND d   1      -0.706  -1.601  -0.218  0.00  0.00    -0.016 A 
ATOM      8  C8  IND d   1      -0.259  -0.320  -0.512  0.00  0.00    -0.047 A 
ATOM      9  C9  IND d   1       1.073  -0.060  -0.860  0.00  0.00    -0.096 A 
ATOM     10  HN1 IND d   1      -1.753   1.002  -0.304  0.00  0.00     0.298 HD
ENDROOT
TORSDOF 0
ENDMDL
