MODEL 1
REMARK minimizedAffinity -1.30213344
REMARK minimizedRMSD -1
REMARK  0 active torsions:
REMARK  status: ('A' for Active; 'I' for Inactive)
ROOT
ATOM      1  N1  IND d   1       1.214   1.498  -3.478  0.00  0.00    -0.196 N 
ATOM      2  C2  IND d   1       1.889   1.004  -4.559  0.00  0.00     0.054 A 
ATOM      3  C3  IND d   1       2.369  -0.230  -4.289  0.00  0.00    -0.031 A 
ATOM      4  C4  IND d   1       2.078  -1.673  -2.177  0.00  0.00     0.051 A 
ATOM      5  C5  IND d   1       1.571  -1.636  -0.909  0.00  0.00    -0.031 A 
ATOM      6  C6  IND d   1       0.903  -0.531  -0.423  0.00  0.00     0.015 A 
ATOM      7  C7  IND d   1       0.707   0.579  -1.195  0.00  0.00    -0.016 A 
ATOM      8  C8  IND d   1       1.226   0.547  -2.481  0.00  0.00    -0.047 A 
ATOM      9  C9  IND d   1       1.942  -0.555  -2.965  0.00  0.00    -0.096 A 
ATOM     10  HN1 IND d   1       0.844   2.273  -3.428  0.00  0.00     0.298 HD
ENDROOT
TORSDOF 0
ENDMDL
