MODEL 1
REMARK minimizedAffinity 10.5677195
REMARK minimizedRMSD -1
REMARK  0 active torsions:
REMARK  status: ('A' for Active; 'I' for Inactive)
ROOT
ATOM      1  N1  IND d   1       1.100   3.835  -4.145  0.00  0.00    -0.196 N 
ATOM      2  C2  IND d   1       1.611   4.342  -5.307  0.00  0.00     0.054 A 
ATOM      3  C3  IND d   1       2.254   3.375  -6.000  0.00  0.00    -0.031 A 
ATOM      4  C4  IND d   1       2.502   0.869  -5.464  0.00  0.00     0.051 A 
ATOM      5  C5  IND d   1       2.235  -0.057  -4.495  0.00  0.00    -0.031 A 
ATOM      6  C6  IND d   1       1.560   0.273  -3.337  0.00  0.00     0.015 A 
ATOM      7  C7  IND d   1       1.115   1.545  -3.110  0.00  0.00    -0.016 A 
ATOM      8  C8  IND d   1       1.390   2.489  -4.089  0.00  0.00    -0.047 A 
ATOM      9  C9  IND d   1       2.112   2.170  -5.246  0.00  0.00    -0.096 A 
ATOM     10  HN1 IND d   1       0.669   4.281  -3.549  0.00  0.00     0.298 HD
ENDROOT
TORSDOF 0
ENDMDL
