MODEL 1
REMARK minimizedAffinity 5.40445614
REMARK minimizedRMSD -1
REMARK  0 active torsions:
REMARK  status: ('A' for Active; 'I' for Inactive)
ROOT
ATOM      1  N1  IND d   1       1.584  -0.790  -1.163  0.00  0.00    -0.196 N 
ATOM      2  C2  IND d   1       1.436  -1.950  -0.455  0.00  0.00     0.054 A 
ATOM      3  C3  IND d   1       1.205  -2.985  -1.293  0.00  0.00    -0.031 A 
ATOM      4  C4  IND d   1       1.127  -3.023  -3.866  0.00  0.00     0.051 A 
ATOM      5  C5  IND d   1       1.169  -2.201  -4.957  0.00  0.00    -0.031 A 
ATOM      6  C6  IND d   1       1.358  -0.839  -4.837  0.00  0.00     0.015 A 
ATOM      7  C7  IND d   1       1.524  -0.248  -3.616  0.00  0.00    -0.016 A 
ATOM      8  C8  IND d   1       1.475  -1.078  -2.506  0.00  0.00    -0.047 A 
ATOM      9  C9  IND d   1       1.241  -2.455  -2.619  0.00  0.00    -0.096 A 
ATOM     10  HN1 IND d   1       1.721  -0.010  -0.827  0.00  0.00     0.298 HD
ENDROOT
TORSDOF 0
ENDMDL
