MODEL 1
REMARK minimizedAffinity 6.99211168
REMARK minimizedRMSD -1
REMARK  0 active torsions:
REMARK  status: ('A' for Active; 'I' for Inactive)
ROOT
ATOM      1  N1  IND d   1      -0.534   0.468  -0.490  0.00  0.00    -0.196 N 
ATOM      2  C2  IND d   1      -1.662   0.016   0.136  0.00  0.00     0.054 A 
ATOM      3  C3  IND d   1      -1.561  -1.307   0.391  0.00  0.00    -0.031 A 
ATOM      4  C4  IND d   1       0.408  -2.910  -0.039  0.00  0.00     0.051 A 
ATOM      5  C5  IND d   1       1.642  -2.968  -0.623  0.00  0.00    -0.031 A 
ATOM      6  C6  IND d   1       2.227  -1.860  -1.202  0.00  0.00     0.015 A 
ATOM      7  C7  IND d   1       1.602  -0.645  -1.208  0.00  0.00    -0.016 A 
ATOM      8  C8  IND d   1       0.345  -0.585  -0.622  0.00  0.00    -0.047 A 
ATOM      9  C9  IND d   1      -0.272  -1.715  -0.071  0.00  0.00    -0.096 A 
ATOM     10  HN1 IND d   1      -0.396   1.274  -0.757  0.00  0.00     0.298 HD
ENDROOT
TORSDOF 0
ENDMDL
