MODEL 1
REMARK minimizedAffinity -5.59770155
REMARK minimizedRMSD -1
REMARK  1 active torsions:
REMARK  status: ('A' for Active; 'I' for Inactive)
REMARK    1  A    between atoms: N_2  and  C1_3 
ROOT
ATOM      1  C1  UNL d   1       0.424   0.310  -0.756  0.00  0.00     0.143 A 
ATOM      2  C2  UNL d   1       1.364  -0.724  -0.710  0.00  0.00    -0.057 A 
ATOM      3  C3  UNL d   1       2.444  -0.765  -1.601  0.00  0.00     0.033 A 
ATOM      4  C4  UNL d   1       2.586   0.217  -2.576  0.00  0.00    -0.042 A 
ATOM      5  C5  UNL d   1       1.649   1.241  -2.657  0.00  0.00     0.033 A 
ATOM      6  C6  UNL d   1       0.577   1.280  -1.760  0.00  0.00    -0.057 A 
ENDROOT
BRANCH   1   7
ATOM      7  N   UNL d   1      -0.725   0.353   0.038  0.00  0.00    -0.732 N 
ATOM      8  C   UNL d   1      -0.625   0.335   1.481  0.00  0.00     0.284 C 
ATOM      9  H3  UNL d   1      -1.422   1.001  -0.323  0.00  0.00     0.395 HD
ENDBRANCH   1   7
TORSDOF 1
ENDMDL
