MODEL 1
REMARK minimizedAffinity -2.41399503
REMARK minimizedRMSD -1
REMARK  1 active torsions:
REMARK  status: ('A' for Active; 'I' for Inactive)
REMARK    1  A    between atoms: N_2  and  C1_3 
ROOT
ATOM      1  C1  UNL d   1      -0.800   0.695   1.316  0.00  0.00     0.143 A 
ATOM      2  C2  UNL d   1      -1.779  -0.206   1.749  0.00  0.00    -0.057 A 
ATOM      3  C3  UNL d   1      -2.416  -0.046   2.985  0.00  0.00     0.033 A 
ATOM      4  C4  UNL d   1      -2.063   1.004   3.826  0.00  0.00    -0.042 A 
ATOM      5  C5  UNL d   1      -1.075   1.897   3.427  0.00  0.00     0.033 A 
ATOM      6  C6  UNL d   1      -0.447   1.736   2.188  0.00  0.00    -0.057 A 
ENDROOT
BRANCH   1   7
ATOM      7  N   UNL d   1      -0.061   0.534   0.141  0.00  0.00    -0.732 N 
ATOM      8  C   UNL d   1       0.600   1.665  -0.474  0.00  0.00     0.284 C 
ATOM      9  H3  UNL d   1       0.492  -0.320   0.143  0.00  0.00     0.395 HD
ENDBRANCH   1   7
TORSDOF 1
ENDMDL
