MODEL 1
REMARK minimizedAffinity -4.48003006
REMARK minimizedRMSD -1
REMARK  1 active torsions:
REMARK  status: ('A' for Active; 'I' for Inactive)
REMARK    1  A    between atoms: N_2  and  C1_3 
ROOT
ATOM      1  C1  UNL d   1      -0.117  -0.071  -0.120  0.00  0.00     0.143 A 
ATOM      2  C2  UNL d   1       0.163  -1.439  -0.206  0.00  0.00    -0.057 A 
ATOM      3  C3  UNL d   1       1.331  -1.904  -0.822  0.00  0.00     0.033 A 
ATOM      4  C4  UNL d   1       2.230  -1.006  -1.390  0.00  0.00    -0.042 A 
ATOM      5  C5  UNL d   1       1.960   0.357  -1.338  0.00  0.00     0.033 A 
ATOM      6  C6  UNL d   1       0.795   0.815  -0.716  0.00  0.00    -0.057 A 
ENDROOT
BRANCH   1   7
ATOM      7  N   UNL d   1      -1.308   0.449   0.392  0.00  0.00    -0.732 N 
ATOM      8  C   UNL d   1      -1.587   0.392   1.811  0.00  0.00     0.284 C 
ATOM      9  H3  UNL d   1      -1.569   1.329  -0.047  0.00  0.00     0.395 HD
ENDBRANCH   1   7
TORSDOF 1
ENDMDL
