MODEL 1
REMARK minimizedAffinity -4.1764102
REMARK minimizedRMSD -1
REMARK  1 active torsions:
REMARK  status: ('A' for Active; 'I' for Inactive)
REMARK    1  A    between atoms: N_2  and  C1_3 
ROOT
ATOM      1  C1  UNL d   1       0.592  -1.436  -0.142  0.00  0.00     0.143 A 
ATOM      2  C2  UNL d   1       1.902  -1.096  -0.496  0.00  0.00    -0.057 A 
ATOM      3  C3  UNL d   1       2.277   0.238  -0.696  0.00  0.00     0.033 A 
ATOM      4  C4  UNL d   1       1.338   1.257  -0.573  0.00  0.00    -0.042 A 
ATOM      5  C5  UNL d   1       0.024   0.940  -0.247  0.00  0.00     0.033 A 
ATOM      6  C6  UNL d   1      -0.342  -0.394  -0.042  0.00  0.00    -0.057 A 
ENDROOT
BRANCH   1   7
ATOM      7  N   UNL d   1       0.135  -2.751  -0.026  0.00  0.00    -0.732 N 
ATOM      8  C   UNL d   1      -1.194  -3.111  -0.472  0.00  0.00     0.284 C 
ATOM      9  H3  UNL d   1       0.851  -3.434  -0.262  0.00  0.00     0.395 HD
ENDBRANCH   1   7
TORSDOF 1
ENDMDL
