MODEL 1
REMARK minimizedAffinity -3.54173899
REMARK minimizedRMSD -1
REMARK  1 active torsions:
REMARK  status: ('A' for Active; 'I' for Inactive)
REMARK    1  A    between atoms: N_2  and  C1_3 
ROOT
ATOM      1  C1  UNL d   1      -0.851   0.644   1.049  0.00  0.00     0.143 A 
ATOM      2  C2  UNL d   1      -2.082   0.152   1.495  0.00  0.00    -0.057 A 
ATOM      3  C3  UNL d   1      -2.624   0.555   2.721  0.00  0.00     0.033 A 
ATOM      4  C4  UNL d   1      -1.928   1.440   3.539  0.00  0.00    -0.042 A 
ATOM      5  C5  UNL d   1      -0.691   1.923   3.127  0.00  0.00     0.033 A 
ATOM      6  C6  UNL d   1      -0.158   1.521   1.899  0.00  0.00    -0.057 A 
ENDROOT
BRANCH   1   7
ATOM      7  N   UNL d   1      -0.213   0.206  -0.114  0.00  0.00    -0.732 N 
ATOM      8  C   UNL d   1       0.537  -1.032  -0.122  0.00  0.00     0.284 C 
ATOM      9  H3  UNL d   1      -0.779   0.354  -0.947  0.00  0.00     0.395 HD
ENDBRANCH   1   7
TORSDOF 1
ENDMDL
