MODEL 1
REMARK minimizedAffinity -1.46259797
REMARK minimizedRMSD -1
REMARK  1 active torsions:
REMARK  status: ('A' for Active; 'I' for Inactive)
REMARK    1  A    between atoms: N_2  and  C1_3 
ROOT
ATOM      1  C1  UNL d   1       0.425  -0.135  -0.652  0.00  0.00     0.143 A 
ATOM      2  C2  UNL d   1       0.828  -1.475  -0.633  0.00  0.00    -0.057 A 
ATOM      3  C3  UNL d   1       1.709  -1.981  -1.596  0.00  0.00     0.033 A 
ATOM      4  C4  UNL d   1       2.181  -1.160  -2.616  0.00  0.00    -0.042 A 
ATOM      5  C5  UNL d   1       1.774   0.168  -2.668  0.00  0.00     0.033 A 
ATOM      6  C6  UNL d   1       0.899   0.669  -1.700  0.00  0.00    -0.057 A 
ENDROOT
BRANCH   1   7
ATOM      7  N   UNL d   1      -0.526   0.403   0.219  0.00  0.00    -0.732 N 
ATOM      8  C   UNL d   1      -1.504   1.358  -0.256  0.00  0.00     0.284 C 
ATOM      9  H3  UNL d   1      -0.901  -0.291   0.862  0.00  0.00     0.395 HD
ENDBRANCH   1   7
TORSDOF 1
ENDMDL
