MODEL 1
REMARK minimizedAffinity -1.99377513
REMARK minimizedRMSD -1
REMARK  1 active torsions:
REMARK  status: ('A' for Active; 'I' for Inactive)
REMARK    1  A    between atoms: N_2  and  C1_3 
ROOT
ATOM      1  C1  UNL d   1      -0.600   0.529   1.297  0.00  0.00     0.143 A 
ATOM      2  C2  UNL d   1      -1.323  -0.266   2.193  0.00  0.00    -0.057 A 
ATOM      3  C3  UNL d   1      -2.164   0.305   3.156  0.00  0.00     0.033 A 
ATOM      4  C4  UNL d   1      -2.274   1.688   3.259  0.00  0.00    -0.042 A 
ATOM      5  C5  UNL d   1      -1.546   2.499   2.395  0.00  0.00     0.033 A 
ATOM      6  C6  UNL d   1      -0.713   1.922   1.431  0.00  0.00    -0.057 A 
ENDROOT
BRANCH   1   7
ATOM      7  N   UNL d   1       0.328   0.025   0.383  0.00  0.00    -0.732 N 
ATOM      8  C   UNL d   1       1.456   0.826  -0.041  0.00  0.00     0.284 C 
ATOM      9  H3  UNL d   1       0.553  -0.952   0.557  0.00  0.00     0.395 HD
ENDBRANCH   1   7
TORSDOF 1
ENDMDL
