MODEL 1
REMARK minimizedAffinity -3.17445254
REMARK minimizedRMSD -1
REMARK  1 active torsions:
REMARK  status: ('A' for Active; 'I' for Inactive)
REMARK    1  A    between atoms: N_2  and  C1_3 
ROOT
ATOM      1  C1  UNL d   1      -0.283  -0.290  -0.219  0.00  0.00     0.143 A 
ATOM      2  C2  UNL d   1      -0.396  -1.677  -0.073  0.00  0.00    -0.057 A 
ATOM      3  C3  UNL d   1       0.553  -2.545  -0.627  0.00  0.00     0.033 A 
ATOM      4  C4  UNL d   1       1.619  -2.041  -1.365  0.00  0.00    -0.042 A 
ATOM      5  C5  UNL d   1       1.737  -0.667  -1.544  0.00  0.00     0.033 A 
ATOM      6  C6  UNL d   1       0.790   0.195  -0.983  0.00  0.00    -0.057 A 
ENDROOT
BRANCH   1   7
ATOM      7  N   UNL d   1      -1.247   0.620   0.224  0.00  0.00    -0.732 N 
ATOM      8  C   UNL d   1      -1.955   0.396   1.465  0.00  0.00     0.284 C 
ATOM      9  H3  UNL d   1      -0.967   1.586   0.073  0.00  0.00     0.395 HD
ENDBRANCH   1   7
TORSDOF 1
ENDMDL
