MODEL 1
REMARK minimizedAffinity -3.74217486
REMARK minimizedRMSD -1
REMARK  1 active torsions:
REMARK  status: ('A' for Active; 'I' for Inactive)
REMARK    1  A    between atoms: N_2  and  C1_3 
ROOT
ATOM      1  C1  UNL d   1      -0.580   0.279   1.174  0.00  0.00     0.143 A 
ATOM      2  C2  UNL d   1      -1.958   0.037   1.217  0.00  0.00    -0.057 A 
ATOM      3  C3  UNL d   1      -2.735   0.458   2.304  0.00  0.00     0.033 A 
ATOM      4  C4  UNL d   1      -2.140   1.103   3.383  0.00  0.00    -0.042 A 
ATOM      5  C5  UNL d   1      -0.769   1.331   3.373  0.00  0.00     0.033 A 
ATOM      6  C6  UNL d   1       0.001   0.915   2.282  0.00  0.00    -0.057 A 
ENDROOT
BRANCH   1   7
ATOM      7  N   UNL d   1       0.262  -0.201   0.168  0.00  0.00    -0.732 N 
ATOM      8  C   UNL d   1       0.291  -1.611  -0.159  0.00  0.00     0.284 C 
ATOM      9  H3  UNL d   1       0.289   0.414  -0.642  0.00  0.00     0.395 HD
ENDBRANCH   1   7
TORSDOF 1
ENDMDL
