MODEL 1
REMARK minimizedAffinity -3.60517883
REMARK minimizedRMSD -1
REMARK  1 active torsions:
REMARK  status: ('A' for Active; 'I' for Inactive)
REMARK    1  A    between atoms: N_2  and  C1_3 
ROOT
ATOM      1  C1  UNL d   1       0.443  -0.059  -0.776  0.00  0.00     0.143 A 
ATOM      2  C2  UNL d   1       0.670   0.921  -1.748  0.00  0.00    -0.057 A 
ATOM      3  C3  UNL d   1       1.617   0.732  -2.762  0.00  0.00     0.033 A 
ATOM      4  C4  UNL d   1       2.376  -0.433  -2.805  0.00  0.00    -0.042 A 
ATOM      5  C5  UNL d   1       2.185  -1.410  -1.834  0.00  0.00     0.033 A 
ATOM      6  C6  UNL d   1       1.234  -1.218  -0.828  0.00  0.00    -0.057 A 
ENDROOT
BRANCH   1   7
ATOM      7  N   UNL d   1      -0.413   0.111   0.315  0.00  0.00    -0.732 N 
ATOM      8  C   UNL d   1      -1.726   0.693   0.138  0.00  0.00     0.284 C 
ATOM      9  H3  UNL d   1      -0.393  -0.682   0.952  0.00  0.00     0.395 HD
ENDBRANCH   1   7
TORSDOF 1
ENDMDL
