MODEL 1
REMARK minimizedAffinity -5.694911
REMARK minimizedRMSD -1
REMARK  1 active torsions:
REMARK  status: ('A' for Active; 'I' for Inactive)
REMARK    1  A    between atoms: N_2  and  C1_3 
ROOT
ATOM      1  C1  UNL d   1       0.871   0.004  -0.642  0.00  0.00     0.143 A 
ATOM      2  C2  UNL d   1       1.881  -0.961  -0.718  0.00  0.00    -0.057 A 
ATOM      3  C3  UNL d   1       2.951  -0.823  -1.610  0.00  0.00     0.033 A 
ATOM      4  C4  UNL d   1       3.015   0.273  -2.465  0.00  0.00    -0.042 A 
ATOM      5  C5  UNL d   1       2.009   1.232  -2.424  0.00  0.00     0.033 A 
ATOM      6  C6  UNL d   1       0.946   1.091  -1.526  0.00  0.00    -0.057 A 
ENDROOT
BRANCH   1   7
ATOM      7  N   UNL d   1      -0.270  -0.125   0.154  0.00  0.00    -0.732 N 
ATOM      8  C   UNL d   1      -1.430   0.708  -0.079  0.00  0.00     0.284 C 
ATOM      9  H3  UNL d   1      -0.491  -1.097   0.362  0.00  0.00     0.395 HD
ENDBRANCH   1   7
TORSDOF 1
ENDMDL
