MODEL 1
REMARK minimizedAffinity -3.71965575
REMARK minimizedRMSD -1
REMARK  1 active torsions:
REMARK  status: ('A' for Active; 'I' for Inactive)
REMARK    1  A    between atoms: C1_2  and  C2_3 
ROOT
ATOM      1  C2  UNL d   1      -0.859  -1.334   0.084  0.00  0.00    -0.076 A 
ATOM      2  C3  UNL d   1       0.024  -1.345  -1.010  0.00  0.00     0.004 A 
ATOM      3  C4  UNL d   1       0.544  -0.158  -1.524  0.00  0.00    -0.003 A 
ATOM      4  C5  UNL d   1       0.189   1.059  -0.952  0.00  0.00     0.000 A 
ATOM      5  C6  UNL d   1      -0.673   1.087   0.144  0.00  0.00     0.000 A 
ATOM      6  C7  UNL d   1      -1.193  -0.102   0.685  0.00  0.00    -0.073 A 
ATOM      7  C8  UNL d   1      -2.122  -0.013   1.864  0.00  0.00     0.078 C 
ENDROOT
BRANCH   1   8
ATOM      8  C1  UNL d   1      -1.412  -2.651   0.581  0.00  0.00     0.053 C 
ATOM      9  C   UNL d   1      -0.441  -3.804   0.379  0.00  0.00     0.018 C 
ENDBRANCH   1   8
TORSDOF 1
ENDMDL
