MODEL 1
REMARK minimizedAffinity -5.01736021
REMARK minimizedRMSD -1
REMARK  1 active torsions:
REMARK  status: ('A' for Active; 'I' for Inactive)
REMARK    1  A    between atoms: C1_2  and  C2_3 
ROOT
ATOM      1  C2  UNL d   1       0.057  -0.224  -0.189  0.00  0.00    -0.076 A 
ATOM      2  C3  UNL d   1      -0.523  -0.331   1.087  0.00  0.00     0.004 A 
ATOM      3  C4  UNL d   1      -0.850  -1.575   1.625  0.00  0.00    -0.003 A 
ATOM      4  C5  UNL d   1      -0.601  -2.732   0.896  0.00  0.00     0.000 A 
ATOM      5  C6  UNL d   1      -0.010  -2.646  -0.364  0.00  0.00     0.000 A 
ATOM      6  C7  UNL d   1       0.340  -1.401  -0.914  0.00  0.00    -0.073 A 
ATOM      7  C8  UNL d   1       0.970  -1.367  -2.280  0.00  0.00     0.078 C 
ENDROOT
BRANCH   1   8
ATOM      8  C1  UNL d   1       0.365   1.153  -0.732  0.00  0.00     0.053 C 
ATOM      9  C   UNL d   1       1.194   1.987   0.232  0.00  0.00     0.018 C 
ENDBRANCH   1   8
TORSDOF 1
ENDMDL
