MODEL 1
REMARK minimizedAffinity -4.98256779
REMARK minimizedRMSD -1
REMARK  1 active torsions:
REMARK  status: ('A' for Active; 'I' for Inactive)
REMARK    1  A    between atoms: C1_2  and  C2_3 
ROOT
ATOM      1  C2  UNL d   1      -0.288  -0.535  -0.795  0.00  0.00    -0.076 A 
ATOM      2  C3  UNL d   1       0.507  -1.224  -1.727  0.00  0.00     0.004 A 
ATOM      3  C4  UNL d   1       0.684  -2.604  -1.639  0.00  0.00    -0.003 A 
ATOM      4  C5  UNL d   1       0.067  -3.317  -0.617  0.00  0.00     0.000 A 
ATOM      5  C6  UNL d   1      -0.740  -2.653   0.306  0.00  0.00     0.000 A 
ATOM      6  C7  UNL d   1      -0.942  -1.265   0.221  0.00  0.00    -0.073 A 
ATOM      7  C8  UNL d   1      -1.817  -0.599   1.247  0.00  0.00     0.078 C 
ENDROOT
BRANCH   1   8
ATOM      8  C1  UNL d   1      -0.422   0.965  -0.925  0.00  0.00     0.053 C 
ATOM      9  C   UNL d   1       0.531   1.717  -0.008  0.00  0.00     0.018 C 
ENDBRANCH   1   8
TORSDOF 1
ENDMDL
