MODEL 1
REMARK minimizedAffinity -3.80058694
REMARK minimizedRMSD -1
REMARK  1 active torsions:
REMARK  status: ('A' for Active; 'I' for Inactive)
REMARK    1  A    between atoms: C1_2  and  C2_3 
ROOT
ATOM      1  C2  UNL d   1      -0.594  -1.334  -0.065  0.00  0.00    -0.076 A 
ATOM      2  C3  UNL d   1      -0.278  -1.111  -1.417  0.00  0.00     0.004 A 
ATOM      3  C4  UNL d   1       0.005   0.171  -1.886  0.00  0.00    -0.003 A 
ATOM      4  C5  UNL d   1      -0.023   1.251  -1.011  0.00  0.00     0.000 A 
ATOM      5  C6  UNL d   1      -0.317   1.046   0.337  0.00  0.00     0.000 A 
ATOM      6  C7  UNL d   1      -0.589  -0.242   0.829  0.00  0.00    -0.073 A 
ATOM      7  C8  UNL d   1      -0.906  -0.405   2.291  0.00  0.00     0.078 C 
ENDROOT
BRANCH   1   8
ATOM      8  C1  UNL d   1      -0.918  -2.742   0.380  0.00  0.00     0.053 C 
ATOM      9  C   UNL d   1       0.167  -3.738   0.000  0.00  0.00     0.018 C 
ENDBRANCH   1   8
TORSDOF 1
ENDMDL
