MODEL 1
REMARK minimizedAffinity -5.43508101
REMARK minimizedRMSD -1
REMARK  1 active torsions:
REMARK  status: ('A' for Active; 'I' for Inactive)
REMARK    1  A    between atoms: C1_2  and  C2_3 
ROOT
ATOM      1  C2  UNL d   1       0.131   0.026   0.241  0.00  0.00    -0.076 A 
ATOM      2  C3  UNL d   1       0.763  -0.842  -0.667  0.00  0.00     0.004 A 
ATOM      3  C4  UNL d   1       0.610  -2.223  -0.564  0.00  0.00    -0.003 A 
ATOM      4  C5  UNL d   1      -0.178  -2.760   0.448  0.00  0.00     0.000 A 
ATOM      5  C6  UNL d   1      -0.827  -1.913   1.347  0.00  0.00     0.000 A 
ATOM      6  C7  UNL d   1      -0.696  -0.517   1.247  0.00  0.00    -0.073 A 
ATOM      7  C8  UNL d   1      -1.413   0.348   2.246  0.00  0.00     0.078 C 
ENDROOT
BRANCH   1   8
ATOM      8  C1  UNL d   1       0.356   1.514   0.096  0.00  0.00     0.053 C 
ATOM      9  C   UNL d   1       1.829   1.873  -0.018  0.00  0.00     0.018 C 
ENDBRANCH   1   8
TORSDOF 1
ENDMDL
