MODEL 1
REMARK minimizedAffinity -1.29631555
REMARK minimizedRMSD -1
REMARK  1 active torsions:
REMARK  status: ('A' for Active; 'I' for Inactive)
REMARK    1  A    between atoms: C1_2  and  C2_3 
ROOT
ATOM      1  C2  UNL d   1      -0.049  -1.184  -0.725  0.00  0.00    -0.076 A 
ATOM      2  C3  UNL d   1      -0.753  -2.337  -0.336  0.00  0.00     0.004 A 
ATOM      3  C4  UNL d   1      -1.633  -2.311   0.745  0.00  0.00    -0.003 A 
ATOM      4  C5  UNL d   1      -1.823  -1.130   1.454  0.00  0.00     0.000 A 
ATOM      5  C6  UNL d   1      -1.147   0.028   1.071  0.00  0.00     0.000 A 
ATOM      6  C7  UNL d   1      -0.269   0.022  -0.026  0.00  0.00    -0.073 A 
ATOM      7  C8  UNL d   1       0.439   1.298  -0.391  0.00  0.00     0.078 C 
ENDROOT
BRANCH   1   8
ATOM      8  C1  UNL d   1       0.912  -1.280  -1.888  0.00  0.00     0.053 C 
ATOM      9  C   UNL d   1       0.298  -0.796  -3.193  0.00  0.00     0.018 C 
ENDBRANCH   1   8
TORSDOF 1
ENDMDL
