MODEL 1
REMARK minimizedAffinity -3.27432275
REMARK minimizedRMSD -1
REMARK  1 active torsions:
REMARK  status: ('A' for Active; 'I' for Inactive)
REMARK    1  A    between atoms: C1_2  and  C2_3 
ROOT
ATOM      1  C2  UNL d   1      -0.210  -0.146  -0.329  0.00  0.00    -0.076 A 
ATOM      2  C3  UNL d   1       0.715  -0.964  -1.001  0.00  0.00     0.004 A 
ATOM      3  C4  UNL d   1       0.847  -2.314  -0.677  0.00  0.00    -0.003 A 
ATOM      4  C5  UNL d   1       0.056  -2.867   0.323  0.00  0.00     0.000 A 
ATOM      5  C6  UNL d   1      -0.879  -2.074   0.988  0.00  0.00     0.000 A 
ATOM      6  C7  UNL d   1      -1.036  -0.716   0.663  0.00  0.00    -0.073 A 
ATOM      7  C8  UNL d   1      -2.056   0.094   1.417  0.00  0.00     0.078 C 
ENDROOT
BRANCH   1   8
ATOM      8  C1  UNL d   1      -0.290   1.316  -0.704  0.00  0.00     0.053 C 
ATOM      9  C   UNL d   1       0.627   2.186   0.142  0.00  0.00     0.018 C 
ENDBRANCH   1   8
TORSDOF 1
ENDMDL
