MODEL 1
REMARK minimizedAffinity -4.36185551
REMARK minimizedRMSD -1
REMARK  1 active torsions:
REMARK  status: ('A' for Active; 'I' for Inactive)
REMARK    1  A    between atoms: C1_2  and  C2_3 
ROOT
ATOM      1  C2  UNL d   1      -0.225  -0.325   0.053  0.00  0.00    -0.076 A 
ATOM      2  C3  UNL d   1       0.793  -1.149  -0.457  0.00  0.00     0.004 A 
ATOM      3  C4  UNL d   1       0.811  -2.517  -0.187  0.00  0.00    -0.003 A 
ATOM      4  C5  UNL d   1      -0.188  -3.082   0.597  0.00  0.00     0.000 A 
ATOM      5  C6  UNL d   1      -1.216  -2.282   1.097  0.00  0.00     0.000 A 
ATOM      6  C7  UNL d   1      -1.258  -0.904   0.820  0.00  0.00    -0.073 A 
ATOM      7  C8  UNL d   1      -2.386  -0.088   1.390  0.00  0.00     0.078 C 
ENDROOT
BRANCH   1   8
ATOM      8  C1  UNL d   1      -0.178   1.156  -0.251  0.00  0.00     0.053 C 
ATOM      9  C   UNL d   1       1.162   1.781   0.102  0.00  0.00     0.018 C 
ENDBRANCH   1   8
TORSDOF 1
ENDMDL
