MODEL 1
REMARK minimizedAffinity -6.73068905
REMARK minimizedRMSD -1
REMARK  1 active torsions:
REMARK  status: ('A' for Active; 'I' for Inactive)
REMARK    1  A    between atoms: C1_2  and  C2_3 
ROOT
ATOM      1  C2  UNL d   1      -0.133  -0.518  -0.243  0.00  0.00    -0.076 A 
ATOM      2  C3  UNL d   1       0.483  -1.335  -1.207  0.00  0.00     0.004 A 
ATOM      3  C4  UNL d   1       0.297  -2.717  -1.201  0.00  0.00    -0.003 A 
ATOM      4  C5  UNL d   1      -0.511  -3.303  -0.233  0.00  0.00     0.000 A 
ATOM      5  C6  UNL d   1      -1.145  -2.506   0.719  0.00  0.00     0.000 A 
ATOM      6  C7  UNL d   1      -0.980  -1.110   0.718  0.00  0.00    -0.073 A 
ATOM      7  C8  UNL d   1      -1.682  -0.299   1.773  0.00  0.00     0.078 C 
ENDROOT
BRANCH   1   8
ATOM      8  C1  UNL d   1       0.128   0.971  -0.282  0.00  0.00     0.053 C 
ATOM      9  C   UNL d   1      -0.249   1.593  -1.618  0.00  0.00     0.018 C 
ENDBRANCH   1   8
TORSDOF 1
ENDMDL
