MODEL 1
REMARK minimizedAffinity -3.57657981
REMARK minimizedRMSD -1
REMARK  1 active torsions:
REMARK  status: ('A' for Active; 'I' for Inactive)
REMARK    1  A    between atoms: C1_2  and  C2_3 
ROOT
ATOM      1  C2  UNL d   1      -0.263  -1.403  -0.117  0.00  0.00    -0.076 A 
ATOM      2  C3  UNL d   1      -0.902  -0.672   0.900  0.00  0.00     0.004 A 
ATOM      3  C4  UNL d   1      -0.977   0.719   0.844  0.00  0.00    -0.003 A 
ATOM      4  C5  UNL d   1      -0.415   1.401  -0.230  0.00  0.00     0.000 A 
ATOM      5  C6  UNL d   1       0.207   0.690  -1.256  0.00  0.00     0.000 A 
ATOM      6  C7  UNL d   1       0.277  -0.713  -1.223  0.00  0.00    -0.073 A 
ATOM      7  C8  UNL d   1       0.965  -1.429  -2.353  0.00  0.00     0.078 C 
ENDROOT
BRANCH   1   8
ATOM      8  C1  UNL d   1      -0.189  -2.908   0.012  0.00  0.00     0.053 C 
ATOM      9  C   UNL d   1       1.158  -3.382   0.534  0.00  0.00     0.018 C 
ENDBRANCH   1   8
TORSDOF 1
ENDMDL
