MODEL 1
REMARK minimizedAffinity -3.4181695
REMARK minimizedRMSD -1
REMARK  1 active torsions:
REMARK  status: ('A' for Active; 'I' for Inactive)
REMARK    1  A    between atoms: C1_2  and  C2_3 
ROOT
ATOM      1  C2  UNL d   1      -0.421  -0.305  -0.749  0.00  0.00    -0.076 A 
ATOM      2  C3  UNL d   1      -0.674  -0.325   0.633  0.00  0.00     0.004 A 
ATOM      3  C4  UNL d   1      -0.754  -1.529   1.330  0.00  0.00    -0.003 A 
ATOM      4  C5  UNL d   1      -0.583  -2.733   0.656  0.00  0.00     0.000 A 
ATOM      5  C6  UNL d   1      -0.314  -2.731  -0.712  0.00  0.00     0.000 A 
ATOM      6  C7  UNL d   1      -0.213  -1.525  -1.427  0.00  0.00    -0.073 A 
ATOM      7  C8  UNL d   1       0.073  -1.583  -2.902  0.00  0.00     0.078 C 
ENDROOT
BRANCH   1   8
ATOM      8  C1  UNL d   1      -0.371   1.030  -1.457  0.00  0.00     0.053 C 
ATOM      9  C   UNL d   1      -0.085   2.183  -0.507  0.00  0.00     0.018 C 
ENDBRANCH   1   8
TORSDOF 1
ENDMDL
