MODEL 1
REMARK minimizedAffinity -1.87512839
REMARK minimizedRMSD -1
REMARK  0 active torsions:
REMARK  status: ('A' for Active; 'I' for Inactive)
ROOT
ATOM      1  C4' PXY d   1      -2.561  -1.604  -1.680  0.00  0.00     0.077 C 
ATOM      2  C1' PXY d   1       2.222   1.001   0.256  0.00  0.00     0.077 C 
ATOM      3  C1  PXY d   1       0.965   0.314  -0.239  0.00  0.00    -0.082 A 
ATOM      4  C2  PXY d   1       0.866  -0.029  -1.514  0.00  0.00     0.003 A 
ATOM      5  C3  PXY d   1      -0.276  -0.623  -1.985  0.00  0.00     0.003 A 
ATOM      6  C4  PXY d   1      -1.307  -0.916  -1.134  0.00  0.00    -0.082 A 
ATOM      7  C5  PXY d   1      -1.209  -0.579   0.170  0.00  0.00     0.003 A 
ATOM      8  C6  PXY d   1      -0.058   0.060   0.621  0.00  0.00     0.003 A 
ENDROOT
TORSDOF 0
ENDMDL
