MODEL 1
REMARK minimizedAffinity -3.29908347
REMARK minimizedRMSD -1
REMARK  0 active torsions:
REMARK  status: ('A' for Active; 'I' for Inactive)
ROOT
ATOM      1  C4' PXY d   1       2.630  -0.750  -2.247  0.00  0.00     0.077 C 
ATOM      2  C1' PXY d   1       2.951   3.641   1.498  0.00  0.00     0.077 C 
ATOM      3  C1  PXY d   1       2.862   2.481   0.526  0.00  0.00    -0.082 A 
ATOM      4  C2  PXY d   1       3.605   2.488  -0.569  0.00  0.00     0.003 A 
ATOM      5  C3  PXY d   1       3.514   1.463  -1.475  0.00  0.00     0.003 A 
ATOM      6  C4  PXY d   1       2.694   0.394  -1.233  0.00  0.00    -0.082 A 
ATOM      7  C5  PXY d   1       1.940   0.375  -0.113  0.00  0.00     0.003 A 
ATOM      8  C6  PXY d   1       2.016   1.445   0.774  0.00  0.00     0.003 A 
ENDROOT
TORSDOF 0
ENDMDL
