MODEL 1
REMARK minimizedAffinity -4.89659071
REMARK minimizedRMSD -1
REMARK  0 active torsions:
REMARK  status: ('A' for Active; 'I' for Inactive)
ROOT
ATOM      1  C4' PXY d   1       2.909   2.578   1.816  0.00  0.00     0.077 C 
ATOM      2  C1' PXY d   1       2.537  -0.956  -2.743  0.00  0.00     0.077 C 
ATOM      3  C1  PXY d   1       2.623  -0.033  -1.544  0.00  0.00    -0.082 A 
ATOM      4  C2  PXY d   1       3.435   1.011  -1.578  0.00  0.00     0.003 A 
ATOM      5  C3  PXY d   1       3.548   1.838  -0.490  0.00  0.00     0.003 A 
ATOM      6  C4  PXY d   1       2.783   1.625   0.625  0.00  0.00    -0.082 A 
ATOM      7  C5  PXY d   1       1.944   0.568   0.664  0.00  0.00     0.003 A 
ATOM      8  C6  PXY d   1       1.874  -0.283  -0.435  0.00  0.00     0.003 A 
ENDROOT
TORSDOF 0
ENDMDL
