MODEL 1
REMARK minimizedAffinity -1.83168232
REMARK minimizedRMSD -1
REMARK  0 active torsions:
REMARK  status: ('A' for Active; 'I' for Inactive)
ROOT
ATOM      1  C4' PXY d   1       1.966   0.717   0.006  0.00  0.00     0.077 C 
ATOM      2  C1' PXY d   1      -3.530  -1.069   0.131  0.00  0.00     0.077 C 
ATOM      3  C1  PXY d   1      -2.088  -0.601   0.111  0.00  0.00    -0.082 A 
ATOM      4  C2  PXY d   1      -1.640   0.094  -0.922  0.00  0.00     0.003 A 
ATOM      5  C3  PXY d   1      -0.331   0.498  -0.970  0.00  0.00     0.003 A 
ATOM      6  C4  PXY d   1       0.515   0.232   0.073  0.00  0.00    -0.082 A 
ATOM      7  C5  PXY d   1       0.063  -0.467   1.135  0.00  0.00     0.003 A 
ATOM      8  C6  PXY d   1      -1.259  -0.903   1.147  0.00  0.00     0.003 A 
ENDROOT
TORSDOF 0
ENDMDL
