MODEL 1
REMARK minimizedAffinity -4.40346718
REMARK minimizedRMSD -1
REMARK  0 active torsions:
REMARK  status: ('A' for Active; 'I' for Inactive)
ROOT
ATOM      1  C4' PXY d   1      -3.628  -0.941  -0.347  0.00  0.00     0.077 C 
ATOM      2  C1' PXY d   1       1.816   0.262   1.176  0.00  0.00     0.077 C 
ATOM      3  C1  PXY d   1       0.389  -0.064   0.785  0.00  0.00    -0.082 A 
ATOM      4  C2  PXY d   1      -0.083   0.355  -0.379  0.00  0.00     0.003 A 
ATOM      5  C3  PXY d   1      -1.381   0.097  -0.735  0.00  0.00     0.003 A 
ATOM      6  C4  PXY d   1      -2.190  -0.644   0.085  0.00  0.00    -0.082 A 
ATOM      7  C5  PXY d   1      -1.714  -1.084   1.269  0.00  0.00     0.003 A 
ATOM      8  C6  PXY d   1      -0.405  -0.776   1.630  0.00  0.00     0.003 A 
ENDROOT
TORSDOF 0
ENDMDL
