MODEL 1
REMARK minimizedAffinity -3.86200261
REMARK minimizedRMSD -1
REMARK  0 active torsions:
REMARK  status: ('A' for Active; 'I' for Inactive)
ROOT
ATOM      1  C4' PXY d   1      -0.030   0.298  -3.342  0.00  0.00     0.077 C 
ATOM      2  C1' PXY d   1      -2.396  -0.933   1.787  0.00  0.00     0.077 C 
ATOM      3  C1  PXY d   1      -1.784  -0.619   0.436  0.00  0.00    -0.082 A 
ATOM      4  C2  PXY d   1      -0.566  -0.104   0.374  0.00  0.00     0.003 A 
ATOM      5  C3  PXY d   1      -0.010   0.216  -0.838  0.00  0.00     0.003 A 
ATOM      6  C4  PXY d   1      -0.685  -0.043  -2.000  0.00  0.00    -0.082 A 
ATOM      7  C5  PXY d   1      -1.923  -0.578  -1.945  0.00  0.00     0.003 A 
ATOM      8  C6  PXY d   1      -2.487  -0.857  -0.704  0.00  0.00     0.003 A 
ENDROOT
TORSDOF 0
ENDMDL
