MODEL 1
REMARK minimizedAffinity -2.33621979
REMARK minimizedRMSD -1
REMARK  0 active torsions:
REMARK  status: ('A' for Active; 'I' for Inactive)
ROOT
ATOM      1  C4' PXY d   1      -3.671  -0.753   0.116  0.00  0.00     0.077 C 
ATOM      2  C1' PXY d   1       2.031  -0.533   1.041  0.00  0.00     0.077 C 
ATOM      3  C1  PXY d   1       0.537  -0.581   0.790  0.00  0.00    -0.082 A 
ATOM      4  C2  PXY d   1      -0.260  -1.130   1.692  0.00  0.00     0.003 A 
ATOM      5  C3  PXY d   1      -1.610  -1.210   1.467  0.00  0.00     0.003 A 
ATOM      6  C4  PXY d   1      -2.157  -0.675   0.331  0.00  0.00    -0.082 A 
ATOM      7  C5  PXY d   1      -1.351  -0.103  -0.588  0.00  0.00     0.003 A 
ATOM      8  C6  PXY d   1       0.022  -0.068  -0.360  0.00  0.00     0.003 A 
ENDROOT
TORSDOF 0
ENDMDL
