MODEL 1
REMARK minimizedAffinity 0.250136793
REMARK minimizedRMSD -1
REMARK  0 active torsions:
REMARK  status: ('A' for Active; 'I' for Inactive)
ROOT
ATOM      1  C4' PXY d   1       2.186   2.812   3.197  0.00  0.00     0.077 C 
ATOM      2  C1' PXY d   1       4.947   3.828  -1.779  0.00  0.00     0.077 C 
ATOM      3  C1  PXY d   1       4.218   3.551  -0.480  0.00  0.00    -0.082 A 
ATOM      4  C2  PXY d   1       3.947   4.550   0.344  0.00  0.00     0.003 A 
ATOM      5  C3  PXY d   1       3.316   4.313   1.539  0.00  0.00     0.003 A 
ATOM      6  C4  PXY d   1       2.912   3.047   1.869  0.00  0.00    -0.082 A 
ATOM      7  C5  PXY d   1       3.176   2.024   1.029  0.00  0.00     0.003 A 
ATOM      8  C6  PXY d   1       3.853   2.280  -0.160  0.00  0.00     0.003 A 
ENDROOT
TORSDOF 0
ENDMDL
