MODEL 1
REMARK minimizedAffinity -4.98224306
REMARK minimizedRMSD -1
REMARK  0 active torsions:
REMARK  status: ('A' for Active; 'I' for Inactive)
ROOT
ATOM      1  C4' PXY d   1       2.867  -0.153  -1.872  0.00  0.00     0.077 C 
ATOM      2  C1' PXY d   1      -2.260  -0.236   0.798  0.00  0.00     0.077 C 
ATOM      3  C1  PXY d   1      -0.910  -0.212   0.109  0.00  0.00    -0.082 A 
ATOM      4  C2  PXY d   1      -0.842   0.039  -1.188  0.00  0.00     0.003 A 
ATOM      5  C3  PXY d   1       0.368   0.034  -1.833  0.00  0.00     0.003 A 
ATOM      6  C4  PXY d   1       1.526  -0.178  -1.133  0.00  0.00    -0.082 A 
ATOM      7  C5  PXY d   1       1.466  -0.425   0.193  0.00  0.00     0.003 A 
ATOM      8  C6  PXY d   1       0.224  -0.456   0.821  0.00  0.00     0.003 A 
ENDROOT
TORSDOF 0
ENDMDL
