MODEL 1
REMARK minimizedAffinity -3.91957235
REMARK minimizedRMSD -1
REMARK  0 active torsions:
REMARK  status: ('A' for Active; 'I' for Inactive)
ROOT
ATOM      1  C4' PXY d   1       3.466  -0.590  -1.962  0.00  0.00     0.077 C 
ATOM      2  C1' PXY d   1       2.397   3.466   2.016  0.00  0.00     0.077 C 
ATOM      3  C1  PXY d   1       2.671   2.393   0.980  0.00  0.00    -0.082 A 
ATOM      4  C2  PXY d   1       3.710   2.516   0.171  0.00  0.00     0.003 A 
ATOM      5  C3  PXY d   1       3.954   1.571  -0.793  0.00  0.00     0.003 A 
ATOM      6  C4  PXY d   1       3.156   0.463  -0.895  0.00  0.00    -0.082 A 
ATOM      7  C5  PXY d   1       2.099   0.326  -0.066  0.00  0.00     0.003 A 
ATOM      8  C6  PXY d   1       1.845   1.316   0.878  0.00  0.00     0.003 A 
ENDROOT
TORSDOF 0
ENDMDL
