MODEL 1
REMARK minimizedAffinity 0.536635578
REMARK minimizedRMSD -1
REMARK  0 active torsions:
REMARK  status: ('A' for Active; 'I' for Inactive)
ROOT
ATOM      1  C4' PXY d   1       1.372   0.790   1.432  0.00  0.00     0.077 C 
ATOM      2  C1' PXY d   1      -2.485  -1.482  -2.225  0.00  0.00     0.077 C 
ATOM      3  C1  PXY d   1      -1.483  -0.884  -1.257  0.00  0.00    -0.082 A 
ATOM      4  C2  PXY d   1      -0.369  -0.341  -1.721  0.00  0.00     0.003 A 
ATOM      5  C3  PXY d   1       0.563   0.175  -0.857  0.00  0.00     0.003 A 
ATOM      6  C4  PXY d   1       0.328   0.184   0.491  0.00  0.00    -0.082 A 
ATOM      7  C5  PXY d   1      -0.811  -0.359   0.972  0.00  0.00     0.003 A 
ATOM      8  C6  PXY d   1      -1.725  -0.915   0.082  0.00  0.00     0.003 A 
ENDROOT
TORSDOF 0
ENDMDL
