MODEL 1
REMARK minimizedAffinity 0.0441562012
REMARK minimizedRMSD -1
REMARK  0 active torsions:
REMARK  status: ('A' for Active; 'I' for Inactive)
ROOT
ATOM      1  C4' PXY d   1       0.051  -1.484   1.714  0.00  0.00     0.077 C 
ATOM      2  C1' PXY d   1       3.329   3.185   0.787  0.00  0.00     0.077 C 
ATOM      3  C1  PXY d   1       2.464   1.962   1.018  0.00  0.00    -0.082 A 
ATOM      4  C2  PXY d   1       2.171   1.592   2.254  0.00  0.00     0.003 A 
ATOM      5  C3  PXY d   1       1.417   0.470   2.482  0.00  0.00     0.003 A 
ATOM      6  C4  PXY d   1       0.913  -0.251   1.433  0.00  0.00    -0.082 A 
ATOM      7  C5  PXY d   1       1.198   0.126   0.169  0.00  0.00     0.003 A 
ATOM      8  C6  PXY d   1       2.000   1.245  -0.041  0.00  0.00     0.003 A 
ENDROOT
TORSDOF 0
ENDMDL
