MODEL 1
REMARK minimizedAffinity 2.75899315
REMARK minimizedRMSD -1
REMARK  0 active torsions:
REMARK  status: ('A' for Active; 'I' for Inactive)
ROOT
ATOM      1  C4' PXY d   1       0.402  -0.108   0.653  0.00  0.00     0.077 C 
ATOM      2  C1' PXY d   1       2.371  -0.739  -4.745  0.00  0.00     0.077 C 
ATOM      3  C1  PXY d   1       1.844  -0.568  -3.334  0.00  0.00    -0.082 A 
ATOM      4  C2  PXY d   1       2.691  -0.533  -2.318  0.00  0.00     0.003 A 
ATOM      5  C3  PXY d   1       2.230  -0.411  -1.033  0.00  0.00     0.003 A 
ATOM      6  C4  PXY d   1       0.890  -0.269  -0.789  0.00  0.00    -0.082 A 
ATOM      7  C5  PXY d   1       0.019  -0.293  -1.820  0.00  0.00     0.003 A 
ATOM      8  C6  PXY d   1       0.505  -0.459  -3.114  0.00  0.00     0.003 A 
ENDROOT
TORSDOF 0
ENDMDL
