MODEL 1
REMARK minimizedAffinity -4.90507841
REMARK minimizedRMSD -1
REMARK  0 active torsions:
REMARK  status: ('A' for Active; 'I' for Inactive)
ROOT
ATOM      1  C4' PXY d   1      -3.681  -1.758   0.075  0.00  0.00     0.077 C 
ATOM      2  C1' PXY d   1       1.566   0.620  -0.398  0.00  0.00     0.077 C 
ATOM      3  C1  PXY d   1       0.186   0.003  -0.285  0.00  0.00    -0.082 A 
ATOM      4  C2  PXY d   1      -0.233  -0.451   0.885  0.00  0.00     0.003 A 
ATOM      5  C3  PXY d   1      -1.466  -1.041   0.999  0.00  0.00     0.003 A 
ATOM      6  C4  PXY d   1      -2.299  -1.119  -0.085  0.00  0.00    -0.082 A 
ATOM      7  C5  PXY d   1      -1.883  -0.648  -1.279  0.00  0.00     0.003 A 
ATOM      8  C6  PXY d   1      -0.612  -0.090  -1.383  0.00  0.00     0.003 A 
ENDROOT
TORSDOF 0
ENDMDL
