MODEL 1
REMARK minimizedAffinity -1.52275312
REMARK minimizedRMSD -1
REMARK  0 active torsions:
REMARK  status: ('A' for Active; 'I' for Inactive)
ROOT
ATOM      1  C4' PXY d   1       2.243   2.196   2.880  0.00  0.00     0.077 C 
ATOM      2  C1' PXY d   1       4.707   4.259  -1.925  0.00  0.00     0.077 C 
ATOM      3  C1  PXY d   1       4.065   3.729  -0.658  0.00  0.00    -0.082 A 
ATOM      4  C2  PXY d   1       3.885   2.426  -0.512  0.00  0.00     0.003 A 
ATOM      5  C3  PXY d   1       3.276   1.932   0.613  0.00  0.00     0.003 A 
ATOM      6  C4  PXY d   1       2.896   2.775   1.622  0.00  0.00    -0.082 A 
ATOM      7  C5  PXY d   1       3.086   4.105   1.486  0.00  0.00     0.003 A 
ATOM      8  C6  PXY d   1       3.668   4.590   0.318  0.00  0.00     0.003 A 
ENDROOT
TORSDOF 0
ENDMDL
