MODEL 1
REMARK minimizedAffinity -0.513706207
REMARK minimizedRMSD -1
REMARK  0 active torsions:
REMARK  status: ('A' for Active; 'I' for Inactive)
ROOT
ATOM      1  C4' PXY d   1       1.868  -0.503  -5.186  0.00  0.00     0.077 C 
ATOM      2  C1' PXY d   1       1.242   0.143   0.524  0.00  0.00     0.077 C 
ATOM      3  C1  PXY d   1       1.419  -0.024  -0.973  0.00  0.00    -0.082 A 
ATOM      4  C2  PXY d   1       0.379   0.135  -1.776  0.00  0.00     0.003 A 
ATOM      5  C3  PXY d   1       0.515  -0.044  -3.129  0.00  0.00     0.003 A 
ATOM      6  C4  PXY d   1       1.738  -0.335  -3.670  0.00  0.00    -0.082 A 
ATOM      7  C5  PXY d   1       2.805  -0.488  -2.858  0.00  0.00     0.003 A 
ATOM      8  C6  PXY d   1       2.638  -0.344  -1.484  0.00  0.00     0.003 A 
ENDROOT
TORSDOF 0
ENDMDL
