MODEL 1
REMARK minimizedAffinity -3.02082181
REMARK minimizedRMSD -1
REMARK  0 active torsions:
REMARK  status: ('A' for Active; 'I' for Inactive)
ROOT
ATOM      1  C4' PXY d   1       2.531   1.361   0.532  0.00  0.00     0.077 C 
ATOM      2  C1' PXY d   1      -2.320  -1.087  -1.440  0.00  0.00     0.077 C 
ATOM      3  C1  PXY d   1      -1.051  -0.449  -0.911  0.00  0.00    -0.082 A 
ATOM      4  C2  PXY d   1      -0.507   0.565  -1.564  0.00  0.00     0.003 A 
ATOM      5  C3  PXY d   1       0.658   1.133  -1.117  0.00  0.00     0.003 A 
ATOM      6  C4  PXY d   1       1.244   0.693   0.040  0.00  0.00    -0.082 A 
ATOM      7  C5  PXY d   1       0.689  -0.335   0.718  0.00  0.00     0.003 A 
ATOM      8  C6  PXY d   1      -0.471  -0.924   0.225  0.00  0.00     0.003 A 
ENDROOT
TORSDOF 0
ENDMDL
