MODEL 1
REMARK minimizedAffinity -3.74345279
REMARK minimizedRMSD -1
REMARK  0 active torsions:
REMARK  status: ('A' for Active; 'I' for Inactive)
ROOT
ATOM      1  C4' PXY d   1       1.984   0.600   1.470  0.00  0.00     0.077 C 
ATOM      2  C1' PXY d   1      -2.286  -1.416  -1.864  0.00  0.00     0.077 C 
ATOM      3  C1  PXY d   1      -1.158  -0.889  -0.999  0.00  0.00    -0.082 A 
ATOM      4  C2  PXY d   1      -1.238  -0.996   0.317  0.00  0.00     0.003 A 
ATOM      5  C3  PXY d   1      -0.241  -0.496   1.115  0.00  0.00     0.003 A 
ATOM      6  C4  PXY d   1       0.873   0.073   0.558  0.00  0.00    -0.082 A 
ATOM      7  C5  PXY d   1       0.966   0.176  -0.785  0.00  0.00     0.003 A 
ATOM      8  C6  PXY d   1      -0.075  -0.301  -1.576  0.00  0.00     0.003 A 
ENDROOT
TORSDOF 0
ENDMDL
