MODEL 1
REMARK minimizedAffinity -3.72785974
REMARK minimizedRMSD -1
REMARK  0 active torsions:
REMARK  status: ('A' for Active; 'I' for Inactive)
ROOT
ATOM      1  C4' PXY d   1       4.098   4.260  -1.102  0.00  0.00     0.077 C 
ATOM      2  C1' PXY d   1       1.201  -0.376   0.778  0.00  0.00     0.077 C 
ATOM      3  C1  PXY d   1       1.956   0.847   0.295  0.00  0.00    -0.082 A 
ATOM      4  C2  PXY d   1       2.305   0.939  -0.978  0.00  0.00     0.003 A 
ATOM      5  C3  PXY d   1       3.016   2.023  -1.425  0.00  0.00     0.003 A 
ATOM      6  C4  PXY d   1       3.326   3.048  -0.572  0.00  0.00    -0.082 A 
ATOM      7  C5  PXY d   1       2.964   2.966   0.726  0.00  0.00     0.003 A 
ATOM      8  C6  PXY d   1       2.279   1.838   1.169  0.00  0.00     0.003 A 
ENDROOT
TORSDOF 0
ENDMDL
