MODEL 1
REMARK minimizedAffinity -4.97078419
REMARK minimizedRMSD -1
REMARK  0 active torsions:
REMARK  status: ('A' for Active; 'I' for Inactive)
ROOT
ATOM      1  C4' PXY d   1       2.863  -0.737  -2.680  0.00  0.00     0.077 C 
ATOM      2  C1' PXY d   1       2.160   3.307   1.391  0.00  0.00     0.077 C 
ATOM      3  C1  PXY d   1       2.340   2.238   0.332  0.00  0.00    -0.082 A 
ATOM      4  C2  PXY d   1       3.178   2.445  -0.671  0.00  0.00     0.003 A 
ATOM      5  C3  PXY d   1       3.329   1.501  -1.655  0.00  0.00     0.003 A 
ATOM      6  C4  PXY d   1       2.656   0.311  -1.583  0.00  0.00    -0.082 A 
ATOM      7  C5  PXY d   1       1.808   0.088  -0.557  0.00  0.00     0.003 A 
ATOM      8  C6  PXY d   1       1.637   1.075   0.409  0.00  0.00     0.003 A 
ENDROOT
TORSDOF 0
ENDMDL
