MODEL 1
REMARK minimizedAffinity 1.87657833
REMARK minimizedRMSD -1
REMARK  0 active torsions:
REMARK  status: ('A' for Active; 'I' for Inactive)
ROOT
ATOM      1  C   UNL d   1       1.436  -2.590  -6.000  0.00  0.00     0.023 A 
ATOM      2  C1  UNL d   1       1.048  -1.268  -5.781  0.00  0.00     0.003 A 
ATOM      3  C2  UNL d   1       2.012  -0.284  -5.555  0.00  0.00     0.048 A 
ATOM      4  C3  UNL d   1       3.363  -0.628  -5.552  0.00  0.00     0.023 A 
ATOM      5  C4  UNL d   1       3.757  -1.949  -5.772  0.00  0.00     0.048 A 
ATOM      6  C5  UNL d   1       2.789  -2.930  -5.996  0.00  0.00     0.003 A 
ATOM      7  I   UNL d   1       4.801   0.835  -5.217  0.00  0.00    -0.146 I 
ENDROOT
TORSDOF 0
ENDMDL
