MODEL 1
REMARK minimizedAffinity 13.9588518
REMARK minimizedRMSD -1
REMARK  0 active torsions:
REMARK  status: ('A' for Active; 'I' for Inactive)
ROOT
ATOM      1  C   UNL d   1      -0.161  -0.576  -3.530  0.00  0.00     0.023 A 
ATOM      2  C1  UNL d   1      -0.988  -1.500  -2.891  0.00  0.00     0.003 A 
ATOM      3  C2  UNL d   1      -1.492  -2.593  -3.598  0.00  0.00     0.048 A 
ATOM      4  C3  UNL d   1      -1.164  -2.758  -4.944  0.00  0.00     0.023 A 
ATOM      5  C4  UNL d   1      -0.336  -1.836  -5.587  0.00  0.00     0.048 A 
ATOM      6  C5  UNL d   1       0.164  -0.743  -4.876  0.00  0.00     0.003 A 
ATOM      7  I   UNL d   1      -1.913  -4.385  -5.998  0.00  0.00    -0.146 I 
ENDROOT
TORSDOF 0
ENDMDL
