MODEL 1
REMARK minimizedAffinity 5.46677494
REMARK minimizedRMSD -1
REMARK  0 active torsions:
REMARK  status: ('A' for Active; 'I' for Inactive)
ROOT
ATOM      1  C   UNL d   1       1.234  -0.684   3.186  0.00  0.00     0.023 A 
ATOM      2  C1  UNL d   1       0.640   0.519   3.569  0.00  0.00     0.003 A 
ATOM      3  C2  UNL d   1      -0.577   0.909   3.005  0.00  0.00     0.048 A 
ATOM      4  C3  UNL d   1      -1.194   0.090   2.059  0.00  0.00     0.023 A 
ATOM      5  C4  UNL d   1      -0.603  -1.114   1.674  0.00  0.00     0.048 A 
ATOM      6  C5  UNL d   1       0.613  -1.499   2.240  0.00  0.00     0.003 A 
ATOM      7  I   UNL d   1      -3.005   0.668   1.218  0.00  0.00    -0.146 I 
ENDROOT
TORSDOF 0
ENDMDL
