MODEL 1
REMARK minimizedAffinity 5.66287279
REMARK minimizedRMSD -1
REMARK  0 active torsions:
REMARK  status: ('A' for Active; 'I' for Inactive)
ROOT
ATOM      1  C   UNL d   1       1.646  -0.332  -5.039  0.00  0.00     0.023 A 
ATOM      2  C1  UNL d   1       1.438  -1.711  -5.039  0.00  0.00     0.003 A 
ATOM      3  C2  UNL d   1       0.550  -2.284  -4.126  0.00  0.00     0.048 A 
ATOM      4  C3  UNL d   1      -0.127  -1.472  -3.216  0.00  0.00     0.023 A 
ATOM      5  C4  UNL d   1       0.078  -0.091  -3.213  0.00  0.00     0.048 A 
ATOM      6  C5  UNL d   1       0.967   0.477  -4.127  0.00  0.00     0.003 A 
ATOM      7  I   UNL d   1      -1.449  -2.323  -1.857  0.00  0.00    -0.146 I 
ENDROOT
TORSDOF 0
ENDMDL
