MODEL 1
REMARK minimizedAffinity 8.11778069
REMARK minimizedRMSD -1
REMARK  0 active torsions:
REMARK  status: ('A' for Active; 'I' for Inactive)
ROOT
ATOM      1  C   UNL d   1      -2.203  -3.105  -0.599  0.00  0.00     0.023 A 
ATOM      2  C1  UNL d   1      -1.563  -1.887  -0.369  0.00  0.00     0.003 A 
ATOM      3  C2  UNL d   1      -0.869  -1.255  -1.402  0.00  0.00     0.048 A 
ATOM      4  C3  UNL d   1      -0.819  -1.845  -2.664  0.00  0.00     0.023 A 
ATOM      5  C4  UNL d   1      -1.458  -3.063  -2.900  0.00  0.00     0.048 A 
ATOM      6  C5  UNL d   1      -2.150  -3.693  -1.864  0.00  0.00     0.003 A 
ATOM      7  I   UNL d   1       0.214  -0.906  -4.204  0.00  0.00    -0.146 I 
ENDROOT
TORSDOF 0
ENDMDL
