MODEL 1
REMARK minimizedAffinity 9.35146427
REMARK minimizedRMSD -1
REMARK  0 active torsions:
REMARK  status: ('A' for Active; 'I' for Inactive)
ROOT
ATOM      1  C   UNL d   1      -2.052  -5.618  -5.674  0.00  0.00     0.023 A 
ATOM      2  C1  UNL d   1      -2.207  -5.998  -4.340  0.00  0.00     0.003 A 
ATOM      3  C2  UNL d   1      -2.168  -5.035  -3.330  0.00  0.00     0.048 A 
ATOM      4  C3  UNL d   1      -1.974  -3.694  -3.659  0.00  0.00     0.023 A 
ATOM      5  C4  UNL d   1      -1.819  -3.309  -4.992  0.00  0.00     0.048 A 
ATOM      6  C5  UNL d   1      -1.858  -4.275  -5.999  0.00  0.00     0.003 A 
ATOM      7  I   UNL d   1      -1.914  -2.260  -2.156  0.00  0.00    -0.146 I 
ENDROOT
TORSDOF 0
ENDMDL
