MODEL 1
REMARK minimizedAffinity 10.8738203
REMARK minimizedRMSD -1
REMARK  0 active torsions:
REMARK  status: ('A' for Active; 'I' for Inactive)
ROOT
ATOM      1  C   UNL d   1      -0.815  -1.794  -2.136  0.00  0.00     0.023 A 
ATOM      2  C1  UNL d   1      -0.717  -1.085  -3.334  0.00  0.00     0.003 A 
ATOM      3  C2  UNL d   1       0.538  -0.769  -3.859  0.00  0.00     0.048 A 
ATOM      4  C3  UNL d   1       1.690  -1.166  -3.181  0.00  0.00     0.023 A 
ATOM      5  C4  UNL d   1       1.597  -1.876  -1.983  0.00  0.00     0.048 A 
ATOM      6  C5  UNL d   1       0.341  -2.188  -1.462  0.00  0.00     0.003 A 
ATOM      7  I   UNL d   1       3.559  -0.697  -3.961  0.00  0.00    -0.146 I 
ENDROOT
TORSDOF 0
ENDMDL
