MODEL 1
REMARK minimizedAffinity 12.2401438
REMARK minimizedRMSD -1
REMARK  0 active torsions:
REMARK  status: ('A' for Active; 'I' for Inactive)
ROOT
ATOM      1  C   UNL d   1      -1.978  -2.486  -2.901  0.00  0.00     0.023 A 
ATOM      2  C1  UNL d   1      -0.961  -2.450  -1.947  0.00  0.00     0.003 A 
ATOM      3  C2  UNL d   1       0.241  -1.799  -2.230  0.00  0.00     0.048 A 
ATOM      4  C3  UNL d   1       0.420  -1.184  -3.469  0.00  0.00     0.023 A 
ATOM      5  C4  UNL d   1      -0.595  -1.216  -4.426  0.00  0.00     0.048 A 
ATOM      6  C5  UNL d   1      -1.795  -1.869  -4.139  0.00  0.00     0.003 A 
ATOM      7  I   UNL d   1       2.208  -0.214  -3.892  0.00  0.00    -0.146 I 
ENDROOT
TORSDOF 0
ENDMDL
