MODEL 1
REMARK minimizedAffinity 13.3050852
REMARK minimizedRMSD -1
REMARK  0 active torsions:
REMARK  status: ('A' for Active; 'I' for Inactive)
ROOT
ATOM      1  C   UNL d   1      -1.064  -1.476  -3.585  0.00  0.00     0.023 A 
ATOM      2  C1  UNL d   1      -0.249  -1.234  -2.479  0.00  0.00     0.003 A 
ATOM      3  C2  UNL d   1       1.068  -0.810  -2.661  0.00  0.00     0.048 A 
ATOM      4  C3  UNL d   1       1.565  -0.629  -3.951  0.00  0.00     0.023 A 
ATOM      5  C4  UNL d   1       0.753  -0.869  -5.061  0.00  0.00     0.048 A 
ATOM      6  C5  UNL d   1      -0.564  -1.294  -4.875  0.00  0.00     0.003 A 
ATOM      7  I   UNL d   1       3.526   0.003  -4.224  0.00  0.00    -0.146 I 
ENDROOT
TORSDOF 0
ENDMDL
