MODEL 1
REMARK minimizedAffinity -2.15471554
REMARK minimizedRMSD -1
REMARK  1 active torsions:
REMARK  status: ('A' for Active; 'I' for Inactive)
REMARK    1  A    between atoms: C1_2  and  C2_3 
ROOT
ATOM      1  C2  UNL d   1      -1.720   0.866   0.030  0.00  0.00    -0.076 A 
ATOM      2  C3  UNL d   1      -2.906   0.834  -0.725  0.00  0.00     0.004 A 
ATOM      3  C4  UNL d   1      -4.144   1.062  -0.127  0.00  0.00    -0.003 A 
ATOM      4  C5  UNL d   1      -4.217   1.326   1.236  0.00  0.00     0.000 A 
ATOM      5  C6  UNL d   1      -3.050   1.379   1.998  0.00  0.00     0.000 A 
ATOM      6  C7  UNL d   1      -1.792   1.168   1.407  0.00  0.00    -0.073 A 
ATOM      7  C8  UNL d   1      -0.566   1.230   2.277  0.00  0.00     0.078 C 
ENDROOT
BRANCH   1   8
ATOM      8  C1  UNL d   1      -0.409   0.584  -0.667  0.00  0.00     0.053 C 
ATOM      9  C   UNL d   1       0.077  -0.839  -0.441  0.00  0.00     0.018 C 
ENDBRANCH   1   8
TORSDOF 1
ENDMDL
