MODEL 1
REMARK minimizedAffinity -4.33124018
REMARK minimizedRMSD -1
REMARK  1 active torsions:
REMARK  status: ('A' for Active; 'I' for Inactive)
REMARK    1  A    between atoms: C1_2  and  C2_3 
ROOT
ATOM      1  C2  UNL d   1      -0.129   0.168  -0.217  0.00  0.00    -0.076 A 
ATOM      2  C3  UNL d   1      -0.534  -1.164  -0.411  0.00  0.00     0.004 A 
ATOM      3  C4  UNL d   1       0.351  -2.220  -0.203  0.00  0.00    -0.003 A 
ATOM      4  C5  UNL d   1       1.656  -1.962   0.201  0.00  0.00     0.000 A 
ATOM      5  C6  UNL d   1       2.070  -0.647   0.415  0.00  0.00     0.000 A 
ATOM      6  C7  UNL d   1       1.185   0.428   0.226  0.00  0.00    -0.073 A 
ATOM      7  C8  UNL d   1       1.687   1.826   0.465  0.00  0.00     0.078 C 
ENDROOT
BRANCH   1   8
ATOM      8  C1  UNL d   1      -1.125   1.274  -0.484  0.00  0.00     0.053 C 
ATOM      9  C   UNL d   1      -2.484   0.997   0.139  0.00  0.00     0.018 C 
ENDBRANCH   1   8
TORSDOF 1
ENDMDL
