MODEL 1
REMARK minimizedAffinity -3.98728514
REMARK minimizedRMSD -1
REMARK  1 active torsions:
REMARK  status: ('A' for Active; 'I' for Inactive)
REMARK    1  A    between atoms: C1_2  and  C2_3 
ROOT
ATOM      1  C2  UNL d   1       0.339   0.247  -0.060  0.00  0.00    -0.076 A 
ATOM      2  C3  UNL d   1       1.111   0.989   0.851  0.00  0.00     0.004 A 
ATOM      3  C4  UNL d   1       2.247   0.440   1.442  0.00  0.00    -0.003 A 
ATOM      4  C5  UNL d   1       2.631  -0.860   1.132  0.00  0.00     0.000 A 
ATOM      5  C6  UNL d   1       1.887  -1.604   0.217  0.00  0.00     0.000 A 
ATOM      6  C7  UNL d   1       0.748  -1.060  -0.401  0.00  0.00    -0.073 A 
ATOM      7  C8  UNL d   1      -0.020  -1.910  -1.376  0.00  0.00     0.078 C 
ENDROOT
BRANCH   1   8
ATOM      8  C1  UNL d   1      -0.899   0.885  -0.649  0.00  0.00     0.053 C 
ATOM      9  C   UNL d   1      -2.121   0.716   0.240  0.00  0.00     0.018 C 
ENDBRANCH   1   8
TORSDOF 1
ENDMDL
