MODEL 1
REMARK minimizedAffinity -4.01253319
REMARK minimizedRMSD -1
REMARK  1 active torsions:
REMARK  status: ('A' for Active; 'I' for Inactive)
REMARK    1  A    between atoms: C1_2  and  C2_3 
ROOT
ATOM      1  C2  UNL d   1      -0.390   0.726  -0.380  0.00  0.00    -0.076 A 
ATOM      2  C3  UNL d   1       0.524   1.519   0.336  0.00  0.00     0.004 A 
ATOM      3  C4  UNL d   1       1.780   1.026   0.687  0.00  0.00    -0.003 A 
ATOM      4  C5  UNL d   1       2.142  -0.267   0.327  0.00  0.00     0.000 A 
ATOM      5  C6  UNL d   1       1.255  -1.062  -0.398  0.00  0.00     0.000 A 
ATOM      6  C7  UNL d   1      -0.009  -0.575  -0.774  0.00  0.00    -0.073 A 
ATOM      7  C8  UNL d   1      -0.928  -1.477  -1.551  0.00  0.00     0.078 C 
ENDROOT
BRANCH   1   8
ATOM      8  C1  UNL d   1      -1.748   1.304  -0.709  0.00  0.00     0.053 C 
ATOM      9  C   UNL d   1      -2.664   1.366   0.503  0.00  0.00     0.018 C 
ENDBRANCH   1   8
TORSDOF 1
ENDMDL
