MODEL 1
REMARK minimizedAffinity -3.19200182
REMARK minimizedRMSD -1
REMARK  1 active torsions:
REMARK  status: ('A' for Active; 'I' for Inactive)
REMARK    1  A    between atoms: C1_2  and  C2_3 
ROOT
ATOM      1  C2  UNL d   1       1.051   0.067  -0.890  0.00  0.00    -0.076 A 
ATOM      2  C3  UNL d   1       0.858   0.354   0.473  0.00  0.00     0.004 A 
ATOM      3  C4  UNL d   1       1.086   1.634   0.975  0.00  0.00    -0.003 A 
ATOM      4  C5  UNL d   1       1.509   2.648   0.123  0.00  0.00     0.000 A 
ATOM      5  C6  UNL d   1       1.689   2.385  -1.234  0.00  0.00     0.000 A 
ATOM      6  C7  UNL d   1       1.448   1.104  -1.760  0.00  0.00    -0.073 A 
ATOM      7  C8  UNL d   1       1.664   0.876  -3.231  0.00  0.00     0.078 C 
ENDROOT
BRANCH   1   8
ATOM      8  C1  UNL d   1       0.815  -1.347  -1.373  0.00  0.00     0.053 C 
ATOM      9  C   UNL d   1       1.254  -2.390  -0.357  0.00  0.00     0.018 C 
ENDBRANCH   1   8
TORSDOF 1
ENDMDL
