MODEL 1
REMARK minimizedAffinity -5.46332741
REMARK minimizedRMSD -1
REMARK  1 active torsions:
REMARK  status: ('A' for Active; 'I' for Inactive)
REMARK    1  A    between atoms: C1_2  and  C2_3 
ROOT
ATOM      1  C2  UNL d   1       1.181   1.605  -0.831  0.00  0.00    -0.076 A 
ATOM      2  C3  UNL d   1       1.703   2.308  -1.930  0.00  0.00     0.004 A 
ATOM      3  C4  UNL d   1       1.950   3.678  -1.854  0.00  0.00    -0.003 A 
ATOM      4  C5  UNL d   1       1.679   4.366  -0.676  0.00  0.00     0.000 A 
ATOM      5  C6  UNL d   1       1.178   3.681   0.430  0.00  0.00     0.000 A 
ATOM      6  C7  UNL d   1       0.939   2.297   0.375  0.00  0.00    -0.073 A 
ATOM      7  C8  UNL d   1       0.392   1.610   1.596  0.00  0.00     0.078 C 
ENDROOT
BRANCH   1   8
ATOM      8  C1  UNL d   1       0.908   0.125  -0.981  0.00  0.00     0.053 C 
ATOM      9  C   UNL d   1       2.048  -0.734  -0.455  0.00  0.00     0.018 C 
ENDBRANCH   1   8
TORSDOF 1
ENDMDL
