MODEL 1
REMARK minimizedAffinity 0.881092489
REMARK minimizedRMSD -1
REMARK  1 active torsions:
REMARK  status: ('A' for Active; 'I' for Inactive)
REMARK    1  A    between atoms: C1_2  and  C2_3 
ROOT
ATOM      1  C2  UNL d   1       0.849   1.870   0.199  0.00  0.00    -0.076 A 
ATOM      2  C3  UNL d   1       1.140   3.226  -0.029  0.00  0.00     0.004 A 
ATOM      3  C4  UNL d   1       1.587   3.665  -1.274  0.00  0.00    -0.003 A 
ATOM      4  C5  UNL d   1       1.751   2.754  -2.312  0.00  0.00     0.000 A 
ATOM      5  C6  UNL d   1       1.450   1.407  -2.109  0.00  0.00     0.000 A 
ATOM      6  C7  UNL d   1       0.982   0.951  -0.865  0.00  0.00    -0.073 A 
ATOM      7  C8  UNL d   1       0.679  -0.513  -0.700  0.00  0.00     0.078 C 
ENDROOT
BRANCH   1   8
ATOM      8  C1  UNL d   1       0.393   1.448   1.577  0.00  0.00     0.053 C 
ATOM      9  C   UNL d   1       1.501   0.784   2.379  0.00  0.00     0.018 C 
ENDBRANCH   1   8
TORSDOF 1
ENDMDL
