MODEL 1
REMARK minimizedAffinity -3.81777406
REMARK minimizedRMSD -1
REMARK  1 active torsions:
REMARK  status: ('A' for Active; 'I' for Inactive)
REMARK    1  A    between atoms: C1_2  and  C2_3 
ROOT
ATOM      1  C2  UNL d   1       1.486   0.288  -0.084  0.00  0.00    -0.076 A 
ATOM      2  C3  UNL d   1       0.975   0.805  -1.287  0.00  0.00     0.004 A 
ATOM      3  C4  UNL d   1       0.751   2.171  -1.443  0.00  0.00    -0.003 A 
ATOM      4  C5  UNL d   1       1.034   3.044  -0.398  0.00  0.00     0.000 A 
ATOM      5  C6  UNL d   1       1.558   2.550   0.796  0.00  0.00     0.000 A 
ATOM      6  C7  UNL d   1       1.805   1.177   0.964  0.00  0.00    -0.073 A 
ATOM      7  C8  UNL d   1       2.365   0.699   2.276  0.00  0.00     0.078 C 
ENDROOT
BRANCH   1   8
ATOM      8  C1  UNL d   1       1.682  -1.207   0.037  0.00  0.00     0.053 C 
ATOM      9  C   UNL d   1       0.664  -1.996  -0.772  0.00  0.00     0.018 C 
ENDBRANCH   1   8
TORSDOF 1
ENDMDL
