MODEL 1
REMARK minimizedAffinity -2.29598165
REMARK minimizedRMSD -1
REMARK  1 active torsions:
REMARK  status: ('A' for Active; 'I' for Inactive)
REMARK    1  A    between atoms: C1_2  and  C2_3 
ROOT
ATOM      1  C2  UNL d   1       0.967   0.665  -0.862  0.00  0.00    -0.076 A 
ATOM      2  C3  UNL d   1       0.181  -0.031  -1.797  0.00  0.00     0.004 A 
ATOM      3  C4  UNL d   1       0.108  -1.423  -1.778  0.00  0.00    -0.003 A 
ATOM      4  C5  UNL d   1       0.819  -2.141  -0.823  0.00  0.00     0.000 A 
ATOM      5  C6  UNL d   1       1.590  -1.466   0.123  0.00  0.00     0.000 A 
ATOM      6  C7  UNL d   1       1.661  -0.063   0.128  0.00  0.00    -0.073 A 
ATOM      7  C8  UNL d   1       2.513   0.613   1.168  0.00  0.00     0.078 C 
ENDROOT
BRANCH   1   8
ATOM      8  C1  UNL d   1       1.030   2.173  -0.948  0.00  0.00     0.053 C 
ATOM      9  C   UNL d   1       1.774   2.656  -2.184  0.00  0.00     0.018 C 
ENDBRANCH   1   8
TORSDOF 1
ENDMDL
