MODEL 1
REMARK minimizedAffinity -1.29713798
REMARK minimizedRMSD -1
REMARK  1 active torsions:
REMARK  status: ('A' for Active; 'I' for Inactive)
REMARK    1  A    between atoms: C1_2  and  C2_3 
ROOT
ATOM      1  C2  UNL d   1       0.279   1.265  -1.083  0.00  0.00    -0.076 A 
ATOM      2  C3  UNL d   1       0.056   0.056  -1.764  0.00  0.00     0.004 A 
ATOM      3  C4  UNL d   1       0.485  -1.158  -1.229  0.00  0.00    -0.003 A 
ATOM      4  C5  UNL d   1       1.144  -1.182  -0.005  0.00  0.00     0.000 A 
ATOM      5  C6  UNL d   1       1.358   0.007   0.692  0.00  0.00     0.000 A 
ATOM      6  C7  UNL d   1       0.917   1.237   0.175  0.00  0.00    -0.073 A 
ATOM      7  C8  UNL d   1       1.180   2.489   0.967  0.00  0.00     0.078 C 
ENDROOT
BRANCH   1   8
ATOM      8  C1  UNL d   1      -0.185   2.553  -1.725  0.00  0.00     0.053 C 
ATOM      9  C   UNL d   1      -1.666   2.530  -2.074  0.00  0.00     0.018 C 
ENDBRANCH   1   8
TORSDOF 1
ENDMDL
