MODEL 1
REMARK minimizedAffinity 3.69756079
REMARK minimizedRMSD -1
REMARK  1 active torsions:
REMARK  status: ('A' for Active; 'I' for Inactive)
REMARK    1  A    between atoms: C1_2  and  C2_3 
ROOT
ATOM      1  C2  UNL d   1       1.844   1.112  -0.341  0.00  0.00    -0.076 A 
ATOM      2  C3  UNL d   1       0.883   1.424  -1.318  0.00  0.00     0.004 A 
ATOM      3  C4  UNL d   1       0.814   0.707  -2.511  0.00  0.00    -0.003 A 
ATOM      4  C5  UNL d   1       1.705  -0.334  -2.747  0.00  0.00     0.000 A 
ATOM      5  C6  UNL d   1       2.654  -0.669  -1.781  0.00  0.00     0.000 A 
ATOM      6  C7  UNL d   1       2.726   0.033  -0.566  0.00  0.00    -0.073 A 
ATOM      7  C8  UNL d   1       3.773  -0.367   0.438  0.00  0.00     0.078 C 
ENDROOT
BRANCH   1   8
ATOM      8  C1  UNL d   1       1.888   1.941   0.923  0.00  0.00     0.053 C 
ATOM      9  C   UNL d   1       1.187   3.281   0.765  0.00  0.00     0.018 C 
ENDBRANCH   1   8
TORSDOF 1
ENDMDL
