MODEL 1
REMARK minimizedAffinity 2.17113781
REMARK minimizedRMSD -1
REMARK  1 active torsions:
REMARK  status: ('A' for Active; 'I' for Inactive)
REMARK    1  A    between atoms: C1_2  and  C2_3 
ROOT
ATOM      1  C2  UNL d   1       0.983   0.655  -0.587  0.00  0.00    -0.076 A 
ATOM      2  C3  UNL d   1       0.356  -0.081  -1.608  0.00  0.00     0.004 A 
ATOM      3  C4  UNL d   1       0.336  -1.474  -1.579  0.00  0.00    -0.003 A 
ATOM      4  C5  UNL d   1       0.942  -2.155  -0.529  0.00  0.00     0.000 A 
ATOM      5  C6  UNL d   1       1.554  -1.441   0.501  0.00  0.00     0.000 A 
ATOM      6  C7  UNL d   1       1.569  -0.035   0.496  0.00  0.00    -0.073 A 
ATOM      7  C8  UNL d   1       2.248   0.684   1.629  0.00  0.00     0.078 C 
ENDROOT
BRANCH   1   8
ATOM      8  C1  UNL d   1       0.997   2.164  -0.686  0.00  0.00     0.053 C 
ATOM      9  C   UNL d   1       1.688   2.659  -1.947  0.00  0.00     0.018 C 
ENDBRANCH   1   8
TORSDOF 1
ENDMDL
