MODEL 1
REMARK minimizedAffinity 0.694049597
REMARK minimizedRMSD -1
REMARK  1 active torsions:
REMARK  status: ('A' for Active; 'I' for Inactive)
REMARK    1  A    between atoms: C1_2  and  C2_3 
ROOT
ATOM      1  C2  UNL d   1       1.556   3.269  -1.051  0.00  0.00    -0.076 A 
ATOM      2  C3  UNL d   1       1.498   3.119   0.345  0.00  0.00     0.004 A 
ATOM      3  C4  UNL d   1       1.083   1.919   0.921  0.00  0.00    -0.003 A 
ATOM      4  C5  UNL d   1       0.721   0.850   0.109  0.00  0.00     0.000 A 
ATOM      5  C6  UNL d   1       0.790   0.975  -1.278  0.00  0.00     0.000 A 
ATOM      6  C7  UNL d   1       1.221   2.173  -1.874  0.00  0.00    -0.073 A 
ATOM      7  C8  UNL d   1       1.270   2.255  -3.375  0.00  0.00     0.078 C 
ENDROOT
BRANCH   1   8
ATOM      8  C1  UNL d   1       1.987   4.603  -1.619  0.00  0.00     0.053 C 
ATOM      9  C   UNL d   1       1.615   5.768  -0.715  0.00  0.00     0.018 C 
ENDBRANCH   1   8
TORSDOF 1
ENDMDL
