MODEL 1
REMARK minimizedAffinity -2.816154
REMARK minimizedRMSD -1
REMARK  1 active torsions:
REMARK  status: ('A' for Active; 'I' for Inactive)
REMARK    1  A    between atoms: C1_2  and  C2_3 
ROOT
ATOM      1  C2  UNL d   1       1.226   2.838  -1.052  0.00  0.00    -0.076 A 
ATOM      2  C3  UNL d   1       1.217   1.732  -1.920  0.00  0.00     0.004 A 
ATOM      3  C4  UNL d   1       1.264   0.430  -1.423  0.00  0.00    -0.003 A 
ATOM      4  C5  UNL d   1       1.321   0.213  -0.051  0.00  0.00     0.000 A 
ATOM      5  C6  UNL d   1       1.314   1.298   0.825  0.00  0.00     0.000 A 
ATOM      6  C7  UNL d   1       1.250   2.616   0.342  0.00  0.00    -0.073 A 
ATOM      7  C8  UNL d   1       1.250   3.749   1.332  0.00  0.00     0.078 C 
ENDROOT
BRANCH   1   8
ATOM      8  C1  UNL d   1       1.200   4.227  -1.649  0.00  0.00     0.053 C 
ATOM      9  C   UNL d   1       2.173   5.174  -0.962  0.00  0.00     0.018 C 
ENDBRANCH   1   8
TORSDOF 1
ENDMDL
