MODEL 1
REMARK minimizedAffinity 2.07140756
REMARK minimizedRMSD -1
REMARK  1 active torsions:
REMARK  status: ('A' for Active; 'I' for Inactive)
REMARK    1  A    between atoms: C1_2  and  C2_3 
ROOT
ATOM      1  C2  UNL d   1       1.096   0.357  -0.247  0.00  0.00    -0.076 A 
ATOM      2  C3  UNL d   1       1.887   0.194  -1.397  0.00  0.00     0.004 A 
ATOM      3  C4  UNL d   1       2.242   1.288  -2.185  0.00  0.00    -0.003 A 
ATOM      4  C5  UNL d   1       1.811   2.563  -1.835  0.00  0.00     0.000 A 
ATOM      5  C6  UNL d   1       1.040   2.745  -0.687  0.00  0.00     0.000 A 
ATOM      6  C7  UNL d   1       0.687   1.655   0.127  0.00  0.00    -0.073 A 
ATOM      7  C8  UNL d   1      -0.151   1.909   1.350  0.00  0.00     0.078 C 
ENDROOT
BRANCH   1   8
ATOM      8  C1  UNL d   1       0.720  -0.870   0.553  0.00  0.00     0.053 C 
ATOM      9  C   UNL d   1      -0.005  -1.912  -0.284  0.00  0.00     0.018 C 
ENDBRANCH   1   8
TORSDOF 1
ENDMDL
