MODEL 1
REMARK minimizedAffinity -3.6924336
REMARK minimizedRMSD -1
REMARK  1 active torsions:
REMARK  status: ('A' for Active; 'I' for Inactive)
REMARK    1  A    between atoms: C1_2  and  C2_3 
ROOT
ATOM      1  C2  UNL d   1       1.175   2.572  -0.691  0.00  0.00    -0.076 A 
ATOM      2  C3  UNL d   1       1.359   2.329  -2.063  0.00  0.00     0.004 A 
ATOM      3  C4  UNL d   1       1.327   1.032  -2.573  0.00  0.00    -0.003 A 
ATOM      4  C5  UNL d   1       1.109  -0.043  -1.719  0.00  0.00     0.000 A 
ATOM      5  C6  UNL d   1       0.906   0.181  -0.358  0.00  0.00     0.000 A 
ATOM      6  C7  UNL d   1       0.920   1.483   0.170  0.00  0.00    -0.073 A 
ATOM      7  C8  UNL d   1       0.702   1.666   1.647  0.00  0.00     0.078 C 
ENDROOT
BRANCH   1   8
ATOM      8  C1  UNL d   1       1.248   3.997  -0.191  0.00  0.00     0.053 C 
ATOM      9  C   UNL d   1       1.757   4.961  -1.252  0.00  0.00     0.018 C 
ENDBRANCH   1   8
TORSDOF 1
ENDMDL
