MODEL 1
REMARK minimizedAffinity -2.60193014
REMARK minimizedRMSD -1
REMARK  0 active torsions:
REMARK  status: ('A' for Active; 'I' for Inactive)
ROOT
ATOM      1  C   UNL d   1       1.403   1.474  -0.605  0.00  0.00     0.172 C 
ATOM      2  N   UNL d   1       0.640   1.107   0.564  0.00  0.00    -0.070 N 
ATOM      3  C1  UNL d   1      -0.433   0.257   0.583  0.00  0.00    -0.004 A 
ATOM      4  C2  UNL d   1      -0.879   0.168   1.884  0.00  0.00    -0.047 A 
ATOM      5  C3  UNL d   1      -0.046   0.995   2.674  0.00  0.00    -0.047 A 
ATOM      6  C4  UNL d   1       0.886   1.564   1.832  0.00  0.00    -0.004 A 
ENDROOT
TORSDOF 0
ENDMDL
