MODEL 1
REMARK minimizedAffinity -3.94567943
REMARK minimizedRMSD -1
REMARK  0 active torsions:
REMARK  status: ('A' for Active; 'I' for Inactive)
ROOT
ATOM      1  C   UNL d   1       0.884  -0.613  -0.662  0.00  0.00     0.172 C 
ATOM      2  N   UNL d   1       1.400   0.552   0.018  0.00  0.00    -0.070 N 
ATOM      3  C1  UNL d   1       0.672   1.405   0.804  0.00  0.00    -0.004 A 
ATOM      4  C2  UNL d   1       1.525   2.384   1.266  0.00  0.00    -0.047 A 
ATOM      5  C3  UNL d   1       2.809   2.111   0.738  0.00  0.00    -0.047 A 
ATOM      6  C4  UNL d   1       2.703   0.971  -0.031  0.00  0.00    -0.004 A 
ENDROOT
TORSDOF 0
ENDMDL
