MODEL 1
REMARK minimizedAffinity -1.41033399
REMARK minimizedRMSD -1
REMARK  0 active torsions:
REMARK  status: ('A' for Active; 'I' for Inactive)
ROOT
ATOM      1  C   UNL d   1      -0.509  -0.725  -0.902  0.00  0.00     0.172 C 
ATOM      2  N   UNL d   1      -1.596  -1.159  -1.748  0.00  0.00    -0.070 N 
ATOM      3  C1  UNL d   1      -2.654  -1.933  -1.354  0.00  0.00    -0.004 A 
ATOM      4  C2  UNL d   1      -3.469  -2.124  -2.449  0.00  0.00    -0.047 A 
ATOM      5  C3  UNL d   1      -2.879  -1.441  -3.540  0.00  0.00    -0.047 A 
ATOM      6  C4  UNL d   1      -1.721  -0.852  -3.078  0.00  0.00    -0.004 A 
ENDROOT
TORSDOF 0
ENDMDL
