MODEL 1
REMARK minimizedAffinity -1.99058485
REMARK minimizedRMSD -1
REMARK  0 active torsions:
REMARK  status: ('A' for Active; 'I' for Inactive)
ROOT
ATOM      1  C   UNL d   1       0.206  -1.657  -0.628  0.00  0.00     0.172 C 
ATOM      2  N   UNL d   1      -0.799  -1.532  -1.658  0.00  0.00    -0.070 N 
ATOM      3  C1  UNL d   1      -0.617  -0.952  -2.884  0.00  0.00    -0.004 A 
ATOM      4  C2  UNL d   1      -1.810  -1.033  -3.570  0.00  0.00    -0.047 A 
ATOM      5  C3  UNL d   1      -2.741  -1.683  -2.726  0.00  0.00    -0.047 A 
ATOM      6  C4  UNL d   1      -2.089  -1.982  -1.549  0.00  0.00    -0.004 A 
ENDROOT
TORSDOF 0
ENDMDL
