MODEL 1
REMARK minimizedAffinity -3.03783035
REMARK minimizedRMSD -1
REMARK  0 active torsions:
REMARK  status: ('A' for Active; 'I' for Inactive)
ROOT
ATOM      1  C   UNL d   1      -0.372  -0.207  -0.289  0.00  0.00     0.172 C 
ATOM      2  N   UNL d   1       0.112   0.897   0.506  0.00  0.00    -0.070 N 
ATOM      3  C1  UNL d   1       0.559   2.096   0.019  0.00  0.00    -0.004 A 
ATOM      4  C2  UNL d   1       0.931   2.876   1.093  0.00  0.00    -0.047 A 
ATOM      5  C3  UNL d   1       0.699   2.119   2.266  0.00  0.00    -0.047 A 
ATOM      6  C4  UNL d   1       0.193   0.898   1.873  0.00  0.00    -0.004 A 
ENDROOT
TORSDOF 0
ENDMDL
