MODEL 1
REMARK minimizedAffinity -2.24194956
REMARK minimizedRMSD -1
REMARK  0 active torsions:
REMARK  status: ('A' for Active; 'I' for Inactive)
ROOT
ATOM      1  C   UNL d   1      -0.255  -0.819  -0.809  0.00  0.00     0.172 C 
ATOM      2  N   UNL d   1      -0.281   0.102   0.302  0.00  0.00    -0.070 N 
ATOM      3  C1  UNL d   1      -1.288   0.214   1.223  0.00  0.00    -0.004 A 
ATOM      4  C2  UNL d   1      -0.934   1.202   2.117  0.00  0.00    -0.047 A 
ATOM      5  C3  UNL d   1       0.329   1.701   1.719  0.00  0.00    -0.047 A 
ATOM      6  C4  UNL d   1       0.710   1.003   0.592  0.00  0.00    -0.004 A 
ENDROOT
TORSDOF 0
ENDMDL
