MODEL 1
REMARK minimizedAffinity -3.2400825
REMARK minimizedRMSD -1
REMARK  0 active torsions:
REMARK  status: ('A' for Active; 'I' for Inactive)
ROOT
ATOM      1  C   UNL d   1      -0.807  -1.473  -1.068  0.00  0.00     0.172 C 
ATOM      2  N   UNL d   1      -0.440  -0.328  -0.267  0.00  0.00    -0.070 N 
ATOM      3  C1  UNL d   1      -0.011   0.879  -0.750  0.00  0.00    -0.004 A 
ATOM      4  C2  UNL d   1       0.235   1.701   0.329  0.00  0.00    -0.047 A 
ATOM      5  C3  UNL d   1      -0.055   0.962   1.500  0.00  0.00    -0.047 A 
ATOM      6  C4  UNL d   1      -0.471  -0.291   1.102  0.00  0.00    -0.004 A 
ENDROOT
TORSDOF 0
ENDMDL
