MODEL 1
REMARK minimizedAffinity -2.94620752
REMARK minimizedRMSD -1
REMARK  0 active torsions:
REMARK  status: ('A' for Active; 'I' for Inactive)
ROOT
ATOM      1  C   UNL d   1      -0.030  -2.424  -1.108  0.00  0.00     0.172 C 
ATOM      2  N   UNL d   1      -1.182  -2.466  -1.978  0.00  0.00    -0.070 N 
ATOM      3  C1  UNL d   1      -2.365  -3.099  -1.706  0.00  0.00    -0.004 A 
ATOM      4  C2  UNL d   1      -3.205  -2.905  -2.781  0.00  0.00    -0.047 A 
ATOM      5  C3  UNL d   1      -2.502  -2.130  -3.733  0.00  0.00    -0.047 A 
ATOM      6  C4  UNL d   1      -1.252  -1.871  -3.210  0.00  0.00    -0.004 A 
ENDROOT
TORSDOF 0
ENDMDL
