MODEL 1
REMARK minimizedAffinity -1.84389329
REMARK minimizedRMSD -1
REMARK  0 active torsions:
REMARK  status: ('A' for Active; 'I' for Inactive)
ROOT
ATOM      1  C   UNL d   1       1.303   1.503   1.913  0.00  0.00     0.172 C 
ATOM      2  N   UNL d   1       0.664   0.630   0.956  0.00  0.00    -0.070 N 
ATOM      3  C1  UNL d   1      -0.606   0.127   1.057  0.00  0.00    -0.004 A 
ATOM      4  C2  UNL d   1      -0.838  -0.657  -0.052  0.00  0.00    -0.047 A 
ATOM      5  C3  UNL d   1       0.333  -0.626  -0.846  0.00  0.00    -0.047 A 
ATOM      6  C4  UNL d   1       1.247   0.178  -0.199  0.00  0.00    -0.004 A 
ENDROOT
TORSDOF 0
ENDMDL
