MODEL 1
REMARK minimizedAffinity -2.29126477
REMARK minimizedRMSD -1
REMARK  0 active torsions:
REMARK  status: ('A' for Active; 'I' for Inactive)
ROOT
ATOM      1  C   UNL d   1      -0.377  -0.935   0.305  0.00  0.00     0.172 C 
ATOM      2  N   UNL d   1      -1.003  -1.075  -0.989  0.00  0.00    -0.070 N 
ATOM      3  C1  UNL d   1      -2.084  -1.867  -1.271  0.00  0.00    -0.004 A 
ATOM      4  C2  UNL d   1      -2.374  -1.723  -2.611  0.00  0.00    -0.047 A 
ATOM      5  C3  UNL d   1      -1.434  -0.815  -3.152  0.00  0.00    -0.047 A 
ATOM      6  C4  UNL d   1      -0.597  -0.429  -2.126  0.00  0.00    -0.004 A 
ENDROOT
TORSDOF 0
ENDMDL
