MODEL 1
REMARK minimizedAffinity -1.39046574
REMARK minimizedRMSD -1
REMARK  0 active torsions:
REMARK  status: ('A' for Active; 'I' for Inactive)
ROOT
ATOM      1  C   UNL d   1      -1.132  -1.488  -1.256  0.00  0.00     0.172 C 
ATOM      2  N   UNL d   1      -0.065  -0.686  -0.704  0.00  0.00    -0.070 N 
ATOM      3  C1  UNL d   1       1.273  -0.886  -0.912  0.00  0.00    -0.004 A 
ATOM      4  C2  UNL d   1       1.958   0.086  -0.216  0.00  0.00    -0.047 A 
ATOM      5  C3  UNL d   1       0.999   0.898   0.434  0.00  0.00    -0.047 A 
ATOM      6  C4  UNL d   1      -0.246   0.397   0.115  0.00  0.00    -0.004 A 
ENDROOT
TORSDOF 0
ENDMDL
