MODEL 1
REMARK minimizedAffinity -3.21179986
REMARK minimizedRMSD -1
REMARK  0 active torsions:
REMARK  status: ('A' for Active; 'I' for Inactive)
ROOT
ATOM      1  C   UNL d   1       0.984   2.173   1.655  0.00  0.00     0.172 C 
ATOM      2  N   UNL d   1       0.344   1.046   1.017  0.00  0.00    -0.070 N 
ATOM      3  C1  UNL d   1      -0.973   0.696   1.151  0.00  0.00    -0.004 A 
ATOM      4  C2  UNL d   1      -1.190  -0.430   0.387  0.00  0.00    -0.047 A 
ATOM      5  C3  UNL d   1       0.040  -0.769  -0.226  0.00  0.00    -0.047 A 
ATOM      6  C4  UNL d   1       0.972   0.161   0.181  0.00  0.00    -0.004 A 
ENDROOT
TORSDOF 0
ENDMDL
