MODEL 1
REMARK minimizedAffinity -3.99916697
REMARK minimizedRMSD -1
REMARK  0 active torsions:
REMARK  status: ('A' for Active; 'I' for Inactive)
ROOT
ATOM      1  C   UNL d   1      -0.014  -0.495  -0.044  0.00  0.00     0.172 C 
ATOM      2  N   UNL d   1       0.620   0.708   0.442  0.00  0.00    -0.070 N 
ATOM      3  C1  UNL d   1       1.962   0.977   0.396  0.00  0.00    -0.004 A 
ATOM      4  C2  UNL d   1       2.162   2.220   0.957  0.00  0.00    -0.047 A 
ATOM      5  C3  UNL d   1       0.896   2.714   1.354  0.00  0.00    -0.047 A 
ATOM      6  C4  UNL d   1      -0.040   1.758   1.023  0.00  0.00    -0.004 A 
ENDROOT
TORSDOF 0
ENDMDL
