MODEL 1
REMARK minimizedAffinity -3.04584384
REMARK minimizedRMSD -1
REMARK  0 active torsions:
REMARK  status: ('A' for Active; 'I' for Inactive)
ROOT
ATOM      1  C   UNL d   1      -0.791  -1.003  -0.693  0.00  0.00     0.172 C 
ATOM      2  N   UNL d   1      -0.049  -0.075   0.128  0.00  0.00    -0.070 N 
ATOM      3  C1  UNL d   1       1.315   0.043   0.166  0.00  0.00    -0.004 A 
ATOM      4  C2  UNL d   1       1.627   1.035   1.070  0.00  0.00    -0.047 A 
ATOM      5  C3  UNL d   1       0.409   1.530   1.594  0.00  0.00    -0.047 A 
ATOM      6  C4  UNL d   1      -0.613   0.824   0.994  0.00  0.00    -0.004 A 
ENDROOT
TORSDOF 0
ENDMDL
