MODEL 1
REMARK minimizedAffinity 20.1095448
REMARK minimizedRMSD -1
REMARK  0 active torsions:
REMARK  status: ('A' for Active; 'I' for Inactive)
ROOT
ATOM      1  C   UNL d   1      -1.467  -0.761  -1.905  0.00  0.00     0.124 A 
ATOM      2  C1  UNL d   1      -2.216   0.356  -1.563  0.00  0.00     0.062 A 
ATOM      3  C2  UNL d   1      -2.798   1.140  -2.556  0.00  0.00     0.162 A 
ATOM      4  C3  UNL d   1      -2.633   0.809  -3.901  0.00  0.00    -0.034 A 
ATOM      5  C4  UNL d   1      -1.877  -0.316  -4.237  0.00  0.00     0.162 A 
ATOM      6  C5  UNL d   1      -1.297  -1.096  -3.241  0.00  0.00     0.062 A 
ATOM      7  F   UNL d   1      -0.573  -2.174  -3.573  0.00  0.00    -0.097 F 
ATOM      8  F1  UNL d   1      -1.698  -0.663  -5.520  0.00  0.00    -0.096 F 
ATOM      9  I   UNL d   1      -3.500   1.978  -5.388  0.00  0.00    -0.060 I 
ATOM     10  F2  UNL d   1      -3.517   2.214  -2.196  0.00  0.00    -0.096 F 
ATOM     11  F3  UNL d   1      -2.380   0.683  -0.273  0.00  0.00    -0.097 F 
ATOM     12  F4  UNL d   1      -0.907  -1.512  -0.948  0.00  0.00    -0.092 F 
ENDROOT
TORSDOF 0
ENDMDL
