MODEL 1
REMARK minimizedAffinity 14.6102505
REMARK minimizedRMSD -1
REMARK  0 active torsions:
REMARK  status: ('A' for Active; 'I' for Inactive)
ROOT
ATOM      1  C   UNL d   1      -0.791   3.733   0.155  0.00  0.00     0.124 A 
ATOM      2  C1  UNL d   1       0.460   4.101   0.631  0.00  0.00     0.062 A 
ATOM      3  C2  UNL d   1       1.126   3.293   1.548  0.00  0.00     0.162 A 
ATOM      4  C3  UNL d   1       0.543   2.108   1.996  0.00  0.00    -0.034 A 
ATOM      5  C4  UNL d   1      -0.716   1.744   1.513  0.00  0.00     0.162 A 
ATOM      6  C5  UNL d   1      -1.377   2.555   0.597  0.00  0.00     0.062 A 
ATOM      7  F   UNL d   1      -2.586   2.197   0.138  0.00  0.00    -0.097 F 
ATOM      8  F1  UNL d   1      -1.306   0.611   1.922  0.00  0.00    -0.096 F 
ATOM      9  I   UNL d   1       1.535   0.897   3.367  0.00  0.00    -0.060 I 
ATOM     10  F2  UNL d   1       2.333   3.674   1.991  0.00  0.00    -0.096 F 
ATOM     11  F3  UNL d   1       1.029   5.239   0.207  0.00  0.00    -0.097 F 
ATOM     12  F4  UNL d   1      -1.429   4.512  -0.726  0.00  0.00    -0.092 F 
ENDROOT
TORSDOF 0
ENDMDL
