MODEL 1
REMARK minimizedAffinity 9.39532471
REMARK minimizedRMSD -1
REMARK  0 active torsions:
REMARK  status: ('A' for Active; 'I' for Inactive)
ROOT
ATOM      1  C   UNL d   1      -2.587   1.203   1.658  0.00  0.00     0.124 A 
ATOM      2  C1  UNL d   1      -3.044   1.879   0.535  0.00  0.00     0.062 A 
ATOM      3  C2  UNL d   1      -2.278   2.893  -0.032  0.00  0.00     0.162 A 
ATOM      4  C3  UNL d   1      -1.046   3.238   0.522  0.00  0.00    -0.034 A 
ATOM      5  C4  UNL d   1      -0.592   2.555   1.652  0.00  0.00     0.162 A 
ATOM      6  C5  UNL d   1      -1.362   1.542   2.216  0.00  0.00     0.062 A 
ATOM      7  F   UNL d   1      -0.918   0.891   3.301  0.00  0.00    -0.097 F 
ATOM      8  F1  UNL d   1       0.588   2.861   2.211  0.00  0.00    -0.096 F 
ATOM      9  I   UNL d   1       0.103   4.754  -0.323  0.00  0.00    -0.060 I 
ATOM     10  F2  UNL d   1      -2.745   3.528  -1.117  0.00  0.00    -0.096 F 
ATOM     11  F3  UNL d   1      -4.228   1.554  -0.005  0.00  0.00    -0.097 F 
ATOM     12  F4  UNL d   1      -3.326   0.229   2.203  0.00  0.00    -0.092 F 
ENDROOT
TORSDOF 0
ENDMDL
