MODEL 1
REMARK minimizedAffinity 31.5766716
REMARK minimizedRMSD -1
REMARK  0 active torsions:
REMARK  status: ('A' for Active; 'I' for Inactive)
ROOT
ATOM      1  C   UNL d   1      -0.409   3.809   0.384  0.00  0.00     0.124 A 
ATOM      2  C1  UNL d   1       0.796   4.492   0.289  0.00  0.00     0.062 A 
ATOM      3  C2  UNL d   1       1.815   4.243   1.204  0.00  0.00     0.162 A 
ATOM      4  C3  UNL d   1       1.634   3.307   2.222  0.00  0.00    -0.034 A 
ATOM      5  C4  UNL d   1       0.419   2.625   2.312  0.00  0.00     0.162 A 
ATOM      6  C5  UNL d   1      -0.596   2.877   1.395  0.00  0.00     0.062 A 
ATOM      7  F   UNL d   1      -1.760   2.217   1.488  0.00  0.00    -0.097 F 
ATOM      8  F1  UNL d   1       0.211   1.719   3.278  0.00  0.00    -0.096 F 
ATOM      9  I   UNL d   1       3.155   2.933   3.593  0.00  0.00    -0.060 I 
ATOM     10  F2  UNL d   1       2.969   4.917   1.089  0.00  0.00    -0.096 F 
ATOM     11  F3  UNL d   1       0.980   5.393  -0.686  0.00  0.00    -0.097 F 
ATOM     12  F4  UNL d   1      -1.388   4.051  -0.498  0.00  0.00    -0.092 F 
ENDROOT
TORSDOF 0
ENDMDL
