MODEL 1
REMARK minimizedAffinity 26.7161655
REMARK minimizedRMSD -1
REMARK  0 active torsions:
REMARK  status: ('A' for Active; 'I' for Inactive)
ROOT
ATOM      1  C   UNL d   1      -0.058   3.891  -0.104  0.00  0.00     0.124 A 
ATOM      2  C1  UNL d   1       0.831   4.950   0.014  0.00  0.00     0.062 A 
ATOM      3  C2  UNL d   1       1.821   4.927   0.992  0.00  0.00     0.162 A 
ATOM      4  C3  UNL d   1       1.928   3.840   1.859  0.00  0.00    -0.034 A 
ATOM      5  C4  UNL d   1       1.030   2.778   1.734  0.00  0.00     0.162 A 
ATOM      6  C5  UNL d   1       0.042   2.806   0.755  0.00  0.00     0.062 A 
ATOM      7  F   UNL d   1      -0.816   1.782   0.642  0.00  0.00    -0.097 F 
ATOM      8  F1  UNL d   1       1.105   1.717   2.552  0.00  0.00    -0.096 F 
ATOM      9  I   UNL d   1       3.407   3.801   3.323  0.00  0.00    -0.060 I 
ATOM     10  F2  UNL d   1       2.666   5.965   1.084  0.00  0.00    -0.096 F 
ATOM     11  F3  UNL d   1       0.735   6.000  -0.815  0.00  0.00    -0.097 F 
ATOM     12  F4  UNL d   1      -1.010   3.916  -1.046  0.00  0.00    -0.092 F 
ENDROOT
TORSDOF 0
ENDMDL
