MODEL 1
REMARK minimizedAffinity 21.6251469
REMARK minimizedRMSD -1
REMARK  0 active torsions:
REMARK  status: ('A' for Active; 'I' for Inactive)
ROOT
ATOM      1  C   UNL d   1       4.327  -1.494  -0.273  0.00  0.00     0.124 A 
ATOM      2  C1  UNL d   1       4.844  -2.434  -1.153  0.00  0.00     0.062 A 
ATOM      3  C2  UNL d   1       4.167  -3.629  -1.378  0.00  0.00     0.162 A 
ATOM      4  C3  UNL d   1       2.965  -3.891  -0.722  0.00  0.00    -0.034 A 
ATOM      5  C4  UNL d   1       2.451  -2.941   0.163  0.00  0.00     0.162 A 
ATOM      6  C5  UNL d   1       3.132  -1.749   0.385  0.00  0.00     0.062 A 
ATOM      7  F   UNL d   1       2.631  -0.842   1.236  0.00  0.00    -0.097 F 
ATOM      8  F1  UNL d   1       1.298  -3.161   0.811  0.00  0.00    -0.096 F 
ATOM      9  I   UNL d   1       1.949  -5.677  -1.056  0.00  0.00    -0.060 I 
ATOM     10  F2  UNL d   1       4.690  -4.520  -2.235  0.00  0.00    -0.096 F 
ATOM     11  F3  UNL d   1       6.000  -2.191  -1.789  0.00  0.00    -0.097 F 
ATOM     12  F4  UNL d   1       4.981  -0.346  -0.057  0.00  0.00    -0.092 F 
ENDROOT
TORSDOF 0
ENDMDL
