MODEL 1
REMARK minimizedAffinity 21.9853249
REMARK minimizedRMSD -1
REMARK  0 active torsions:
REMARK  status: ('A' for Active; 'I' for Inactive)
ROOT
ATOM      1  C   UNL d   1       1.211   2.704   1.480  0.00  0.00     0.124 A 
ATOM      2  C1  UNL d   1       1.816   3.905   1.136  0.00  0.00     0.062 A 
ATOM      3  C2  UNL d   1       1.123   4.848   0.382  0.00  0.00     0.162 A 
ATOM      4  C3  UNL d   1      -0.184   4.593  -0.034  0.00  0.00    -0.034 A 
ATOM      5  C4  UNL d   1      -0.785   3.383   0.314  0.00  0.00     0.162 A 
ATOM      6  C5  UNL d   1      -0.089   2.444   1.068  0.00  0.00     0.062 A 
ATOM      7  F   UNL d   1      -0.675   1.284   1.399  0.00  0.00    -0.097 F 
ATOM      8  F1  UNL d   1      -2.041   3.106  -0.069  0.00  0.00    -0.096 F 
ATOM      9  I   UNL d   1      -1.223   6.000  -1.162  0.00  0.00    -0.060 I 
ATOM     10  F2  UNL d   1       1.732   6.000   0.065  0.00  0.00    -0.096 F 
ATOM     11  F3  UNL d   1       3.072   4.159   1.532  0.00  0.00    -0.097 F 
ATOM     12  F4  UNL d   1       1.880   1.799   2.205  0.00  0.00    -0.092 F 
ENDROOT
TORSDOF 0
ENDMDL
