MODEL 1
REMARK minimizedAffinity 4.61883593
REMARK minimizedRMSD -1
REMARK  0 active torsions:
REMARK  status: ('A' for Active; 'I' for Inactive)
ROOT
ATOM      1  C1  BNZ d   1      -6.000   3.725  -3.218  0.00  0.00     0.000 A 
ATOM      2  C2  BNZ d   1      -5.316   2.770  -2.513  0.00  0.00     0.000 A 
ATOM      3  C3  BNZ d   1      -4.607   1.797  -3.160  0.00  0.00     0.000 A 
ATOM      4  C4  BNZ d   1      -4.614   1.757  -4.508  0.00  0.00     0.000 A 
ATOM      5  C5  BNZ d   1      -5.306   2.707  -5.232  0.00  0.00     0.000 A 
ATOM      6  C6  BNZ d   1      -5.987   3.708  -4.578  0.00  0.00     0.000 A 
ENDROOT
TORSDOF 0
ENDMDL
