MODEL 1
REMARK minimizedAffinity -0.540045679
REMARK minimizedRMSD -1
REMARK  0 active torsions:
REMARK  status: ('A' for Active; 'I' for Inactive)
ROOT
ATOM      1  C1  BNZ d   1       2.649  -2.171   4.944  0.00  0.00     0.000 A 
ATOM      2  C2  BNZ d   1       1.794  -1.467   4.138  0.00  0.00     0.000 A 
ATOM      3  C3  BNZ d   1       2.268  -0.735   3.085  0.00  0.00     0.000 A 
ATOM      4  C4  BNZ d   1       3.597  -0.676   2.864  0.00  0.00     0.000 A 
ATOM      5  C5  BNZ d   1       4.472  -1.373   3.673  0.00  0.00     0.000 A 
ATOM      6  C6  BNZ d   1       3.989  -2.139   4.708  0.00  0.00     0.000 A 
ENDROOT
TORSDOF 0
ENDMDL
