MODEL 1
REMARK minimizedAffinity 2.36018538
REMARK minimizedRMSD -1
REMARK  0 active torsions:
REMARK  status: ('A' for Active; 'I' for Inactive)
ROOT
ATOM      1  C1  BNZ d   1       1.514  -0.400   3.758  0.00  0.00     0.000 A 
ATOM      2  C2  BNZ d   1       1.900  -1.461   4.533  0.00  0.00     0.000 A 
ATOM      3  C3  BNZ d   1       2.926  -2.275   4.144  0.00  0.00     0.000 A 
ATOM      4  C4  BNZ d   1       3.538  -2.053   2.962  0.00  0.00     0.000 A 
ATOM      5  C5  BNZ d   1       3.154  -0.993   2.165  0.00  0.00     0.000 A 
ATOM      6  C6  BNZ d   1       2.146  -0.152   2.579  0.00  0.00     0.000 A 
ENDROOT
TORSDOF 0
ENDMDL
