MODEL 1
REMARK minimizedAffinity 3.8035078
REMARK minimizedRMSD -1
REMARK  0 active torsions:
REMARK  status: ('A' for Active; 'I' for Inactive)
ROOT
ATOM      1  C1  BNZ d   1      -5.999   0.103  -3.357  0.00  0.00     0.000 A 
ATOM      2  C2  BNZ d   1      -5.999   1.348  -2.787  0.00  0.00     0.000 A 
ATOM      3  C3  BNZ d   1      -5.675   2.454  -3.522  0.00  0.00     0.000 A 
ATOM      4  C4  BNZ d   1      -5.315   2.310  -4.813  0.00  0.00     0.000 A 
ATOM      5  C5  BNZ d   1      -5.302   1.060  -5.400  0.00  0.00     0.000 A 
ATOM      6  C6  BNZ d   1      -5.665  -0.047  -4.668  0.00  0.00     0.000 A 
ENDROOT
TORSDOF 0
ENDMDL
