MODEL 1
REMARK minimizedAffinity 4.51043415
REMARK minimizedRMSD -1
REMARK  0 active torsions:
REMARK  status: ('A' for Active; 'I' for Inactive)
ROOT
ATOM      1  C1  BNZ d   1       3.347  -4.635   3.997  0.00  0.00     0.000 A 
ATOM      2  C2  BNZ d   1       2.276  -3.811   4.217  0.00  0.00     0.000 A 
ATOM      3  C3  BNZ d   1       2.383  -2.460   4.036  0.00  0.00     0.000 A 
ATOM      4  C4  BNZ d   1       3.569  -1.932   3.674  0.00  0.00     0.000 A 
ATOM      5  C5  BNZ d   1       4.661  -2.749   3.457  0.00  0.00     0.000 A 
ATOM      6  C6  BNZ d   1       4.540  -4.112   3.603  0.00  0.00     0.000 A 
ENDROOT
TORSDOF 0
ENDMDL
