MODEL 1
REMARK minimizedAffinity 5.34765244
REMARK minimizedRMSD -1
REMARK  0 active torsions:
REMARK  status: ('A' for Active; 'I' for Inactive)
ROOT
ATOM      1  C1  BNZ d   1      -4.476  -2.230  -4.852  0.00  0.00     0.000 A 
ATOM      2  C2  BNZ d   1      -5.201  -2.603  -3.751  0.00  0.00     0.000 A 
ATOM      3  C3  BNZ d   1      -5.944  -3.750  -3.759  0.00  0.00     0.000 A 
ATOM      4  C4  BNZ d   1      -5.994  -4.500  -4.879  0.00  0.00     0.000 A 
ATOM      5  C5  BNZ d   1      -5.277  -4.132  -6.000  0.00  0.00     0.000 A 
ATOM      6  C6  BNZ d   1      -4.499  -2.997  -5.975  0.00  0.00     0.000 A 
ENDROOT
TORSDOF 0
ENDMDL
