MODEL 1
REMARK minimizedAffinity 5.34415627
REMARK minimizedRMSD -1
REMARK  0 active torsions:
REMARK  status: ('A' for Active; 'I' for Inactive)
ROOT
ATOM      1  C1  BNZ d   1       1.535  -1.604   1.437  0.00  0.00     0.000 A 
ATOM      2  C2  BNZ d   1       1.838  -2.631   2.290  0.00  0.00     0.000 A 
ATOM      3  C3  BNZ d   1       2.390  -2.383   3.516  0.00  0.00     0.000 A 
ATOM      4  C4  BNZ d   1       2.674  -1.113   3.870  0.00  0.00     0.000 A 
ATOM      5  C5  BNZ d   1       2.382  -0.067   3.017  0.00  0.00     0.000 A 
ATOM      6  C6  BNZ d   1       1.791  -0.318   1.800  0.00  0.00     0.000 A 
ENDROOT
TORSDOF 0
ENDMDL
