MODEL 1
REMARK minimizedAffinity -2.33158708
REMARK minimizedRMSD -1
REMARK  0 active torsions:
REMARK  status: ('A' for Active; 'I' for Inactive)
ROOT
ATOM      1  C1  BNZ d   1       4.398  -5.993  -3.392  0.00  0.00     0.000 A 
ATOM      2  C2  BNZ d   1       4.849  -5.998  -4.685  0.00  0.00     0.000 A 
ATOM      3  C3  BNZ d   1       3.972  -5.979  -5.733  0.00  0.00     0.000 A 
ATOM      4  C4  BNZ d   1       2.646  -5.995  -5.487  0.00  0.00     0.000 A 
ATOM      5  C5  BNZ d   1       2.175  -6.000  -4.190  0.00  0.00     0.000 A 
ATOM      6  C6  BNZ d   1       3.061  -5.980  -3.137  0.00  0.00     0.000 A 
ENDROOT
TORSDOF 0
ENDMDL
