MODEL 1
REMARK minimizedAffinity -2.92987251
REMARK minimizedRMSD -1
REMARK  0 active torsions:
REMARK  status: ('A' for Active; 'I' for Inactive)
ROOT
ATOM      1  C   UNL d   1       0.890   0.803  -1.686  0.00  0.00     0.023 A 
ATOM      2  C1  UNL d   1       1.879   1.068  -0.739  0.00  0.00     0.003 A 
ATOM      3  C2  UNL d   1       1.604   0.916   0.622  0.00  0.00     0.048 A 
ATOM      4  C3  UNL d   1       0.337   0.498   1.028  0.00  0.00     0.023 A 
ATOM      5  C4  UNL d   1      -0.656   0.231   0.084  0.00  0.00     0.048 A 
ATOM      6  C5  UNL d   1      -0.376   0.385  -1.275  0.00  0.00     0.003 A 
ATOM      7  I   UNL d   1      -0.075   0.271   3.053  0.00  0.00    -0.146 I 
ENDROOT
TORSDOF 0
ENDMDL
