MODEL 1
REMARK minimizedAffinity -3.62429953
REMARK minimizedRMSD -1
REMARK  0 active torsions:
REMARK  status: ('A' for Active; 'I' for Inactive)
ROOT
ATOM      1  C   UNL d   1      -0.762  -0.877   2.997  0.00  0.00     0.023 A 
ATOM      2  C1  UNL d   1      -1.642  -1.184   1.958  0.00  0.00     0.003 A 
ATOM      3  C2  UNL d   1      -1.398  -0.703   0.670  0.00  0.00     0.048 A 
ATOM      4  C3  UNL d   1      -0.272   0.083   0.427  0.00  0.00     0.023 A 
ATOM      5  C4  UNL d   1       0.612   0.391   1.463  0.00  0.00     0.048 A 
ATOM      6  C5  UNL d   1       0.363  -0.091   2.749  0.00  0.00     0.003 A 
ATOM      7  I   UNL d   1       0.093   0.799  -1.490  0.00  0.00    -0.146 I 
ENDROOT
TORSDOF 0
ENDMDL
