MODEL 1
REMARK minimizedAffinity -4.24565125
REMARK minimizedRMSD -1
REMARK  0 active torsions:
REMARK  status: ('A' for Active; 'I' for Inactive)
ROOT
ATOM      1  C   UNL d   1      -0.063   0.028   2.269  0.00  0.00     0.023 A 
ATOM      2  C1  UNL d   1       0.988   0.896   1.975  0.00  0.00     0.003 A 
ATOM      3  C2  UNL d   1       1.409   1.062   0.654  0.00  0.00     0.048 A 
ATOM      4  C3  UNL d   1       0.773   0.358  -0.368  0.00  0.00     0.023 A 
ATOM      5  C4  UNL d   1      -0.280  -0.511  -0.079  0.00  0.00     0.048 A 
ATOM      6  C5  UNL d   1      -0.696  -0.675   1.243  0.00  0.00     0.003 A 
ATOM      7  I   UNL d   1       1.398   0.604  -2.336  0.00  0.00    -0.146 I 
ENDROOT
TORSDOF 0
ENDMDL
