MODEL 1
REMARK minimizedAffinity -3.26284027
REMARK minimizedRMSD -1
REMARK  0 active torsions:
REMARK  status: ('A' for Active; 'I' for Inactive)
ROOT
ATOM      1  C   UNL d   1       2.530  -1.465  -3.772  0.00  0.00     0.023 A 
ATOM      2  C1  UNL d   1       3.087  -0.273  -3.311  0.00  0.00     0.003 A 
ATOM      3  C2  UNL d   1       2.524   0.385  -2.215  0.00  0.00     0.048 A 
ATOM      4  C3  UNL d   1       1.404  -0.157  -1.585  0.00  0.00     0.023 A 
ATOM      5  C4  UNL d   1       0.843  -1.350  -2.043  0.00  0.00     0.048 A 
ATOM      6  C5  UNL d   1       1.410  -2.004  -3.139  0.00  0.00     0.003 A 
ATOM      7  I   UNL d   1       0.563   0.820   0.046  0.00  0.00    -0.146 I 
ENDROOT
TORSDOF 0
ENDMDL
