MODEL 1
REMARK minimizedAffinity -2.57769775
REMARK minimizedRMSD -1
REMARK  0 active torsions:
REMARK  status: ('A' for Active; 'I' for Inactive)
ROOT
ATOM      1  C   UNL d   1      -0.391   0.262   2.014  0.00  0.00     0.023 A 
ATOM      2  C1  UNL d   1       0.813   0.707   1.468  0.00  0.00     0.003 A 
ATOM      3  C2  UNL d   1       0.980   0.750   0.083  0.00  0.00     0.048 A 
ATOM      4  C3  UNL d   1      -0.063   0.349  -0.752  0.00  0.00     0.023 A 
ATOM      5  C4  UNL d   1      -1.270  -0.096  -0.211  0.00  0.00     0.048 A 
ATOM      6  C5  UNL d   1      -1.432  -0.138   1.175  0.00  0.00     0.003 A 
ATOM      7  I   UNL d   1       0.183   0.413  -2.815  0.00  0.00    -0.146 I 
ENDROOT
TORSDOF 0
ENDMDL
