MODEL 1
REMARK minimizedAffinity -2.73886585
REMARK minimizedRMSD -1
REMARK  0 active torsions:
REMARK  status: ('A' for Active; 'I' for Inactive)
ROOT
ATOM      1  C   UNL d   1      -1.312   0.998   0.981  0.00  0.00     0.023 A 
ATOM      2  C1  UNL d   1       0.061   0.879   1.194  0.00  0.00     0.003 A 
ATOM      3  C2  UNL d   1       0.945   0.943   0.115  0.00  0.00     0.048 A 
ATOM      4  C3  UNL d   1       0.449   1.126  -1.175  0.00  0.00     0.023 A 
ATOM      5  C4  UNL d   1      -0.924   1.247  -1.394  0.00  0.00     0.048 A 
ATOM      6  C5  UNL d   1      -1.804   1.182  -0.312  0.00  0.00     0.003 A 
ATOM      7  I   UNL d   1       1.763   1.221  -2.783  0.00  0.00    -0.146 I 
ENDROOT
TORSDOF 0
ENDMDL
