MODEL 1
REMARK minimizedAffinity -0.733814061
REMARK minimizedRMSD -1
REMARK  0 active torsions:
REMARK  status: ('A' for Active; 'I' for Inactive)
ROOT
ATOM      1  C   UNL d   1       1.573   0.333   2.534  0.00  0.00     0.023 A 
ATOM      2  C1  UNL d   1       0.302  -0.165   2.821  0.00  0.00     0.003 A 
ATOM      3  C2  UNL d   1      -0.715  -0.078   1.867  0.00  0.00     0.048 A 
ATOM      4  C3  UNL d   1      -0.454   0.507   0.629  0.00  0.00     0.023 A 
ATOM      5  C4  UNL d   1       0.817   1.006   0.337  0.00  0.00     0.048 A 
ATOM      6  C5  UNL d   1       1.830   0.918   1.294  0.00  0.00     0.003 A 
ATOM      7  I   UNL d   1      -1.965   0.637  -0.792  0.00  0.00    -0.146 I 
ENDROOT
TORSDOF 0
ENDMDL
