MODEL 1
REMARK minimizedAffinity -3.41232204
REMARK minimizedRMSD -1
REMARK  0 active torsions:
REMARK  status: ('A' for Active; 'I' for Inactive)
ROOT
ATOM      1  C   UNL d   1       3.589   1.202  -3.844  0.00  0.00     0.023 A 
ATOM      2  C1  UNL d   1       2.298   1.144  -3.320  0.00  0.00     0.003 A 
ATOM      3  C2  UNL d   1       1.617  -0.074  -3.272  0.00  0.00     0.048 A 
ATOM      4  C3  UNL d   1       2.234  -1.230  -3.749  0.00  0.00     0.023 A 
ATOM      5  C4  UNL d   1       3.526  -1.177  -4.273  0.00  0.00     0.048 A 
ATOM      6  C5  UNL d   1       4.203   0.044  -4.320  0.00  0.00     0.003 A 
ATOM      7  I   UNL d   1       1.222  -3.044  -3.678  0.00  0.00    -0.146 I 
ENDROOT
TORSDOF 0
ENDMDL
