MODEL 1
REMARK minimizedAffinity 5.60442019
REMARK minimizedRMSD -1
REMARK  0 active torsions:
REMARK  status: ('A' for Active; 'I' for Inactive)
ROOT
ATOM      1  C   UNL d   1      -0.896   0.336   3.052  0.00  0.00     0.023 A 
ATOM      2  C1  UNL d   1      -0.043  -0.635   3.578  0.00  0.00     0.003 A 
ATOM      3  C2  UNL d   1       1.303  -0.659   3.207  0.00  0.00     0.048 A 
ATOM      4  C3  UNL d   1       1.790   0.292   2.310  0.00  0.00     0.023 A 
ATOM      5  C4  UNL d   1       0.940   1.266   1.782  0.00  0.00     0.048 A 
ATOM      6  C5  UNL d   1      -0.405   1.285   2.156  0.00  0.00     0.003 A 
ATOM      7  I   UNL d   1       3.793   0.258   1.757  0.00  0.00    -0.146 I 
ENDROOT
TORSDOF 0
ENDMDL
