MODEL 1
REMARK minimizedAffinity 4.07334137
REMARK minimizedRMSD -1
REMARK  0 active torsions:
REMARK  status: ('A' for Active; 'I' for Inactive)
ROOT
ATOM      1  C   UNL d   1      -3.704  -0.570  -0.064  0.00  0.00     0.023 A 
ATOM      2  C1  UNL d   1      -3.074   0.654  -0.290  0.00  0.00     0.003 A 
ATOM      3  C2  UNL d   1      -3.007   1.605   0.731  0.00  0.00     0.048 A 
ATOM      4  C3  UNL d   1      -3.570   1.325   1.975  0.00  0.00     0.023 A 
ATOM      5  C4  UNL d   1      -4.201   0.101   2.206  0.00  0.00     0.048 A 
ATOM      6  C5  UNL d   1      -4.266  -0.846   1.182  0.00  0.00     0.003 A 
ATOM      7  I   UNL d   1      -3.471   2.738   3.496  0.00  0.00    -0.146 I 
ENDROOT
TORSDOF 0
ENDMDL
