MODEL 1
REMARK minimizedAffinity -3.48000097
REMARK minimizedRMSD -1
REMARK  0 active torsions:
REMARK  status: ('A' for Active; 'I' for Inactive)
ROOT
ATOM      1  C   UNL d   1       0.395   0.359   2.597  0.00  0.00     0.023 A 
ATOM      2  C1  UNL d   1      -0.717  -0.011   1.841  0.00  0.00     0.003 A 
ATOM      3  C2  UNL d   1      -0.560  -0.394   0.508  0.00  0.00     0.048 A 
ATOM      4  C3  UNL d   1       0.712  -0.406  -0.063  0.00  0.00     0.023 A 
ATOM      5  C4  UNL d   1       1.828  -0.037   0.689  0.00  0.00     0.048 A 
ATOM      6  C5  UNL d   1       1.666   0.346   2.022  0.00  0.00     0.003 A 
ATOM      7  I   UNL d   1       0.948  -0.975  -2.048  0.00  0.00    -0.146 I 
ENDROOT
TORSDOF 0
ENDMDL
