MODEL 1
REMARK minimizedAffinity -3.65168118
REMARK minimizedRMSD -1
REMARK  0 active torsions:
REMARK  status: ('A' for Active; 'I' for Inactive)
ROOT
ATOM      1  C   UNL d   1      -0.894   0.446  -2.100  0.00  0.00     0.023 A 
ATOM      2  C1  UNL d   1       0.401   0.519  -1.586  0.00  0.00     0.003 A 
ATOM      3  C2  UNL d   1       0.612   0.423  -0.209  0.00  0.00     0.048 A 
ATOM      4  C3  UNL d   1      -0.475   0.253   0.648  0.00  0.00     0.023 A 
ATOM      5  C4  UNL d   1      -1.772   0.179   0.137  0.00  0.00     0.048 A 
ATOM      6  C5  UNL d   1      -1.979   0.276  -1.240  0.00  0.00     0.003 A 
ATOM      7  I   UNL d   1      -0.163   0.110   2.697  0.00  0.00    -0.146 I 
ENDROOT
TORSDOF 0
ENDMDL
