MODEL 1
REMARK minimizedAffinity -4.38776493
REMARK minimizedRMSD -1
REMARK  0 active torsions:
REMARK  status: ('A' for Active; 'I' for Inactive)
ROOT
ATOM      1  C   UNL d   1       0.727  -1.093   2.735  0.00  0.00     0.023 A 
ATOM      2  C1  UNL d   1       1.207  -1.080   1.425  0.00  0.00     0.003 A 
ATOM      3  C2  UNL d   1       0.455  -0.485   0.410  0.00  0.00     0.048 A 
ATOM      4  C3  UNL d   1      -0.776   0.096   0.712  0.00  0.00     0.023 A 
ATOM      5  C4  UNL d   1      -1.260   0.086   2.021  0.00  0.00     0.048 A 
ATOM      6  C5  UNL d   1      -0.505  -0.511   3.032  0.00  0.00     0.003 A 
ATOM      7  I   UNL d   1      -1.897   0.982  -0.797  0.00  0.00    -0.146 I 
ENDROOT
TORSDOF 0
ENDMDL
