MODEL 1
REMARK minimizedAffinity -1.70747793
REMARK minimizedRMSD -1
REMARK  0 active torsions:
REMARK  status: ('A' for Active; 'I' for Inactive)
ROOT
ATOM      1  C   UNL d   1       1.508   0.516   2.888  0.00  0.00     0.023 A 
ATOM      2  C1  UNL d   1       0.121   0.533   3.034  0.00  0.00     0.003 A 
ATOM      3  C2  UNL d   1      -0.701   0.560   1.906  0.00  0.00     0.048 A 
ATOM      4  C3  UNL d   1      -0.130   0.570   0.634  0.00  0.00     0.023 A 
ATOM      5  C4  UNL d   1       1.258   0.553   0.483  0.00  0.00     0.048 A 
ATOM      6  C5  UNL d   1       2.076   0.526   1.614  0.00  0.00     0.003 A 
ATOM      7  I   UNL d   1      -1.352   0.610  -1.047  0.00  0.00    -0.146 I 
ENDROOT
TORSDOF 0
ENDMDL
