MODEL 1
REMARK minimizedAffinity -1.42720413
REMARK minimizedRMSD -1
REMARK  0 active torsions:
REMARK  status: ('A' for Active; 'I' for Inactive)
ROOT
ATOM      1  C   UNL d   1      -0.642  -0.023   1.338  0.00  0.00     0.023 A 
ATOM      2  C1  UNL d   1      -0.794   0.724   0.170  0.00  0.00     0.003 A 
ATOM      3  C2  UNL d   1      -0.280   0.247  -1.038  0.00  0.00     0.048 A 
ATOM      4  C3  UNL d   1       0.384  -0.979  -1.070  0.00  0.00     0.023 A 
ATOM      5  C4  UNL d   1       0.537  -1.731   0.096  0.00  0.00     0.048 A 
ATOM      6  C5  UNL d   1       0.022  -1.249   1.301  0.00  0.00     0.003 A 
ATOM      7  I   UNL d   1       1.150  -1.691  -2.867  0.00  0.00    -0.146 I 
ENDROOT
TORSDOF 0
ENDMDL
