MODEL 1
REMARK minimizedAffinity -3.99225473
REMARK minimizedRMSD -1
REMARK  0 active torsions:
REMARK  status: ('A' for Active; 'I' for Inactive)
ROOT
ATOM      1  C   UNL d   1      -0.722  -0.105   2.764  0.00  0.00     0.023 A 
ATOM      2  C1  UNL d   1       0.605   0.167   2.432  0.00  0.00     0.003 A 
ATOM      3  C2  UNL d   1       1.014   0.123   1.097  0.00  0.00     0.048 A 
ATOM      4  C3  UNL d   1       0.092  -0.193   0.101  0.00  0.00     0.023 A 
ATOM      5  C4  UNL d   1      -1.237  -0.465   0.429  0.00  0.00     0.048 A 
ATOM      6  C5  UNL d   1      -1.642  -0.420   1.764  0.00  0.00     0.003 A 
ATOM      7  I   UNL d   1       0.699  -0.259  -1.886  0.00  0.00    -0.146 I 
ENDROOT
TORSDOF 0
ENDMDL
