MODEL 1
REMARK minimizedAffinity -3.85271502
REMARK minimizedRMSD -1
REMARK  0 active torsions:
REMARK  status: ('A' for Active; 'I' for Inactive)
ROOT
ATOM      1  C   UNL d   1       0.709  -1.090   1.160  0.00  0.00     0.124 A 
ATOM      2  C1  UNL d   1       1.689  -0.566   0.329  0.00  0.00     0.062 A 
ATOM      3  C2  UNL d   1       1.467   0.630  -0.349  0.00  0.00     0.162 A 
ATOM      4  C3  UNL d   1       0.259   1.311  -0.197  0.00  0.00    -0.034 A 
ATOM      5  C4  UNL d   1      -0.722   0.777   0.640  0.00  0.00     0.162 A 
ATOM      6  C5  UNL d   1      -0.495  -0.418   1.315  0.00  0.00     0.062 A 
ATOM      7  F   UNL d   1      -1.444  -0.923   2.118  0.00  0.00    -0.097 F 
ATOM      8  F1  UNL d   1      -1.895   1.406   0.809  0.00  0.00    -0.096 F 
ATOM      9  I   UNL d   1      -0.077   3.099  -1.208  0.00  0.00    -0.060 I 
ATOM     10  F2  UNL d   1       2.432   1.113  -1.145  0.00  0.00    -0.096 F 
ATOM     11  F3  UNL d   1       2.854  -1.213   0.176  0.00  0.00    -0.097 F 
ATOM     12  F4  UNL d   1       0.925  -2.241   1.810  0.00  0.00    -0.092 F 
ENDROOT
TORSDOF 0
ENDMDL
