MODEL 1
REMARK minimizedAffinity -4.61828518
REMARK minimizedRMSD -1
REMARK  0 active torsions:
REMARK  status: ('A' for Active; 'I' for Inactive)
ROOT
ATOM      1  C   UNL d   1      -0.430  -0.626   1.204  0.00  0.00     0.124 A 
ATOM      2  C1  UNL d   1      -0.277   0.469   0.365  0.00  0.00     0.062 A 
ATOM      3  C2  UNL d   1       0.913   0.656  -0.333  0.00  0.00     0.162 A 
ATOM      4  C3  UNL d   1       1.960  -0.256  -0.195  0.00  0.00    -0.034 A 
ATOM      5  C4  UNL d   1       1.799  -1.354   0.652  0.00  0.00     0.162 A 
ATOM      6  C5  UNL d   1       0.608  -1.536   1.347  0.00  0.00     0.062 A 
ATOM      7  F   UNL d   1       0.462  -2.594   2.158  0.00  0.00    -0.097 F 
ATOM      8  F1  UNL d   1       2.786  -2.249   0.808  0.00  0.00    -0.096 F 
ATOM      9  I   UNL d   1       3.741   0.019  -1.237  0.00  0.00    -0.060 I 
ATOM     10  F2  UNL d   1       1.033   1.722  -1.137  0.00  0.00    -0.096 F 
ATOM     11  F3  UNL d   1      -1.278   1.350   0.226  0.00  0.00    -0.097 F 
ATOM     12  F4  UNL d   1      -1.575  -0.802   1.875  0.00  0.00    -0.092 F 
ENDROOT
TORSDOF 0
ENDMDL
