MODEL 1
REMARK minimizedAffinity -3.10700655
REMARK minimizedRMSD -1
REMARK  0 active torsions:
REMARK  status: ('A' for Active; 'I' for Inactive)
ROOT
ATOM      1  C   UNL d   1      -1.305   2.417  -2.897  0.00  0.00     0.124 A 
ATOM      2  C1  UNL d   1      -1.781   1.114  -2.919  0.00  0.00     0.062 A 
ATOM      3  C2  UNL d   1      -1.580   0.276  -1.825  0.00  0.00     0.162 A 
ATOM      4  C3  UNL d   1      -0.900   0.741  -0.699  0.00  0.00    -0.034 A 
ATOM      5  C4  UNL d   1      -0.423   2.053  -0.685  0.00  0.00     0.162 A 
ATOM      6  C5  UNL d   1      -0.627   2.886  -1.780  0.00  0.00     0.062 A 
ATOM      7  F   UNL d   1      -0.166   4.145  -1.757  0.00  0.00    -0.097 F 
ATOM      8  F1  UNL d   1       0.235   2.531   0.382  0.00  0.00    -0.096 F 
ATOM      9  I   UNL d   1      -0.596  -0.508   0.938  0.00  0.00    -0.060 I 
ATOM     10  F2  UNL d   1      -2.050  -0.979  -1.874  0.00  0.00    -0.096 F 
ATOM     11  F3  UNL d   1      -2.436   0.659  -3.997  0.00  0.00    -0.097 F 
ATOM     12  F4  UNL d   1      -1.499   3.220  -3.951  0.00  0.00    -0.092 F 
ENDROOT
TORSDOF 0
ENDMDL
