MODEL 1
REMARK minimizedAffinity -3.78559661
REMARK minimizedRMSD -1
REMARK  0 active torsions:
REMARK  status: ('A' for Active; 'I' for Inactive)
ROOT
ATOM      1  C   UNL d   1      -0.369  -0.623   1.293  0.00  0.00     0.124 A 
ATOM      2  C1  UNL d   1      -0.335   0.512   0.494  0.00  0.00     0.062 A 
ATOM      3  C2  UNL d   1       0.843   0.878  -0.151  0.00  0.00     0.162 A 
ATOM      4  C3  UNL d   1       1.997   0.108  -0.001  0.00  0.00    -0.034 A 
ATOM      5  C4  UNL d   1       1.955  -1.031   0.805  0.00  0.00     0.162 A 
ATOM      6  C5  UNL d   1       0.775  -1.393   1.447  0.00  0.00     0.062 A 
ATOM      7  F   UNL d   1       0.744  -2.490   2.218  0.00  0.00    -0.097 F 
ATOM      8  F1  UNL d   1       3.045  -1.794   0.971  0.00  0.00    -0.096 F 
ATOM      9  I   UNL d   1       3.760   0.653  -0.963  0.00  0.00    -0.060 I 
ATOM     10  F2  UNL d   1       0.847   1.980  -0.916  0.00  0.00    -0.096 F 
ATOM     11  F3  UNL d   1      -1.438   1.258   0.344  0.00  0.00    -0.097 F 
ATOM     12  F4  UNL d   1      -1.503  -0.973   1.913  0.00  0.00    -0.092 F 
ENDROOT
TORSDOF 0
ENDMDL
