MODEL 1
REMARK minimizedAffinity -2.1530776
REMARK minimizedRMSD -1
REMARK  0 active torsions:
REMARK  status: ('A' for Active; 'I' for Inactive)
ROOT
ATOM      1  C   UNL d   1       0.884  -1.452   1.267  0.00  0.00     0.124 A 
ATOM      2  C1  UNL d   1      -0.342  -0.846   1.509  0.00  0.00     0.062 A 
ATOM      3  C2  UNL d   1      -0.856   0.079   0.604  0.00  0.00     0.162 A 
ATOM      4  C3  UNL d   1      -0.146   0.403  -0.552  0.00  0.00    -0.034 A 
ATOM      5  C4  UNL d   1       1.086  -0.210  -0.787  0.00  0.00     0.162 A 
ATOM      6  C5  UNL d   1       1.596  -1.133   0.120  0.00  0.00     0.062 A 
ATOM      7  F   UNL d   1       2.780  -1.718  -0.115  0.00  0.00    -0.097 F 
ATOM      8  F1  UNL d   1       1.796   0.078  -1.889  0.00  0.00    -0.096 F 
ATOM      9  I   UNL d   1      -0.911   1.784  -1.907  0.00  0.00    -0.060 I 
ATOM     10  F2  UNL d   1      -2.042   0.648   0.863  0.00  0.00    -0.096 F 
ATOM     11  F3  UNL d   1      -1.032  -1.151   2.617  0.00  0.00    -0.097 F 
ATOM     12  F4  UNL d   1       1.377  -2.340   2.140  0.00  0.00    -0.092 F 
ENDROOT
TORSDOF 0
ENDMDL
