MODEL 1
REMARK minimizedAffinity 3.0027833
REMARK minimizedRMSD -1
REMARK  0 active torsions:
REMARK  status: ('A' for Active; 'I' for Inactive)
ROOT
ATOM      1  C   UNL d   1       2.505  -0.646   0.196  0.00  0.00     0.124 A 
ATOM      2  C1  UNL d   1       1.361  -1.186   0.767  0.00  0.00     0.062 A 
ATOM      3  C2  UNL d   1       0.111  -0.653   0.468  0.00  0.00     0.162 A 
ATOM      4  C3  UNL d   1      -0.003   0.427  -0.407  0.00  0.00    -0.034 A 
ATOM      5  C4  UNL d   1       1.153   0.967  -0.976  0.00  0.00     0.162 A 
ATOM      6  C5  UNL d   1       2.400   0.430  -0.674  0.00  0.00     0.062 A 
ATOM      7  F   UNL d   1       3.504   0.954  -1.226  0.00  0.00    -0.097 F 
ATOM      8  F1  UNL d   1       1.080   2.006  -1.821  0.00  0.00    -0.096 F 
ATOM      9  I   UNL d   1      -1.870   1.228  -0.856  0.00  0.00    -0.060 I 
ATOM     10  F2  UNL d   1      -0.978  -1.196   1.034  0.00  0.00    -0.096 F 
ATOM     11  F3  UNL d   1       1.461  -2.225   1.609  0.00  0.00    -0.097 F 
ATOM     12  F4  UNL d   1       3.707  -1.160   0.486  0.00  0.00    -0.092 F 
ENDROOT
TORSDOF 0
ENDMDL
