MODEL 1
REMARK minimizedAffinity -1.92084372
REMARK minimizedRMSD -1
REMARK  0 active torsions:
REMARK  status: ('A' for Active; 'I' for Inactive)
ROOT
ATOM      1  C   UNL d   1       1.348  -1.079   0.749  0.00  0.00     0.124 A 
ATOM      2  C1  UNL d   1      -0.002  -0.761   0.800  0.00  0.00     0.062 A 
ATOM      3  C2  UNL d   1      -0.509   0.267   0.010  0.00  0.00     0.162 A 
ATOM      4  C3  UNL d   1       0.335   0.983  -0.839  0.00  0.00    -0.034 A 
ATOM      5  C4  UNL d   1       1.692   0.658  -0.884  0.00  0.00     0.162 A 
ATOM      6  C5  UNL d   1       2.194  -0.370  -0.092  0.00  0.00     0.062 A 
ATOM      7  F   UNL d   1       3.498  -0.676  -0.142  0.00  0.00    -0.097 F 
ATOM      8  F1  UNL d   1       2.531   1.327  -1.689  0.00  0.00    -0.096 F 
ATOM      9  I   UNL d   1      -0.419   2.521  -2.022  0.00  0.00    -0.060 I 
ATOM     10  F2  UNL d   1      -1.817   0.553   0.079  0.00  0.00    -0.096 F 
ATOM     11  F3  UNL d   1      -0.820  -1.444   1.613  0.00  0.00    -0.097 F 
ATOM     12  F4  UNL d   1       1.834  -2.068   1.512  0.00  0.00    -0.092 F 
ENDROOT
TORSDOF 0
ENDMDL
