MODEL 1
REMARK minimizedAffinity 1.86094952
REMARK minimizedRMSD -1
REMARK  0 active torsions:
REMARK  status: ('A' for Active; 'I' for Inactive)
ROOT
ATOM      1  C   UNL d   1       1.558  -1.832   1.246  0.00  0.00     0.124 A 
ATOM      2  C1  UNL d   1       2.260  -0.777   0.681  0.00  0.00     0.062 A 
ATOM      3  C2  UNL d   1       1.581   0.231   0.002  0.00  0.00     0.162 A 
ATOM      4  C3  UNL d   1       0.192   0.189  -0.115  0.00  0.00    -0.034 A 
ATOM      5  C4  UNL d   1      -0.507  -0.877   0.455  0.00  0.00     0.162 A 
ATOM      6  C5  UNL d   1       0.176  -1.882   1.132  0.00  0.00     0.062 A 
ATOM      7  F   UNL d   1      -0.504  -2.901   1.678  0.00  0.00    -0.097 F 
ATOM      8  F1  UNL d   1      -1.843  -0.949   0.361  0.00  0.00    -0.096 F 
ATOM      9  I   UNL d   1      -0.826   1.694  -1.130  0.00  0.00    -0.060 I 
ATOM     10  F2  UNL d   1       2.285   1.239  -0.535  0.00  0.00    -0.096 F 
ATOM     11  F3  UNL d   1       3.595  -0.727   0.788  0.00  0.00    -0.097 F 
ATOM     12  F4  UNL d   1       2.214  -2.801   1.898  0.00  0.00    -0.092 F 
ENDROOT
TORSDOF 0
ENDMDL
