MODEL 1
REMARK minimizedAffinity -1.71181071
REMARK minimizedRMSD -1
REMARK  0 active torsions:
REMARK  status: ('A' for Active; 'I' for Inactive)
ROOT
ATOM      1  C   UNL d   1      -1.430   1.095   0.337  0.00  0.00     0.124 A 
ATOM      2  C1  UNL d   1      -0.341   0.856  -0.488  0.00  0.00     0.062 A 
ATOM      3  C2  UNL d   1       0.461  -0.264  -0.283  0.00  0.00     0.162 A 
ATOM      4  C3  UNL d   1       0.175  -1.154   0.752  0.00  0.00    -0.034 A 
ATOM      5  C4  UNL d   1      -0.922  -0.906   1.579  0.00  0.00     0.162 A 
ATOM      6  C5  UNL d   1      -1.720   0.214   1.370  0.00  0.00     0.062 A 
ATOM      7  F   UNL d   1      -2.772   0.443   2.169  0.00  0.00    -0.097 F 
ATOM      8  F1  UNL d   1      -1.225  -1.741   2.584  0.00  0.00    -0.096 F 
ATOM      9  I   UNL d   1       1.372  -2.828   1.062  0.00  0.00    -0.060 I 
ATOM     10  F2  UNL d   1       1.508  -0.469  -1.096  0.00  0.00    -0.096 F 
ATOM     11  F3  UNL d   1      -0.058   1.706  -1.486  0.00  0.00    -0.097 F 
ATOM     12  F4  UNL d   1      -2.199   2.173   0.138  0.00  0.00    -0.092 F 
ENDROOT
TORSDOF 0
ENDMDL
