MODEL 1
REMARK minimizedAffinity 0.162938327
REMARK minimizedRMSD -1
REMARK  0 active torsions:
REMARK  status: ('A' for Active; 'I' for Inactive)
ROOT
ATOM      1  C   UNL d   1       1.443  -2.001   0.973  0.00  0.00     0.124 A 
ATOM      2  C1  UNL d   1       2.262  -1.101   0.307  0.00  0.00     0.062 A 
ATOM      3  C2  UNL d   1       1.705  -0.094  -0.476  0.00  0.00     0.162 A 
ATOM      4  C3  UNL d   1       0.319   0.018  -0.596  0.00  0.00    -0.034 A 
ATOM      5  C4  UNL d   1      -0.498  -0.891   0.077  0.00  0.00     0.162 A 
ATOM      6  C5  UNL d   1       0.064  -1.896   0.858  0.00  0.00     0.062 A 
ATOM      7  F   UNL d   1      -0.729  -2.765   1.501  0.00  0.00    -0.097 F 
ATOM      8  F1  UNL d   1      -1.834  -0.812  -0.016  0.00  0.00    -0.096 F 
ATOM      9  I   UNL d   1      -0.518   1.523  -1.765  0.00  0.00    -0.060 I 
ATOM     10  F2  UNL d   1       2.520   0.762  -1.109  0.00  0.00    -0.096 F 
ATOM     11  F3  UNL d   1       3.595  -1.202   0.416  0.00  0.00    -0.097 F 
ATOM     12  F4  UNL d   1       1.982  -2.970   1.725  0.00  0.00    -0.092 F 
ENDROOT
TORSDOF 0
ENDMDL
