MODEL 1
REMARK minimizedAffinity -2.42087126
REMARK minimizedRMSD -1
REMARK  0 active torsions:
REMARK  status: ('A' for Active; 'I' for Inactive)
ROOT
ATOM      1  C   UNL d   1       1.454  -2.036   0.540  0.00  0.00     0.124 A 
ATOM      2  C1  UNL d   1       2.353  -1.025   0.229  0.00  0.00     0.062 A 
ATOM      3  C2  UNL d   1       1.896   0.180  -0.298  0.00  0.00     0.162 A 
ATOM      4  C3  UNL d   1       0.533   0.381  -0.517  0.00  0.00    -0.034 A 
ATOM      5  C4  UNL d   1      -0.365  -0.640  -0.202  0.00  0.00     0.162 A 
ATOM      6  C5  UNL d   1       0.096  -1.843   0.325  0.00  0.00     0.062 A 
ATOM      7  F   UNL d   1      -0.774  -2.818   0.625  0.00  0.00    -0.097 F 
ATOM      8  F1  UNL d   1      -1.682  -0.480  -0.399  0.00  0.00    -0.096 F 
ATOM      9  I   UNL d   1      -0.153   2.181  -1.304  0.00  0.00    -0.060 I 
ATOM     10  F2  UNL d   1       2.788   1.139  -0.590  0.00  0.00    -0.096 F 
ATOM     11  F3  UNL d   1       3.664  -1.210   0.435  0.00  0.00    -0.097 F 
ATOM     12  F4  UNL d   1       1.895  -3.194   1.046  0.00  0.00    -0.092 F 
ENDROOT
TORSDOF 0
ENDMDL
