MODEL 1
REMARK minimizedAffinity -2.43367481
REMARK minimizedRMSD -1
REMARK  0 active torsions:
REMARK  status: ('A' for Active; 'I' for Inactive)
ROOT
ATOM      1  C   UNL d   1       2.360  -1.028   0.215  0.00  0.00     0.124 A 
ATOM      2  C1  UNL d   1       1.303  -1.797   0.679  0.00  0.00     0.062 A 
ATOM      3  C2  UNL d   1       0.011  -1.280   0.686  0.00  0.00     0.162 A 
ATOM      4  C3  UNL d   1      -0.232   0.015   0.225  0.00  0.00    -0.034 A 
ATOM      5  C4  UNL d   1       0.838   0.783  -0.240  0.00  0.00     0.162 A 
ATOM      6  C5  UNL d   1       2.127   0.261  -0.244  0.00  0.00     0.062 A 
ATOM      7  F   UNL d   1       3.148   1.006  -0.693  0.00  0.00    -0.097 F 
ATOM      8  F1  UNL d   1       0.640   2.031  -0.690  0.00  0.00    -0.096 F 
ATOM      9  I   UNL d   1      -2.162   0.792   0.233  0.00  0.00    -0.060 I 
ATOM     10  F2  UNL d   1      -0.992  -2.046   1.140  0.00  0.00    -0.096 F 
ATOM     11  F3  UNL d   1       1.526  -3.042   1.124  0.00  0.00    -0.097 F 
ATOM     12  F4  UNL d   1       3.603  -1.528   0.211  0.00  0.00    -0.092 F 
ENDROOT
TORSDOF 0
ENDMDL
