MODEL 1
REMARK minimizedAffinity 4.69013929
REMARK minimizedRMSD -1
REMARK  0 active torsions:
REMARK  status: ('A' for Active; 'I' for Inactive)
ROOT
ATOM      1  C   UNL d   1      -1.288   3.521  -4.430  0.00  0.00     0.124 A 
ATOM      2  C1  UNL d   1      -0.142   3.693  -3.665  0.00  0.00     0.062 A 
ATOM      3  C2  UNL d   1       0.074   2.899  -2.542  0.00  0.00     0.162 A 
ATOM      4  C3  UNL d   1      -0.856   1.926  -2.178  0.00  0.00    -0.034 A 
ATOM      5  C4  UNL d   1      -2.006   1.761  -2.952  0.00  0.00     0.162 A 
ATOM      6  C5  UNL d   1      -2.218   2.556  -4.073  0.00  0.00     0.062 A 
ATOM      7  F   UNL d   1      -3.325   2.389  -4.811  0.00  0.00    -0.097 F 
ATOM      8  F1  UNL d   1      -2.921   0.834  -2.630  0.00  0.00    -0.096 F 
ATOM      9  I   UNL d   1      -0.536   0.738  -0.499  0.00  0.00    -0.060 I 
ATOM     10  F2  UNL d   1       1.190   3.087  -1.821  0.00  0.00    -0.096 F 
ATOM     11  F3  UNL d   1       0.758   4.625  -4.008  0.00  0.00    -0.097 F 
ATOM     12  F4  UNL d   1      -1.494   4.287  -5.510  0.00  0.00    -0.092 F 
ENDROOT
TORSDOF 0
ENDMDL
