MODEL 1
REMARK minimizedAffinity -0.116633169
REMARK minimizedRMSD -1
REMARK  0 active torsions:
REMARK  status: ('A' for Active; 'I' for Inactive)
ROOT
ATOM      1  C   UNL d   1      -1.171   0.397   0.935  0.00  0.00     0.124 A 
ATOM      2  C1  UNL d   1      -0.297   1.195   0.209  0.00  0.00     0.062 A 
ATOM      3  C2  UNL d   1       0.975   0.729  -0.109  0.00  0.00     0.162 A 
ATOM      4  C3  UNL d   1       1.382  -0.541   0.298  0.00  0.00    -0.034 A 
ATOM      5  C4  UNL d   1       0.498  -1.337   1.029  0.00  0.00     0.162 A 
ATOM      6  C5  UNL d   1      -0.773  -0.868   1.344  0.00  0.00     0.062 A 
ATOM      7  F   UNL d   1      -1.616  -1.640   2.045  0.00  0.00    -0.097 F 
ATOM      8  F1  UNL d   1       0.857  -2.564   1.436  0.00  0.00    -0.096 F 
ATOM      9  I   UNL d   1       3.284  -1.241  -0.175  0.00  0.00    -0.060 I 
ATOM     10  F2  UNL d   1       1.799   1.522  -0.812  0.00  0.00    -0.096 F 
ATOM     11  F3  UNL d   1      -0.680   2.417  -0.187  0.00  0.00    -0.097 F 
ATOM     12  F4  UNL d   1      -2.395   0.848   1.240  0.00  0.00    -0.092 F 
ENDROOT
TORSDOF 0
ENDMDL
