MODEL 1
REMARK minimizedAffinity 3.61756277
REMARK minimizedRMSD -1
REMARK  0 active torsions:
REMARK  status: ('A' for Active; 'I' for Inactive)
ROOT
ATOM      1  C   UNL d   1       1.207  -2.211   0.962  0.00  0.00     0.124 A 
ATOM      2  C1  UNL d   1       2.123  -1.225   0.620  0.00  0.00     0.062 A 
ATOM      3  C2  UNL d   1       1.715  -0.116  -0.114  0.00  0.00     0.162 A 
ATOM      4  C3  UNL d   1       0.384   0.015  -0.511  0.00  0.00    -0.034 A 
ATOM      5  C4  UNL d   1      -0.530  -0.981  -0.165  0.00  0.00     0.162 A 
ATOM      6  C5  UNL d   1      -0.118  -2.088   0.569  0.00  0.00     0.062 A 
ATOM      7  F   UNL d   1      -1.004  -3.040   0.899  0.00  0.00    -0.097 F 
ATOM      8  F1  UNL d   1      -1.817  -0.887  -0.530  0.00  0.00    -0.096 F 
ATOM      9  I   UNL d   1      -0.229   1.673  -1.610  0.00  0.00    -0.060 I 
ATOM     10  F2  UNL d   1       2.621   0.821  -0.430  0.00  0.00    -0.096 F 
ATOM     11  F3  UNL d   1       3.404  -1.343   0.998  0.00  0.00    -0.097 F 
ATOM     12  F4  UNL d   1       1.603  -3.278   1.668  0.00  0.00    -0.092 F 
ENDROOT
TORSDOF 0
ENDMDL
