MODEL 1
REMARK minimizedAffinity -0.730603635
REMARK minimizedRMSD -1
REMARK  0 active torsions:
REMARK  status: ('A' for Active; 'I' for Inactive)
ROOT
ATOM      1  C   UNL d   1      -0.900  -1.321   1.332  0.00  0.00     0.124 A 
ATOM      2  C1  UNL d   1      -0.705   0.046   1.193  0.00  0.00     0.062 A 
ATOM      3  C2  UNL d   1       0.487   0.532   0.664  0.00  0.00     0.162 A 
ATOM      4  C3  UNL d   1       1.494  -0.350   0.270  0.00  0.00    -0.034 A 
ATOM      5  C4  UNL d   1       1.290  -1.723   0.414  0.00  0.00     0.162 A 
ATOM      6  C5  UNL d   1       0.097  -2.204   0.943  0.00  0.00     0.062 A 
ATOM      7  F   UNL d   1      -0.090  -3.525   1.077  0.00  0.00    -0.097 F 
ATOM      8  F1  UNL d   1       2.237  -2.599   0.045  0.00  0.00    -0.096 F 
ATOM      9  I   UNL d   1       3.278   0.373  -0.521  0.00  0.00    -0.060 I 
ATOM     10  F2  UNL d   1       0.649   1.858   0.541  0.00  0.00    -0.096 F 
ATOM     11  F3  UNL d   1      -1.667   0.901   1.569  0.00  0.00    -0.097 F 
ATOM     12  F4  UNL d   1      -2.048  -1.786   1.842  0.00  0.00    -0.092 F 
ENDROOT
TORSDOF 0
ENDMDL
