MODEL 1
REMARK minimizedAffinity 2.94420385
REMARK minimizedRMSD -1
REMARK  0 active torsions:
REMARK  status: ('A' for Active; 'I' for Inactive)
ROOT
ATOM      1  C   UNL d   1       0.051  -1.475   0.441  0.00  0.00     0.124 A 
ATOM      2  C1  UNL d   1       1.370  -1.772   0.754  0.00  0.00     0.062 A 
ATOM      3  C2  UNL d   1       2.356  -0.799   0.626  0.00  0.00     0.162 A 
ATOM      4  C3  UNL d   1       2.028   0.482   0.184  0.00  0.00    -0.034 A 
ATOM      5  C4  UNL d   1       0.699   0.774  -0.130  0.00  0.00     0.162 A 
ATOM      6  C5  UNL d   1      -0.283  -0.202  -0.000  0.00  0.00     0.062 A 
ATOM      7  F   UNL d   1      -1.557   0.088  -0.303  0.00  0.00    -0.097 F 
ATOM      8  F1  UNL d   1       0.349   1.996  -0.558  0.00  0.00    -0.096 F 
ATOM      9  I   UNL d   1       3.500   1.940  -0.009  0.00  0.00    -0.060 I 
ATOM     10  F2  UNL d   1       3.623  -1.115   0.936  0.00  0.00    -0.096 F 
ATOM     11  F3  UNL d   1       1.695  -3.002   1.180  0.00  0.00    -0.097 F 
ATOM     12  F4  UNL d   1      -0.897  -2.413   0.564  0.00  0.00    -0.092 F 
ENDROOT
TORSDOF 0
ENDMDL
