MODEL 1
REMARK minimizedAffinity -2.11894631
REMARK minimizedRMSD -1
REMARK  0 active torsions:
REMARK  status: ('A' for Active; 'I' for Inactive)
ROOT
ATOM      1  C   UNL d   1       2.179  -1.245   0.505  0.00  0.00     0.124 A 
ATOM      2  C1  UNL d   1       1.987  -0.059  -0.190  0.00  0.00     0.062 A 
ATOM      3  C2  UNL d   1       0.719   0.511  -0.265  0.00  0.00     0.162 A 
ATOM      4  C3  UNL d   1      -0.367  -0.104   0.358  0.00  0.00    -0.034 A 
ATOM      5  C4  UNL d   1      -0.166  -1.297   1.054  0.00  0.00     0.162 A 
ATOM      6  C5  UNL d   1       1.103  -1.863   1.127  0.00  0.00     0.062 A 
ATOM      7  F   UNL d   1       1.287  -3.008   1.799  0.00  0.00    -0.097 F 
ATOM      8  F1  UNL d   1      -1.188  -1.915   1.665  0.00  0.00    -0.096 F 
ATOM      9  I   UNL d   1      -2.264   0.744   0.248  0.00  0.00    -0.060 I 
ATOM     10  F2  UNL d   1       0.562   1.657  -0.943  0.00  0.00    -0.096 F 
ATOM     11  F3  UNL d   1       3.025   0.540  -0.792  0.00  0.00    -0.097 F 
ATOM     12  F4  UNL d   1       3.400  -1.791   0.575  0.00  0.00    -0.092 F 
ENDROOT
TORSDOF 0
ENDMDL
