MODEL 1
REMARK minimizedAffinity 21.8366699
REMARK minimizedRMSD -1
REMARK  0 active torsions:
REMARK  status: ('A' for Active; 'I' for Inactive)
ROOT
ATOM      1  C   UNL d   1       0.788   0.447  -2.203  0.00  0.00     0.124 A 
ATOM      2  C1  UNL d   1       1.731  -0.041  -1.309  0.00  0.00     0.062 A 
ATOM      3  C2  UNL d   1       3.055  -0.204  -1.707  0.00  0.00     0.162 A 
ATOM      4  C3  UNL d   1       3.444   0.122  -3.006  0.00  0.00    -0.034 A 
ATOM      5  C4  UNL d   1       2.490   0.611  -3.900  0.00  0.00     0.162 A 
ATOM      6  C5  UNL d   1       1.168   0.772  -3.498  0.00  0.00     0.062 A 
ATOM      7  F   UNL d   1       0.259   1.243  -4.363  0.00  0.00    -0.097 F 
ATOM      8  F1  UNL d   1       2.831   0.934  -5.157  0.00  0.00    -0.096 F 
ATOM      9  I   UNL d   1       5.423  -0.121  -3.605  0.00  0.00    -0.060 I 
ATOM     10  F2  UNL d   1       3.944  -0.677  -0.822  0.00  0.00    -0.096 F 
ATOM     11  F3  UNL d   1       1.366  -0.356  -0.058  0.00  0.00    -0.097 F 
ATOM     12  F4  UNL d   1      -0.485   0.602  -1.818  0.00  0.00    -0.092 F 
ENDROOT
TORSDOF 0
ENDMDL
