MODEL 1
REMARK minimizedAffinity 24.4530926
REMARK minimizedRMSD -1
REMARK  0 active torsions:
REMARK  status: ('A' for Active; 'I' for Inactive)
ROOT
ATOM      1  C   UNL d   1      -4.031  -0.374   2.995  0.00  0.00     0.124 A 
ATOM      2  C1  UNL d   1      -5.028  -1.311   2.764  0.00  0.00     0.062 A 
ATOM      3  C2  UNL d   1      -5.024  -2.065   1.594  0.00  0.00     0.162 A 
ATOM      4  C3  UNL d   1      -4.017  -1.885   0.645  0.00  0.00    -0.034 A 
ATOM      5  C4  UNL d   1      -3.018  -0.940   0.884  0.00  0.00     0.162 A 
ATOM      6  C5  UNL d   1      -3.027  -0.189   2.055  0.00  0.00     0.062 A 
ATOM      7  F   UNL d   1      -2.063   0.716   2.276  0.00  0.00    -0.097 F 
ATOM      8  F1  UNL d   1      -2.035  -0.741  -0.007  0.00  0.00    -0.096 F 
ATOM      9  I   UNL d   1      -4.007  -3.010  -1.106  0.00  0.00    -0.060 I 
ATOM     10  F2  UNL d   1      -6.000  -2.963   1.397  0.00  0.00    -0.096 F 
ATOM     11  F3  UNL d   1      -6.000  -1.491   3.671  0.00  0.00    -0.097 F 
ATOM     12  F4  UNL d   1      -4.039   0.350   4.121  0.00  0.00    -0.092 F 
ENDROOT
TORSDOF 0
ENDMDL
