MODEL 1
REMARK minimizedAffinity 22.6334076
REMARK minimizedRMSD -1
REMARK  0 active torsions:
REMARK  status: ('A' for Active; 'I' for Inactive)
ROOT
ATOM      1  C   UNL d   1      -3.816   4.854   4.116  0.00  0.00     0.124 A 
ATOM      2  C1  UNL d   1      -2.571   4.253   4.232  0.00  0.00     0.062 A 
ATOM      3  C2  UNL d   1      -2.303   3.061   3.564  0.00  0.00     0.162 A 
ATOM      4  C3  UNL d   1      -3.283   2.463   2.772  0.00  0.00    -0.034 A 
ATOM      5  C4  UNL d   1      -4.533   3.074   2.660  0.00  0.00     0.162 A 
ATOM      6  C5  UNL d   1      -4.796   4.264   3.330  0.00  0.00     0.062 A 
ATOM      7  F   UNL d   1      -6.000   4.844   3.216  0.00  0.00    -0.097 F 
ATOM      8  F1  UNL d   1      -5.498   2.526   1.906  0.00  0.00    -0.096 F 
ATOM      9  I   UNL d   1      -2.887   0.682   1.771  0.00  0.00    -0.060 I 
ATOM     10  F2  UNL d   1      -1.091   2.502   3.695  0.00  0.00    -0.096 F 
ATOM     11  F3  UNL d   1      -1.622   4.820   4.992  0.00  0.00    -0.097 F 
ATOM     12  F4  UNL d   1      -4.071   6.000   4.760  0.00  0.00    -0.092 F 
ENDROOT
TORSDOF 0
ENDMDL
