MODEL 1
REMARK minimizedAffinity 20.7268562
REMARK minimizedRMSD -1
REMARK  0 active torsions:
REMARK  status: ('A' for Active; 'I' for Inactive)
ROOT
ATOM      1  C   UNL d   1       1.702   2.674  -3.848  0.00  0.00     0.124 A 
ATOM      2  C1  UNL d   1       0.983   1.807  -4.659  0.00  0.00     0.062 A 
ATOM      3  C2  UNL d   1       0.601   0.557  -4.182  0.00  0.00     0.162 A 
ATOM      4  C3  UNL d   1       0.936   0.166  -2.885  0.00  0.00    -0.034 A 
ATOM      5  C4  UNL d   1       1.660   1.043  -2.076  0.00  0.00     0.162 A 
ATOM      6  C5  UNL d   1       2.040   2.291  -2.558  0.00  0.00     0.062 A 
ATOM      7  F   UNL d   1       2.735   3.127  -1.773  0.00  0.00    -0.097 F 
ATOM      8  F1  UNL d   1       1.999   0.699  -0.824  0.00  0.00    -0.096 F 
ATOM      9  I   UNL d   1       0.366  -1.703  -2.168  0.00  0.00    -0.060 I 
ATOM     10  F2  UNL d   1      -0.094  -0.260  -4.987  0.00  0.00    -0.096 F 
ATOM     11  F3  UNL d   1       0.656   2.174  -5.907  0.00  0.00    -0.097 F 
ATOM     12  F4  UNL d   1       2.070   3.876  -4.310  0.00  0.00    -0.092 F 
ENDROOT
TORSDOF 0
ENDMDL
