MODEL 1
REMARK minimizedAffinity 22.2865734
REMARK minimizedRMSD -1
REMARK  0 active torsions:
REMARK  status: ('A' for Active; 'I' for Inactive)
ROOT
ATOM      1  C   UNL d   1       0.542  -0.429  -3.138  0.00  0.00     0.124 A 
ATOM      2  C1  UNL d   1       0.938  -1.584  -2.479  0.00  0.00     0.062 A 
ATOM      3  C2  UNL d   1       1.707  -1.502  -1.322  0.00  0.00     0.162 A 
ATOM      4  C3  UNL d   1       2.086  -0.259  -0.816  0.00  0.00    -0.034 A 
ATOM      5  C4  UNL d   1       1.685   0.899  -1.484  0.00  0.00     0.162 A 
ATOM      6  C5  UNL d   1       0.916   0.812  -2.640  0.00  0.00     0.062 A 
ATOM      7  F   UNL d   1       0.535   1.930  -3.276  0.00  0.00    -0.097 F 
ATOM      8  F1  UNL d   1       2.031   2.111  -1.025  0.00  0.00    -0.096 F 
ATOM      9  I   UNL d   1       3.236  -0.131   0.914  0.00  0.00    -0.060 I 
ATOM     10  F2  UNL d   1       2.075  -2.635  -0.706  0.00  0.00    -0.096 F 
ATOM     11  F3  UNL d   1       0.579  -2.784  -2.959  0.00  0.00    -0.097 F 
ATOM     12  F4  UNL d   1      -0.197  -0.511  -4.252  0.00  0.00    -0.092 F 
ENDROOT
TORSDOF 0
ENDMDL
