MODEL 1
REMARK minimizedAffinity 9.75850964
REMARK minimizedRMSD -1
REMARK  0 active torsions:
REMARK  status: ('A' for Active; 'I' for Inactive)
ROOT
ATOM      1  C   UNL d   1       4.258  -0.769   3.761  0.00  0.00     0.124 A 
ATOM      2  C1  UNL d   1       5.121  -1.248   4.736  0.00  0.00     0.062 A 
ATOM      3  C2  UNL d   1       5.136  -2.604   5.052  0.00  0.00     0.162 A 
ATOM      4  C3  UNL d   1       4.285  -3.490   4.392  0.00  0.00    -0.034 A 
ATOM      5  C4  UNL d   1       3.418  -3.000   3.413  0.00  0.00     0.162 A 
ATOM      6  C5  UNL d   1       3.407  -1.644   3.101  0.00  0.00     0.062 A 
ATOM      7  F   UNL d   1       2.572  -1.182   2.158  0.00  0.00    -0.097 F 
ATOM      8  F1  UNL d   1       2.587  -3.824   2.759  0.00  0.00    -0.096 F 
ATOM      9  I   UNL d   1       4.304  -5.517   4.862  0.00  0.00    -0.060 I 
ATOM     10  F2  UNL d   1       5.980  -3.039   5.999  0.00  0.00    -0.096 F 
ATOM     11  F3  UNL d   1       5.943  -0.404   5.376  0.00  0.00    -0.097 F 
ATOM     12  F4  UNL d   1       4.245   0.536   3.459  0.00  0.00    -0.092 F 
ENDROOT
TORSDOF 0
ENDMDL
