MODEL 1
REMARK minimizedAffinity 11.6769323
REMARK minimizedRMSD -1
REMARK  0 active torsions:
REMARK  status: ('A' for Active; 'I' for Inactive)
ROOT
ATOM      1  C   UNL d   1      -3.404   3.453   1.903  0.00  0.00     0.124 A 
ATOM      2  C1  UNL d   1      -2.573   3.256   2.997  0.00  0.00     0.062 A 
ATOM      3  C2  UNL d   1      -2.773   3.982   4.167  0.00  0.00     0.162 A 
ATOM      4  C3  UNL d   1      -3.810   4.912   4.250  0.00  0.00    -0.034 A 
ATOM      5  C4  UNL d   1      -4.641   5.105   3.145  0.00  0.00     0.162 A 
ATOM      6  C5  UNL d   1      -4.437   4.377   1.978  0.00  0.00     0.062 A 
ATOM      7  F   UNL d   1      -5.241   4.568   0.922  0.00  0.00    -0.097 F 
ATOM      8  F1  UNL d   1      -5.647   5.991   3.191  0.00  0.00    -0.096 F 
ATOM      9  I   UNL d   1      -4.112   6.000   5.998  0.00  0.00    -0.060 I 
ATOM     10  F2  UNL d   1      -1.955   3.772   5.209  0.00  0.00    -0.096 F 
ATOM     11  F3  UNL d   1      -1.574   2.365   2.926  0.00  0.00    -0.097 F 
ATOM     12  F4  UNL d   1      -3.209   2.753   0.777  0.00  0.00    -0.092 F 
ENDROOT
TORSDOF 0
ENDMDL
