MODEL 1
REMARK minimizedAffinity 21.4381332
REMARK minimizedRMSD -1
REMARK  0 active torsions:
REMARK  status: ('A' for Active; 'I' for Inactive)
ROOT
ATOM      1  C   UNL d   1      -1.912   0.361   1.743  0.00  0.00     0.124 A 
ATOM      2  C1  UNL d   1      -2.138  -0.433   0.628  0.00  0.00     0.062 A 
ATOM      3  C2  UNL d   1      -3.304  -1.187   0.530  0.00  0.00     0.162 A 
ATOM      4  C3  UNL d   1      -4.255  -1.148   1.550  0.00  0.00    -0.034 A 
ATOM      5  C4  UNL d   1      -4.020  -0.347   2.669  0.00  0.00     0.162 A 
ATOM      6  C5  UNL d   1      -2.853   0.404   2.762  0.00  0.00     0.062 A 
ATOM      7  F   UNL d   1      -2.636   1.171   3.840  0.00  0.00    -0.097 F 
ATOM      8  F1  UNL d   1      -4.912  -0.287   3.669  0.00  0.00    -0.096 F 
ATOM      9  I   UNL d   1      -6.000  -2.273   1.408  0.00  0.00    -0.060 I 
ATOM     10  F2  UNL d   1      -3.497  -1.946  -0.559  0.00  0.00    -0.096 F 
ATOM     11  F3  UNL d   1      -1.230  -0.477  -0.358  0.00  0.00    -0.097 F 
ATOM     12  F4  UNL d   1      -0.788   1.084   1.835  0.00  0.00    -0.092 F 
ENDROOT
TORSDOF 0
ENDMDL
