MODEL 1
REMARK minimizedAffinity 33.2394638
REMARK minimizedRMSD -1
REMARK  0 active torsions:
REMARK  status: ('A' for Active; 'I' for Inactive)
ROOT
ATOM      1  C   UNL d   1       3.162  -4.433   3.761  0.00  0.00     0.124 A 
ATOM      2  C1  UNL d   1       2.944  -3.120   3.369  0.00  0.00     0.062 A 
ATOM      3  C2  UNL d   1       3.751  -2.099   3.863  0.00  0.00     0.162 A 
ATOM      4  C3  UNL d   1       4.785  -2.388   4.754  0.00  0.00    -0.034 A 
ATOM      5  C4  UNL d   1       4.997  -3.711   5.144  0.00  0.00     0.162 A 
ATOM      6  C5  UNL d   1       4.187  -4.728   4.648  0.00  0.00     0.062 A 
ATOM      7  F   UNL d   1       4.399  -5.996   5.028  0.00  0.00    -0.097 F 
ATOM      8  F1  UNL d   1       5.981  -4.024   6.000  0.00  0.00    -0.096 F 
ATOM      9  I   UNL d   1       5.994  -0.865   5.495  0.00  0.00    -0.060 I 
ATOM     10  F2  UNL d   1       3.518  -0.839   3.467  0.00  0.00    -0.096 F 
ATOM     11  F3  UNL d   1       1.953  -2.833   2.513  0.00  0.00    -0.097 F 
ATOM     12  F4  UNL d   1       2.383  -5.413   3.285  0.00  0.00    -0.092 F 
ENDROOT
TORSDOF 0
ENDMDL
