MODEL 1
REMARK minimizedAffinity 24.8926601
REMARK minimizedRMSD -1
REMARK  0 active torsions:
REMARK  status: ('A' for Active; 'I' for Inactive)
ROOT
ATOM      1  C   UNL d   1       1.367   1.194  -2.491  0.00  0.00     0.124 A 
ATOM      2  C1  UNL d   1       1.909  -0.066  -2.280  0.00  0.00     0.062 A 
ATOM      3  C2  UNL d   1       1.110  -1.102  -1.805  0.00  0.00     0.162 A 
ATOM      4  C3  UNL d   1      -0.241  -0.883  -1.538  0.00  0.00    -0.034 A 
ATOM      5  C4  UNL d   1      -0.779   0.388  -1.751  0.00  0.00     0.162 A 
ATOM      6  C5  UNL d   1       0.023   1.420  -2.226  0.00  0.00     0.062 A 
ATOM      7  F   UNL d   1      -0.503   2.636  -2.428  0.00  0.00    -0.097 F 
ATOM      8  F1  UNL d   1      -2.075   0.633  -1.504  0.00  0.00    -0.096 F 
ATOM      9  I   UNL d   1      -1.439  -2.429  -0.827  0.00  0.00    -0.060 I 
ATOM     10  F2  UNL d   1       1.661  -2.309  -1.611  0.00  0.00    -0.096 F 
ATOM     11  F3  UNL d   1       3.207  -0.286  -2.534  0.00  0.00    -0.097 F 
ATOM     12  F4  UNL d   1       2.138   2.189  -2.947  0.00  0.00    -0.092 F 
ENDROOT
TORSDOF 0
ENDMDL
