MODEL 1
REMARK minimizedAffinity 15.1735992
REMARK minimizedRMSD -1
REMARK  0 active torsions:
REMARK  status: ('A' for Active; 'I' for Inactive)
ROOT
ATOM      1  C   UNL d   1      -4.481   0.071   3.138  0.00  0.00     0.124 A 
ATOM      2  C1  UNL d   1      -5.248   0.280   4.276  0.00  0.00     0.062 A 
ATOM      3  C2  UNL d   1      -5.249   1.523   4.902  0.00  0.00     0.162 A 
ATOM      4  C3  UNL d   1      -4.480   2.569   4.390  0.00  0.00    -0.034 A 
ATOM      5  C4  UNL d   1      -3.711   2.351   3.246  0.00  0.00     0.162 A 
ATOM      6  C5  UNL d   1      -3.713   1.107   2.625  0.00  0.00     0.062 A 
ATOM      7  F   UNL d   1      -2.972   0.907   1.525  0.00  0.00    -0.097 F 
ATOM      8  F1  UNL d   1      -2.961   3.335   2.728  0.00  0.00    -0.096 F 
ATOM      9  I   UNL d   1      -4.479   4.429   5.323  0.00  0.00    -0.060 I 
ATOM     10  F2  UNL d   1      -6.000   1.696   6.000  0.00  0.00    -0.096 F 
ATOM     11  F3  UNL d   1      -5.990  -0.720   4.775  0.00  0.00    -0.097 F 
ATOM     12  F4  UNL d   1      -4.481  -1.126   2.539  0.00  0.00    -0.092 F 
ENDROOT
TORSDOF 0
ENDMDL
