MODEL 1
REMARK minimizedAffinity 18.6092854
REMARK minimizedRMSD -1
REMARK  0 active torsions:
REMARK  status: ('A' for Active; 'I' for Inactive)
ROOT
ATOM      1  C   UNL d   1       1.779  -1.319  -2.298  0.00  0.00     0.124 A 
ATOM      2  C1  UNL d   1       2.091  -0.013  -1.945  0.00  0.00     0.062 A 
ATOM      3  C2  UNL d   1       1.932   1.018  -2.866  0.00  0.00     0.162 A 
ATOM      4  C3  UNL d   1       1.458   0.748  -4.150  0.00  0.00    -0.034 A 
ATOM      5  C4  UNL d   1       1.147  -0.567  -4.498  0.00  0.00     0.162 A 
ATOM      6  C5  UNL d   1       1.307  -1.594  -3.574  0.00  0.00     0.062 A 
ATOM      7  F   UNL d   1       1.005  -2.855  -3.917  0.00  0.00    -0.097 F 
ATOM      8  F1  UNL d   1       0.688  -0.862  -5.723  0.00  0.00    -0.096 F 
ATOM      9  I   UNL d   1       1.219   2.288  -5.530  0.00  0.00    -0.060 I 
ATOM     10  F2  UNL d   1       2.242   2.270  -2.497  0.00  0.00    -0.096 F 
ATOM     11  F3  UNL d   1       2.548   0.256  -0.713  0.00  0.00    -0.097 F 
ATOM     12  F4  UNL d   1       1.933  -2.309  -1.410  0.00  0.00    -0.092 F 
ENDROOT
TORSDOF 0
ENDMDL
