MODEL 1
REMARK minimizedAffinity 7.05673695
REMARK minimizedRMSD -1
REMARK  0 active torsions:
REMARK  status: ('A' for Active; 'I' for Inactive)
ROOT
ATOM      1  C   UNL d   1       1.991   2.211  -3.978  0.00  0.00     0.124 A 
ATOM      2  C1  UNL d   1       1.571   1.487  -2.871  0.00  0.00     0.062 A 
ATOM      3  C2  UNL d   1       1.790   1.980  -1.588  0.00  0.00     0.162 A 
ATOM      4  C3  UNL d   1       2.430   3.206  -1.405  0.00  0.00    -0.034 A 
ATOM      5  C4  UNL d   1       2.850   3.928  -2.524  0.00  0.00     0.162 A 
ATOM      6  C5  UNL d   1       2.629   3.430  -3.804  0.00  0.00     0.062 A 
ATOM      7  F   UNL d   1       3.035   4.131  -4.873  0.00  0.00    -0.097 F 
ATOM      8  F1  UNL d   1       3.469   5.110  -2.384  0.00  0.00    -0.096 F 
ATOM      9  I   UNL d   1       2.759   3.947   0.511  0.00  0.00    -0.060 I 
ATOM     10  F2  UNL d   1       1.374   1.259  -0.536  0.00  0.00    -0.096 F 
ATOM     11  F3  UNL d   1       0.955   0.307  -3.037  0.00  0.00    -0.097 F 
ATOM     12  F4  UNL d   1       1.780   1.733  -5.212  0.00  0.00    -0.092 F 
ENDROOT
TORSDOF 0
ENDMDL
