MODEL 1
REMARK minimizedAffinity 28.996954
REMARK minimizedRMSD -1
REMARK  0 active torsions:
REMARK  status: ('A' for Active; 'I' for Inactive)
ROOT
ATOM      1  C   UNL d   1       4.750   4.449   0.529  0.00  0.00     0.124 A 
ATOM      2  C1  UNL d   1       4.435   4.909  -0.742  0.00  0.00     0.062 A 
ATOM      3  C2  UNL d   1       3.136   5.314  -1.038  0.00  0.00     0.162 A 
ATOM      4  C3  UNL d   1       2.143   5.261  -0.060  0.00  0.00    -0.034 A 
ATOM      5  C4  UNL d   1       2.467   4.797   1.216  0.00  0.00     0.162 A 
ATOM      6  C5  UNL d   1       3.766   4.393   1.507  0.00  0.00     0.062 A 
ATOM      7  F   UNL d   1       4.069   3.949   2.735  0.00  0.00    -0.097 F 
ATOM      8  F1  UNL d   1       1.536   4.734   2.179  0.00  0.00    -0.096 F 
ATOM      9  I   UNL d   1       0.200   5.866  -0.499  0.00  0.00    -0.060 I 
ATOM     10  F2  UNL d   1       2.860   5.754  -2.275  0.00  0.00    -0.096 F 
ATOM     11  F3  UNL d   1       5.383   4.962  -1.688  0.00  0.00    -0.097 F 
ATOM     12  F4  UNL d   1       6.000   4.059   0.811  0.00  0.00    -0.092 F 
ENDROOT
TORSDOF 0
ENDMDL
