MODEL 1
REMARK minimizedAffinity 13.1447544
REMARK minimizedRMSD -1
REMARK  0 active torsions:
REMARK  status: ('A' for Active; 'I' for Inactive)
ROOT
ATOM      1  C   UNL d   1       1.699   1.018  -2.339  0.00  0.00     0.124 A 
ATOM      2  C1  UNL d   1       1.216   0.740  -3.610  0.00  0.00     0.062 A 
ATOM      3  C2  UNL d   1       1.151  -0.575  -4.062  0.00  0.00     0.162 A 
ATOM      4  C3  UNL d   1       1.571  -1.623  -3.242  0.00  0.00    -0.034 A 
ATOM      5  C4  UNL d   1       2.057  -1.335  -1.965  0.00  0.00     0.162 A 
ATOM      6  C5  UNL d   1       2.119  -0.019  -1.518  0.00  0.00     0.062 A 
ATOM      7  F   UNL d   1       2.587   0.248  -0.290  0.00  0.00    -0.097 F 
ATOM      8  F1  UNL d   1       2.469  -2.318  -1.150  0.00  0.00    -0.096 F 
ATOM      9  I   UNL d   1       1.477  -3.590  -3.914  0.00  0.00    -0.060 I 
ATOM     10  F2  UNL d   1       0.680  -0.815  -5.294  0.00  0.00    -0.096 F 
ATOM     11  F3  UNL d   1       0.810   1.740  -4.405  0.00  0.00    -0.097 F 
ATOM     12  F4  UNL d   1       1.761   2.284  -1.907  0.00  0.00    -0.092 F 
ENDROOT
TORSDOF 0
ENDMDL
