MODEL 1
REMARK minimizedAffinity 20.663353
REMARK minimizedRMSD -1
REMARK  0 active torsions:
REMARK  status: ('A' for Active; 'I' for Inactive)
ROOT
ATOM      1  C   UNL d   1       0.923   0.748  -3.946  0.00  0.00     0.124 A 
ATOM      2  C1  UNL d   1       1.222   1.832  -4.759  0.00  0.00     0.062 A 
ATOM      3  C2  UNL d   1       2.045   2.853  -4.291  0.00  0.00     0.162 A 
ATOM      4  C3  UNL d   1       2.575   2.794  -3.002  0.00  0.00    -0.034 A 
ATOM      5  C4  UNL d   1       2.268   1.702  -2.189  0.00  0.00     0.162 A 
ATOM      6  C5  UNL d   1       1.446   0.684  -2.662  0.00  0.00     0.062 A 
ATOM      7  F   UNL d   1       1.157  -0.362  -1.874  0.00  0.00    -0.097 F 
ATOM      8  F1  UNL d   1       2.761   1.614  -0.945  0.00  0.00    -0.096 F 
ATOM      9  I   UNL d   1       3.805   4.319  -2.298  0.00  0.00    -0.060 I 
ATOM     10  F2  UNL d   1       2.317   3.888  -5.099  0.00  0.00    -0.096 F 
ATOM     11  F3  UNL d   1       0.718   1.897  -6.000  0.00  0.00    -0.097 F 
ATOM     12  F4  UNL d   1       0.131  -0.232  -4.398  0.00  0.00    -0.092 F 
ENDROOT
TORSDOF 0
ENDMDL
