MODEL 1
REMARK minimizedAffinity 1.2963475
REMARK minimizedRMSD -1
REMARK  0 active torsions:
REMARK  status: ('A' for Active; 'I' for Inactive)
ROOT
ATOM      1  C1  BNZ d   1       1.538  -1.845   0.617  0.00  0.00     0.000 A 
ATOM      2  C2  BNZ d   1       2.276  -2.846   0.045  0.00  0.00     0.000 A 
ATOM      3  C3  BNZ d   1       3.162  -3.576   0.788  0.00  0.00     0.000 A 
ATOM      4  C4  BNZ d   1       3.338  -3.276   2.091  0.00  0.00     0.000 A 
ATOM      5  C5  BNZ d   1       2.608  -2.263   2.681  0.00  0.00     0.000 A 
ATOM      6  C6  BNZ d   1       1.689  -1.557   1.939  0.00  0.00     0.000 A 
ENDROOT
TORSDOF 0
ENDMDL
