MODEL 1
REMARK minimizedAffinity 3.09005046
REMARK minimizedRMSD -1
REMARK  0 active torsions:
REMARK  status: ('A' for Active; 'I' for Inactive)
ROOT
ATOM      1  C1  BNZ d   1       1.746   4.827  -5.602  0.00  0.00     0.000 A 
ATOM      2  C2  BNZ d   1       2.427   6.000  -5.795  0.00  0.00     0.000 A 
ATOM      3  C3  BNZ d   1       3.780   5.999  -5.992  0.00  0.00     0.000 A 
ATOM      4  C4  BNZ d   1       4.455   4.832  -5.955  0.00  0.00     0.000 A 
ATOM      5  C5  BNZ d   1       3.784   3.643  -5.752  0.00  0.00     0.000 A 
ATOM      6  C6  BNZ d   1       2.417   3.643  -5.594  0.00  0.00     0.000 A 
ENDROOT
TORSDOF 0
ENDMDL
