MODEL 1
REMARK minimizedAffinity 4.35950804
REMARK minimizedRMSD -1
REMARK  0 active torsions:
REMARK  status: ('A' for Active; 'I' for Inactive)
ROOT
ATOM      1  C1  BNZ d   1       1.859   4.925   5.649  0.00  0.00     0.000 A 
ATOM      2  C2  BNZ d   1       1.826   3.783   4.894  0.00  0.00     0.000 A 
ATOM      3  C3  BNZ d   1       1.049   3.708   3.772  0.00  0.00     0.000 A 
ATOM      4  C4  BNZ d   1       0.277   4.759   3.429  0.00  0.00     0.000 A 
ATOM      5  C5  BNZ d   1       0.292   5.914   4.185  0.00  0.00     0.000 A 
ATOM      6  C6  BNZ d   1       1.105   6.000   5.292  0.00  0.00     0.000 A 
ENDROOT
TORSDOF 0
ENDMDL
