MODEL 1
REMARK minimizedAffinity 1.5376029
REMARK minimizedRMSD -1
REMARK  0 active torsions:
REMARK  status: ('A' for Active; 'I' for Inactive)
ROOT
ATOM      1  C1  BNZ d   1       3.956  -2.663   2.598  0.00  0.00     0.000 A 
ATOM      2  C2  BNZ d   1       3.458  -2.591   1.324  0.00  0.00     0.000 A 
ATOM      3  C3  BNZ d   1       3.358  -3.711   0.547  0.00  0.00     0.000 A 
ATOM      4  C4  BNZ d   1       3.793  -4.893   1.029  0.00  0.00     0.000 A 
ATOM      5  C5  BNZ d   1       4.306  -4.981   2.308  0.00  0.00     0.000 A 
ATOM      6  C6  BNZ d   1       4.369  -3.858   3.102  0.00  0.00     0.000 A 
ENDROOT
TORSDOF 0
ENDMDL
