MODEL 1
REMARK minimizedAffinity 10.9775133
REMARK minimizedRMSD -1
REMARK  0 active torsions:
REMARK  status: ('A' for Active; 'I' for Inactive)
ROOT
ATOM      1  C1  BNZ d   1      -4.066  -1.972  -2.734  0.00  0.00     0.000 A 
ATOM      2  C2  BNZ d   1      -3.032  -1.608  -1.913  0.00  0.00     0.000 A 
ATOM      3  C3  BNZ d   1      -2.923  -0.326  -1.451  0.00  0.00     0.000 A 
ATOM      4  C4  BNZ d   1      -3.823   0.599  -1.843  0.00  0.00     0.000 A 
ATOM      5  C5  BNZ d   1      -4.866   0.250  -2.677  0.00  0.00     0.000 A 
ATOM      6  C6  BNZ d   1      -4.995  -1.050  -3.109  0.00  0.00     0.000 A 
ENDROOT
TORSDOF 0
ENDMDL
