MODEL 1
REMARK minimizedAffinity 1.46640515
REMARK minimizedRMSD -1
REMARK  0 active torsions:
REMARK  status: ('A' for Active; 'I' for Inactive)
ROOT
ATOM      1  C1  BNZ d   1      -3.258  -1.167  -1.485  0.00  0.00     0.000 A 
ATOM      2  C2  BNZ d   1      -4.452  -1.837  -1.471  0.00  0.00     0.000 A 
ATOM      3  C3  BNZ d   1      -5.174  -2.006  -2.619  0.00  0.00     0.000 A 
ATOM      4  C4  BNZ d   1      -4.721  -1.471  -3.772  0.00  0.00     0.000 A 
ATOM      5  C5  BNZ d   1      -3.523  -0.785  -3.801  0.00  0.00     0.000 A 
ATOM      6  C6  BNZ d   1      -2.781  -0.650  -2.650  0.00  0.00     0.000 A 
ENDROOT
TORSDOF 0
ENDMDL
