MODEL 1
REMARK minimizedAffinity 4.76054049
REMARK minimizedRMSD -1
REMARK  0 active torsions:
REMARK  status: ('A' for Active; 'I' for Inactive)
ROOT
ATOM      1  C1  BNZ d   1       1.655  -2.015   1.111  0.00  0.00     0.000 A 
ATOM      2  C2  BNZ d   1       1.544  -2.989   0.156  0.00  0.00     0.000 A 
ATOM      3  C3  BNZ d   1       2.292  -4.131   0.230  0.00  0.00     0.000 A 
ATOM      4  C4  BNZ d   1       3.178  -4.279   1.236  0.00  0.00     0.000 A 
ATOM      5  C5  BNZ d   1       3.309  -3.301   2.202  0.00  0.00     0.000 A 
ATOM      6  C6  BNZ d   1       2.526  -2.171   2.145  0.00  0.00     0.000 A 
ENDROOT
TORSDOF 0
ENDMDL
