MODEL 1
REMARK minimizedAffinity 6.316432
REMARK minimizedRMSD -1
REMARK  0 active torsions:
REMARK  status: ('A' for Active; 'I' for Inactive)
ROOT
ATOM      1  C1  BNZ d   1       4.289  -3.957   1.631  0.00  0.00     0.000 A 
ATOM      2  C2  BNZ d   1       4.295  -5.326   1.580  0.00  0.00     0.000 A 
ATOM      3  C3  BNZ d   1       5.165  -5.991   0.763  0.00  0.00     0.000 A 
ATOM      4  C4  BNZ d   1       6.000  -5.289  -0.030  0.00  0.00     0.000 A 
ATOM      5  C5  BNZ d   1       5.999  -3.909   0.003  0.00  0.00     0.000 A 
ATOM      6  C6  BNZ d   1       5.149  -3.242   0.856  0.00  0.00     0.000 A 
ENDROOT
TORSDOF 0
ENDMDL
