MODEL 1
REMARK minimizedAffinity 4.68588114
REMARK minimizedRMSD -1
REMARK  0 active torsions:
REMARK  status: ('A' for Active; 'I' for Inactive)
ROOT
ATOM      1  C2' OXE d   1      -0.155  -1.097   3.561  0.00  0.00     0.078 C 
ATOM      2  C1' OXE d   1      -2.083   0.041   1.868  0.00  0.00     0.078 C 
ATOM      3  C1  OXE d   1      -1.144   0.974   2.592  0.00  0.00    -0.078 A 
ATOM      4  C2  OXE d   1      -0.235   0.410   3.454  0.00  0.00    -0.078 A 
ATOM      5  C3  OXE d   1       0.691   1.221   4.106  0.00  0.00     0.003 A 
ATOM      6  C4  OXE d   1       0.604   2.615   4.009  0.00  0.00    -0.002 A 
ATOM      7  C5  OXE d   1      -0.341   3.211   3.167  0.00  0.00    -0.002 A 
ATOM      8  C6  OXE d   1      -1.193   2.405   2.420  0.00  0.00     0.003 A 
ENDROOT
TORSDOF 0
ENDMDL
