MODEL 1
REMARK minimizedAffinity 10.3431978
REMARK minimizedRMSD -1
REMARK  0 active torsions:
REMARK  status: ('A' for Active; 'I' for Inactive)
ROOT
ATOM      1  C2' OXE d   1      -3.823   0.113   3.753  0.00  0.00     0.078 C 
ATOM      2  C1' OXE d   1      -3.768   0.656   1.000  0.00  0.00     0.078 C 
ATOM      3  C1  OXE d   1      -2.449   0.460   1.704  0.00  0.00    -0.078 A 
ATOM      4  C2  OXE d   1      -2.483   0.241   3.061  0.00  0.00    -0.078 A 
ATOM      5  C3  OXE d   1      -1.298  -0.001   3.750  0.00  0.00     0.003 A 
ATOM      6  C4  OXE d   1      -0.063   0.129   3.103  0.00  0.00    -0.002 A 
ATOM      7  C5  OXE d   1      -0.005   0.392   1.731  0.00  0.00    -0.002 A 
ATOM      8  C6  OXE d   1      -1.187   0.517   1.010  0.00  0.00     0.003 A 
ENDROOT
TORSDOF 0
ENDMDL
