MODEL 1
REMARK minimizedAffinity 4.86943769
REMARK minimizedRMSD -1
REMARK  0 active torsions:
REMARK  status: ('A' for Active; 'I' for Inactive)
ROOT
ATOM      1  C2' OXE d   1      -5.990   3.199   5.905  0.00  0.00     0.078 C 
ATOM      2  C1' OXE d   1      -5.825   6.000   5.999  0.00  0.00     0.078 C 
ATOM      3  C1  OXE d   1      -5.106   5.290   4.879  0.00  0.00    -0.078 A 
ATOM      4  C2  OXE d   1      -5.154   3.917   4.868  0.00  0.00    -0.078 A 
ATOM      5  C3  OXE d   1      -4.554   3.215   3.826  0.00  0.00     0.003 A 
ATOM      6  C4  OXE d   1      -3.774   3.885   2.877  0.00  0.00    -0.002 A 
ATOM      7  C5  OXE d   1      -3.679   5.281   2.893  0.00  0.00    -0.002 A 
ATOM      8  C6  OXE d   1      -4.372   5.999   3.861  0.00  0.00     0.003 A 
ENDROOT
TORSDOF 0
ENDMDL
