MODEL 1
REMARK minimizedAffinity 2.80587173
REMARK minimizedRMSD -1
REMARK  0 active torsions:
REMARK  status: ('A' for Active; 'I' for Inactive)
ROOT
ATOM      1  C2' OXE d   1      -1.795  -1.071  -5.970  0.00  0.00     0.078 C 
ATOM      2  C1' OXE d   1      -0.736  -3.670  -5.954  0.00  0.00     0.078 C 
ATOM      3  C1  OXE d   1      -2.237  -3.522  -5.968  0.00  0.00    -0.078 A 
ATOM      4  C2  OXE d   1      -2.747  -2.247  -5.929  0.00  0.00    -0.078 A 
ATOM      5  C3  OXE d   1      -4.124  -2.053  -5.996  0.00  0.00     0.003 A 
ATOM      6  C4  OXE d   1      -4.997  -3.146  -5.947  0.00  0.00    -0.002 A 
ATOM      7  C5  OXE d   1      -4.499  -4.453  -5.947  0.00  0.00    -0.002 A 
ATOM      8  C6  OXE d   1      -3.125  -4.659  -6.000  0.00  0.00     0.003 A 
ENDROOT
TORSDOF 0
ENDMDL
