MODEL 1
REMARK minimizedAffinity 1.65011477
REMARK minimizedRMSD -1
REMARK  0 active torsions:
REMARK  status: ('A' for Active; 'I' for Inactive)
ROOT
ATOM      1  C2' OXE d   1      -4.759  -5.246  -5.991  0.00  0.00     0.078 C 
ATOM      2  C1' OXE d   1      -5.895  -2.679  -5.958  0.00  0.00     0.078 C 
ATOM      3  C1  OXE d   1      -4.390  -2.782  -5.968  0.00  0.00    -0.078 A 
ATOM      4  C2  OXE d   1      -3.843  -4.042  -5.937  0.00  0.00    -0.078 A 
ATOM      5  C3  OXE d   1      -2.461  -4.195  -6.000  0.00  0.00     0.003 A 
ATOM      6  C4  OXE d   1      -1.620  -3.077  -5.939  0.00  0.00    -0.002 A 
ATOM      7  C5  OXE d   1      -2.157  -1.785  -5.930  0.00  0.00    -0.002 A 
ATOM      8  C6  OXE d   1      -3.536  -1.620  -5.987  0.00  0.00     0.003 A 
ENDROOT
TORSDOF 0
ENDMDL
