MODEL 1
REMARK minimizedAffinity 13.1759415
REMARK minimizedRMSD -1
REMARK  0 active torsions:
REMARK  status: ('A' for Active; 'I' for Inactive)
ROOT
ATOM      1  C2' OXE d   1      -2.129   0.177  -5.940  0.00  0.00     0.078 C 
ATOM      2  C1' OXE d   1      -0.793  -2.292  -5.924  0.00  0.00     0.078 C 
ATOM      3  C1  OXE d   1      -2.301  -2.309  -5.949  0.00  0.00    -0.078 A 
ATOM      4  C2  OXE d   1      -2.947  -1.096  -5.909  0.00  0.00    -0.078 A 
ATOM      5  C3  OXE d   1      -4.336  -1.053  -5.985  0.00  0.00     0.003 A 
ATOM      6  C4  OXE d   1      -5.086  -2.235  -5.946  0.00  0.00    -0.002 A 
ATOM      7  C5  OXE d   1      -4.448  -3.480  -5.946  0.00  0.00    -0.002 A 
ATOM      8  C6  OXE d   1      -3.059  -3.534  -5.991  0.00  0.00     0.003 A 
ENDROOT
TORSDOF 0
ENDMDL
