MODEL 1
REMARK minimizedAffinity 16.6881924
REMARK minimizedRMSD -1
REMARK  0 active torsions:
REMARK  status: ('A' for Active; 'I' for Inactive)
ROOT
ATOM      1  C2' OXE d   1      -5.315   5.961   5.975  0.00  0.00     0.078 C 
ATOM      2  C1' OXE d   1      -3.949   5.521   3.562  0.00  0.00     0.078 C 
ATOM      3  C1  OXE d   1      -4.657   4.349   4.194  0.00  0.00    -0.078 A 
ATOM      4  C2  OXE d   1      -5.284   4.562   5.398  0.00  0.00    -0.078 A 
ATOM      5  C3  OXE d   1      -5.998   3.528   5.996  0.00  0.00     0.003 A 
ATOM      6  C4  OXE d   1      -5.956   2.235   5.461  0.00  0.00    -0.002 A 
ATOM      7  C5  OXE d   1      -5.290   1.987   4.255  0.00  0.00    -0.002 A 
ATOM      8  C6  OXE d   1      -4.673   3.040   3.589  0.00  0.00     0.003 A 
ENDROOT
TORSDOF 0
ENDMDL
