MODEL 1
REMARK minimizedAffinity 9.6482296
REMARK minimizedRMSD -1
REMARK  0 active torsions:
REMARK  status: ('A' for Active; 'I' for Inactive)
ROOT
ATOM      1  C2' OXE d   1      -4.745   0.024   2.510  0.00  0.00     0.078 C 
ATOM      2  C1' OXE d   1      -5.248  -1.202   4.985  0.00  0.00     0.078 C 
ATOM      3  C1  OXE d   1      -5.444   0.290   4.886  0.00  0.00    -0.078 A 
ATOM      4  C2  OXE d   1      -5.151   0.888   3.684  0.00  0.00    -0.078 A 
ATOM      5  C3  OXE d   1      -5.367   2.254   3.523  0.00  0.00     0.003 A 
ATOM      6  C4  OXE d   1      -5.733   3.048   4.616  0.00  0.00    -0.002 A 
ATOM      7  C5  OXE d   1      -5.998   2.464   5.860  0.00  0.00    -0.002 A 
ATOM      8  C6  OXE d   1      -5.900   1.084   6.000  0.00  0.00     0.003 A 
ENDROOT
TORSDOF 0
ENDMDL
