MODEL 1
REMARK minimizedAffinity -0.990880907
REMARK minimizedRMSD -1
REMARK  0 active torsions:
REMARK  status: ('A' for Active; 'I' for Inactive)
ROOT
ATOM      1  C2' OXE d   1       0.088   2.233   4.345  0.00  0.00     0.078 C 
ATOM      2  C1' OXE d   1       0.556  -0.373   3.414  0.00  0.00     0.078 C 
ATOM      3  C1  OXE d   1      -0.665   0.348   2.901  0.00  0.00    -0.078 A 
ATOM      4  C2  OXE d   1      -0.912   1.606   3.398  0.00  0.00    -0.078 A 
ATOM      5  C3  OXE d   1      -1.994   2.337   2.917  0.00  0.00     0.003 A 
ATOM      6  C4  OXE d   1      -2.919   1.745   2.048  0.00  0.00    -0.002 A 
ATOM      7  C5  OXE d   1      -2.708   0.451   1.561  0.00  0.00    -0.002 A 
ATOM      8  C6  OXE d   1      -1.566  -0.244   1.944  0.00  0.00     0.003 A 
ENDROOT
TORSDOF 0
ENDMDL
