MODEL 1
REMARK minimizedAffinity 8.44422436
REMARK minimizedRMSD -1
REMARK  0 active torsions:
REMARK  status: ('A' for Active; 'I' for Inactive)
ROOT
ATOM      1  C2' OXE d   1       5.953  -3.193   2.460  0.00  0.00     0.078 C 
ATOM      2  C1' OXE d   1       5.965  -5.996   2.316  0.00  0.00     0.078 C 
ATOM      3  C1  OXE d   1       4.649  -5.287   2.114  0.00  0.00    -0.078 A 
ATOM      4  C2  OXE d   1       4.644  -3.918   2.233  0.00  0.00    -0.078 A 
ATOM      5  C3  OXE d   1       3.468  -3.210   2.002  0.00  0.00     0.003 A 
ATOM      6  C4  OXE d   1       2.260  -3.888   1.803  0.00  0.00    -0.002 A 
ATOM      7  C5  OXE d   1       2.235  -5.285   1.718  0.00  0.00    -0.002 A 
ATOM      8  C6  OXE d   1       3.426  -5.995   1.829  0.00  0.00     0.003 A 
ENDROOT
TORSDOF 0
ENDMDL
