MODEL 1
REMARK minimizedAffinity 10.7006102
REMARK minimizedRMSD -1
REMARK  0 active torsions:
REMARK  status: ('A' for Active; 'I' for Inactive)
ROOT
ATOM      1  C2' OXE d   1      -1.891   0.512   1.765  0.00  0.00     0.078 C 
ATOM      2  C1' OXE d   1      -4.448  -0.001   0.726  0.00  0.00     0.078 C 
ATOM      3  C1  OXE d   1      -3.438  -1.120   0.693  0.00  0.00    -0.078 A 
ATOM      4  C2  OXE d   1      -2.175  -0.846   1.161  0.00  0.00    -0.078 A 
ATOM      5  C3  OXE d   1      -1.221  -1.859   1.204  0.00  0.00     0.003 A 
ATOM      6  C4  OXE d   1      -1.488  -3.109   0.634  0.00  0.00    -0.002 A 
ATOM      7  C5  OXE d   1      -2.756  -3.397   0.116  0.00  0.00    -0.002 A 
ATOM      8  C6  OXE d   1      -3.752  -2.429   0.177  0.00  0.00     0.003 A 
ENDROOT
TORSDOF 0
ENDMDL
