MODEL 1
REMARK minimizedAffinity 11.604001
REMARK minimizedRMSD -1
REMARK  0 active torsions:
REMARK  status: ('A' for Active; 'I' for Inactive)
ROOT
ATOM      1  C2' OXE d   1       1.336   3.004   2.576  0.00  0.00     0.078 C 
ATOM      2  C1' OXE d   1       1.198   0.367   3.529  0.00  0.00     0.078 C 
ATOM      3  C1  OXE d   1      -0.042   0.956   2.905  0.00  0.00    -0.078 A 
ATOM      4  C2  OXE d   1       0.020   2.262   2.484  0.00  0.00    -0.078 A 
ATOM      5  C3  OXE d   1      -1.079   2.836   1.851  0.00  0.00     0.003 A 
ATOM      6  C4  OXE d   1      -2.295   2.146   1.779  0.00  0.00    -0.002 A 
ATOM      7  C5  OXE d   1      -2.392   0.829   2.238  0.00  0.00    -0.002 A 
ATOM      8  C6  OXE d   1      -1.266   0.205   2.764  0.00  0.00     0.003 A 
ENDROOT
TORSDOF 0
ENDMDL
