MODEL 1
REMARK minimizedAffinity 13.4522324
REMARK minimizedRMSD -1
REMARK  0 active torsions:
REMARK  status: ('A' for Active; 'I' for Inactive)
ROOT
ATOM      1  C2' OXE d   1       5.571  -2.032   2.293  0.00  0.00     0.078 C 
ATOM      2  C1' OXE d   1       5.647   0.772   2.177  0.00  0.00     0.078 C 
ATOM      3  C1  OXE d   1       5.773   0.120   3.532  0.00  0.00    -0.078 A 
ATOM      4  C2  OXE d   1       5.687  -1.251   3.584  0.00  0.00    -0.078 A 
ATOM      5  C3  OXE d   1       5.852  -1.906   4.801  0.00  0.00     0.003 A 
ATOM      6  C4  OXE d   1       5.949  -1.175   5.992  0.00  0.00    -0.002 A 
ATOM      7  C5  OXE d   1       5.998   0.222   5.965  0.00  0.00    -0.002 A 
ATOM      8  C6  OXE d   1       5.954   0.883   4.742  0.00  0.00     0.003 A 
ENDROOT
TORSDOF 0
ENDMDL
