MODEL 1
REMARK minimizedAffinity 6.92184639
REMARK minimizedRMSD -1
REMARK  0 active torsions:
REMARK  status: ('A' for Active; 'I' for Inactive)
ROOT
ATOM      1  C2' OXE d   1      -5.325   0.748   0.528  0.00  0.00     0.078 C 
ATOM      2  C1' OXE d   1      -4.510  -1.889   0.015  0.00  0.00     0.078 C 
ATOM      3  C1  OXE d   1      -3.554  -0.989   0.757  0.00  0.00    -0.078 A 
ATOM      4  C2  OXE d   1      -3.942   0.313   0.963  0.00  0.00    -0.078 A 
ATOM      5  C3  OXE d   1      -3.121   1.171   1.690  0.00  0.00     0.003 A 
ATOM      6  C4  OXE d   1      -1.839   0.763   2.080  0.00  0.00    -0.002 A 
ATOM      7  C5  OXE d   1      -1.409  -0.547   1.845  0.00  0.00    -0.002 A 
ATOM      8  C6  OXE d   1      -2.269  -1.446   1.225  0.00  0.00     0.003 A 
ENDROOT
TORSDOF 0
ENDMDL
