MODEL 1
REMARK minimizedAffinity 6.8632803
REMARK minimizedRMSD -1
REMARK  0 active torsions:
REMARK  status: ('A' for Active; 'I' for Inactive)
ROOT
ATOM      1  C2' OXE d   1      -3.032   0.949   3.282  0.00  0.00     0.078 C 
ATOM      2  C1' OXE d   1      -3.079   0.027   0.631  0.00  0.00     0.078 C 
ATOM      3  C1  OXE d   1      -1.735   0.318   1.251  0.00  0.00    -0.078 A 
ATOM      4  C2  OXE d   1      -1.724   0.813   2.533  0.00  0.00    -0.078 A 
ATOM      5  C3  OXE d   1      -0.509   1.047   3.171  0.00  0.00     0.003 A 
ATOM      6  C4  OXE d   1       0.695   0.928   2.468  0.00  0.00    -0.002 A 
ATOM      7  C5  OXE d   1       0.704   0.463   1.148  0.00  0.00    -0.002 A 
ATOM      8  C6  OXE d   1      -0.497   0.114   0.541  0.00  0.00     0.003 A 
ENDROOT
TORSDOF 0
ENDMDL
