MODEL 1
REMARK minimizedAffinity 4.14173698
REMARK minimizedRMSD -1
REMARK  0 active torsions:
REMARK  status: ('A' for Active; 'I' for Inactive)
ROOT
ATOM      1  C2' OXE d   1      -5.302   0.398   3.437  0.00  0.00     0.078 C 
ATOM      2  C1' OXE d   1      -4.777   1.068   0.762  0.00  0.00     0.078 C 
ATOM      3  C1  OXE d   1      -3.603   0.729   1.646  0.00  0.00    -0.078 A 
ATOM      4  C2  OXE d   1      -3.865   0.448   2.965  0.00  0.00    -0.078 A 
ATOM      5  C3  OXE d   1      -2.824   0.075   3.810  0.00  0.00     0.003 A 
ATOM      6  C4  OXE d   1      -1.497   0.133   3.369  0.00  0.00    -0.002 A 
ATOM      7  C5  OXE d   1      -1.205   0.455   2.039  0.00  0.00    -0.002 A 
ATOM      8  C6  OXE d   1      -2.247   0.714   1.156  0.00  0.00     0.003 A 
ENDROOT
TORSDOF 0
ENDMDL
