MODEL 1
REMARK minimizedAffinity 6.89112377
REMARK minimizedRMSD -1
REMARK  0 active torsions:
REMARK  status: ('A' for Active; 'I' for Inactive)
ROOT
ATOM      1  C2' OXE d   1      -3.867  -4.689  -5.927  0.00  0.00     0.078 C 
ATOM      2  C1' OXE d   1      -5.408  -2.344  -5.904  0.00  0.00     0.078 C 
ATOM      3  C1  OXE d   1      -3.908  -2.199  -5.944  0.00  0.00    -0.078 A 
ATOM      4  C2  OXE d   1      -3.160  -3.351  -5.908  0.00  0.00    -0.078 A 
ATOM      5  C3  OXE d   1      -1.773  -3.276  -5.998  0.00  0.00     0.003 A 
ATOM      6  C4  OXE d   1      -1.127  -2.034  -5.971  0.00  0.00    -0.002 A 
ATOM      7  C5  OXE d   1      -1.868  -0.848  -5.968  0.00  0.00    -0.002 A 
ATOM      8  C6  OXE d   1      -3.257  -0.913  -5.997  0.00  0.00     0.003 A 
ENDROOT
TORSDOF 0
ENDMDL
