MODEL 1
REMARK minimizedAffinity 11.860755
REMARK minimizedRMSD -1
REMARK  0 active torsions:
REMARK  status: ('A' for Active; 'I' for Inactive)
ROOT
ATOM      1  C2' OXE d   1      -3.821   1.046   0.029  0.00  0.00     0.078 C 
ATOM      2  C1' OXE d   1      -1.732   1.185   1.899  0.00  0.00     0.078 C 
ATOM      3  C1  OXE d   1      -3.118   0.888   2.414  0.00  0.00    -0.078 A 
ATOM      4  C2  OXE d   1      -4.142   0.868   1.498  0.00  0.00    -0.078 A 
ATOM      5  C3  OXE d   1      -5.431   0.545   1.911  0.00  0.00     0.003 A 
ATOM      6  C4  OXE d   1      -5.721   0.392   3.272  0.00  0.00    -0.002 A 
ATOM      7  C5  OXE d   1      -4.700   0.448   4.227  0.00  0.00    -0.002 A 
ATOM      8  C6  OXE d   1      -3.389   0.652   3.811  0.00  0.00     0.003 A 
ENDROOT
TORSDOF 0
ENDMDL
