MODEL 1
REMARK minimizedAffinity 2.34780097
REMARK minimizedRMSD -1
REMARK  0 active torsions:
REMARK  status: ('A' for Active; 'I' for Inactive)
ROOT
ATOM      1  C2' OXE d   1       0.965   2.653   4.825  0.00  0.00     0.078 C 
ATOM      2  C1' OXE d   1      -1.581   2.618   3.643  0.00  0.00     0.078 C 
ATOM      3  C1  OXE d   1      -0.548   1.655   3.115  0.00  0.00    -0.078 A 
ATOM      4  C2  OXE d   1       0.709   1.710   3.668  0.00  0.00    -0.078 A 
ATOM      5  C3  OXE d   1       1.684   0.806   3.256  0.00  0.00     0.003 A 
ATOM      6  C4  OXE d   1       1.442  -0.055   2.179  0.00  0.00    -0.002 A 
ATOM      7  C5  OXE d   1       0.181  -0.100   1.576  0.00  0.00    -0.002 A 
ATOM      8  C6  OXE d   1      -0.836   0.716   2.059  0.00  0.00     0.003 A 
ENDROOT
TORSDOF 0
ENDMDL
