MODEL 1
REMARK minimizedAffinity -3.6378479
REMARK minimizedRMSD -1
REMARK  0 active torsions:
REMARK  status: ('A' for Active; 'I' for Inactive)
ROOT
ATOM      1  C   UNL d   1       4.491   3.244  -1.583  0.00  0.00     0.077 C 
ATOM      2  C1  UNL d   1       3.718   2.641  -0.448  0.00  0.00    -0.074 A 
ATOM      3  C2  UNL d   1       4.144   2.798   0.875  0.00  0.00    -0.005 A 
ATOM      4  C3  UNL d   1       3.409   2.239   1.920  0.00  0.00     0.006 A 
ATOM      5  C4  UNL d   1       2.245   1.518   1.654  0.00  0.00    -0.005 A 
ATOM      6  C5  UNL d   1       1.804   1.351   0.338  0.00  0.00    -0.074 A 
ATOM      7  C6  UNL d   1       0.549   0.587   0.035  0.00  0.00     0.077 C 
ATOM      8  C7  UNL d   1       2.543   1.922  -0.707  0.00  0.00    -0.001 A 
ENDROOT
TORSDOF 0
ENDMDL
