MODEL 1
REMARK minimizedAffinity -1.57397711
REMARK minimizedRMSD -1
REMARK  0 active torsions:
REMARK  status: ('A' for Active; 'I' for Inactive)
ROOT
ATOM      1  C   UNL d   1      -1.112  -2.920   1.300  0.00  0.00     0.077 C 
ATOM      2  C1  UNL d   1      -0.750  -1.699   0.509  0.00  0.00    -0.074 A 
ATOM      3  C2  UNL d   1      -1.537  -1.281  -0.569  0.00  0.00    -0.005 A 
ATOM      4  C3  UNL d   1      -1.194  -0.138  -1.290  0.00  0.00     0.006 A 
ATOM      5  C4  UNL d   1      -0.061   0.599  -0.942  0.00  0.00    -0.005 A 
ATOM      6  C5  UNL d   1       0.738   0.197   0.134  0.00  0.00    -0.074 A 
ATOM      7  C6  UNL d   1       1.953   0.983   0.528  0.00  0.00     0.077 C 
ATOM      8  C7  UNL d   1       0.382  -0.949   0.858  0.00  0.00    -0.001 A 
ENDROOT
TORSDOF 0
ENDMDL
