MODEL 1
REMARK minimizedAffinity -3.05303502
REMARK minimizedRMSD -1
REMARK  0 active torsions:
REMARK  status: ('A' for Active; 'I' for Inactive)
ROOT
ATOM      1  C   UNL d   1       4.564   2.705  -1.981  0.00  0.00     0.077 C 
ATOM      2  C1  UNL d   1       3.649   2.408  -0.830  0.00  0.00    -0.074 A 
ATOM      3  C2  UNL d   1       3.473   3.332   0.205  0.00  0.00    -0.005 A 
ATOM      4  C3  UNL d   1       2.612   3.046   1.265  0.00  0.00     0.006 A 
ATOM      5  C4  UNL d   1       1.920   1.835   1.300  0.00  0.00    -0.005 A 
ATOM      6  C5  UNL d   1       2.082   0.899   0.273  0.00  0.00    -0.074 A 
ATOM      7  C6  UNL d   1       1.338  -0.403   0.291  0.00  0.00     0.077 C 
ATOM      8  C7  UNL d   1       2.944   1.197  -0.791  0.00  0.00    -0.001 A 
ENDROOT
TORSDOF 0
ENDMDL
