MODEL 1
REMARK minimizedAffinity 0.475130349
REMARK minimizedRMSD -1
REMARK  0 active torsions:
REMARK  status: ('A' for Active; 'I' for Inactive)
ROOT
ATOM      1  C   UNL d   1       0.990  -1.133   1.809  0.00  0.00     0.077 C 
ATOM      2  C1  UNL d   1       0.548  -0.558   0.496  0.00  0.00    -0.074 A 
ATOM      3  C2  UNL d   1       1.429   0.184  -0.297  0.00  0.00    -0.005 A 
ATOM      4  C3  UNL d   1       1.006   0.704  -1.520  0.00  0.00     0.006 A 
ATOM      5  C4  UNL d   1      -0.300   0.487  -1.962  0.00  0.00    -0.005 A 
ATOM      6  C5  UNL d   1      -1.195  -0.254  -1.183  0.00  0.00    -0.074 A 
ATOM      7  C6  UNL d   1      -2.598  -0.505  -1.648  0.00  0.00     0.077 C 
ATOM      8  C7  UNL d   1      -0.760  -0.779   0.041  0.00  0.00    -0.001 A 
ENDROOT
TORSDOF 0
ENDMDL
