MODEL 1
REMARK minimizedAffinity -3.86294985
REMARK minimizedRMSD -1
REMARK  0 active torsions:
REMARK  status: ('A' for Active; 'I' for Inactive)
ROOT
ATOM      1  C   UNL d   1      -0.821  -2.530   1.982  0.00  0.00     0.077 C 
ATOM      2  C1  UNL d   1      -0.833  -1.577   0.824  0.00  0.00    -0.074 A 
ATOM      3  C2  UNL d   1      -1.974  -1.426   0.030  0.00  0.00    -0.005 A 
ATOM      4  C3  UNL d   1      -1.974  -0.529  -1.038  0.00  0.00     0.006 A 
ATOM      5  C4  UNL d   1      -0.835   0.225  -1.322  0.00  0.00    -0.005 A 
ATOM      6  C5  UNL d   1       0.315   0.088  -0.538  0.00  0.00    -0.074 A 
ATOM      7  C6  UNL d   1       1.545   0.898  -0.824  0.00  0.00     0.077 C 
ATOM      8  C7  UNL d   1       0.305  -0.810   0.537  0.00  0.00    -0.001 A 
ENDROOT
TORSDOF 0
ENDMDL
