MODEL 1
REMARK minimizedAffinity -3.87103128
REMARK minimizedRMSD -1
REMARK  0 active torsions:
REMARK  status: ('A' for Active; 'I' for Inactive)
ROOT
ATOM      1  C   UNL d   1       4.510   3.191  -1.909  0.00  0.00     0.077 C 
ATOM      2  C1  UNL d   1       3.578   2.875  -0.777  0.00  0.00    -0.074 A 
ATOM      3  C2  UNL d   1       3.552   3.668   0.375  0.00  0.00    -0.005 A 
ATOM      4  C3  UNL d   1       2.673   3.368   1.415  0.00  0.00     0.006 A 
ATOM      5  C4  UNL d   1       1.813   2.273   1.315  0.00  0.00    -0.005 A 
ATOM      6  C5  UNL d   1       1.825   1.470   0.171  0.00  0.00    -0.074 A 
ATOM      7  C6  UNL d   1       0.900   0.296   0.043  0.00  0.00     0.077 C 
ATOM      8  C7  UNL d   1       2.706   1.782  -0.874  0.00  0.00    -0.001 A 
ENDROOT
TORSDOF 0
ENDMDL
