MODEL 1
REMARK minimizedAffinity -2.2036736
REMARK minimizedRMSD -1
REMARK  0 active torsions:
REMARK  status: ('A' for Active; 'I' for Inactive)
ROOT
ATOM      1  C   UNL d   1      -1.181  -3.041   1.273  0.00  0.00     0.077 C 
ATOM      2  C1  UNL d   1      -1.103  -1.840   0.379  0.00  0.00    -0.074 A 
ATOM      3  C2  UNL d   1      -2.071  -1.611  -0.604  0.00  0.00    -0.005 A 
ATOM      4  C3  UNL d   1      -1.991  -0.485  -1.422  0.00  0.00     0.006 A 
ATOM      5  C4  UNL d   1      -0.943   0.423  -1.266  0.00  0.00    -0.005 A 
ATOM      6  C5  UNL d   1       0.034   0.212  -0.288  0.00  0.00    -0.074 A 
ATOM      7  C6  UNL d   1       1.162   1.183  -0.101  0.00  0.00     0.077 C 
ATOM      8  C7  UNL d   1      -0.057  -0.919   0.535  0.00  0.00    -0.001 A 
ENDROOT
TORSDOF 0
ENDMDL
