MODEL 1
REMARK minimizedAffinity -2.36471581
REMARK minimizedRMSD -1
REMARK  0 active torsions:
REMARK  status: ('A' for Active; 'I' for Inactive)
ROOT
ATOM      1  C   UNL d   1      -1.862   0.700  -2.468  0.00  0.00     0.077 C 
ATOM      2  C1  UNL d   1      -0.969   0.268  -1.344  0.00  0.00    -0.074 A 
ATOM      3  C2  UNL d   1      -1.113  -0.992  -0.754  0.00  0.00    -0.005 A 
ATOM      4  C3  UNL d   1      -0.268  -1.383   0.285  0.00  0.00     0.006 A 
ATOM      5  C4  UNL d   1       0.727  -0.519   0.744  0.00  0.00    -0.005 A 
ATOM      6  C5  UNL d   1       0.887   0.744   0.166  0.00  0.00    -0.074 A 
ATOM      7  C6  UNL d   1       1.958   1.681   0.641  0.00  0.00     0.077 C 
ATOM      8  C7  UNL d   1       0.039   1.127  -0.882  0.00  0.00    -0.001 A 
ENDROOT
TORSDOF 0
ENDMDL
