MODEL 1
REMARK minimizedAffinity 4.03280067
REMARK minimizedRMSD -1
REMARK  0 active torsions:
REMARK  status: ('A' for Active; 'I' for Inactive)
ROOT
ATOM      1  C   UNL d   1      -1.417   1.790  -3.600  0.00  0.00     0.077 C 
ATOM      2  C1  UNL d   1      -1.852   0.709  -2.655  0.00  0.00    -0.074 A 
ATOM      3  C2  UNL d   1      -2.632   1.007  -1.533  0.00  0.00    -0.005 A 
ATOM      4  C3  UNL d   1      -3.038  -0.010  -0.668  0.00  0.00     0.006 A 
ATOM      5  C4  UNL d   1      -2.668  -1.332  -0.917  0.00  0.00    -0.005 A 
ATOM      6  C5  UNL d   1      -1.889  -1.649  -2.034  0.00  0.00    -0.074 A 
ATOM      7  C6  UNL d   1      -1.492  -3.066  -2.322  0.00  0.00     0.077 C 
ATOM      8  C7  UNL d   1      -1.492  -0.623  -2.902  0.00  0.00    -0.001 A 
ENDROOT
TORSDOF 0
ENDMDL
