MODEL 1
REMARK minimizedAffinity -4.50213766
REMARK minimizedRMSD -1
REMARK  0 active torsions:
REMARK  status: ('A' for Active; 'I' for Inactive)
ROOT
ATOM      1  C   UNL d   1       4.086   3.223  -0.832  0.00  0.00     0.077 C 
ATOM      2  C1  UNL d   1       3.240   2.378   0.073  0.00  0.00    -0.074 A 
ATOM      3  C2  UNL d   1       3.454   2.369   1.455  0.00  0.00    -0.005 A 
ATOM      4  C3  UNL d   1       2.653   1.585   2.286  0.00  0.00     0.006 A 
ATOM      5  C4  UNL d   1       1.632   0.804   1.744  0.00  0.00    -0.005 A 
ATOM      6  C5  UNL d   1       1.402   0.801   0.364  0.00  0.00    -0.074 A 
ATOM      7  C6  UNL d   1       0.303  -0.025  -0.234  0.00  0.00     0.077 C 
ATOM      8  C7  UNL d   1       2.207   1.597  -0.463  0.00  0.00    -0.001 A 
ENDROOT
TORSDOF 0
ENDMDL
