MODEL 1
REMARK minimizedAffinity -3.137784
REMARK minimizedRMSD -1
REMARK  0 active torsions:
REMARK  status: ('A' for Active; 'I' for Inactive)
ROOT
ATOM      1  C   UNL d   1      -0.736  -3.203   1.697  0.00  0.00     0.077 C 
ATOM      2  C1  UNL d   1      -1.325  -2.240   0.709  0.00  0.00    -0.074 A 
ATOM      3  C2  UNL d   1      -2.571  -2.483   0.123  0.00  0.00    -0.005 A 
ATOM      4  C3  UNL d   1      -3.110  -1.573  -0.787  0.00  0.00     0.006 A 
ATOM      5  C4  UNL d   1      -2.409  -0.413  -1.119  0.00  0.00    -0.005 A 
ATOM      6  C5  UNL d   1      -1.162  -0.153  -0.542  0.00  0.00    -0.074 A 
ATOM      7  C6  UNL d   1      -0.401   1.095  -0.880  0.00  0.00     0.077 C 
ATOM      8  C7  UNL d   1      -0.631  -1.068   0.377  0.00  0.00    -0.001 A 
ENDROOT
TORSDOF 0
ENDMDL
