MODEL 1
REMARK minimizedAffinity -1.75647295
REMARK minimizedRMSD -1
REMARK  0 active torsions:
REMARK  status: ('A' for Active; 'I' for Inactive)
ROOT
ATOM      1  C   UNL d   1       1.321   0.547  -0.015  0.00  0.00     0.077 C 
ATOM      2  C1  UNL d   1       0.023   0.081  -0.605  0.00  0.00    -0.074 A 
ATOM      3  C2  UNL d   1      -0.528   0.717  -1.722  0.00  0.00    -0.005 A 
ATOM      4  C3  UNL d   1      -1.731   0.267  -2.266  0.00  0.00     0.006 A 
ATOM      5  C4  UNL d   1      -2.394  -0.822  -1.699  0.00  0.00    -0.005 A 
ATOM      6  C5  UNL d   1      -1.858  -1.471  -0.583  0.00  0.00    -0.074 A 
ATOM      7  C6  UNL d   1      -2.553  -2.649   0.033  0.00  0.00     0.077 C 
ATOM      8  C7  UNL d   1      -0.645  -1.017  -0.046  0.00  0.00    -0.001 A 
ENDROOT
TORSDOF 0
ENDMDL
