MODEL 1
REMARK minimizedAffinity -4.06732845
REMARK minimizedRMSD -1
REMARK  0 active torsions:
REMARK  status: ('A' for Active; 'I' for Inactive)
ROOT
ATOM      1  C   UNL d   1       2.003  -0.500   0.984  0.00  0.00     0.077 C 
ATOM      2  C1  UNL d   1       2.333   0.956   1.120  0.00  0.00    -0.074 A 
ATOM      3  C2  UNL d   1       2.009   1.661   2.284  0.00  0.00    -0.005 A 
ATOM      4  C3  UNL d   1       2.331   3.014   2.400  0.00  0.00     0.006 A 
ATOM      5  C4  UNL d   1       2.979   3.674   1.355  0.00  0.00    -0.005 A 
ATOM      6  C5  UNL d   1       3.311   2.985   0.184  0.00  0.00    -0.074 A 
ATOM      7  C6  UNL d   1       4.016   3.677  -0.945  0.00  0.00     0.077 C 
ATOM      8  C7  UNL d   1       2.991   1.625   0.078  0.00  0.00    -0.001 A 
ENDROOT
TORSDOF 0
ENDMDL
