MODEL 1
REMARK minimizedAffinity -3.02909684
REMARK minimizedRMSD -1
REMARK  0 active torsions:
REMARK  status: ('A' for Active; 'I' for Inactive)
ROOT
ATOM      1  C   UNL d   1      -1.434   0.660  -1.532  0.00  0.00     0.077 C 
ATOM      2  C1  UNL d   1      -0.208   0.781  -0.678  0.00  0.00    -0.074 A 
ATOM      3  C2  UNL d   1       0.380  -0.349  -0.099  0.00  0.00    -0.005 A 
ATOM      4  C3  UNL d   1       1.526  -0.222   0.685  0.00  0.00     0.006 A 
ATOM      5  C4  UNL d   1       2.096   1.034   0.898  0.00  0.00    -0.005 A 
ATOM      6  C5  UNL d   1       1.523   2.174   0.327  0.00  0.00    -0.074 A 
ATOM      7  C6  UNL d   1       2.129   3.530   0.539  0.00  0.00     0.077 C 
ATOM      8  C7  UNL d   1       0.375   2.038  -0.465  0.00  0.00    -0.001 A 
ENDROOT
TORSDOF 0
ENDMDL
