MODEL 1
REMARK minimizedAffinity 2.50797176
REMARK minimizedRMSD -1
REMARK  0 active torsions:
REMARK  status: ('A' for Active; 'I' for Inactive)
ROOT
ATOM      1  C   UNL d   1       0.584   3.624   0.798  0.00  0.00     0.124 A 
ATOM      2  C1  UNL d   1       0.089   2.893  -0.273  0.00  0.00     0.062 A 
ATOM      3  C2  UNL d   1       0.093   1.501  -0.231  0.00  0.00     0.162 A 
ATOM      4  C3  UNL d   1       0.593   0.832   0.886  0.00  0.00    -0.034 A 
ATOM      5  C4  UNL d   1       1.090   1.575   1.958  0.00  0.00     0.162 A 
ATOM      6  C5  UNL d   1       1.083   2.965   1.912  0.00  0.00     0.062 A 
ATOM      7  F   UNL d   1       1.562   3.671   2.947  0.00  0.00    -0.097 F 
ATOM      8  F1  UNL d   1       1.578   0.964   3.048  0.00  0.00    -0.096 F 
ATOM      9  I   UNL d   1       0.601  -1.248   0.952  0.00  0.00    -0.060 I 
ATOM     10  F2  UNL d   1      -0.392   0.820  -1.280  0.00  0.00    -0.096 F 
ATOM     11  F3  UNL d   1      -0.394   3.527  -1.351  0.00  0.00    -0.097 F 
ATOM     12  F4  UNL d   1       0.579   4.963   0.754  0.00  0.00    -0.092 F 
ENDROOT
TORSDOF 0
ENDMDL
