MODEL 1
REMARK minimizedAffinity 15.7635555
REMARK minimizedRMSD -1
REMARK  0 active torsions:
REMARK  status: ('A' for Active; 'I' for Inactive)
ROOT
ATOM      1  C   UNL d   1       0.452   1.349   0.290  0.00  0.00     0.124 A 
ATOM      2  C1  UNL d   1       0.329   1.177  -1.082  0.00  0.00     0.062 A 
ATOM      3  C2  UNL d   1      -0.452   2.054  -1.830  0.00  0.00     0.162 A 
ATOM      4  C3  UNL d   1      -1.113   3.113  -1.208  0.00  0.00    -0.034 A 
ATOM      5  C4  UNL d   1      -0.985   3.279   0.172  0.00  0.00     0.162 A 
ATOM      6  C5  UNL d   1      -0.204   2.400   0.915  0.00  0.00     0.062 A 
ATOM      7  F   UNL d   1      -0.086   2.568   2.240  0.00  0.00    -0.097 F 
ATOM      8  F1  UNL d   1      -1.608   4.286   0.802  0.00  0.00    -0.096 F 
ATOM      9  I   UNL d   1      -2.281   4.426  -2.323  0.00  0.00    -0.060 I 
ATOM     10  F2  UNL d   1      -0.553   1.863  -3.154  0.00  0.00    -0.096 F 
ATOM     11  F3  UNL d   1       0.961   0.162  -1.689  0.00  0.00    -0.097 F 
ATOM     12  F4  UNL d   1       1.203   0.503   1.007  0.00  0.00    -0.092 F 
ENDROOT
TORSDOF 0
ENDMDL
