MODEL 1
REMARK minimizedAffinity 8.82280636
REMARK minimizedRMSD -1
REMARK  0 active torsions:
REMARK  status: ('A' for Active; 'I' for Inactive)
ROOT
ATOM      1  C   UNL d   1       0.263   4.205   1.481  0.00  0.00     0.124 A 
ATOM      2  C1  UNL d   1       1.519   3.654   1.696  0.00  0.00     0.062 A 
ATOM      3  C2  UNL d   1       1.640   2.377   2.235  0.00  0.00     0.162 A 
ATOM      4  C3  UNL d   1       0.502   1.640   2.562  0.00  0.00    -0.034 A 
ATOM      5  C4  UNL d   1      -0.758   2.201   2.344  0.00  0.00     0.162 A 
ATOM      6  C5  UNL d   1      -0.874   3.478   1.805  0.00  0.00     0.062 A 
ATOM      7  F   UNL d   1      -2.088   4.008   1.597  0.00  0.00    -0.097 F 
ATOM      8  F1  UNL d   1      -1.873   1.520   2.647  0.00  0.00    -0.096 F 
ATOM      9  I   UNL d   1       0.679  -0.270   3.369  0.00  0.00    -0.060 I 
ATOM     10  F2  UNL d   1       2.866   1.870   2.433  0.00  0.00    -0.096 F 
ATOM     11  F3  UNL d   1       2.619   4.355   1.385  0.00  0.00    -0.097 F 
ATOM     12  F4  UNL d   1       0.149   5.435   0.963  0.00  0.00    -0.092 F 
ENDROOT
TORSDOF 0
ENDMDL
