MODEL 1
REMARK minimizedAffinity 14.5781927
REMARK minimizedRMSD -1
REMARK  0 active torsions:
REMARK  status: ('A' for Active; 'I' for Inactive)
ROOT
ATOM      1  C   UNL d   1       0.045  -3.571  -1.163  0.00  0.00     0.124 A 
ATOM      2  C1  UNL d   1       0.925  -2.571  -0.770  0.00  0.00     0.062 A 
ATOM      3  C2  UNL d   1       0.811  -1.290  -1.303  0.00  0.00     0.162 A 
ATOM      4  C3  UNL d   1      -0.187  -1.001  -2.234  0.00  0.00    -0.034 A 
ATOM      5  C4  UNL d   1      -1.067  -2.012  -2.624  0.00  0.00     0.162 A 
ATOM      6  C5  UNL d   1      -0.949  -3.291  -2.089  0.00  0.00     0.062 A 
ATOM      7  F   UNL d   1      -1.800  -4.255  -2.469  0.00  0.00    -0.097 F 
ATOM      8  F1  UNL d   1      -2.039  -1.769  -3.517  0.00  0.00    -0.096 F 
ATOM      9  I   UNL d   1      -0.361   0.913  -3.033  0.00  0.00    -0.060 I 
ATOM     10  F2  UNL d   1       1.674  -0.343  -0.906  0.00  0.00    -0.096 F 
ATOM     11  F3  UNL d   1       1.887  -2.839   0.124  0.00  0.00    -0.097 F 
ATOM     12  F4  UNL d   1       0.158  -4.802  -0.649  0.00  0.00    -0.092 F 
ENDROOT
TORSDOF 0
ENDMDL
