MODEL 1
REMARK minimizedAffinity 6.93570662
REMARK minimizedRMSD -1
REMARK  0 active torsions:
REMARK  status: ('A' for Active; 'I' for Inactive)
ROOT
ATOM      1  C   UNL d   1       1.481  -0.279   0.460  0.00  0.00     0.124 A 
ATOM      2  C1  UNL d   1       0.580   0.352  -0.387  0.00  0.00     0.062 A 
ATOM      3  C2  UNL d   1      -0.080   1.505   0.027  0.00  0.00     0.162 A 
ATOM      4  C3  UNL d   1       0.160   2.037   1.295  0.00  0.00    -0.034 A 
ATOM      5  C4  UNL d   1       1.067   1.396   2.141  0.00  0.00     0.162 A 
ATOM      6  C5  UNL d   1       1.723   0.243   1.722  0.00  0.00     0.062 A 
ATOM      7  F   UNL d   1       2.594  -0.364   2.542  0.00  0.00    -0.097 F 
ATOM      8  F1  UNL d   1       1.321   1.880   3.366  0.00  0.00    -0.096 F 
ATOM      9  I   UNL d   1      -0.825   3.761   1.917  0.00  0.00    -0.060 I 
ATOM     10  F2  UNL d   1      -0.945   2.094  -0.811  0.00  0.00    -0.096 F 
ATOM     11  F3  UNL d   1       0.343  -0.152  -1.606  0.00  0.00    -0.097 F 
ATOM     12  F4  UNL d   1       2.114  -1.389   0.060  0.00  0.00    -0.092 F 
ENDROOT
TORSDOF 0
ENDMDL
