MODEL 1
REMARK minimizedAffinity 1.5399648
REMARK minimizedRMSD -1
REMARK  0 active torsions:
REMARK  status: ('A' for Active; 'I' for Inactive)
ROOT
ATOM      1  C   UNL d   1       1.351   2.595   2.395  0.00  0.00     0.124 A 
ATOM      2  C1  UNL d   1       0.435   2.331   1.386  0.00  0.00     0.062 A 
ATOM      3  C2  UNL d   1       0.254   3.243   0.350  0.00  0.00     0.162 A 
ATOM      4  C3  UNL d   1       0.990   4.427   0.318  0.00  0.00    -0.034 A 
ATOM      5  C4  UNL d   1       1.908   4.686   1.337  0.00  0.00     0.162 A 
ATOM      6  C5  UNL d   1       2.086   3.771   2.370  0.00  0.00     0.062 A 
ATOM      7  F   UNL d   1       2.971   4.028   3.345  0.00  0.00    -0.097 F 
ATOM      8  F1  UNL d   1       2.632   5.815   1.337  0.00  0.00    -0.096 F 
ATOM      9  I   UNL d   1       0.721   5.793  -1.229  0.00  0.00    -0.060 I 
ATOM     10  F2  UNL d   1      -0.638   2.962  -0.612  0.00  0.00    -0.096 F 
ATOM     11  F3  UNL d   1      -0.277   1.195   1.408  0.00  0.00    -0.097 F 
ATOM     12  F4  UNL d   1       1.523   1.716   3.391  0.00  0.00    -0.092 F 
ENDROOT
TORSDOF 0
ENDMDL
