MODEL 1
REMARK minimizedAffinity 2.37619495
REMARK minimizedRMSD -1
REMARK  0 active torsions:
REMARK  status: ('A' for Active; 'I' for Inactive)
ROOT
ATOM      1  N1  IND d   1      -0.670  -3.689   2.974  0.00  0.00    -0.196 N 
ATOM      2  C2  IND d   1      -0.945  -2.609   3.765  0.00  0.00     0.054 A 
ATOM      3  C3  IND d   1      -1.376  -1.572   3.013  0.00  0.00    -0.031 A 
ATOM      4  C4  IND d   1      -1.805  -1.459   0.477  0.00  0.00     0.051 A 
ATOM      5  C5  IND d   1      -1.665  -2.185  -0.673  0.00  0.00    -0.031 A 
ATOM      6  C6  IND d   1      -1.179  -3.476  -0.665  0.00  0.00     0.015 A 
ATOM      7  C7  IND d   1      -0.824  -4.097   0.499  0.00  0.00    -0.016 A 
ATOM      8  C8  IND d   1      -0.958  -3.360   1.668  0.00  0.00    -0.047 A 
ATOM      9  C9  IND d   1      -1.410  -2.034   1.661  0.00  0.00    -0.096 A 
ATOM     10  HN1 IND d   1      -0.367  -4.447   3.246  0.00  0.00     0.298 HD
ENDROOT
TORSDOF 0
ENDMDL
