MODEL 1
REMARK minimizedAffinity 1.36716592
REMARK minimizedRMSD -1
REMARK  0 active torsions:
REMARK  status: ('A' for Active; 'I' for Inactive)
ROOT
ATOM      1  N1  IND d   1       3.754   3.810   5.964  0.00  0.00    -0.196 N 
ATOM      2  C2  IND d   1       4.931   4.505   5.970  0.00  0.00     0.054 A 
ATOM      3  C3  IND d   1       5.981   3.654   5.950  0.00  0.00    -0.031 A 
ATOM      4  C4  IND d   1       6.000   1.084   5.802  0.00  0.00     0.051 A 
ATOM      5  C5  IND d   1       5.169  -0.002   5.810  0.00  0.00    -0.031 A 
ATOM      6  C6  IND d   1       3.797   0.131   5.867  0.00  0.00     0.015 A 
ATOM      7  C7  IND d   1       3.201   1.359   5.908  0.00  0.00    -0.016 A 
ATOM      8  C8  IND d   1       4.041   2.464   5.908  0.00  0.00    -0.047 A 
ATOM      9  C9  IND d   1       5.436   2.335   5.893  0.00  0.00    -0.096 A 
ATOM     10  HN1 IND d   1       2.967   4.155   5.990  0.00  0.00     0.298 HD
ENDROOT
TORSDOF 0
ENDMDL
