MODEL 1
REMARK minimizedAffinity 18.8073978
REMARK minimizedRMSD -1
REMARK  0 active torsions:
REMARK  status: ('A' for Active; 'I' for Inactive)
ROOT
ATOM      1  N1  IND d   1      -4.429  -1.100   0.668  0.00  0.00    -0.196 N 
ATOM      2  C2  IND d   1      -5.333  -2.000   1.159  0.00  0.00     0.054 A 
ATOM      3  C3  IND d   1      -4.710  -3.143   1.522  0.00  0.00    -0.031 A 
ATOM      4  C4  IND d   1      -2.200  -3.718   1.493  0.00  0.00     0.051 A 
ATOM      5  C5  IND d   1      -0.988  -3.228   1.096  0.00  0.00    -0.031 A 
ATOM      6  C6  IND d   1      -0.857  -1.978   0.527  0.00  0.00     0.015 A 
ATOM      7  C7  IND d   1      -1.938  -1.162   0.344  0.00  0.00    -0.016 A 
ATOM      8  C8  IND d   1      -3.172  -1.659   0.739  0.00  0.00    -0.047 A 
ATOM      9  C9  IND d   1      -3.316  -2.944   1.278  0.00  0.00    -0.096 A 
ATOM     10  HN1 IND d   1      -4.614  -0.317   0.366  0.00  0.00     0.298 HD
ENDROOT
TORSDOF 0
ENDMDL
