MODEL 1
REMARK minimizedAffinity 18.6529999
REMARK minimizedRMSD -1
REMARK  0 active torsions:
REMARK  status: ('A' for Active; 'I' for Inactive)
ROOT
ATOM      1  N1  IND d   1      -4.589   3.113   1.921  0.00  0.00    -0.196 N 
ATOM      2  C2  IND d   1      -3.372   2.585   1.595  0.00  0.00     0.054 A 
ATOM      3  C3  IND d   1      -2.867   3.204   0.505  0.00  0.00    -0.031 A 
ATOM      4  C4  IND d   1      -3.821   5.179  -0.843  0.00  0.00     0.051 A 
ATOM      5  C5  IND d   1      -4.925   5.978  -0.948  0.00  0.00    -0.031 A 
ATOM      6  C6  IND d   1      -5.994   5.862  -0.084  0.00  0.00     0.015 A 
ATOM      7  C7  IND d   1      -5.994   4.947   0.930  0.00  0.00    -0.016 A 
ATOM      8  C8  IND d   1      -4.877   4.129   1.036  0.00  0.00    -0.047 A 
ATOM      9  C9  IND d   1      -3.808   4.214   0.135  0.00  0.00    -0.096 A 
ATOM     10  HN1 IND d   1      -5.091   2.855   2.570  0.00  0.00     0.298 HD
ENDROOT
TORSDOF 0
ENDMDL
