MODEL 1
REMARK minimizedAffinity 13.0824995
REMARK minimizedRMSD -1
REMARK  0 active torsions:
REMARK  status: ('A' for Active; 'I' for Inactive)
ROOT
ATOM      1  N1  IND d   1      -0.334   0.059  -3.264  0.00  0.00    -0.196 N 
ATOM      2  C2  IND d   1       0.875   0.134  -2.631  0.00  0.00     0.054 A 
ATOM      3  C3  IND d   1       0.779  -0.356  -1.375  0.00  0.00    -0.031 A 
ATOM      4  C4  IND d   1      -1.239  -1.426  -0.186  0.00  0.00     0.051 A 
ATOM      5  C5  IND d   1      -2.571  -1.684  -0.347  0.00  0.00    -0.031 A 
ATOM      6  C6  IND d   1      -3.239  -1.370  -1.513  0.00  0.00     0.015 A 
ATOM      7  C7  IND d   1      -2.594  -0.794  -2.570  0.00  0.00    -0.016 A 
ATOM      8  C8  IND d   1      -1.242  -0.525  -2.408  0.00  0.00    -0.047 A 
ATOM      9  C9  IND d   1      -0.569  -0.802  -1.212  0.00  0.00    -0.096 A 
ATOM     10  HN1 IND d   1      -0.500   0.331  -4.063  0.00  0.00     0.298 HD
ENDROOT
TORSDOF 0
ENDMDL
