MODEL 1
REMARK minimizedAffinity 16.553915
REMARK minimizedRMSD -1
REMARK  0 active torsions:
REMARK  status: ('A' for Active; 'I' for Inactive)
ROOT
ATOM      1  N1  IND d   1      -2.918  -1.518  -0.114  0.00  0.00    -0.196 N 
ATOM      2  C2  IND d   1      -2.465  -1.369   1.167  0.00  0.00     0.054 A 
ATOM      3  C3  IND d   1      -1.126  -1.182   1.174  0.00  0.00    -0.031 A 
ATOM      4  C4  IND d   1       0.508  -0.985  -0.806  0.00  0.00     0.051 A 
ATOM      5  C5  IND d   1       0.568  -1.091  -2.168  0.00  0.00    -0.031 A 
ATOM      6  C6  IND d   1      -0.554  -1.347  -2.930  0.00  0.00     0.015 A 
ATOM      7  C7  IND d   1      -1.785  -1.496  -2.357  0.00  0.00    -0.016 A 
ATOM      8  C8  IND d   1      -1.849  -1.397  -0.974  0.00  0.00    -0.047 A 
ATOM      9  C9  IND d   1      -0.707  -1.179  -0.192  0.00  0.00    -0.096 A 
ATOM     10  HN1 IND d   1      -3.734  -1.664  -0.344  0.00  0.00     0.298 HD
ENDROOT
TORSDOF 0
ENDMDL
