MODEL 1
REMARK minimizedAffinity 22.0372963
REMARK minimizedRMSD -1
REMARK  0 active torsions:
REMARK  status: ('A' for Active; 'I' for Inactive)
ROOT
ATOM      1  N1  IND d   1      -2.378  -5.274   3.779  0.00  0.00    -0.196 N 
ATOM      2  C2  IND d   1      -2.523  -5.999   4.929  0.00  0.00     0.054 A 
ATOM      3  C3  IND d   1      -1.899  -5.381   5.956  0.00  0.00    -0.031 A 
ATOM      4  C4  IND d   1      -0.664  -3.122   6.000  0.00  0.00     0.051 A 
ATOM      5  C5  IND d   1      -0.239  -2.112   5.184  0.00  0.00    -0.031 A 
ATOM      6  C6  IND d   1      -0.512  -2.102   3.832  0.00  0.00     0.015 A 
ATOM      7  C7  IND d   1      -1.235  -3.101   3.244  0.00  0.00    -0.016 A 
ATOM      8  C8  IND d   1      -1.662  -4.133   4.067  0.00  0.00    -0.047 A 
ATOM      9  C9  IND d   1      -1.351  -4.170   5.433  0.00  0.00    -0.096 A 
ATOM     10  HN1 IND d   1      -2.682  -5.494   3.005  0.00  0.00     0.298 HD
ENDROOT
TORSDOF 0
ENDMDL
