MODEL 1
REMARK minimizedAffinity 15.9780941
REMARK minimizedRMSD -1
REMARK  0 active torsions:
REMARK  status: ('A' for Active; 'I' for Inactive)
ROOT
ATOM      1  N1  IND d   1      -4.063   2.611  -5.699  0.00  0.00    -0.196 N 
ATOM      2  C2  IND d   1      -2.952   2.288  -4.970  0.00  0.00     0.054 A 
ATOM      3  C3  IND d   1      -2.739   3.210  -4.005  0.00  0.00    -0.031 A 
ATOM      4  C4  IND d   1      -4.144   5.272  -3.373  0.00  0.00     0.051 A 
ATOM      5  C5  IND d   1      -5.230   6.000  -3.773  0.00  0.00    -0.031 A 
ATOM      6  C6  IND d   1      -6.000   5.626  -4.856  0.00  0.00     0.015 A 
ATOM      7  C7  IND d   1      -5.717   4.499  -5.575  0.00  0.00    -0.016 A 
ATOM      8  C8  IND d   1      -4.611   3.762  -5.176  0.00  0.00    -0.047 A 
ATOM      9  C9  IND d   1      -3.802   4.159  -4.104  0.00  0.00    -0.096 A 
ATOM     10  HN1 IND d   1      -4.369   2.169  -6.370  0.00  0.00     0.298 HD
ENDROOT
TORSDOF 0
ENDMDL
