MODEL 1
REMARK minimizedAffinity 8.55662441
REMARK minimizedRMSD -1
REMARK  0 active torsions:
REMARK  status: ('A' for Active; 'I' for Inactive)
ROOT
ATOM      1  N1  IND d   1      -5.998   4.809   1.207  0.00  0.00    -0.196 N 
ATOM      2  C2  IND d   1      -5.332   3.778   1.808  0.00  0.00     0.054 A 
ATOM      3  C3  IND d   1      -4.331   3.337   1.013  0.00  0.00    -0.031 A 
ATOM      4  C4  IND d   1      -3.544   4.228  -1.271  0.00  0.00     0.051 A 
ATOM      5  C5  IND d   1      -3.864   5.135  -2.242  0.00  0.00    -0.031 A 
ATOM      6  C6  IND d   1      -4.932   5.999  -2.109  0.00  0.00     0.015 A 
ATOM      7  C7  IND d   1      -5.716   5.996  -0.990  0.00  0.00    -0.016 A 
ATOM      8  C8  IND d   1      -5.398   5.072  -0.005  0.00  0.00    -0.047 A 
ATOM      9  C9  IND d   1      -4.342   4.163  -0.153  0.00  0.00    -0.096 A 
ATOM     10  HN1 IND d   1      -6.677   5.224   1.532  0.00  0.00     0.298 HD
ENDROOT
TORSDOF 0
ENDMDL
