MODEL 1
REMARK minimizedAffinity 17.3349552
REMARK minimizedRMSD -1
REMARK  0 active torsions:
REMARK  status: ('A' for Active; 'I' for Inactive)
ROOT
ATOM      1  N1  IND d   1      -4.298  -0.609  -0.668  0.00  0.00    -0.196 N 
ATOM      2  C2  IND d   1      -4.189  -1.237   0.542  0.00  0.00     0.054 A 
ATOM      3  C3  IND d   1      -3.241  -2.199   0.488  0.00  0.00    -0.031 A 
ATOM      4  C4  IND d   1      -1.675  -2.846  -1.450  0.00  0.00     0.051 A 
ATOM      5  C5  IND d   1      -1.423  -2.579  -2.767  0.00  0.00    -0.031 A 
ATOM      6  C6  IND d   1      -2.130  -1.621  -3.464  0.00  0.00     0.015 A 
ATOM      7  C7  IND d   1      -3.111  -0.882  -2.865  0.00  0.00    -0.016 A 
ATOM      8  C8  IND d   1      -3.373  -1.155  -1.530  0.00  0.00    -0.047 A 
ATOM      9  C9  IND d   1      -2.689  -2.156  -0.829  0.00  0.00    -0.096 A 
ATOM     10  HN1 IND d   1      -4.851   0.022  -0.858  0.00  0.00     0.298 HD
ENDROOT
TORSDOF 0
ENDMDL
