MODEL 1
REMARK minimizedAffinity 23.7127514
REMARK minimizedRMSD -1
REMARK  0 active torsions:
REMARK  status: ('A' for Active; 'I' for Inactive)
ROOT
ATOM      1  N1  IND d   1      -0.859  -3.048   3.588  0.00  0.00    -0.196 N 
ATOM      2  C2  IND d   1      -1.693  -2.226   4.293  0.00  0.00     0.054 A 
ATOM      3  C3  IND d   1      -2.402  -1.441   3.451  0.00  0.00    -0.031 A 
ATOM      4  C4  IND d   1      -2.428  -1.408   0.877  0.00  0.00     0.051 A 
ATOM      5  C5  IND d   1      -1.810  -1.952  -0.213  0.00  0.00    -0.031 A 
ATOM      6  C6  IND d   1      -0.825  -2.910  -0.090  0.00  0.00     0.015 A 
ATOM      7  C7  IND d   1      -0.427  -3.371   1.133  0.00  0.00    -0.016 A 
ATOM      8  C8  IND d   1      -1.048  -2.815   2.243  0.00  0.00    -0.047 A 
ATOM      9  C9  IND d   1      -2.019  -1.812   2.126  0.00  0.00    -0.096 A 
ATOM     10  HN1 IND d   1      -0.308  -3.614   3.927  0.00  0.00     0.298 HD
ENDROOT
TORSDOF 0
ENDMDL
