MODEL 1
REMARK minimizedAffinity 7.58670664
REMARK minimizedRMSD -1
REMARK  0 active torsions:
REMARK  status: ('A' for Active; 'I' for Inactive)
ROOT
ATOM      1  N1  IND d   1      -5.398   5.999  -1.999  0.00  0.00    -0.196 N 
ATOM      2  C2  IND d   1      -4.266   5.664  -2.689  0.00  0.00     0.054 A 
ATOM      3  C3  IND d   1      -3.298   5.260  -1.837  0.00  0.00    -0.031 A 
ATOM      4  C4  IND d   1      -3.385   4.974   0.720  0.00  0.00     0.051 A 
ATOM      5  C5  IND d   1      -4.193   5.189   1.801  0.00  0.00    -0.031 A 
ATOM      6  C6  IND d   1      -5.471   5.693   1.668  0.00  0.00     0.015 A 
ATOM      7  C7  IND d   1      -5.994   5.991   0.442  0.00  0.00    -0.016 A 
ATOM      8  C8  IND d   1      -5.174   5.780  -0.658  0.00  0.00    -0.047 A 
ATOM      9  C9  IND d   1      -3.862   5.310  -0.525  0.00  0.00    -0.096 A 
ATOM     10  HN1 IND d   1      -6.126   6.297  -2.345  0.00  0.00     0.298 HD
ENDROOT
TORSDOF 0
ENDMDL
