MODEL 1
REMARK minimizedAffinity 21.6801281
REMARK minimizedRMSD -1
REMARK  0 active torsions:
REMARK  status: ('A' for Active; 'I' for Inactive)
ROOT
ATOM      1  N1  IND d   1      -0.680  -3.566  -3.733  0.00  0.00    -0.196 N 
ATOM      2  C2  IND d   1      -0.873  -2.386  -4.395  0.00  0.00     0.054 A 
ATOM      3  C3  IND d   1      -1.177  -1.400  -3.521  0.00  0.00    -0.031 A 
ATOM      4  C4  IND d   1      -1.310  -1.477  -0.951  0.00  0.00     0.051 A 
ATOM      5  C5  IND d   1      -1.248  -2.342   0.105  0.00  0.00    -0.031 A 
ATOM      6  C6  IND d   1      -0.985  -3.686  -0.067  0.00  0.00     0.015 A 
ATOM      7  C7  IND d   1      -0.763  -4.215  -1.307  0.00  0.00    -0.016 A 
ATOM      8  C8  IND d   1      -0.832  -3.341  -2.382  0.00  0.00    -0.047 A 
ATOM      9  C9  IND d   1      -1.140  -1.984  -2.218  0.00  0.00    -0.096 A 
ATOM     10  HN1 IND d   1      -0.495  -4.322  -4.099  0.00  0.00     0.298 HD
ENDROOT
TORSDOF 0
ENDMDL
