MODEL 1
REMARK minimizedAffinity 12.6570349
REMARK minimizedRMSD -1
REMARK  0 active torsions:
REMARK  status: ('A' for Active; 'I' for Inactive)
ROOT
ATOM      1  N1  IND d   1       4.265   5.357   0.211  0.00  0.00    -0.196 N 
ATOM      2  C2  IND d   1       5.295   5.999  -0.419  0.00  0.00     0.054 A 
ATOM      3  C3  IND d   1       5.989   5.131  -1.189  0.00  0.00    -0.031 A 
ATOM      4  C4  IND d   1       5.549   2.636  -1.645  0.00  0.00     0.051 A 
ATOM      5  C5  IND d   1       4.744   1.597  -1.267  0.00  0.00    -0.031 A 
ATOM      6  C6  IND d   1       3.717   1.763  -0.361  0.00  0.00     0.015 A 
ATOM      7  C7  IND d   1       3.447   2.981   0.195  0.00  0.00    -0.016 A 
ATOM      8  C8  IND d   1       4.266   4.037  -0.181  0.00  0.00    -0.047 A 
ATOM      9  C9  IND d   1       5.337   3.865  -1.067  0.00  0.00    -0.096 A 
ATOM     10  HN1 IND d   1       3.710   5.718   0.760  0.00  0.00     0.298 HD
ENDROOT
TORSDOF 0
ENDMDL
