MODEL 1
REMARK minimizedAffinity 16.4154148
REMARK minimizedRMSD -1
REMARK  0 active torsions:
REMARK  status: ('A' for Active; 'I' for Inactive)
ROOT
ATOM      1  N1  IND d   1      -0.605  -3.458   1.276  0.00  0.00    -0.196 N 
ATOM      2  C2  IND d   1      -0.918  -3.245   2.590  0.00  0.00     0.054 A 
ATOM      3  C3  IND d   1      -1.855  -2.277   2.700  0.00  0.00    -0.031 A 
ATOM      4  C4  IND d   1      -3.091  -0.980   0.851  0.00  0.00     0.051 A 
ATOM      5  C5  IND d   1      -3.121  -0.802  -0.504  0.00  0.00    -0.031 A 
ATOM      6  C6  IND d   1      -2.299  -1.516  -1.352  0.00  0.00     0.015 A 
ATOM      7  C7  IND d   1      -1.421  -2.447  -0.875  0.00  0.00    -0.016 A 
ATOM      8  C8  IND d   1      -1.383  -2.626   0.501  0.00  0.00    -0.047 A 
ATOM      9  C9  IND d   1      -2.184  -1.874   1.369  0.00  0.00    -0.096 A 
ATOM     10  HN1 IND d   1      -0.021  -4.017   0.984  0.00  0.00     0.298 HD
ENDROOT
TORSDOF 0
ENDMDL
