MODEL 1
REMARK minimizedAffinity 10.2347193
REMARK minimizedRMSD -1
REMARK  0 active torsions:
REMARK  status: ('A' for Active; 'I' for Inactive)
ROOT
ATOM      1  N1  IND d   1      -0.080  -3.141   1.199  0.00  0.00    -0.196 N 
ATOM      2  C2  IND d   1      -0.409  -3.093   2.525  0.00  0.00     0.054 A 
ATOM      3  C3  IND d   1      -1.485  -2.296   2.714  0.00  0.00    -0.031 A 
ATOM      4  C4  IND d   1      -2.926  -1.055   0.979  0.00  0.00     0.051 A 
ATOM      5  C5  IND d   1      -2.996  -0.768  -0.355  0.00  0.00    -0.031 A 
ATOM      6  C6  IND d   1      -2.082  -1.270  -1.258  0.00  0.00     0.015 A 
ATOM      7  C7  IND d   1      -1.064  -2.090  -0.860  0.00  0.00    -0.016 A 
ATOM      8  C8  IND d   1      -0.986  -2.378   0.495  0.00  0.00    -0.047 A 
ATOM      9  C9  IND d   1      -1.886  -1.837   1.422  0.00  0.00    -0.096 A 
ATOM     10  HN1 IND d   1       0.580  -3.576   0.862  0.00  0.00     0.298 HD
ENDROOT
TORSDOF 0
ENDMDL
