MODEL 1
REMARK minimizedAffinity 12.185112
REMARK minimizedRMSD -1
REMARK  0 active torsions:
REMARK  status: ('A' for Active; 'I' for Inactive)
ROOT
ATOM      1  N1  IND d   1      -4.103   0.936   5.991  0.00  0.00    -0.196 N 
ATOM      2  C2  IND d   1      -3.186   1.949   5.989  0.00  0.00     0.054 A 
ATOM      3  C3  IND d   1      -1.931   1.447   5.958  0.00  0.00    -0.031 A 
ATOM      4  C4  IND d   1      -1.152  -1.001   5.805  0.00  0.00     0.051 A 
ATOM      5  C5  IND d   1      -1.623  -2.284   5.817  0.00  0.00    -0.031 A 
ATOM      6  C6  IND d   1      -2.972  -2.565   5.887  0.00  0.00     0.015 A 
ATOM      7  C7  IND d   1      -3.905  -1.569   5.935  0.00  0.00    -0.016 A 
ATOM      8  C8  IND d   1      -3.430  -0.265   5.930  0.00  0.00    -0.047 A 
ATOM      9  C9  IND d   1      -2.060   0.026   5.903  0.00  0.00    -0.096 A 
ATOM     10  HN1 IND d   1      -4.957   1.032   6.025  0.00  0.00     0.298 HD
ENDROOT
TORSDOF 0
ENDMDL
