MODEL 1
REMARK minimizedAffinity 12.3034849
REMARK minimizedRMSD -1
REMARK  0 active torsions:
REMARK  status: ('A' for Active; 'I' for Inactive)
ROOT
ATOM      1  N1  IND d   1      -2.998  -1.565   4.106  0.00  0.00    -0.196 N 
ATOM      2  C2  IND d   1      -2.156  -1.836   5.149  0.00  0.00     0.054 A 
ATOM      3  C3  IND d   1      -1.048  -2.471   4.706  0.00  0.00    -0.031 A 
ATOM      4  C4  IND d   1      -0.361  -3.076   2.299  0.00  0.00     0.051 A 
ATOM      5  C5  IND d   1      -0.822  -3.064   1.012  0.00  0.00    -0.031 A 
ATOM      6  C6  IND d   1      -2.054  -2.538   0.684  0.00  0.00     0.015 A 
ATOM      7  C7  IND d   1      -2.872  -1.993   1.633  0.00  0.00    -0.016 A 
ATOM      8  C8  IND d   1      -2.411  -2.010   2.942  0.00  0.00    -0.047 A 
ATOM      9  C9  IND d   1      -1.179  -2.580   3.287  0.00  0.00    -0.096 A 
ATOM     10  HN1 IND d   1      -3.765  -1.182   4.167  0.00  0.00     0.298 HD
ENDROOT
TORSDOF 0
ENDMDL
