MODEL 1
REMARK minimizedAffinity 10.4357529
REMARK minimizedRMSD -1
REMARK  0 active torsions:
REMARK  status: ('A' for Active; 'I' for Inactive)
ROOT
ATOM      1  N1  IND d   1      -1.661  -3.629   5.083  0.00  0.00    -0.196 N 
ATOM      2  C2  IND d   1      -2.332  -2.552   5.590  0.00  0.00     0.054 A 
ATOM      3  C3  IND d   1      -2.554  -1.636   4.621  0.00  0.00    -0.031 A 
ATOM      4  C4  IND d   1      -1.990  -1.742   2.111  0.00  0.00     0.051 A 
ATOM      5  C5  IND d   1      -1.344  -2.510   1.184  0.00  0.00    -0.031 A 
ATOM      6  C6  IND d   1      -0.761  -3.717   1.515  0.00  0.00     0.015 A 
ATOM      7  C7  IND d   1      -0.812  -4.207   2.789  0.00  0.00    -0.016 A 
ATOM      8  C8  IND d   1      -1.462  -3.426   3.735  0.00  0.00    -0.047 A 
ATOM      9  C9  IND d   1      -2.018  -2.181   3.414  0.00  0.00    -0.096 A 
ATOM     10  HN1 IND d   1      -1.405  -4.317   5.530  0.00  0.00     0.298 HD
ENDROOT
TORSDOF 0
ENDMDL
