MODEL 1
REMARK minimizedAffinity -3.9784615
REMARK minimizedRMSD -1
REMARK  2 active torsions:
REMARK  status: ('A' for Active; 'I' for Inactive)
REMARK    1  A    between atoms: C1_2  and  C2_3 
REMARK    2  A    between atoms: C2_3  and  C3_4 
ROOT
ATOM      1  C3  UNL d   1      -0.082  -0.483  -0.344  0.00  0.00    -0.075 A 
ATOM      2  C4  UNL d   1      -0.970  -0.299   0.727  0.00  0.00     0.002 A 
ATOM      3  C5  UNL d   1      -0.973   0.896   1.446  0.00  0.00     0.002 A 
ATOM      4  C6  UNL d   1      -0.085   1.916   1.113  0.00  0.00    -0.004 A 
ATOM      5  C7  UNL d   1       0.812   1.738   0.062  0.00  0.00     0.002 A 
ATOM      6  C8  UNL d   1       0.815   0.544  -0.662  0.00  0.00     0.002 A 
ENDROOT
BRANCH   1   7
ATOM      7  C2  UNL d   1      -0.094  -1.763  -1.145  0.00  0.00     0.056 C 
BRANCH   7   8
ATOM      8  C1  UNL d   1      -1.483  -2.175  -1.644  0.00  0.00     0.007 C 
ATOM      9  C   UNL d   1      -1.707  -1.867  -3.118  0.00  0.00     0.009 C 
ENDBRANCH   7   8
ENDBRANCH   1   7
TORSDOF 2
ENDMDL
