MODEL 1
REMARK minimizedAffinity -4.14812565
REMARK minimizedRMSD -1
REMARK  2 active torsions:
REMARK  status: ('A' for Active; 'I' for Inactive)
REMARK    1  A    between atoms: C1_2  and  C2_3 
REMARK    2  A    between atoms: C2_3  and  C3_4 
ROOT
ATOM      1  C3  UNL d   1      -0.037  -0.402   0.273  0.00  0.00    -0.075 A 
ATOM      2  C4  UNL d   1       0.353   0.842  -0.243  0.00  0.00     0.002 A 
ATOM      3  C5  UNL d   1       0.465   1.953   0.594  0.00  0.00     0.002 A 
ATOM      4  C6  UNL d   1       0.178   1.837   1.952  0.00  0.00    -0.004 A 
ATOM      5  C7  UNL d   1      -0.227   0.609   2.473  0.00  0.00     0.002 A 
ATOM      6  C8  UNL d   1      -0.335  -0.505   1.638  0.00  0.00     0.002 A 
ENDROOT
BRANCH   1   7
ATOM      7  C2  UNL d   1      -0.131  -1.615  -0.622  0.00  0.00     0.056 C 
BRANCH   7   8
ATOM      8  C1  UNL d   1      -1.139  -1.469  -1.767  0.00  0.00     0.007 C 
ATOM      9  C   UNL d   1      -2.276  -2.479  -1.697  0.00  0.00     0.009 C 
ENDBRANCH   7   8
ENDBRANCH   1   7
TORSDOF 2
ENDMDL
