MODEL 1
REMARK minimizedAffinity -3.50233912
REMARK minimizedRMSD -1
REMARK  2 active torsions:
REMARK  status: ('A' for Active; 'I' for Inactive)
REMARK    1  A    between atoms: C1_2  and  C2_3 
REMARK    2  A    between atoms: C2_3  and  C3_4 
ROOT
ATOM      1  C3  UNL d   1      -0.109   0.459   0.461  0.00  0.00    -0.075 A 
ATOM      2  C4  UNL d   1       0.792   1.523   0.613  0.00  0.00     0.002 A 
ATOM      3  C5  UNL d   1       1.135   1.984   1.884  0.00  0.00     0.002 A 
ATOM      4  C6  UNL d   1       0.576   1.397   3.016  0.00  0.00    -0.004 A 
ATOM      5  C7  UNL d   1      -0.334   0.350   2.877  0.00  0.00     0.002 A 
ATOM      6  C8  UNL d   1      -0.676  -0.116   1.606  0.00  0.00     0.002 A 
ENDROOT
BRANCH   1   7
ATOM      7  C2  UNL d   1      -0.462  -0.064  -0.911  0.00  0.00     0.056 C 
BRANCH   7   8
ATOM      8  C1  UNL d   1      -0.630  -1.586  -0.974  0.00  0.00     0.007 C 
ATOM      9  C   UNL d   1      -1.510  -2.046  -2.128  0.00  0.00     0.009 C 
ENDBRANCH   7   8
ENDBRANCH   1   7
TORSDOF 2
ENDMDL
