MODEL 1
REMARK minimizedAffinity -3.35157704
REMARK minimizedRMSD -1
REMARK  2 active torsions:
REMARK  status: ('A' for Active; 'I' for Inactive)
REMARK    1  A    between atoms: C1_2  and  C2_3 
REMARK    2  A    between atoms: C2_3  and  C3_4 
ROOT
ATOM      1  C3  UNL d   1      -0.353  -1.102  -0.862  0.00  0.00    -0.075 A 
ATOM      2  C4  UNL d   1      -0.781  -0.067  -0.018  0.00  0.00     0.002 A 
ATOM      3  C5  UNL d   1       0.118   0.904   0.423  0.00  0.00     0.002 A 
ATOM      4  C6  UNL d   1       1.455   0.848   0.035  0.00  0.00    -0.004 A 
ATOM      5  C7  UNL d   1       1.894  -0.185  -0.790  0.00  0.00     0.002 A 
ATOM      6  C8  UNL d   1       0.996  -1.156  -1.236  0.00  0.00     0.002 A 
ENDROOT
BRANCH   1   7
ATOM      7  C2  UNL d   1      -1.328  -2.139  -1.367  0.00  0.00     0.056 C 
BRANCH   7   8
ATOM      8  C1  UNL d   1      -1.872  -1.853  -2.770  0.00  0.00     0.007 C 
ATOM      9  C   UNL d   1      -3.332  -1.421  -2.771  0.00  0.00     0.009 C 
ENDBRANCH   7   8
ENDBRANCH   1   7
TORSDOF 2
ENDMDL
