MODEL 1
REMARK minimizedAffinity -5.51621962
REMARK minimizedRMSD -1
REMARK  2 active torsions:
REMARK  status: ('A' for Active; 'I' for Inactive)
REMARK    1  A    between atoms: C1_2  and  C2_3 
REMARK    2  A    between atoms: C2_3  and  C3_4 
ROOT
ATOM      1  C3  UNL d   1      -0.479  -0.460  -0.573  0.00  0.00    -0.075 A 
ATOM      2  C4  UNL d   1       0.813  -0.301  -0.052  0.00  0.00     0.002 A 
ATOM      3  C5  UNL d   1       1.079   0.690   0.893  0.00  0.00     0.002 A 
ATOM      4  C6  UNL d   1       0.061   1.540   1.321  0.00  0.00    -0.004 A 
ATOM      5  C7  UNL d   1      -1.222   1.402   0.798  0.00  0.00     0.002 A 
ATOM      6  C8  UNL d   1      -1.492   0.408  -0.145  0.00  0.00     0.002 A 
ENDROOT
BRANCH   1   7
ATOM      7  C2  UNL d   1      -0.780  -1.549  -1.575  0.00  0.00     0.056 C 
BRANCH   7   8
ATOM      8  C1  UNL d   1      -2.094  -1.349  -2.338  0.00  0.00     0.007 C 
ATOM      9  C   UNL d   1      -1.975  -1.648  -3.826  0.00  0.00     0.009 C 
ENDBRANCH   7   8
ENDBRANCH   1   7
TORSDOF 2
ENDMDL
