MODEL 1
REMARK minimizedAffinity -3.2482543
REMARK minimizedRMSD -1
REMARK  2 active torsions:
REMARK  status: ('A' for Active; 'I' for Inactive)
REMARK    1  A    between atoms: C1_2  and  C2_3 
REMARK    2  A    between atoms: C2_3  and  C3_4 
ROOT
ATOM      1  C3  UNL d   1       0.718  -0.310  -0.195  0.00  0.00    -0.075 A 
ATOM      2  C4  UNL d   1       1.842   0.492  -0.437  0.00  0.00     0.002 A 
ATOM      3  C5  UNL d   1       2.017   1.693   0.252  0.00  0.00     0.002 A 
ATOM      4  C6  UNL d   1       1.067   2.110   1.182  0.00  0.00    -0.004 A 
ATOM      5  C7  UNL d   1      -0.063   1.329   1.417  0.00  0.00     0.002 A 
ATOM      6  C8  UNL d   1      -0.238   0.125   0.733  0.00  0.00     0.002 A 
ENDROOT
BRANCH   1   7
ATOM      7  C2  UNL d   1       0.538  -1.625  -0.916  0.00  0.00     0.056 C 
BRANCH   7   8
ATOM      8  C1  UNL d   1      -0.558  -1.604  -1.987  0.00  0.00     0.007 C 
ATOM      9  C   UNL d   1      -1.849  -2.276  -1.539  0.00  0.00     0.009 C 
ENDBRANCH   7   8
ENDBRANCH   1   7
TORSDOF 2
ENDMDL
