MODEL 1
REMARK minimizedAffinity -4.69791126
REMARK minimizedRMSD -1
REMARK  2 active torsions:
REMARK  status: ('A' for Active; 'I' for Inactive)
REMARK    1  A    between atoms: C1_2  and  C2_3 
REMARK    2  A    between atoms: C2_3  and  C3_4 
ROOT
ATOM      1  C3  UNL d   1      -0.014   0.135   0.060  0.00  0.00    -0.075 A 
ATOM      2  C4  UNL d   1      -0.934   0.536   1.039  0.00  0.00     0.002 A 
ATOM      3  C5  UNL d   1      -0.701   1.678   1.805  0.00  0.00     0.002 A 
ATOM      4  C6  UNL d   1       0.457   2.427   1.609  0.00  0.00    -0.004 A 
ATOM      5  C7  UNL d   1       1.387   2.029   0.651  0.00  0.00     0.002 A 
ATOM      6  C8  UNL d   1       1.154   0.888  -0.120  0.00  0.00     0.002 A 
ENDROOT
BRANCH   1   7
ATOM      7  C2  UNL d   1      -0.274  -1.084  -0.793  0.00  0.00     0.056 C 
BRANCH   7   8
ATOM      8  C1  UNL d   1      -1.051  -0.790  -2.081  0.00  0.00     0.007 C 
ATOM      9  C   UNL d   1      -2.159  -1.797  -2.356  0.00  0.00     0.009 C 
ENDBRANCH   7   8
ENDBRANCH   1   7
TORSDOF 2
ENDMDL
