MODEL 1
REMARK minimizedAffinity -2.96501994
REMARK minimizedRMSD -1
REMARK  2 active torsions:
REMARK  status: ('A' for Active; 'I' for Inactive)
REMARK    1  A    between atoms: C1_2  and  C2_3 
REMARK    2  A    between atoms: C2_3  and  C3_4 
ROOT
ATOM      1  C3  UNL d   1      -0.214  -0.287  -0.167  0.00  0.00    -0.075 A 
ATOM      2  C4  UNL d   1       0.625   0.813  -0.397  0.00  0.00     0.002 A 
ATOM      3  C5  UNL d   1       0.796   1.791   0.584  0.00  0.00     0.002 A 
ATOM      4  C6  UNL d   1       0.123   1.687   1.800  0.00  0.00    -0.004 A 
ATOM      5  C7  UNL d   1      -0.726   0.607   2.032  0.00  0.00     0.002 A 
ATOM      6  C8  UNL d   1      -0.894  -0.375   1.054  0.00  0.00     0.002 A 
ENDROOT
BRANCH   1   7
ATOM      7  C2  UNL d   1      -0.379  -1.363  -1.213  0.00  0.00     0.056 C 
BRANCH   7   8
ATOM      8  C1  UNL d   1      -1.832  -1.604  -1.636  0.00  0.00     0.007 C 
ATOM      9  C   UNL d   1      -2.096  -1.269  -3.098  0.00  0.00     0.009 C 
ENDBRANCH   7   8
ENDBRANCH   1   7
TORSDOF 2
ENDMDL
