MODEL 1
REMARK minimizedAffinity -3.82089591
REMARK minimizedRMSD -1
REMARK  1 active torsions:
REMARK  status: ('A' for Active; 'I' for Inactive)
REMARK    1  A    between atoms: C3_4  and  O_7 
ROOT
ATOM      1  C   UNL d   1      -0.462  -1.294  -0.761  0.00  0.00    -0.033 A 
ATOM      2  C1  UNL d   1       0.861  -1.331  -0.315  0.00  0.00     0.039 A 
ATOM      3  C2  UNL d   1       1.545  -0.141  -0.056  0.00  0.00    -0.080 A 
ATOM      4  C3  UNL d   1       0.896   1.075  -0.246  0.00  0.00     0.150 A 
ATOM      5  C4  UNL d   1      -0.423   1.119  -0.686  0.00  0.00    -0.007 A 
ATOM      6  C5  UNL d   1      -1.104  -0.070  -0.945  0.00  0.00     0.039 A 
ENDROOT
BRANCH   4   7
ATOM      7  O   UNL d   1       1.524   2.262  -0.011  0.00  0.00    -0.526 OA
ATOM      8  H5  UNL d   1       2.438   2.078   0.261  0.00  0.00     0.418 HD
ENDBRANCH   4   7
TORSDOF 1
ENDMDL
