MODEL 1
REMARK minimizedAffinity -2.50866485
REMARK minimizedRMSD -1
REMARK  1 active torsions:
REMARK  status: ('A' for Active; 'I' for Inactive)
REMARK    1  A    between atoms: C3_4  and  O_7 
ROOT
ATOM      1  C   UNL d   1      -1.337   0.121  -0.430  0.00  0.00    -0.033 A 
ATOM      2  C1  UNL d   1      -1.299  -1.213  -0.842  0.00  0.00     0.039 A 
ATOM      3  C2  UNL d   1      -0.144  -1.973  -0.648  0.00  0.00    -0.080 A 
ATOM      4  C3  UNL d   1       0.964  -1.389  -0.041  0.00  0.00     0.150 A 
ATOM      5  C4  UNL d   1       0.932  -0.062   0.376  0.00  0.00    -0.007 A 
ATOM      6  C5  UNL d   1      -0.221   0.695   0.181  0.00  0.00     0.039 A 
ENDROOT
BRANCH   4   7
ATOM      7  O   UNL d   1       2.116  -2.089   0.165  0.00  0.00    -0.526 OA
ATOM      8  H5  UNL d   1       2.002  -2.983  -0.199  0.00  0.00     0.418 HD
ENDBRANCH   4   7
TORSDOF 1
ENDMDL
