MODEL 1
REMARK minimizedAffinity -1.01126885
REMARK minimizedRMSD -1
REMARK  1 active torsions:
REMARK  status: ('A' for Active; 'I' for Inactive)
REMARK    1  A    between atoms: C3_4  and  O_7 
ROOT
ATOM      1  C   UNL d   1       2.876  -1.358  -0.199  0.00  0.00    -0.033 A 
ATOM      2  C1  UNL d   1       1.796  -2.198  -0.477  0.00  0.00     0.039 A 
ATOM      3  C2  UNL d   1       0.514  -1.665  -0.623  0.00  0.00    -0.080 A 
ATOM      4  C3  UNL d   1       0.326  -0.292  -0.489  0.00  0.00     0.150 A 
ATOM      5  C4  UNL d   1       1.398   0.551  -0.216  0.00  0.00    -0.007 A 
ATOM      6  C5  UNL d   1       2.677   0.017  -0.070  0.00  0.00     0.039 A 
ENDROOT
BRANCH   4   7
ATOM      7  O   UNL d   1      -0.908   0.275  -0.618  0.00  0.00    -0.526 OA
ATOM      8  H5  UNL d   1      -1.556  -0.432  -0.777  0.00  0.00     0.418 HD
ENDBRANCH   4   7
TORSDOF 1
ENDMDL
