MODEL 1
REMARK minimizedAffinity -4.13694477
REMARK minimizedRMSD -1
REMARK  1 active torsions:
REMARK  status: ('A' for Active; 'I' for Inactive)
REMARK    1  A    between atoms: C3_4  and  O_7 
ROOT
ATOM      1  C   UNL d   1       3.180  -0.099   0.114  0.00  0.00    -0.033 A 
ATOM      2  C1  UNL d   1       2.758   1.229   0.025  0.00  0.00     0.039 A 
ATOM      3  C2  UNL d   1       1.426   1.522  -0.274  0.00  0.00    -0.080 A 
ATOM      4  C3  UNL d   1       0.527   0.479  -0.480  0.00  0.00     0.150 A 
ATOM      5  C4  UNL d   1       0.939  -0.846  -0.389  0.00  0.00    -0.007 A 
ATOM      6  C5  UNL d   1       2.270  -1.137  -0.091  0.00  0.00     0.039 A 
ENDROOT
BRANCH   4   7
ATOM      7  O   UNL d   1      -0.782   0.716  -0.779  0.00  0.00    -0.526 OA
ATOM      8  H5  UNL d   1      -0.915   1.676  -0.838  0.00  0.00     0.418 HD
ENDBRANCH   4   7
TORSDOF 1
ENDMDL
