MODEL 1
REMARK minimizedAffinity -1.53971231
REMARK minimizedRMSD -1
REMARK  1 active torsions:
REMARK  status: ('A' for Active; 'I' for Inactive)
REMARK    1  A    between atoms: C3_4  and  O_7 
ROOT
ATOM      1  C   UNL d   1       0.269  -1.528  -0.227  0.00  0.00    -0.033 A 
ATOM      2  C1  UNL d   1       1.479  -2.113  -0.604  0.00  0.00     0.039 A 
ATOM      3  C2  UNL d   1       2.651  -1.354  -0.610  0.00  0.00    -0.080 A 
ATOM      4  C3  UNL d   1       2.600  -0.014  -0.237  0.00  0.00     0.150 A 
ATOM      5  C4  UNL d   1       1.398   0.574   0.143  0.00  0.00    -0.007 A 
ATOM      6  C5  UNL d   1       0.228  -0.185   0.148  0.00  0.00     0.039 A 
ENDROOT
BRANCH   4   7
ATOM      7  O   UNL d   1       3.716   0.768  -0.233  0.00  0.00    -0.526 OA
ATOM      8  H5  UNL d   1       4.466   0.235  -0.546  0.00  0.00     0.418 HD
ENDBRANCH   4   7
TORSDOF 1
ENDMDL
