MODEL 1
REMARK minimizedAffinity -3.58308434
REMARK minimizedRMSD -1
REMARK  1 active torsions:
REMARK  status: ('A' for Active; 'I' for Inactive)
REMARK    1  A    between atoms: C3_4  and  O_7 
ROOT
ATOM      1  C   UNL d   1       0.084  -1.951  -0.886  0.00  0.00    -0.033 A 
ATOM      2  C1  UNL d   1      -0.802  -0.874  -0.816  0.00  0.00     0.039 A 
ATOM      3  C2  UNL d   1      -0.313   0.426  -0.675  0.00  0.00    -0.080 A 
ATOM      4  C3  UNL d   1       1.061   0.636  -0.607  0.00  0.00     0.150 A 
ATOM      5  C4  UNL d   1       1.950  -0.432  -0.681  0.00  0.00    -0.007 A 
ATOM      6  C5  UNL d   1       1.460  -1.729  -0.821  0.00  0.00     0.039 A 
ENDROOT
BRANCH   4   7
ATOM      7  O   UNL d   1       1.585   1.887  -0.465  0.00  0.00    -0.526 OA
ATOM      8  H5  UNL d   1       0.852   2.521  -0.399  0.00  0.00     0.418 HD
ENDBRANCH   4   7
TORSDOF 1
ENDMDL
