MODEL 1
REMARK minimizedAffinity -3.25543261
REMARK minimizedRMSD -1
REMARK  1 active torsions:
REMARK  status: ('A' for Active; 'I' for Inactive)
REMARK    1  A    between atoms: C3_4  and  O_7 
ROOT
ATOM      1  C   UNL d   1       0.650   0.107  -0.235  0.00  0.00    -0.033 A 
ATOM      2  C1  UNL d   1       1.673  -0.800   0.047  0.00  0.00     0.039 A 
ATOM      3  C2  UNL d   1       1.459  -2.170  -0.118  0.00  0.00    -0.080 A 
ATOM      4  C3  UNL d   1       0.220  -2.619  -0.565  0.00  0.00     0.150 A 
ATOM      5  C4  UNL d   1      -0.803  -1.721  -0.852  0.00  0.00    -0.007 A 
ATOM      6  C5  UNL d   1      -0.587  -0.353  -0.686  0.00  0.00     0.039 A 
ENDROOT
BRANCH   4   7
ATOM      7  O   UNL d   1      -0.038  -3.947  -0.737  0.00  0.00    -0.526 OA
ATOM      8  H5  UNL d   1       0.751  -4.450  -0.473  0.00  0.00     0.418 HD
ENDBRANCH   4   7
TORSDOF 1
ENDMDL
