MODEL 1
REMARK minimizedAffinity -2.71994901
REMARK minimizedRMSD -1
REMARK  1 active torsions:
REMARK  status: ('A' for Active; 'I' for Inactive)
REMARK    1  A    between atoms: C3_4  and  O_7 
ROOT
ATOM      1  C   UNL d   1      -0.959   0.379  -0.527  0.00  0.00    -0.033 A 
ATOM      2  C1  UNL d   1      -1.210  -0.962  -0.828  0.00  0.00     0.039 A 
ATOM      3  C2  UNL d   1      -0.170  -1.893  -0.792  0.00  0.00    -0.080 A 
ATOM      4  C3  UNL d   1       1.113  -1.472  -0.454  0.00  0.00     0.150 A 
ATOM      5  C4  UNL d   1       1.369  -0.139  -0.150  0.00  0.00    -0.007 A 
ATOM      6  C5  UNL d   1       0.330   0.789  -0.187  0.00  0.00     0.039 A 
ENDROOT
BRANCH   4   7
ATOM      7  O   UNL d   1       2.160  -2.344  -0.411  0.00  0.00    -0.526 OA
ATOM      8  H5  UNL d   1       1.840  -3.223  -0.672  0.00  0.00     0.418 HD
ENDBRANCH   4   7
TORSDOF 1
ENDMDL
