MODEL 1
REMARK minimizedAffinity 0.00626403373
REMARK minimizedRMSD -1
REMARK  0 active torsions:
REMARK  status: ('A' for Active; 'I' for Inactive)
ROOT
ATOM      1  O1  BZF d   1       1.446  -2.362   0.337  0.00  0.00    -0.204 OA
ATOM      2  C2  BZF d   1       2.796  -2.380   0.627  0.00  0.00     0.174 A 
ATOM      3  C3  BZF d   1       3.307  -1.132   0.602  0.00  0.00    -0.012 A 
ATOM      4  C3A BZF d   1       2.188  -0.272   0.368  0.00  0.00    -0.107 A 
ATOM      5  C4  BZF d   1       2.052   1.082   0.255  0.00  0.00     0.055 A 
ATOM      6  C5  BZF d   1       0.833   1.601  -0.047  0.00  0.00    -0.016 A 
ATOM      7  C6  BZF d   1      -0.269   0.796  -0.248  0.00  0.00     0.022 A 
ATOM      8  C7  BZF d   1      -0.185  -0.553  -0.141  0.00  0.00     0.029 A 
ATOM      9  C7A BZF d   1       1.039  -1.078   0.197  0.00  0.00     0.058 A 
ENDROOT
TORSDOF 0
ENDMDL
