MODEL 1
REMARK minimizedAffinity 0.29924655
REMARK minimizedRMSD -1
REMARK  0 active torsions:
REMARK  status: ('A' for Active; 'I' for Inactive)
ROOT
ATOM      1  O1  BZF d   1       0.279   1.076   0.024  0.00  0.00    -0.204 OA
ATOM      2  C2  BZF d   1      -0.715   0.119  -0.057  0.00  0.00     0.174 A 
ATOM      3  C3  BZF d   1      -0.184  -1.119  -0.104  0.00  0.00    -0.012 A 
ATOM      4  C3A BZF d   1       1.227  -0.930   0.045  0.00  0.00    -0.107 A 
ATOM      5  C4  BZF d   1       2.289  -1.787   0.093  0.00  0.00     0.055 A 
ATOM      6  C5  BZF d   1       3.546  -1.276   0.172  0.00  0.00    -0.016 A 
ATOM      7  C6  BZF d   1       3.777   0.083   0.199  0.00  0.00     0.022 A 
ATOM      8  C7  BZF d   1       2.755   0.972   0.159  0.00  0.00     0.029 A 
ATOM      9  C7A BZF d   1       1.482   0.459   0.112  0.00  0.00     0.058 A 
ENDROOT
TORSDOF 0
ENDMDL
