MODEL 1
REMARK minimizedAffinity -3.38413048
REMARK minimizedRMSD -1
REMARK  0 active torsions:
REMARK  status: ('A' for Active; 'I' for Inactive)
ROOT
ATOM      1  O1  BZF d   1       2.063  -0.832  -0.793  0.00  0.00    -0.204 OA
ATOM      2  C2  BZF d   1       2.699  -2.034  -0.549  0.00  0.00     0.174 A 
ATOM      3  C3  BZF d   1       2.072  -2.715   0.432  0.00  0.00    -0.012 A 
ATOM      4  C3A BZF d   1       0.923  -1.930   0.761  0.00  0.00    -0.107 A 
ATOM      5  C4  BZF d   1      -0.100  -2.089   1.652  0.00  0.00     0.055 A 
ATOM      6  C5  BZF d   1      -1.026  -1.103   1.779  0.00  0.00    -0.016 A 
ATOM      7  C6  BZF d   1      -0.957   0.057   1.035  0.00  0.00     0.022 A 
ATOM      8  C7  BZF d   1       0.035   0.259   0.135  0.00  0.00     0.029 A 
ATOM      9  C7A BZF d   1       0.954  -0.751  -0.019  0.00  0.00     0.058 A 
ENDROOT
TORSDOF 0
ENDMDL
