MODEL 1
REMARK minimizedAffinity 2.89871478
REMARK minimizedRMSD -1
REMARK  0 active torsions:
REMARK  status: ('A' for Active; 'I' for Inactive)
ROOT
ATOM      1  O1  BZF d   1      -0.192   1.291  -1.098  0.00  0.00    -0.204 OA
ATOM      2  C2  BZF d   1       0.227   0.532  -0.022  0.00  0.00     0.174 A 
ATOM      3  C3  BZF d   1       0.086  -0.784  -0.281  0.00  0.00    -0.012 A 
ATOM      4  C3A BZF d   1      -0.368  -0.854  -1.636  0.00  0.00    -0.107 A 
ATOM      5  C4  BZF d   1      -0.674  -1.890  -2.472  0.00  0.00     0.055 A 
ATOM      6  C5  BZF d   1      -1.159  -1.618  -3.712  0.00  0.00    -0.016 A 
ATOM      7  C6  BZF d   1      -1.356  -0.324  -4.146  0.00  0.00     0.022 A 
ATOM      8  C7  BZF d   1      -1.062   0.737  -3.355  0.00  0.00     0.029 A 
ATOM      9  C7A BZF d   1      -0.541   0.466  -2.114  0.00  0.00     0.058 A 
ENDROOT
TORSDOF 0
ENDMDL
