MODEL 1
REMARK minimizedAffinity 0.312518269
REMARK minimizedRMSD -1
REMARK  0 active torsions:
REMARK  status: ('A' for Active; 'I' for Inactive)
ROOT
ATOM      1  O1  BZF d   1      -0.207  -0.814  -0.424  0.00  0.00    -0.204 OA
ATOM      2  C2  BZF d   1      -0.154   0.405   0.224  0.00  0.00     0.174 A 
ATOM      3  C3  BZF d   1      -0.617   1.390  -0.572  0.00  0.00    -0.012 A 
ATOM      4  C3A BZF d   1      -1.069   0.733  -1.760  0.00  0.00    -0.107 A 
ATOM      5  C4  BZF d   1      -1.646   1.176  -2.916  0.00  0.00     0.055 A 
ATOM      6  C5  BZF d   1      -1.899   0.286  -3.911  0.00  0.00    -0.016 A 
ATOM      7  C6  BZF d   1      -1.583  -1.052  -3.787  0.00  0.00     0.022 A 
ATOM      8  C7  BZF d   1      -1.014  -1.538  -2.657  0.00  0.00     0.029 A 
ATOM      9  C7A BZF d   1      -0.787  -0.647  -1.637  0.00  0.00     0.058 A 
ENDROOT
TORSDOF 0
ENDMDL
