MODEL 1
REMARK minimizedAffinity -0.209307119
REMARK minimizedRMSD -1
REMARK  0 active torsions:
REMARK  status: ('A' for Active; 'I' for Inactive)
ROOT
ATOM      1  O1  BZF d   1      -0.350   1.524  -0.361  0.00  0.00    -0.204 OA
ATOM      2  C2  BZF d   1      -1.147   0.398  -0.435  0.00  0.00     0.174 A 
ATOM      3  C3  BZF d   1      -0.541  -0.656   0.149  0.00  0.00    -0.012 A 
ATOM      4  C3A BZF d   1       0.672  -0.135   0.699  0.00  0.00    -0.107 A 
ATOM      5  C4  BZF d   1       1.694  -0.691   1.414  0.00  0.00     0.055 A 
ATOM      6  C5  BZF d   1       2.769   0.075   1.736  0.00  0.00    -0.016 A 
ATOM      7  C6  BZF d   1       2.857   1.398   1.356  0.00  0.00     0.022 A 
ATOM      8  C7  BZF d   1       1.867   1.996   0.650  0.00  0.00     0.029 A 
ATOM      9  C7A BZF d   1       0.764   1.233   0.351  0.00  0.00     0.058 A 
ENDROOT
TORSDOF 0
ENDMDL
