MODEL 1
REMARK minimizedAffinity -3.43787742
REMARK minimizedRMSD -1
REMARK  0 active torsions:
REMARK  status: ('A' for Active; 'I' for Inactive)
ROOT
ATOM      1  O1  BZF d   1      -2.578   0.987   1.355  0.00  0.00    -0.204 OA
ATOM      2  C2  BZF d   1      -3.112   2.214   1.013  0.00  0.00     0.174 A 
ATOM      3  C3  BZF d   1      -2.199   2.972   0.371  0.00  0.00    -0.012 A 
ATOM      4  C3A BZF d   1      -1.049   2.133   0.227  0.00  0.00    -0.107 A 
ATOM      5  C4  BZF d   1       0.179   2.313  -0.343  0.00  0.00     0.055 A 
ATOM      6  C5  BZF d   1       1.102   1.320  -0.250  0.00  0.00    -0.016 A 
ATOM      7  C6  BZF d   1       0.833   0.138   0.409  0.00  0.00     0.022 A 
ATOM      8  C7  BZF d   1      -0.372  -0.089   0.985  0.00  0.00     0.029 A 
ATOM      9  C7A BZF d   1      -1.319   0.900   0.864  0.00  0.00     0.058 A 
ENDROOT
TORSDOF 0
ENDMDL
