MODEL 1
REMARK minimizedAffinity 4.95098925
REMARK minimizedRMSD -1
REMARK  0 active torsions:
REMARK  status: ('A' for Active; 'I' for Inactive)
ROOT
ATOM      1  O1  BZF d   1       1.641  -2.025  -1.898  0.00  0.00    -0.204 OA
ATOM      2  C2  BZF d   1       3.013  -2.114  -1.757  0.00  0.00     0.174 A 
ATOM      3  C3  BZF d   1       3.443  -1.322  -0.754  0.00  0.00    -0.012 A 
ATOM      4  C3A BZF d   1       2.257  -0.770  -0.175  0.00  0.00    -0.107 A 
ATOM      5  C4  BZF d   1       2.029   0.080   0.869  0.00  0.00     0.055 A 
ATOM      6  C5  BZF d   1       0.757   0.481   1.129  0.00  0.00    -0.016 A 
ATOM      7  C6  BZF d   1      -0.309   0.056   0.364  0.00  0.00     0.022 A 
ATOM      8  C7  BZF d   1      -0.134  -0.791  -0.679  0.00  0.00     0.029 A 
ATOM      9  C7A BZF d   1       1.146  -1.224  -0.924  0.00  0.00     0.058 A 
ENDROOT
TORSDOF 0
ENDMDL
