MODEL 1
REMARK minimizedAffinity -5.29908943
REMARK minimizedRMSD -1
REMARK  0 active torsions:
REMARK  status: ('A' for Active; 'I' for Inactive)
ROOT
ATOM      1  C4' PXY d   1       0.297  -0.884  -2.071  0.00  0.00     0.077 C 
ATOM      2  C1' PXY d   1      -1.030   1.494   3.028  0.00  0.00     0.077 C 
ATOM      3  C1  PXY d   1      -0.694   0.865   1.690  0.00  0.00    -0.082 A 
ATOM      4  C2  PXY d   1       0.568   0.617   1.382  0.00  0.00     0.003 A 
ATOM      5  C3  PXY d   1       0.893   0.079   0.164  0.00  0.00     0.003 A 
ATOM      6  C4  PXY d   1      -0.090  -0.259  -0.728  0.00  0.00    -0.082 A 
ATOM      7  C5  PXY d   1      -1.381  -0.019  -0.417  0.00  0.00     0.003 A 
ATOM      8  C6  PXY d   1      -1.687   0.566   0.808  0.00  0.00     0.003 A 
ENDROOT
TORSDOF 0
ENDMDL
