MODEL 1
REMARK minimizedAffinity -3.23474312
REMARK minimizedRMSD -1
REMARK  0 active torsions:
REMARK  status: ('A' for Active; 'I' for Inactive)
ROOT
ATOM      1  C4' PXY d   1       0.255  -0.936  -2.857  0.00  0.00     0.077 C 
ATOM      2  C1' PXY d   1      -0.801   0.999   2.486  0.00  0.00     0.077 C 
ATOM      3  C1  PXY d   1      -0.512   0.496   1.086  0.00  0.00    -0.082 A 
ATOM      4  C2  PXY d   1      -1.510   0.316   0.236  0.00  0.00     0.003 A 
ATOM      5  C3  PXY d   1      -1.270  -0.169  -1.024  0.00  0.00     0.003 A 
ATOM      6  C4  PXY d   1       0.011  -0.421  -1.436  0.00  0.00    -0.082 A 
ATOM      7  C5  PXY d   1       1.036  -0.229  -0.579  0.00  0.00     0.003 A 
ATOM      8  C6  PXY d   1       0.767   0.224   0.709  0.00  0.00     0.003 A 
ENDROOT
TORSDOF 0
ENDMDL
