MODEL 1
REMARK minimizedAffinity -5.53007841
REMARK minimizedRMSD -1
REMARK  0 active torsions:
REMARK  status: ('A' for Active; 'I' for Inactive)
ROOT
ATOM      1  C4' PXY d   1      -1.130   1.510   2.975  0.00  0.00     0.077 C 
ATOM      2  C1' PXY d   1       0.804  -0.794  -1.961  0.00  0.00     0.077 C 
ATOM      3  C1  PXY d   1       0.308  -0.193  -0.661  0.00  0.00    -0.082 A 
ATOM      4  C2  PXY d   1      -0.993  -0.096  -0.439  0.00  0.00     0.003 A 
ATOM      5  C3  PXY d   1      -1.459   0.475   0.717  0.00  0.00     0.003 A 
ATOM      6  C4  PXY d   1      -0.584   0.901   1.681  0.00  0.00    -0.082 A 
ATOM      7  C5  PXY d   1       0.745   0.796   1.467  0.00  0.00     0.003 A 
ATOM      8  C6  PXY d   1       1.197   0.252   0.268  0.00  0.00     0.003 A 
ENDROOT
TORSDOF 0
ENDMDL
