MODEL 1
REMARK minimizedAffinity -2.17286372
REMARK minimizedRMSD -1
REMARK  0 active torsions:
REMARK  status: ('A' for Active; 'I' for Inactive)
ROOT
ATOM      1  C4' PXY d   1      -1.875   0.758   2.435  0.00  0.00     0.077 C 
ATOM      2  C1' PXY d   1       0.428  -0.765  -2.644  0.00  0.00     0.077 C 
ATOM      3  C1  PXY d   1      -0.186  -0.360  -1.318  0.00  0.00    -0.082 A 
ATOM      4  C2  PXY d   1       0.580  -0.266  -0.244  0.00  0.00     0.003 A 
ATOM      5  C3  PXY d   1       0.036   0.068   0.969  0.00  0.00     0.003 A 
ATOM      6  C4  PXY d   1      -1.297   0.361   1.074  0.00  0.00    -0.082 A 
ATOM      7  C5  PXY d   1      -2.084   0.278  -0.020  0.00  0.00     0.003 A 
ATOM      8  C6  PXY d   1      -1.520  -0.103  -1.234  0.00  0.00     0.003 A 
ENDROOT
TORSDOF 0
ENDMDL
