MODEL 1
REMARK minimizedAffinity -3.38725328
REMARK minimizedRMSD -1
REMARK  0 active torsions:
REMARK  status: ('A' for Active; 'I' for Inactive)
ROOT
ATOM      1  C4' PXY d   1       0.658  -0.752  -1.886  0.00  0.00     0.077 C 
ATOM      2  C1' PXY d   1      -0.284   1.221   3.466  0.00  0.00     0.077 C 
ATOM      3  C1  PXY d   1      -0.049   0.699   2.062  0.00  0.00    -0.082 A 
ATOM      4  C2  PXY d   1       1.184   0.444   1.657  0.00  0.00     0.003 A 
ATOM      5  C3  PXY d   1       1.417   0.002   0.380  0.00  0.00     0.003 A 
ATOM      6  C4  PXY d   1       0.372  -0.232  -0.474  0.00  0.00    -0.082 A 
ATOM      7  C5  PXY d   1      -0.890   0.016  -0.064  0.00  0.00     0.003 A 
ATOM      8  C6  PXY d   1      -1.102   0.503   1.222  0.00  0.00     0.003 A 
ENDROOT
TORSDOF 0
ENDMDL
