MODEL 1
REMARK minimizedAffinity -3.99171495
REMARK minimizedRMSD -1
REMARK  0 active torsions:
REMARK  status: ('A' for Active; 'I' for Inactive)
ROOT
ATOM      1  C4' PXY d   1       0.380  -0.779  -1.692  0.00  0.00     0.077 C 
ATOM      2  C1' PXY d   1      -0.686   1.493   3.514  0.00  0.00     0.077 C 
ATOM      3  C1  PXY d   1      -0.419   0.893   2.148  0.00  0.00    -0.082 A 
ATOM      4  C2  PXY d   1       0.817   0.560   1.810  0.00  0.00     0.003 A 
ATOM      5  C3  PXY d   1       1.081   0.046   0.567  0.00  0.00     0.003 A 
ATOM      6  C4  PXY d   1       0.063  -0.179  -0.320  0.00  0.00    -0.082 A 
ATOM      7  C5  PXY d   1      -1.202   0.148   0.021  0.00  0.00     0.003 A 
ATOM      8  C6  PXY d   1      -1.443   0.707   1.273  0.00  0.00     0.003 A 
ENDROOT
TORSDOF 0
ENDMDL
