MODEL 1
REMARK minimizedAffinity -3.15156412
REMARK minimizedRMSD -1
REMARK  0 active torsions:
REMARK  status: ('A' for Active; 'I' for Inactive)
ROOT
ATOM      1  C4' PXY d   1       2.353   0.417   1.900  0.00  0.00     0.077 C 
ATOM      2  C1' PXY d   1      -3.049   0.078  -0.130  0.00  0.00     0.077 C 
ATOM      3  C1  PXY d   1      -1.628   0.157   0.395  0.00  0.00    -0.082 A 
ATOM      4  C2  PXY d   1      -1.398   0.701   1.579  0.00  0.00     0.003 A 
ATOM      5  C3  PXY d   1      -0.116   0.809   2.055  0.00  0.00     0.003 A 
ATOM      6  C4  PXY d   1       0.935   0.307   1.335  0.00  0.00    -0.082 A 
ATOM      7  C5  PXY d   1       0.706  -0.259   0.131  0.00  0.00     0.003 A 
ATOM      8  C6  PXY d   1      -0.597  -0.322  -0.353  0.00  0.00     0.003 A 
ENDROOT
TORSDOF 0
ENDMDL
