MODEL 1
REMARK minimizedAffinity -5.72309685
REMARK minimizedRMSD -1
REMARK  0 active torsions:
REMARK  status: ('A' for Active; 'I' for Inactive)
ROOT
ATOM      1  C4' PXY d   1       0.704  -0.691  -1.962  0.00  0.00     0.077 C 
ATOM      2  C1' PXY d   1      -0.911   1.445   3.161  0.00  0.00     0.077 C 
ATOM      3  C1  PXY d   1      -0.499   0.880   1.815  0.00  0.00    -0.082 A 
ATOM      4  C2  PXY d   1       0.775   0.614   1.580  0.00  0.00     0.003 A 
ATOM      5  C3  PXY d   1       1.169   0.132   0.358  0.00  0.00     0.003 A 
ATOM      6  C4  PXY d   1       0.242  -0.129  -0.615  0.00  0.00    -0.082 A 
ATOM      7  C5  PXY d   1      -1.062   0.131  -0.379  0.00  0.00     0.003 A 
ATOM      8  C6  PXY d   1      -1.436   0.658   0.854  0.00  0.00     0.003 A 
ENDROOT
TORSDOF 0
ENDMDL
