MODEL 1
REMARK minimizedAffinity 0.000390527159
REMARK minimizedRMSD -1
REMARK  0 active torsions:
REMARK  status: ('A' for Active; 'I' for Inactive)
ROOT
ATOM      1  C4' PXY d   1       1.272  -0.152  -1.917  0.00  0.00     0.077 C 
ATOM      2  C1' PXY d   1      -1.684   0.995   2.917  0.00  0.00     0.077 C 
ATOM      3  C1  PXY d   1      -0.898   0.700   1.654  0.00  0.00    -0.082 A 
ATOM      4  C2  PXY d   1      -1.541   0.509   0.513  0.00  0.00     0.003 A 
ATOM      5  C3  PXY d   1      -0.848   0.210  -0.632  0.00  0.00     0.003 A 
ATOM      6  C4  PXY d   1       0.520   0.157  -0.620  0.00  0.00    -0.082 A 
ATOM      7  C5  PXY d   1       1.184   0.361   0.538  0.00  0.00     0.003 A 
ATOM      8  C6  PXY d   1       0.460   0.623   1.698  0.00  0.00     0.003 A 
ENDROOT
TORSDOF 0
ENDMDL
