MODEL 1
REMARK minimizedAffinity -5.6657691
REMARK minimizedRMSD -1
REMARK  0 active torsions:
REMARK  status: ('A' for Active; 'I' for Inactive)
ROOT
ATOM      1  C4' PXY d   1       0.470  -0.959  -2.104  0.00  0.00     0.077 C 
ATOM      2  C1' PXY d   1      -1.172   1.444   2.891  0.00  0.00     0.077 C 
ATOM      3  C1  PXY d   1      -0.753   0.808   1.580  0.00  0.00    -0.082 A 
ATOM      4  C2  PXY d   1       0.530   0.603   1.333  0.00  0.00     0.003 A 
ATOM      5  C3  PXY d   1       0.929   0.059   0.139  0.00  0.00     0.003 A 
ATOM      6  C4  PXY d   1       0.000  -0.329  -0.790  0.00  0.00    -0.082 A 
ATOM      7  C5  PXY d   1      -1.312  -0.133  -0.541  0.00  0.00     0.003 A 
ATOM      8  C6  PXY d   1      -1.693   0.458   0.660  0.00  0.00     0.003 A 
ENDROOT
TORSDOF 0
ENDMDL
