MODEL 1
REMARK minimizedAffinity -5.14609432
REMARK minimizedRMSD -1
REMARK  0 active torsions:
REMARK  status: ('A' for Active; 'I' for Inactive)
ROOT
ATOM      1  C4' PXY d   1       0.475  -0.820  -2.144  0.00  0.00     0.077 C 
ATOM      2  C1' PXY d   1      -1.123   1.521   2.894  0.00  0.00     0.077 C 
ATOM      3  C1  PXY d   1      -0.716   0.901   1.572  0.00  0.00    -0.082 A 
ATOM      4  C2  PXY d   1       0.567   0.806   1.262  0.00  0.00     0.003 A 
ATOM      5  C3  PXY d   1       0.952   0.277   0.057  0.00  0.00     0.003 A 
ATOM      6  C4  PXY d   1       0.017  -0.209  -0.817  0.00  0.00    -0.082 A 
ATOM      7  C5  PXY d   1      -1.293  -0.126  -0.503  0.00  0.00     0.003 A 
ATOM      8  C6  PXY d   1      -1.665   0.452   0.707  0.00  0.00     0.003 A 
ENDROOT
TORSDOF 0
ENDMDL
