MODEL 1
REMARK minimizedAffinity -0.405351728
REMARK minimizedRMSD -1
REMARK  0 active torsions:
REMARK  status: ('A' for Active; 'I' for Inactive)
ROOT
ATOM      1  C   UNL d   1       5.245  -0.752   1.594  0.00  0.00     0.078 C 
ATOM      2  C1  UNL d   1       5.252   0.688   1.176  0.00  0.00    -0.077 A 
ATOM      3  C2  UNL d   1       6.000   1.639   1.880  0.00  0.00    -0.001 A 
ATOM      4  C3  UNL d   1       5.990   2.978   1.486  0.00  0.00     0.003 A 
ATOM      5  C4  UNL d   1       5.232   3.378   0.387  0.00  0.00    -0.005 A 
ATOM      6  C5  UNL d   1       4.483   2.439  -0.319  0.00  0.00     0.003 A 
ATOM      7  C6  UNL d   1       4.492   1.099   0.074  0.00  0.00    -0.001 A 
ENDROOT
TORSDOF 0
ENDMDL
