MODEL 1
REMARK minimizedAffinity -2.37174869
REMARK minimizedRMSD -1
REMARK  0 active torsions:
REMARK  status: ('A' for Active; 'I' for Inactive)
ROOT
ATOM      1  C   UNL d   1      -4.278   1.817   3.642  0.00  0.00     0.078 C 
ATOM      2  C1  UNL d   1      -2.873   1.594   3.169  0.00  0.00    -0.077 A 
ATOM      3  C2  UNL d   1      -2.561   0.538   2.305  0.00  0.00    -0.001 A 
ATOM      4  C3  UNL d   1      -1.247   0.337   1.881  0.00  0.00     0.003 A 
ATOM      5  C4  UNL d   1      -0.233   1.188   2.317  0.00  0.00    -0.005 A 
ATOM      6  C5  UNL d   1      -0.533   2.240   3.179  0.00  0.00     0.003 A 
ATOM      7  C6  UNL d   1      -1.847   2.443   3.604  0.00  0.00    -0.001 A 
ENDROOT
TORSDOF 0
ENDMDL
