MODEL 1
REMARK minimizedAffinity 0.770599663
REMARK minimizedRMSD -1
REMARK  0 active torsions:
REMARK  status: ('A' for Active; 'I' for Inactive)
ROOT
ATOM      1  C   UNL d   1       1.627  -4.177  -2.902  0.00  0.00     0.078 C 
ATOM      2  C1  UNL d   1       0.441  -4.449  -2.025  0.00  0.00    -0.077 A 
ATOM      3  C2  UNL d   1       0.601  -4.723  -0.661  0.00  0.00    -0.001 A 
ATOM      4  C3  UNL d   1      -0.511  -4.983   0.141  0.00  0.00     0.003 A 
ATOM      5  C4  UNL d   1      -1.790  -4.974  -0.412  0.00  0.00    -0.005 A 
ATOM      6  C5  UNL d   1      -1.959  -4.705  -1.768  0.00  0.00     0.003 A 
ATOM      7  C6  UNL d   1      -0.848  -4.444  -2.572  0.00  0.00    -0.001 A 
ENDROOT
TORSDOF 0
ENDMDL
