MODEL 1
REMARK minimizedAffinity 0.615102589
REMARK minimizedRMSD -1
REMARK  0 active torsions:
REMARK  status: ('A' for Active; 'I' for Inactive)
ROOT
ATOM      1  C   UNL d   1      -0.989   2.204   2.543  0.00  0.00     0.078 C 
ATOM      2  C1  UNL d   1      -2.208   1.575   3.147  0.00  0.00    -0.077 A 
ATOM      3  C2  UNL d   1      -2.421   0.194   3.068  0.00  0.00    -0.001 A 
ATOM      4  C3  UNL d   1      -3.566  -0.377   3.627  0.00  0.00     0.003 A 
ATOM      5  C4  UNL d   1      -4.507   0.427   4.268  0.00  0.00    -0.005 A 
ATOM      6  C5  UNL d   1      -4.305   1.803   4.349  0.00  0.00     0.003 A 
ATOM      7  C6  UNL d   1      -3.161   2.375   3.791  0.00  0.00    -0.001 A 
ENDROOT
TORSDOF 0
ENDMDL
