MODEL 1
REMARK minimizedAffinity 3.85959482
REMARK minimizedRMSD -1
REMARK  0 active torsions:
REMARK  status: ('A' for Active; 'I' for Inactive)
ROOT
ATOM      1  C   UNL d   1      -5.036   2.532   5.537  0.00  0.00     0.078 C 
ATOM      2  C1  UNL d   1      -4.100   1.769   4.648  0.00  0.00    -0.077 A 
ATOM      3  C2  UNL d   1      -4.326   0.419   4.352  0.00  0.00    -0.001 A 
ATOM      4  C3  UNL d   1      -3.441  -0.281   3.531  0.00  0.00     0.003 A 
ATOM      5  C4  UNL d   1      -2.323   0.359   3.000  0.00  0.00    -0.005 A 
ATOM      6  C5  UNL d   1      -2.089   1.702   3.290  0.00  0.00     0.003 A 
ATOM      7  C6  UNL d   1      -2.973   2.404   4.111  0.00  0.00    -0.001 A 
ENDROOT
TORSDOF 0
ENDMDL
