MODEL 1
REMARK minimizedAffinity 0.717072129
REMARK minimizedRMSD -1
REMARK  0 active torsions:
REMARK  status: ('A' for Active; 'I' for Inactive)
ROOT
ATOM      1  C   UNL d   1       1.844  -5.207  -3.279  0.00  0.00     0.078 C 
ATOM      2  C1  UNL d   1       0.743  -5.079  -2.269  0.00  0.00    -0.077 A 
ATOM      3  C2  UNL d   1       0.757  -4.056  -1.312  0.00  0.00    -0.001 A 
ATOM      4  C3  UNL d   1      -0.269  -3.955  -0.372  0.00  0.00     0.003 A 
ATOM      5  C4  UNL d   1      -1.316  -4.875  -0.378  0.00  0.00    -0.005 A 
ATOM      6  C5  UNL d   1      -1.337  -5.897  -1.324  0.00  0.00     0.003 A 
ATOM      7  C6  UNL d   1      -0.312  -6.000  -2.265  0.00  0.00    -0.001 A 
ENDROOT
TORSDOF 0
ENDMDL
