MODEL 1
REMARK minimizedAffinity 4.91856527
REMARK minimizedRMSD -1
REMARK  0 active torsions:
REMARK  status: ('A' for Active; 'I' for Inactive)
ROOT
ATOM      1  C   UNL d   1      -6.000   5.757   5.040  0.00  0.00     0.078 C 
ATOM      2  C1  UNL d   1      -5.455   4.360   5.025  0.00  0.00    -0.077 A 
ATOM      3  C2  UNL d   1      -4.546   3.930   6.000  0.00  0.00    -0.001 A 
ATOM      4  C3  UNL d   1      -4.039   2.630   5.967  0.00  0.00     0.003 A 
ATOM      5  C4  UNL d   1      -4.434   1.750   4.962  0.00  0.00    -0.005 A 
ATOM      6  C5  UNL d   1      -5.336   2.170   3.987  0.00  0.00     0.003 A 
ATOM      7  C6  UNL d   1      -5.844   3.469   4.017  0.00  0.00    -0.001 A 
ENDROOT
TORSDOF 0
ENDMDL
