MODEL 1
REMARK minimizedAffinity 1.71425402
REMARK minimizedRMSD -1
REMARK  0 active torsions:
REMARK  status: ('A' for Active; 'I' for Inactive)
ROOT
ATOM      1  C   UNL d   1       0.397   1.721   2.040  0.00  0.00     0.078 C 
ATOM      2  C1  UNL d   1      -0.987   1.489   2.570  0.00  0.00    -0.077 A 
ATOM      3  C2  UNL d   1      -1.668   0.294   2.311  0.00  0.00    -0.001 A 
ATOM      4  C3  UNL d   1      -2.959   0.097   2.803  0.00  0.00     0.003 A 
ATOM      5  C4  UNL d   1      -3.580   1.090   3.557  0.00  0.00    -0.005 A 
ATOM      6  C5  UNL d   1      -2.911   2.284   3.819  0.00  0.00     0.003 A 
ATOM      7  C6  UNL d   1      -1.620   2.483   3.327  0.00  0.00    -0.001 A 
ENDROOT
TORSDOF 0
ENDMDL
