MODEL 1
REMARK minimizedAffinity 3.36881471
REMARK minimizedRMSD -1
REMARK  0 active torsions:
REMARK  status: ('A' for Active; 'I' for Inactive)
ROOT
ATOM      1  C   UNL d   1      -2.824   1.874   3.128  0.00  0.00     0.078 C 
ATOM      2  C1  UNL d   1      -3.931   2.038   4.127  0.00  0.00    -0.077 A 
ATOM      3  C2  UNL d   1      -3.984   3.156   4.967  0.00  0.00    -0.001 A 
ATOM      4  C3  UNL d   1      -5.015   3.291   5.899  0.00  0.00     0.003 A 
ATOM      5  C4  UNL d   1      -5.999   2.310   6.000  0.00  0.00    -0.005 A 
ATOM      6  C5  UNL d   1      -5.954   1.193   5.170  0.00  0.00     0.003 A 
ATOM      7  C6  UNL d   1      -4.924   1.056   4.237  0.00  0.00    -0.001 A 
ENDROOT
TORSDOF 0
ENDMDL
