MODEL 1
REMARK minimizedAffinity -2.09809589
REMARK minimizedRMSD -1
REMARK  0 active torsions:
REMARK  status: ('A' for Active; 'I' for Inactive)
ROOT
ATOM      1  C   UNL d   1      -3.856   2.149   5.149  0.00  0.00     0.078 C 
ATOM      2  C1  UNL d   1      -2.967   2.197   3.944  0.00  0.00    -0.077 A 
ATOM      3  C2  UNL d   1      -1.627   1.796   4.019  0.00  0.00    -0.001 A 
ATOM      4  C3  UNL d   1      -0.808   1.855   2.891  0.00  0.00     0.003 A 
ATOM      5  C4  UNL d   1      -1.318   2.316   1.679  0.00  0.00    -0.005 A 
ATOM      6  C5  UNL d   1      -2.649   2.719   1.594  0.00  0.00     0.003 A 
ATOM      7  C6  UNL d   1      -3.470   2.661   2.722  0.00  0.00    -0.001 A 
ENDROOT
TORSDOF 0
ENDMDL
