MODEL 1
REMARK minimizedAffinity 0.632870793
REMARK minimizedRMSD -1
REMARK  0 active torsions:
REMARK  status: ('A' for Active; 'I' for Inactive)
ROOT
ATOM      1  C   UNL d   1       0.745  -3.960  -2.188  0.00  0.00     0.078 C 
ATOM      2  C1  UNL d   1      -0.698  -3.791  -1.816  0.00  0.00    -0.077 A 
ATOM      3  C2  UNL d   1      -1.227  -4.413  -0.679  0.00  0.00    -0.001 A 
ATOM      4  C3  UNL d   1      -2.575  -4.255  -0.350  0.00  0.00     0.003 A 
ATOM      5  C4  UNL d   1      -3.404  -3.476  -1.155  0.00  0.00    -0.005 A 
ATOM      6  C5  UNL d   1      -2.887  -2.855  -2.290  0.00  0.00     0.003 A 
ATOM      7  C6  UNL d   1      -1.540  -3.012  -2.620  0.00  0.00    -0.001 A 
ENDROOT
TORSDOF 0
ENDMDL
