MODEL 1
REMARK minimizedAffinity 5.20329809
REMARK minimizedRMSD -1
REMARK  0 active torsions:
REMARK  status: ('A' for Active; 'I' for Inactive)
ROOT
ATOM      1  C   UNL d   1      -5.873   5.327   5.984  0.00  0.00     0.078 C 
ATOM      2  C1  UNL d   1      -5.431   3.988   5.475  0.00  0.00    -0.077 A 
ATOM      3  C2  UNL d   1      -4.466   3.882   4.466  0.00  0.00    -0.001 A 
ATOM      4  C3  UNL d   1      -4.071   2.629   3.994  0.00  0.00     0.003 A 
ATOM      5  C4  UNL d   1      -4.638   1.472   4.525  0.00  0.00    -0.005 A 
ATOM      6  C5  UNL d   1      -5.602   1.567   5.527  0.00  0.00     0.003 A 
ATOM      7  C6  UNL d   1      -5.997   2.819   6.000  0.00  0.00    -0.001 A 
ENDROOT
TORSDOF 0
ENDMDL
