MODEL 1
REMARK minimizedAffinity 6.21780443
REMARK minimizedRMSD -1
REMARK  0 active torsions:
REMARK  status: ('A' for Active; 'I' for Inactive)
ROOT
ATOM      1  C   UNL d   1      -5.260   5.348   5.967  0.00  0.00     0.078 C 
ATOM      2  C1  UNL d   1      -4.988   3.888   5.759  0.00  0.00    -0.077 A 
ATOM      3  C2  UNL d   1      -3.737   3.445   5.312  0.00  0.00    -0.001 A 
ATOM      4  C3  UNL d   1      -3.500   2.084   5.113  0.00  0.00     0.003 A 
ATOM      5  C4  UNL d   1      -4.510   1.155   5.357  0.00  0.00    -0.005 A 
ATOM      6  C5  UNL d   1      -5.758   1.587   5.800  0.00  0.00     0.003 A 
ATOM      7  C6  UNL d   1      -5.997   2.947   6.000  0.00  0.00    -0.001 A 
ENDROOT
TORSDOF 0
ENDMDL
