MODEL 1
REMARK minimizedAffinity 3.29155827
REMARK minimizedRMSD -1
REMARK  0 active torsions:
REMARK  status: ('A' for Active; 'I' for Inactive)
ROOT
ATOM      1  C   UNL d   1      -5.189  -1.705   0.938  0.00  0.00     0.078 C 
ATOM      2  C1  UNL d   1      -4.442  -1.508  -0.347  0.00  0.00    -0.077 A 
ATOM      3  C2  UNL d   1      -4.023  -0.234  -0.749  0.00  0.00    -0.001 A 
ATOM      4  C3  UNL d   1      -3.337  -0.064  -1.953  0.00  0.00     0.003 A 
ATOM      5  C4  UNL d   1      -3.065  -1.164  -2.765  0.00  0.00    -0.005 A 
ATOM      6  C5  UNL d   1      -3.481  -2.435  -2.374  0.00  0.00     0.003 A 
ATOM      7  C6  UNL d   1      -4.167  -2.607  -1.170  0.00  0.00    -0.001 A 
ENDROOT
TORSDOF 0
ENDMDL
