MODEL 1
REMARK minimizedAffinity 2.34598708
REMARK minimizedRMSD -1
REMARK  0 active torsions:
REMARK  status: ('A' for Active; 'I' for Inactive)
ROOT
ATOM      1  C   UNL d   1       3.748   0.794  -3.646  0.00  0.00     0.078 C 
ATOM      2  C1  UNL d   1       3.472   2.247  -3.892  0.00  0.00    -0.077 A 
ATOM      3  C2  UNL d   1       2.316   2.857  -3.389  0.00  0.00    -0.001 A 
ATOM      4  C3  UNL d   1       2.067   4.208  -3.634  0.00  0.00     0.003 A 
ATOM      5  C4  UNL d   1       2.968   4.960  -4.385  0.00  0.00    -0.005 A 
ATOM      6  C5  UNL d   1       4.119   4.362  -4.892  0.00  0.00     0.003 A 
ATOM      7  C6  UNL d   1       4.370   3.011  -4.648  0.00  0.00    -0.001 A 
ENDROOT
TORSDOF 0
ENDMDL
