MODEL 1
REMARK minimizedAffinity 7.10299063
REMARK minimizedRMSD -1
REMARK  0 active torsions:
REMARK  status: ('A' for Active; 'I' for Inactive)
ROOT
ATOM      1  C   UNL d   1      -2.457  -5.503  -0.499  0.00  0.00     0.078 C 
ATOM      2  C1  UNL d   1      -2.872  -4.147  -0.988  0.00  0.00    -0.077 A 
ATOM      3  C2  UNL d   1      -3.595  -3.274  -0.165  0.00  0.00    -0.001 A 
ATOM      4  C3  UNL d   1      -3.983  -2.019  -0.637  0.00  0.00     0.003 A 
ATOM      5  C4  UNL d   1      -3.654  -1.626  -1.932  0.00  0.00    -0.005 A 
ATOM      6  C5  UNL d   1      -2.937  -2.488  -2.759  0.00  0.00     0.003 A 
ATOM      7  C6  UNL d   1      -2.548  -3.744  -2.289  0.00  0.00    -0.001 A 
ENDROOT
TORSDOF 0
ENDMDL
