MODEL 1
REMARK minimizedAffinity -3.28568172
REMARK minimizedRMSD -1
REMARK  0 active torsions:
REMARK  status: ('A' for Active; 'I' for Inactive)
ROOT
ATOM      1  C   UNL d   1       3.790   3.674  -1.060  0.00  0.00     0.077 C 
ATOM      2  C1  UNL d   1       3.123   2.865   0.012  0.00  0.00    -0.074 A 
ATOM      3  C2  UNL d   1       2.995   3.362   1.313  0.00  0.00    -0.005 A 
ATOM      4  C3  UNL d   1       2.363   2.603   2.298  0.00  0.00     0.006 A 
ATOM      5  C4  UNL d   1       1.854   1.340   1.992  0.00  0.00    -0.005 A 
ATOM      6  C5  UNL d   1       1.972   0.826   0.697  0.00  0.00    -0.074 A 
ATOM      7  C6  UNL d   1       1.422  -0.525   0.349  0.00  0.00     0.077 C 
ATOM      8  C7  UNL d   1       2.602   1.599  -0.289  0.00  0.00    -0.001 A 
ENDROOT
TORSDOF 0
ENDMDL
