MODEL 1
REMARK minimizedAffinity -1.75716472
REMARK minimizedRMSD -1
REMARK  0 active torsions:
REMARK  status: ('A' for Active; 'I' for Inactive)
ROOT
ATOM      1  C   UNL d   1      -2.022  -2.634   0.537  0.00  0.00     0.077 C 
ATOM      2  C1  UNL d   1      -1.519  -1.399  -0.149  0.00  0.00    -0.074 A 
ATOM      3  C2  UNL d   1      -2.233  -0.820  -1.203  0.00  0.00    -0.005 A 
ATOM      4  C3  UNL d   1      -1.758   0.334  -1.825  0.00  0.00     0.006 A 
ATOM      5  C4  UNL d   1      -0.565   0.921  -1.400  0.00  0.00    -0.005 A 
ATOM      6  C5  UNL d   1       0.163   0.357  -0.347  0.00  0.00    -0.074 A 
ATOM      7  C6  UNL d   1       1.442   0.980   0.128  0.00  0.00     0.077 C 
ATOM      8  C7  UNL d   1      -0.325  -0.800   0.277  0.00  0.00    -0.001 A 
ENDROOT
TORSDOF 0
ENDMDL
