MODEL 1
REMARK minimizedAffinity -3.98633218
REMARK minimizedRMSD -1
REMARK  0 active torsions:
REMARK  status: ('A' for Active; 'I' for Inactive)
ROOT
ATOM      1  C   UNL d   1       2.022   3.886   1.136  0.00  0.00     0.077 C 
ATOM      2  C1  UNL d   1       1.974   2.412   0.862  0.00  0.00    -0.074 A 
ATOM      3  C2  UNL d   1       3.064   1.589   1.162  0.00  0.00    -0.005 A 
ATOM      4  C3  UNL d   1       3.001   0.218   0.911  0.00  0.00     0.006 A 
ATOM      5  C4  UNL d   1       1.848  -0.342   0.359  0.00  0.00    -0.005 A 
ATOM      6  C5  UNL d   1       0.748   0.464   0.054  0.00  0.00    -0.074 A 
ATOM      7  C6  UNL d   1      -0.502  -0.124  -0.531  0.00  0.00     0.077 C 
ATOM      8  C7  UNL d   1       0.817   1.840   0.315  0.00  0.00    -0.001 A 
ENDROOT
TORSDOF 0
ENDMDL
