MODEL 1
REMARK minimizedAffinity -3.57490683
REMARK minimizedRMSD -1
REMARK  0 active torsions:
REMARK  status: ('A' for Active; 'I' for Inactive)
ROOT
ATOM      1  C   UNL d   1      -1.034  -2.746   1.419  0.00  0.00     0.077 C 
ATOM      2  C1  UNL d   1      -0.728  -1.578   0.531  0.00  0.00    -0.074 A 
ATOM      3  C2  UNL d   1      -1.610  -1.198  -0.486  0.00  0.00    -0.005 A 
ATOM      4  C3  UNL d   1      -1.316  -0.102  -1.299  0.00  0.00     0.006 A 
ATOM      5  C4  UNL d   1      -0.140   0.623  -1.103  0.00  0.00    -0.005 A 
ATOM      6  C5  UNL d   1       0.753   0.258  -0.090  0.00  0.00    -0.074 A 
ATOM      7  C6  UNL d   1       2.017   1.032   0.140  0.00  0.00     0.077 C 
ATOM      8  C7  UNL d   1       0.448  -0.839   0.726  0.00  0.00    -0.001 A 
ENDROOT
TORSDOF 0
ENDMDL
