MODEL 1
REMARK minimizedAffinity -3.54110527
REMARK minimizedRMSD -1
REMARK  0 active torsions:
REMARK  status: ('A' for Active; 'I' for Inactive)
ROOT
ATOM      1  C   UNL d   1       1.957   3.890   1.363  0.00  0.00     0.077 C 
ATOM      2  C1  UNL d   1       1.869   2.449   0.957  0.00  0.00    -0.074 A 
ATOM      3  C2  UNL d   1       2.886   1.546   1.285  0.00  0.00    -0.005 A 
ATOM      4  C3  UNL d   1       2.786   0.207   0.909  0.00  0.00     0.006 A 
ATOM      5  C4  UNL d   1       1.669  -0.243   0.203  0.00  0.00    -0.005 A 
ATOM      6  C5  UNL d   1       0.642   0.644  -0.133  0.00  0.00    -0.074 A 
ATOM      7  C6  UNL d   1      -0.569   0.175  -0.883  0.00  0.00     0.077 C 
ATOM      8  C7  UNL d   1       0.747   1.987   0.255  0.00  0.00    -0.001 A 
ENDROOT
TORSDOF 0
ENDMDL
