MODEL 1
REMARK minimizedAffinity -1.00678492
REMARK minimizedRMSD -1
REMARK  0 active torsions:
REMARK  status: ('A' for Active; 'I' for Inactive)
ROOT
ATOM      1  C   UNL d   1       1.112   0.893   0.153  0.00  0.00     0.077 C 
ATOM      2  C1  UNL d   1      -0.108   0.055  -0.093  0.00  0.00    -0.074 A 
ATOM      3  C2  UNL d   1      -1.011   0.382  -1.109  0.00  0.00    -0.005 A 
ATOM      4  C3  UNL d   1      -2.136  -0.412  -1.333  0.00  0.00     0.006 A 
ATOM      5  C4  UNL d   1      -2.369  -1.538  -0.543  0.00  0.00    -0.005 A 
ATOM      6  C5  UNL d   1      -1.476  -1.881   0.478  0.00  0.00    -0.074 A 
ATOM      7  C6  UNL d   1      -1.707  -3.094   1.329  0.00  0.00     0.077 C 
ATOM      8  C7  UNL d   1      -0.345  -1.083   0.691  0.00  0.00    -0.001 A 
ENDROOT
TORSDOF 0
ENDMDL
