MODEL 1
REMARK minimizedAffinity -2.68591547
REMARK minimizedRMSD -1
REMARK  0 active torsions:
REMARK  status: ('A' for Active; 'I' for Inactive)
ROOT
ATOM      1  C   UNL d   1       0.012   0.020  -0.005  0.00  0.00     0.077 C 
ATOM      2  C1  UNL d   1       1.073   1.036   0.298  0.00  0.00    -0.074 A 
ATOM      3  C2  UNL d   1       0.999   1.834   1.444  0.00  0.00    -0.005 A 
ATOM      4  C3  UNL d   1       1.998   2.768   1.717  0.00  0.00     0.006 A 
ATOM      5  C4  UNL d   1       3.080   2.914   0.848  0.00  0.00    -0.005 A 
ATOM      6  C5  UNL d   1       3.172   2.124  -0.302  0.00  0.00    -0.074 A 
ATOM      7  C6  UNL d   1       4.333   2.261  -1.242  0.00  0.00     0.077 C 
ATOM      8  C7  UNL d   1       2.168   1.183  -0.566  0.00  0.00    -0.001 A 
ENDROOT
TORSDOF 0
ENDMDL
