MODEL 1
REMARK minimizedAffinity -3.47844887
REMARK minimizedRMSD -1
REMARK  0 active torsions:
REMARK  status: ('A' for Active; 'I' for Inactive)
ROOT
ATOM      1  C   UNL d   1       1.339   0.840   0.363  0.00  0.00     0.077 C 
ATOM      2  C1  UNL d   1       0.106   0.145  -0.135  0.00  0.00    -0.074 A 
ATOM      3  C2  UNL d   1      -0.607   0.644  -1.229  0.00  0.00    -0.005 A 
ATOM      4  C3  UNL d   1      -1.746  -0.018  -1.687  0.00  0.00     0.006 A 
ATOM      5  C4  UNL d   1      -2.183  -1.183  -1.056  0.00  0.00    -0.005 A 
ATOM      6  C5  UNL d   1      -1.482  -1.697   0.040  0.00  0.00    -0.074 A 
ATOM      7  C6  UNL d   1      -1.932  -2.954   0.723  0.00  0.00     0.077 C 
ATOM      8  C7  UNL d   1      -0.334  -1.030   0.489  0.00  0.00    -0.001 A 
ENDROOT
TORSDOF 0
ENDMDL
