MODEL 1
REMARK minimizedAffinity -1.60917032
REMARK minimizedRMSD -1
REMARK  0 active torsions:
REMARK  status: ('A' for Active; 'I' for Inactive)
ROOT
ATOM      1  C   UNL d   1       2.497   1.130  -0.462  0.00  0.00     0.077 C 
ATOM      2  C1  UNL d   1       1.230   0.342  -0.310  0.00  0.00    -0.074 A 
ATOM      3  C2  UNL d   1       1.092  -0.609   0.706  0.00  0.00    -0.005 A 
ATOM      4  C3  UNL d   1      -0.096  -1.327   0.841  0.00  0.00     0.006 A 
ATOM      5  C4  UNL d   1      -1.157  -1.101  -0.037  0.00  0.00    -0.005 A 
ATOM      6  C5  UNL d   1      -1.038  -0.153  -1.058  0.00  0.00    -0.074 A 
ATOM      7  C6  UNL d   1      -2.172   0.108  -2.004  0.00  0.00     0.077 C 
ATOM      8  C7  UNL d   1       0.156   0.569  -1.183  0.00  0.00    -0.001 A 
ENDROOT
TORSDOF 0
ENDMDL
