MODEL 1
REMARK minimizedAffinity -1.59879231
REMARK minimizedRMSD -1
REMARK  0 active torsions:
REMARK  status: ('A' for Active; 'I' for Inactive)
ROOT
ATOM      1  C   UNL d   1      -2.421   0.022  -0.993  0.00  0.00     0.077 C 
ATOM      2  C1  UNL d   1      -0.939   0.179  -0.820  0.00  0.00    -0.074 A 
ATOM      3  C2  UNL d   1      -0.043  -0.463  -1.681  0.00  0.00    -0.005 A 
ATOM      4  C3  UNL d   1       1.332  -0.300  -1.514  0.00  0.00     0.006 A 
ATOM      5  C4  UNL d   1       1.825   0.506  -0.487  0.00  0.00    -0.005 A 
ATOM      6  C5  UNL d   1       0.944   1.157   0.383  0.00  0.00    -0.074 A 
ATOM      7  C6  UNL d   1       1.456   2.034   1.486  0.00  0.00     0.077 C 
ATOM      8  C7  UNL d   1      -0.437   0.993   0.204  0.00  0.00    -0.001 A 
ENDROOT
TORSDOF 0
ENDMDL
