MODEL 1
REMARK minimizedAffinity -1.43117118
REMARK minimizedRMSD -1
REMARK  0 active torsions:
REMARK  status: ('A' for Active; 'I' for Inactive)
ROOT
ATOM      1  C   UNL d   1       2.390   3.747   0.661  0.00  0.00     0.077 C 
ATOM      2  C1  UNL d   1       1.991   2.318   0.440  0.00  0.00    -0.074 A 
ATOM      3  C2  UNL d   1       2.626   1.279   1.127  0.00  0.00    -0.005 A 
ATOM      4  C3  UNL d   1       2.237  -0.044   0.918  0.00  0.00     0.006 A 
ATOM      5  C4  UNL d   1       1.211  -0.341   0.020  0.00  0.00    -0.005 A 
ATOM      6  C5  UNL d   1       0.563   0.685  -0.676  0.00  0.00    -0.074 A 
ATOM      7  C6  UNL d   1      -0.548   0.384  -1.637  0.00  0.00     0.077 C 
ATOM      8  C7  UNL d   1       0.955   2.013  -0.455  0.00  0.00    -0.001 A 
ENDROOT
TORSDOF 0
ENDMDL
