MODEL 1
REMARK minimizedAffinity -2.96837306
REMARK minimizedRMSD -1
REMARK  0 active torsions:
REMARK  status: ('A' for Active; 'I' for Inactive)
ROOT
ATOM      1  C   UNL d   1      -1.088  -2.560   1.594  0.00  0.00     0.077 C 
ATOM      2  C1  UNL d   1      -0.572  -1.420   0.766  0.00  0.00    -0.074 A 
ATOM      3  C2  UNL d   1      -1.386  -0.795  -0.184  0.00  0.00    -0.005 A 
ATOM      4  C3  UNL d   1      -0.895   0.269  -0.939  0.00  0.00     0.006 A 
ATOM      5  C4  UNL d   1       0.413   0.719  -0.753  0.00  0.00    -0.005 A 
ATOM      6  C5  UNL d   1       1.241   0.107   0.193  0.00  0.00    -0.074 A 
ATOM      7  C6  UNL d   1       2.646   0.584   0.412  0.00  0.00     0.077 C 
ATOM      8  C7  UNL d   1       0.739  -0.958   0.953  0.00  0.00    -0.001 A 
ENDROOT
TORSDOF 0
ENDMDL
