MODEL 1
REMARK minimizedAffinity -0.704391599
REMARK minimizedRMSD -1
REMARK  0 active torsions:
REMARK  status: ('A' for Active; 'I' for Inactive)
ROOT
ATOM      1  C   UNL d   1       1.088   0.970   0.180  0.00  0.00     0.077 C 
ATOM      2  C1  UNL d   1      -0.018   0.094  -0.329  0.00  0.00    -0.074 A 
ATOM      3  C2  UNL d   1      -0.804   0.487  -1.417  0.00  0.00    -0.005 A 
ATOM      4  C3  UNL d   1      -1.823  -0.343  -1.885  0.00  0.00     0.006 A 
ATOM      5  C4  UNL d   1      -2.066  -1.572  -1.271  0.00  0.00    -0.005 A 
ATOM      6  C5  UNL d   1      -1.290  -1.982  -0.182  0.00  0.00    -0.074 A 
ATOM      7  C6  UNL d   1      -1.532  -3.304   0.484  0.00  0.00     0.077 C 
ATOM      8  C7  UNL d   1      -0.264  -1.146   0.278  0.00  0.00    -0.001 A 
ENDROOT
TORSDOF 0
ENDMDL
