MODEL 1
REMARK minimizedAffinity -3.42866588
REMARK minimizedRMSD -1
REMARK  0 active torsions:
REMARK  status: ('A' for Active; 'I' for Inactive)
ROOT
ATOM      1  C   UNL d   1       1.450   0.761   0.012  0.00  0.00     0.077 C 
ATOM      2  C1  UNL d   1       0.120   0.180  -0.366  0.00  0.00    -0.074 A 
ATOM      3  C2  UNL d   1      -0.745   0.865  -1.225  0.00  0.00    -0.005 A 
ATOM      4  C3  UNL d   1      -1.975   0.309  -1.575  0.00  0.00     0.006 A 
ATOM      5  C4  UNL d   1      -2.352  -0.937  -1.071  0.00  0.00    -0.005 A 
ATOM      6  C5  UNL d   1      -1.499  -1.637  -0.211  0.00  0.00    -0.074 A 
ATOM      7  C6  UNL d   1      -1.884  -2.981   0.332  0.00  0.00     0.077 C 
ATOM      8  C7  UNL d   1      -0.262  -1.074   0.130  0.00  0.00    -0.001 A 
ENDROOT
TORSDOF 0
ENDMDL
