MODEL 1
REMARK minimizedAffinity -3.40163279
REMARK minimizedRMSD -1
REMARK  0 active torsions:
REMARK  status: ('A' for Active; 'I' for Inactive)
ROOT
ATOM      1  C   UNL d   1       1.584  -1.111   1.657  0.00  0.00     0.077 C 
ATOM      2  C1  UNL d   1       0.852  -0.383   0.569  0.00  0.00    -0.074 A 
ATOM      3  C2  UNL d   1       1.371   0.790   0.014  0.00  0.00    -0.005 A 
ATOM      4  C3  UNL d   1       0.684   1.451  -1.004  0.00  0.00     0.006 A 
ATOM      5  C4  UNL d   1      -0.528   0.946  -1.476  0.00  0.00    -0.005 A 
ATOM      6  C5  UNL d   1      -1.063  -0.227  -0.933  0.00  0.00    -0.074 A 
ATOM      7  C6  UNL d   1      -2.360  -0.789  -1.435  0.00  0.00     0.077 C 
ATOM      8  C7  UNL d   1      -0.362  -0.889   0.085  0.00  0.00    -0.001 A 
ENDROOT
TORSDOF 0
ENDMDL
