MODEL 1
REMARK minimizedAffinity -0.713236511
REMARK minimizedRMSD -1
REMARK  0 active torsions:
REMARK  status: ('A' for Active; 'I' for Inactive)
ROOT
ATOM      1  C   UNL d   1      -1.551   0.771  -2.596  0.00  0.00     0.077 C 
ATOM      2  C1  UNL d   1      -1.977  -0.053  -1.417  0.00  0.00    -0.074 A 
ATOM      3  C2  UNL d   1      -3.322  -0.128  -1.042  0.00  0.00    -0.005 A 
ATOM      4  C3  UNL d   1      -3.705  -0.906   0.051  0.00  0.00     0.006 A 
ATOM      5  C4  UNL d   1      -2.748  -1.615   0.778  0.00  0.00    -0.005 A 
ATOM      6  C5  UNL d   1      -1.398  -1.552   0.417  0.00  0.00    -0.074 A 
ATOM      7  C6  UNL d   1      -0.358  -2.316   1.182  0.00  0.00     0.077 C 
ATOM      8  C7  UNL d   1      -1.023  -0.774  -0.686  0.00  0.00    -0.001 A 
ENDROOT
TORSDOF 0
ENDMDL
