MODEL 1
REMARK minimizedAffinity -0.667711914
REMARK minimizedRMSD -1
REMARK  0 active torsions:
REMARK  status: ('A' for Active; 'I' for Inactive)
ROOT
ATOM      1  C   UNL d   1      -0.078  -1.740   1.626  0.00  0.00     0.077 C 
ATOM      2  C1  UNL d   1       0.468  -0.645   0.757  0.00  0.00    -0.074 A 
ATOM      3  C2  UNL d   1       0.011  -0.473  -0.554  0.00  0.00    -0.005 A 
ATOM      4  C3  UNL d   1       0.522   0.555  -1.347  0.00  0.00     0.006 A 
ATOM      5  C4  UNL d   1       1.491   1.419  -0.838  0.00  0.00    -0.005 A 
ATOM      6  C5  UNL d   1       1.959   1.263   0.471  0.00  0.00    -0.074 A 
ATOM      7  C6  UNL d   1       2.994   2.190   1.037  0.00  0.00     0.077 C 
ATOM      8  C7  UNL d   1       1.436   0.232   1.264  0.00  0.00    -0.001 A 
ENDROOT
TORSDOF 0
ENDMDL
