MODEL 1
REMARK minimizedAffinity -0.113233387
REMARK minimizedRMSD -1
REMARK  0 active torsions:
REMARK  status: ('A' for Active; 'I' for Inactive)
ROOT
ATOM      1  C   UNL d   1       1.443   0.547   0.799  0.00  0.00     0.077 C 
ATOM      2  C1  UNL d   1       0.284   0.223  -0.095  0.00  0.00    -0.074 A 
ATOM      3  C2  UNL d   1       0.228   0.711  -1.405  0.00  0.00    -0.005 A 
ATOM      4  C3  UNL d   1      -0.853   0.393  -2.228  0.00  0.00     0.006 A 
ATOM      5  C4  UNL d   1      -1.886  -0.414  -1.751  0.00  0.00    -0.005 A 
ATOM      6  C5  UNL d   1      -1.847  -0.911  -0.445  0.00  0.00    -0.074 A 
ATOM      7  C6  UNL d   1      -2.945  -1.788   0.081  0.00  0.00     0.077 C 
ATOM      8  C7  UNL d   1      -0.755  -0.594   0.374  0.00  0.00    -0.001 A 
ENDROOT
TORSDOF 0
ENDMDL
