MODEL 1
REMARK minimizedAffinity -4.21245718
REMARK minimizedRMSD -1
REMARK  0 active torsions:
REMARK  status: ('A' for Active; 'I' for Inactive)
ROOT
ATOM      1  C   UNL d   1       1.537  -1.636   2.656  0.00  0.00    -0.002 A 
ATOM      2  C1  UNL d   1       2.565  -1.987   1.793  0.00  0.00     0.010 A 
ATOM      3  C2  UNL d   1       2.454  -1.749   0.422  0.00  0.00     0.041 A 
ATOM      4  C3  UNL d   1       1.282  -1.143  -0.072  0.00  0.00    -0.075 A 
ATOM      5  S   UNL d   1       0.925  -0.754  -1.713  0.00  0.00     0.015 SA
ATOM      6  C4  UNL d   1      -0.600  -0.111  -1.307  0.00  0.00     0.022 A 
ATOM      7  C5  UNL d   1      -0.848  -0.184   0.043  0.00  0.00     0.026 A 
ATOM      8  C6  UNL d   1       0.233  -0.779   0.778  0.00  0.00    -0.082 A 
ATOM      9  C7  UNL d   1       0.375  -1.035   2.163  0.00  0.00     0.045 A 
ENDROOT
TORSDOF 0
ENDMDL
