MODEL 1
REMARK minimizedAffinity -4.2920742
REMARK minimizedRMSD -1
REMARK  0 active torsions:
REMARK  status: ('A' for Active; 'I' for Inactive)
ROOT
ATOM      1  C   UNL d   1       1.241  -0.819  -1.449  0.00  0.00    -0.002 A 
ATOM      2  C1  UNL d   1      -0.077  -0.426  -1.640  0.00  0.00     0.010 A 
ATOM      3  C2  UNL d   1      -0.858  -0.011  -0.560  0.00  0.00     0.041 A 
ATOM      4  C3  UNL d   1      -0.287   0.005   0.728  0.00  0.00    -0.075 A 
ATOM      5  S   UNL d   1      -1.053   0.477   2.199  0.00  0.00     0.015 SA
ATOM      6  C4  UNL d   1       0.350   0.169   3.116  0.00  0.00     0.022 A 
ATOM      7  C5  UNL d   1       1.387  -0.283   2.335  0.00  0.00     0.026 A 
ATOM      8  C6  UNL d   1       1.037  -0.385   0.946  0.00  0.00    -0.082 A 
ATOM      9  C7  UNL d   1       1.803  -0.802  -0.169  0.00  0.00     0.045 A 
ENDROOT
TORSDOF 0
ENDMDL
