MODEL 1
REMARK minimizedAffinity -0.606749713
REMARK minimizedRMSD -1
REMARK  0 active torsions:
REMARK  status: ('A' for Active; 'I' for Inactive)
ROOT
ATOM      1  C   UNL d   1       1.148  -1.123   2.867  0.00  0.00    -0.002 A 
ATOM      2  C1  UNL d   1       2.233  -0.731   2.097  0.00  0.00     0.010 A 
ATOM      3  C2  UNL d   1       2.045  -0.227   0.808  0.00  0.00     0.041 A 
ATOM      4  C3  UNL d   1       0.734  -0.122   0.302  0.00  0.00    -0.075 A 
ATOM      5  S   UNL d   1       0.262   0.467  -1.248  0.00  0.00     0.015 SA
ATOM      6  C4  UNL d   1      -1.391   0.213  -0.924  0.00  0.00     0.022 A 
ATOM      7  C5  UNL d   1      -1.597  -0.308   0.332  0.00  0.00     0.026 A 
ATOM      8  C6  UNL d   1      -0.375  -0.509   1.059  0.00  0.00    -0.082 A 
ATOM      9  C7  UNL d   1      -0.151  -1.017   2.362  0.00  0.00     0.045 A 
ENDROOT
TORSDOF 0
ENDMDL
