MODEL 1
REMARK minimizedAffinity -4.68280125
REMARK minimizedRMSD -1
REMARK  0 active torsions:
REMARK  status: ('A' for Active; 'I' for Inactive)
ROOT
ATOM      1  C   UNL d   1       0.502  -2.752   0.647  0.00  0.00     0.077 C 
ATOM      2  C1  UNL d   1       0.194  -1.286   0.571  0.00  0.00    -0.074 A 
ATOM      3  C2  UNL d   1      -1.064  -0.796   0.938  0.00  0.00    -0.005 A 
ATOM      4  C3  UNL d   1      -1.333   0.571   0.871  0.00  0.00     0.006 A 
ATOM      5  C4  UNL d   1      -0.349   1.460   0.436  0.00  0.00    -0.005 A 
ATOM      6  C5  UNL d   1       0.914   0.989   0.065  0.00  0.00    -0.074 A 
ATOM      7  C6  UNL d   1       1.985   1.932  -0.395  0.00  0.00     0.077 C 
ATOM      8  C7  UNL d   1       1.179  -0.385   0.142  0.00  0.00    -0.001 A 
ENDROOT
TORSDOF 0
ENDMDL
