MODEL 1
REMARK minimizedAffinity -0.823302865
REMARK minimizedRMSD -1
REMARK  0 active torsions:
REMARK  status: ('A' for Active; 'I' for Inactive)
ROOT
ATOM      1  C   UNL d   1       0.256   4.762   1.913  0.00  0.00     0.077 C 
ATOM      2  C1  UNL d   1       1.136   3.883   1.074  0.00  0.00    -0.074 A 
ATOM      3  C2  UNL d   1       2.471   3.658   1.426  0.00  0.00    -0.005 A 
ATOM      4  C3  UNL d   1       3.275   2.831   0.641  0.00  0.00     0.006 A 
ATOM      5  C4  UNL d   1       2.753   2.222  -0.501  0.00  0.00    -0.005 A 
ATOM      6  C5  UNL d   1       1.420   2.435  -0.868  0.00  0.00    -0.074 A 
ATOM      7  C6  UNL d   1       0.841   1.781  -2.086  0.00  0.00     0.077 C 
ATOM      8  C7  UNL d   1       0.617   3.262  -0.070  0.00  0.00    -0.001 A 
ENDROOT
TORSDOF 0
ENDMDL
