MODEL 1
REMARK minimizedAffinity 0.185542867
REMARK minimizedRMSD -1
REMARK  0 active torsions:
REMARK  status: ('A' for Active; 'I' for Inactive)
ROOT
ATOM      1  C   UNL d   1       0.723   3.000   0.044  0.00  0.00     0.077 C 
ATOM      2  C1  UNL d   1       0.341   1.550   0.061  0.00  0.00    -0.074 A 
ATOM      3  C2  UNL d   1      -0.561   1.055   1.008  0.00  0.00    -0.005 A 
ATOM      4  C3  UNL d   1      -0.914  -0.294   1.005  0.00  0.00     0.006 A 
ATOM      5  C4  UNL d   1      -0.368  -1.162   0.058  0.00  0.00    -0.005 A 
ATOM      6  C5  UNL d   1       0.535  -0.685  -0.897  0.00  0.00    -0.074 A 
ATOM      7  C6  UNL d   1       1.124  -1.601  -1.929  0.00  0.00     0.077 C 
ATOM      8  C7  UNL d   1       0.879   0.674  -0.893  0.00  0.00    -0.001 A 
ENDROOT
TORSDOF 0
ENDMDL
