MODEL 1
REMARK minimizedAffinity -4.52298546
REMARK minimizedRMSD -1
REMARK  0 active torsions:
REMARK  status: ('A' for Active; 'I' for Inactive)
ROOT
ATOM      1  C   UNL d   1       0.429  -3.638   0.140  0.00  0.00     0.077 C 
ATOM      2  C1  UNL d   1      -0.078  -2.250   0.398  0.00  0.00    -0.074 A 
ATOM      3  C2  UNL d   1      -1.190  -2.032   1.218  0.00  0.00    -0.005 A 
ATOM      4  C3  UNL d   1      -1.644  -0.735   1.457  0.00  0.00     0.006 A 
ATOM      5  C4  UNL d   1      -0.992   0.355   0.879  0.00  0.00    -0.005 A 
ATOM      6  C5  UNL d   1       0.122   0.156   0.058  0.00  0.00    -0.074 A 
ATOM      7  C6  UNL d   1       0.841   1.318  -0.562  0.00  0.00     0.077 C 
ATOM      8  C7  UNL d   1       0.577  -1.150  -0.172  0.00  0.00    -0.001 A 
ENDROOT
TORSDOF 0
ENDMDL
