MODEL 1
REMARK minimizedAffinity -3.3767426
REMARK minimizedRMSD -1
REMARK  0 active torsions:
REMARK  status: ('A' for Active; 'I' for Inactive)
ROOT
ATOM      1  C   UNL d   1       0.180   1.916  -0.005  0.00  0.00     0.077 C 
ATOM      2  C1  UNL d   1       0.207   0.501  -0.502  0.00  0.00    -0.074 A 
ATOM      3  C2  UNL d   1       0.471   0.217  -1.846  0.00  0.00    -0.005 A 
ATOM      4  C3  UNL d   1       0.502  -1.104  -2.293  0.00  0.00     0.006 A 
ATOM      5  C4  UNL d   1       0.269  -2.153  -1.402  0.00  0.00    -0.005 A 
ATOM      6  C5  UNL d   1       0.004  -1.888  -0.054  0.00  0.00    -0.074 A 
ATOM      7  C6  UNL d   1      -0.238  -3.003   0.919  0.00  0.00     0.077 C 
ATOM      8  C7  UNL d   1      -0.018  -0.558   0.388  0.00  0.00    -0.001 A 
ENDROOT
TORSDOF 0
ENDMDL
