MODEL 1
REMARK minimizedAffinity -5.76329041
REMARK minimizedRMSD -1
REMARK  0 active torsions:
REMARK  status: ('A' for Active; 'I' for Inactive)
ROOT
ATOM      1  C   UNL d   1       0.508  -3.431   0.639  0.00  0.00     0.077 C 
ATOM      2  C1  UNL d   1       0.023  -2.023   0.464  0.00  0.00    -0.074 A 
ATOM      3  C2  UNL d   1      -0.786  -1.416   1.429  0.00  0.00    -0.005 A 
ATOM      4  C3  UNL d   1      -1.221  -0.102   1.257  0.00  0.00     0.006 A 
ATOM      5  C4  UNL d   1      -0.852   0.617   0.120  0.00  0.00    -0.005 A 
ATOM      6  C5  UNL d   1      -0.043   0.027  -0.856  0.00  0.00    -0.074 A 
ATOM      7  C6  UNL d   1       0.371   0.789  -2.080  0.00  0.00     0.077 C 
ATOM      8  C7  UNL d   1       0.396  -1.291  -0.672  0.00  0.00    -0.001 A 
ENDROOT
TORSDOF 0
ENDMDL
