MODEL 1
REMARK minimizedAffinity -5.16245222
REMARK minimizedRMSD -1
REMARK  0 active torsions:
REMARK  status: ('A' for Active; 'I' for Inactive)
ROOT
ATOM      1  C   UNL d   1       0.308  -3.609   0.361  0.00  0.00     0.077 C 
ATOM      2  C1  UNL d   1      -0.165  -2.189   0.263  0.00  0.00    -0.074 A 
ATOM      3  C2  UNL d   1       0.364  -1.320  -0.697  0.00  0.00    -0.005 A 
ATOM      4  C3  UNL d   1      -0.094  -0.005  -0.782  0.00  0.00     0.006 A 
ATOM      5  C4  UNL d   1      -1.082   0.453   0.089  0.00  0.00    -0.005 A 
ATOM      6  C5  UNL d   1      -1.624  -0.402   1.054  0.00  0.00    -0.074 A 
ATOM      7  C6  UNL d   1      -2.694   0.072   1.992  0.00  0.00     0.077 C 
ATOM      8  C7  UNL d   1      -1.164  -1.724   1.130  0.00  0.00    -0.001 A 
ENDROOT
TORSDOF 0
ENDMDL
