MODEL 1
REMARK minimizedAffinity -4.13906574
REMARK minimizedRMSD -1
REMARK  0 active torsions:
REMARK  status: ('A' for Active; 'I' for Inactive)
ROOT
ATOM      1  C   UNL d   1       0.613   0.718  -2.150  0.00  0.00     0.077 C 
ATOM      2  C1  UNL d   1       0.083   0.090  -0.896  0.00  0.00    -0.074 A 
ATOM      3  C2  UNL d   1      -0.731   0.813  -0.018  0.00  0.00    -0.005 A 
ATOM      4  C3  UNL d   1      -1.224   0.212   1.140  0.00  0.00     0.006 A 
ATOM      5  C4  UNL d   1      -0.909  -1.116   1.431  0.00  0.00    -0.005 A 
ATOM      6  C5  UNL d   1      -0.097  -1.855   0.565  0.00  0.00    -0.074 A 
ATOM      7  C6  UNL d   1       0.243  -3.286   0.858  0.00  0.00     0.077 C 
ATOM      8  C7  UNL d   1       0.389  -1.246  -0.600  0.00  0.00    -0.001 A 
ENDROOT
TORSDOF 0
ENDMDL
