MODEL 1
REMARK minimizedAffinity -2.50645685
REMARK minimizedRMSD -1
REMARK  0 active torsions:
REMARK  status: ('A' for Active; 'I' for Inactive)
ROOT
ATOM      1  C   UNL d   1       0.836   0.779  -1.961  0.00  0.00     0.077 C 
ATOM      2  C1  UNL d   1       0.333   0.045  -0.754  0.00  0.00    -0.074 A 
ATOM      3  C2  UNL d   1      -0.355   0.718   0.261  0.00  0.00    -0.005 A 
ATOM      4  C3  UNL d   1      -0.825   0.020   1.374  0.00  0.00     0.006 A 
ATOM      5  C4  UNL d   1      -0.611  -1.355   1.483  0.00  0.00    -0.005 A 
ATOM      6  C5  UNL d   1       0.074  -2.044   0.478  0.00  0.00    -0.074 A 
ATOM      7  C6  UNL d   1       0.303  -3.523   0.574  0.00  0.00     0.077 C 
ATOM      8  C7  UNL d   1       0.536  -1.337  -0.641  0.00  0.00    -0.001 A 
ENDROOT
TORSDOF 0
ENDMDL
