MODEL 1
REMARK minimizedAffinity -2.88404465
REMARK minimizedRMSD -1
REMARK  0 active torsions:
REMARK  status: ('A' for Active; 'I' for Inactive)
ROOT
ATOM      1  C   UNL d   1       0.357  -3.619   0.399  0.00  0.00     0.077 C 
ATOM      2  C1  UNL d   1      -0.148  -2.231   0.660  0.00  0.00    -0.074 A 
ATOM      3  C2  UNL d   1      -0.950  -1.955   1.773  0.00  0.00    -0.005 A 
ATOM      4  C3  UNL d   1      -1.403  -0.657   2.008  0.00  0.00     0.006 A 
ATOM      5  C4  UNL d   1      -1.061   0.376   1.135  0.00  0.00    -0.005 A 
ATOM      6  C5  UNL d   1      -0.260   0.119   0.018  0.00  0.00    -0.074 A 
ATOM      7  C6  UNL d   1       0.126   1.220  -0.925  0.00  0.00     0.077 C 
ATOM      8  C7  UNL d   1       0.198  -1.186  -0.208  0.00  0.00    -0.001 A 
ENDROOT
TORSDOF 0
ENDMDL
