MODEL 1
REMARK minimizedAffinity -2.45239592
REMARK minimizedRMSD -1
REMARK  0 active torsions:
REMARK  status: ('A' for Active; 'I' for Inactive)
ROOT
ATOM      1  C   UNL d   1       0.574   3.067   0.422  0.00  0.00     0.077 C 
ATOM      2  C1  UNL d   1       0.349   1.781  -0.316  0.00  0.00    -0.074 A 
ATOM      3  C2  UNL d   1       0.124   1.775  -1.697  0.00  0.00    -0.005 A 
ATOM      4  C3  UNL d   1      -0.075   0.571  -2.372  0.00  0.00     0.006 A 
ATOM      5  C4  UNL d   1      -0.050  -0.638  -1.675  0.00  0.00    -0.005 A 
ATOM      6  C5  UNL d   1       0.174  -0.652  -0.294  0.00  0.00    -0.074 A 
ATOM      7  C6  UNL d   1       0.213  -1.942   0.469  0.00  0.00     0.077 C 
ATOM      8  C7  UNL d   1       0.380   0.562   0.376  0.00  0.00    -0.001 A 
ENDROOT
TORSDOF 0
ENDMDL
