MODEL 1
REMARK minimizedAffinity -3.13703132
REMARK minimizedRMSD -1
REMARK  0 active torsions:
REMARK  status: ('A' for Active; 'I' for Inactive)
ROOT
ATOM      1  C   UNL d   1       0.864  -3.352   0.367  0.00  0.00     0.077 C 
ATOM      2  C1  UNL d   1       0.170  -2.028   0.493  0.00  0.00    -0.074 A 
ATOM      3  C2  UNL d   1      -1.070  -1.925   1.131  0.00  0.00    -0.005 A 
ATOM      4  C3  UNL d   1      -1.699  -0.686   1.249  0.00  0.00     0.006 A 
ATOM      5  C4  UNL d   1      -1.096   0.461   0.731  0.00  0.00    -0.005 A 
ATOM      6  C5  UNL d   1       0.145   0.377   0.091  0.00  0.00    -0.074 A 
ATOM      7  C6  UNL d   1       0.812   1.601  -0.463  0.00  0.00     0.077 C 
ATOM      8  C7  UNL d   1       0.774  -0.871  -0.018  0.00  0.00    -0.001 A 
ENDROOT
TORSDOF 0
ENDMDL
