MODEL 1
REMARK minimizedAffinity -2.9987185
REMARK minimizedRMSD -1
REMARK  0 active torsions:
REMARK  status: ('A' for Active; 'I' for Inactive)
ROOT
ATOM      1  C   UNL d   1      -1.464  -1.167   3.130  0.00  0.00     0.077 C 
ATOM      2  C1  UNL d   1      -0.822  -0.952   1.791  0.00  0.00    -0.074 A 
ATOM      3  C2  UNL d   1      -0.770  -1.982   0.846  0.00  0.00    -0.005 A 
ATOM      4  C3  UNL d   1      -0.178  -1.764  -0.399  0.00  0.00     0.006 A 
ATOM      5  C4  UNL d   1       0.366  -0.517  -0.709  0.00  0.00    -0.005 A 
ATOM      6  C5  UNL d   1       0.322   0.524   0.223  0.00  0.00    -0.074 A 
ATOM      7  C6  UNL d   1       0.894   1.873  -0.098  0.00  0.00     0.077 C 
ATOM      8  C7  UNL d   1      -0.280   0.300   1.469  0.00  0.00    -0.001 A 
ENDROOT
TORSDOF 0
ENDMDL
