MODEL 1
REMARK minimizedAffinity -2.13178802
REMARK minimizedRMSD -1
REMARK  0 active torsions:
REMARK  status: ('A' for Active; 'I' for Inactive)
ROOT
ATOM      1  C   UNL d   1      -0.734   4.830   1.955  0.00  0.00     0.077 C 
ATOM      2  C1  UNL d   1       0.317   3.922   1.387  0.00  0.00    -0.074 A 
ATOM      3  C2  UNL d   1       1.654   4.036   1.781  0.00  0.00    -0.005 A 
ATOM      4  C3  UNL d   1       2.618   3.179   1.251  0.00  0.00     0.006 A 
ATOM      5  C4  UNL d   1       2.256   2.201   0.324  0.00  0.00    -0.005 A 
ATOM      6  C5  UNL d   1       0.924   2.072  -0.081  0.00  0.00    -0.074 A 
ATOM      7  C6  UNL d   1       0.516   1.019  -1.069  0.00  0.00     0.077 C 
ATOM      8  C7  UNL d   1      -0.041   2.932   0.461  0.00  0.00    -0.001 A 
ENDROOT
TORSDOF 0
ENDMDL
