MODEL 1
REMARK minimizedAffinity -4.75623751
REMARK minimizedRMSD -1
REMARK  0 active torsions:
REMARK  status: ('A' for Active; 'I' for Inactive)
ROOT
ATOM      1  C   UNL d   1       0.496  -3.323   0.577  0.00  0.00     0.077 C 
ATOM      2  C1  UNL d   1      -0.108  -1.950   0.598  0.00  0.00    -0.074 A 
ATOM      3  C2  UNL d   1      -1.052  -1.594   1.567  0.00  0.00    -0.005 A 
ATOM      4  C3  UNL d   1      -1.597  -0.311   1.580  0.00  0.00     0.006 A 
ATOM      5  C4  UNL d   1      -1.205   0.629   0.625  0.00  0.00    -0.005 A 
ATOM      6  C5  UNL d   1      -0.262   0.292  -0.350  0.00  0.00    -0.074 A 
ATOM      7  C6  UNL d   1       0.178   1.293  -1.377  0.00  0.00     0.077 C 
ATOM      8  C7  UNL d   1       0.287  -0.998  -0.352  0.00  0.00    -0.001 A 
ENDROOT
TORSDOF 0
ENDMDL
