MODEL 1
REMARK minimizedAffinity -1.08438087
REMARK minimizedRMSD -1
REMARK  0 active torsions:
REMARK  status: ('A' for Active; 'I' for Inactive)
ROOT
ATOM      1  C   UNL d   1       0.043   1.001  -2.413  0.00  0.00     0.077 C 
ATOM      2  C1  UNL d   1       0.054   0.520  -0.992  0.00  0.00    -0.074 A 
ATOM      3  C2  UNL d   1       0.564   1.322   0.034  0.00  0.00    -0.005 A 
ATOM      4  C3  UNL d   1       0.559   0.865   1.352  0.00  0.00     0.006 A 
ATOM      5  C4  UNL d   1       0.045  -0.396   1.656  0.00  0.00    -0.005 A 
ATOM      6  C5  UNL d   1      -0.470  -1.211   0.644  0.00  0.00    -0.074 A 
ATOM      7  C6  UNL d   1      -1.036  -2.565   0.955  0.00  0.00     0.077 C 
ATOM      8  C7  UNL d   1      -0.468  -0.742  -0.677  0.00  0.00    -0.001 A 
ENDROOT
TORSDOF 0
ENDMDL
