MODEL 1
REMARK minimizedAffinity 6.5422101
REMARK minimizedRMSD -1
REMARK  1 active torsions:
REMARK  status: ('A' for Active; 'I' for Inactive)
REMARK    1  A    between atoms: C1_2  and  C2_3 
ROOT
ATOM      1  C2  UNL d   1       0.810  -1.129  -0.694  0.00  0.00    -0.076 A 
ATOM      2  C3  UNL d   1       1.727  -2.166  -0.935  0.00  0.00     0.004 A 
ATOM      3  C4  UNL d   1       3.080  -1.896  -1.138  0.00  0.00    -0.003 A 
ATOM      4  C5  UNL d   1       3.537  -0.583  -1.103  0.00  0.00     0.000 A 
ATOM      5  C6  UNL d   1       2.644   0.457  -0.848  0.00  0.00     0.000 A 
ATOM      6  C7  UNL d   1       1.280   0.200  -0.625  0.00  0.00    -0.073 A 
ATOM      7  C8  UNL d   1       0.360   1.361  -0.360  0.00  0.00     0.078 C 
ENDROOT
BRANCH   1   8
ATOM      8  C1  UNL d   1      -0.649  -1.480  -0.508  0.00  0.00     0.053 C 
ATOM      9  C   UNL d   1      -1.074  -2.671  -1.353  0.00  0.00     0.018 C 
ENDBRANCH   1   8
TORSDOF 1
ENDMDL
