MODEL 1
REMARK minimizedAffinity 1.73969507
REMARK minimizedRMSD -1
REMARK  1 active torsions:
REMARK  status: ('A' for Active; 'I' for Inactive)
REMARK    1  A    between atoms: C1_2  and  C2_3 
ROOT
ATOM      1  C2  UNL d   1       2.252   0.431  -0.493  0.00  0.00    -0.076 A 
ATOM      2  C3  UNL d   1       2.953  -0.786  -0.443  0.00  0.00     0.004 A 
ATOM      3  C4  UNL d   1       2.283  -2.005  -0.534  0.00  0.00    -0.003 A 
ATOM      4  C5  UNL d   1       0.900  -2.026  -0.678  0.00  0.00     0.000 A 
ATOM      5  C6  UNL d   1       0.190  -0.828  -0.747  0.00  0.00     0.000 A 
ATOM      6  C7  UNL d   1       0.852   0.409  -0.673  0.00  0.00    -0.073 A 
ATOM      7  C8  UNL d   1       0.036   1.671  -0.747  0.00  0.00     0.078 C 
ENDROOT
BRANCH   1   8
ATOM      8  C1  UNL d   1       3.030   1.721  -0.362  0.00  0.00     0.053 C 
ATOM      9  C   UNL d   1       4.354   1.681  -1.108  0.00  0.00     0.018 C 
ENDBRANCH   1   8
TORSDOF 1
ENDMDL
