MODEL 1
REMARK minimizedAffinity 1.54781795
REMARK minimizedRMSD -1
REMARK  1 active torsions:
REMARK  status: ('A' for Active; 'I' for Inactive)
REMARK    1  A    between atoms: C1_2  and  C2_3 
ROOT
ATOM      1  C2  UNL d   1       1.109  -0.182  -0.210  0.00  0.00    -0.076 A 
ATOM      2  C3  UNL d   1       2.210  -1.015   0.054  0.00  0.00     0.004 A 
ATOM      3  C4  UNL d   1       2.154  -2.383  -0.207  0.00  0.00    -0.003 A 
ATOM      4  C5  UNL d   1       0.995  -2.940  -0.738  0.00  0.00     0.000 A 
ATOM      5  C6  UNL d   1      -0.101  -2.126  -1.022  0.00  0.00     0.000 A 
ATOM      6  C7  UNL d   1      -0.054  -0.742  -0.780  0.00  0.00    -0.073 A 
ATOM      7  C8  UNL d   1      -1.268   0.088  -1.100  0.00  0.00     0.078 C 
ENDROOT
BRANCH   1   8
ATOM      8  C1  UNL d   1       1.219   1.290   0.119  0.00  0.00     0.053 C 
ATOM      9  C   UNL d   1       2.650   1.799   0.043  0.00  0.00     0.018 C 
ENDBRANCH   1   8
TORSDOF 1
ENDMDL
