MODEL 1
REMARK minimizedAffinity -5.04155588
REMARK minimizedRMSD -1
REMARK  1 active torsions:
REMARK  status: ('A' for Active; 'I' for Inactive)
REMARK    1  A    between atoms: C1_2  and  C2_3 
ROOT
ATOM      1  C2  UNL d   1       3.881   0.348  -0.051  0.00  0.00    -0.076 A 
ATOM      2  C3  UNL d   1       3.639  -0.976  -0.455  0.00  0.00     0.004 A 
ATOM      3  C4  UNL d   1       2.356  -1.519  -0.405  0.00  0.00    -0.003 A 
ATOM      4  C5  UNL d   1       1.294  -0.745   0.049  0.00  0.00     0.000 A 
ATOM      5  C6  UNL d   1       1.512   0.576   0.437  0.00  0.00     0.000 A 
ATOM      6  C7  UNL d   1       2.797   1.143   0.378  0.00  0.00    -0.073 A 
ATOM      7  C8  UNL d   1       2.976   2.571   0.815  0.00  0.00     0.078 C 
ENDROOT
BRANCH   1   8
ATOM      8  C1  UNL d   1       5.298   0.873  -0.101  0.00  0.00     0.053 C 
ATOM      9  C   UNL d   1       5.549   1.758  -1.312  0.00  0.00     0.018 C 
ENDBRANCH   1   8
TORSDOF 1
ENDMDL
