MODEL 1
REMARK minimizedAffinity 8.82644081
REMARK minimizedRMSD -1
REMARK  1 active torsions:
REMARK  status: ('A' for Active; 'I' for Inactive)
REMARK    1  A    between atoms: C1_2  and  C2_3 
ROOT
ATOM      1  C2  UNL d   1       2.582  -0.269  -0.999  0.00  0.00    -0.076 A 
ATOM      2  C3  UNL d   1       1.690   0.680  -0.470  0.00  0.00     0.004 A 
ATOM      3  C4  UNL d   1       0.329   0.400  -0.357  0.00  0.00    -0.003 A 
ATOM      4  C5  UNL d   1      -0.162  -0.833  -0.772  0.00  0.00     0.000 A 
ATOM      5  C6  UNL d   1       0.711  -1.793  -1.283  0.00  0.00     0.000 A 
ATOM      6  C7  UNL d   1       2.088  -1.533  -1.388  0.00  0.00    -0.073 A 
ATOM      7  C8  UNL d   1       2.983  -2.602  -1.952  0.00  0.00     0.078 C 
ENDROOT
BRANCH   1   8
ATOM      8  C1  UNL d   1       4.043   0.100  -1.122  0.00  0.00     0.053 C 
ATOM      9  C   UNL d   1       4.277   1.598  -1.002  0.00  0.00     0.018 C 
ENDBRANCH   1   8
TORSDOF 1
ENDMDL
