MODEL 1
REMARK minimizedAffinity 3.95520997
REMARK minimizedRMSD -1
REMARK  1 active torsions:
REMARK  status: ('A' for Active; 'I' for Inactive)
REMARK    1  A    between atoms: C1_2  and  C2_3 
ROOT
ATOM      1  C2  UNL d   1       1.737  -1.466  -1.126  0.00  0.00    -0.076 A 
ATOM      2  C3  UNL d   1       1.184  -2.759  -1.137  0.00  0.00     0.004 A 
ATOM      3  C4  UNL d   1      -0.075  -3.005  -0.592  0.00  0.00    -0.003 A 
ATOM      4  C5  UNL d   1      -0.802  -1.963  -0.028  0.00  0.00     0.000 A 
ATOM      5  C6  UNL d   1      -0.277  -0.671  -0.025  0.00  0.00     0.000 A 
ATOM      6  C7  UNL d   1       0.984  -0.402  -0.584  0.00  0.00    -0.073 A 
ATOM      7  C8  UNL d   1       1.504   1.008  -0.548  0.00  0.00     0.078 C 
ENDROOT
BRANCH   1   8
ATOM      8  C1  UNL d   1       3.118  -1.264  -1.707  0.00  0.00     0.053 C 
ATOM      9  C   UNL d   1       3.349  -2.092  -2.962  0.00  0.00     0.018 C 
ENDBRANCH   1   8
TORSDOF 1
ENDMDL
