MODEL 1
REMARK minimizedAffinity 3.48687673
REMARK minimizedRMSD -1
REMARK  1 active torsions:
REMARK  status: ('A' for Active; 'I' for Inactive)
REMARK    1  A    between atoms: C1_2  and  C2_3 
ROOT
ATOM      1  C2  UNL d   1       2.390   0.194  -0.713  0.00  0.00    -0.076 A 
ATOM      2  C3  UNL d   1       2.932  -0.998  -1.225  0.00  0.00     0.004 A 
ATOM      3  C4  UNL d   1       2.205  -2.186  -1.199  0.00  0.00    -0.003 A 
ATOM      4  C5  UNL d   1       0.923  -2.203  -0.660  0.00  0.00     0.000 A 
ATOM      5  C6  UNL d   1       0.363  -1.026  -0.163  0.00  0.00     0.000 A 
ATOM      6  C7  UNL d   1       1.077   0.184  -0.197  0.00  0.00    -0.073 A 
ATOM      7  C8  UNL d   1       0.426   1.422   0.358  0.00  0.00     0.078 C 
ENDROOT
BRANCH   1   8
ATOM      8  C1  UNL d   1       3.236   1.447  -0.744  0.00  0.00     0.053 C 
ATOM      9  C   UNL d   1       4.564   1.235  -1.455  0.00  0.00     0.018 C 
ENDBRANCH   1   8
TORSDOF 1
ENDMDL
