MODEL 1
REMARK minimizedAffinity 3.15816879
REMARK minimizedRMSD -1
REMARK  1 active torsions:
REMARK  status: ('A' for Active; 'I' for Inactive)
REMARK    1  A    between atoms: C1_2  and  C2_3 
ROOT
ATOM      1  C2  UNL d   1       0.321  -0.594  -0.731  0.00  0.00    -0.076 A 
ATOM      2  C3  UNL d   1      -0.908  -0.453  -1.398  0.00  0.00     0.004 A 
ATOM      3  C4  UNL d   1      -1.664  -1.568  -1.753  0.00  0.00    -0.003 A 
ATOM      4  C5  UNL d   1      -1.204  -2.844  -1.446  0.00  0.00     0.000 A 
ATOM      5  C6  UNL d   1       0.004  -3.002  -0.769  0.00  0.00     0.000 A 
ATOM      6  C7  UNL d   1       0.771  -1.887  -0.389  0.00  0.00    -0.073 A 
ATOM      7  C8  UNL d   1       2.070  -2.117   0.334  0.00  0.00     0.078 C 
ENDROOT
BRANCH   1   8
ATOM      8  C1  UNL d   1       1.110   0.651  -0.395  0.00  0.00     0.053 C 
ATOM      9  C   UNL d   1       0.700   1.259   0.937  0.00  0.00     0.018 C 
ENDBRANCH   1   8
TORSDOF 1
ENDMDL
