MODEL 1
REMARK minimizedAffinity 0.513980567
REMARK minimizedRMSD -1
REMARK  0 active torsions:
REMARK  status: ('A' for Active; 'I' for Inactive)
ROOT
ATOM      1  C4' PXY d   1       0.751   5.629  -4.595  0.00  0.00     0.077 C 
ATOM      2  C1' PXY d   1       5.457   2.571  -5.981  0.00  0.00     0.077 C 
ATOM      3  C1  PXY d   1       4.229   3.378  -5.607  0.00  0.00    -0.082 A 
ATOM      4  C2  PXY d   1       3.033   2.970  -6.000  0.00  0.00     0.003 A 
ATOM      5  C3  PXY d   1       1.916   3.705  -5.698  0.00  0.00     0.003 A 
ATOM      6  C4  PXY d   1       2.017   4.841  -4.941  0.00  0.00    -0.082 A 
ATOM      7  C5  PXY d   1       3.233   5.258  -4.527  0.00  0.00     0.003 A 
ATOM      8  C6  PXY d   1       4.359   4.521  -4.879  0.00  0.00     0.003 A 
ENDROOT
TORSDOF 0
ENDMDL
