MODEL 1
REMARK minimizedAffinity -0.773529649
REMARK minimizedRMSD -1
REMARK  0 active torsions:
REMARK  status: ('A' for Active; 'I' for Inactive)
ROOT
ATOM      1  C4' PXY d   1       6.000   2.997  -6.000  0.00  0.00     0.077 C 
ATOM      2  C1' PXY d   1       0.388   4.364  -5.771  0.00  0.00     0.077 C 
ATOM      3  C1  PXY d   1       1.857   3.995  -5.825  0.00  0.00    -0.082 A 
ATOM      4  C2  PXY d   1       2.769   4.949  -5.917  0.00  0.00     0.003 A 
ATOM      5  C3  PXY d   1       4.100   4.631  -5.999  0.00  0.00     0.003 A 
ATOM      6  C4  PXY d   1       4.506   3.325  -5.933  0.00  0.00    -0.082 A 
ATOM      7  C5  PXY d   1       3.582   2.346  -5.829  0.00  0.00     0.003 A 
ATOM      8  C6  PXY d   1       2.233   2.687  -5.788  0.00  0.00     0.003 A 
ENDROOT
TORSDOF 0
ENDMDL
