MODEL 1
REMARK minimizedAffinity 3.28171158
REMARK minimizedRMSD -1
REMARK  0 active torsions:
REMARK  status: ('A' for Active; 'I' for Inactive)
ROOT
ATOM      1  C4' PXY d   1       6.000   3.002   1.875  0.00  0.00     0.077 C 
ATOM      2  C1' PXY d   1       1.877  -0.590   0.001  0.00  0.00     0.077 C 
ATOM      3  C1  PXY d   1       2.962   0.343   0.501  0.00  0.00    -0.082 A 
ATOM      4  C2  PXY d   1       2.830   1.649   0.334  0.00  0.00     0.003 A 
ATOM      5  C3  PXY d   1       3.817   2.505   0.752  0.00  0.00     0.003 A 
ATOM      6  C4  PXY d   1       4.925   2.023   1.395  0.00  0.00    -0.082 A 
ATOM      7  C5  PXY d   1       5.063   0.693   1.579  0.00  0.00     0.003 A 
ATOM      8  C6  PXY d   1       4.069  -0.162   1.111  0.00  0.00     0.003 A 
ENDROOT
TORSDOF 0
ENDMDL
