MODEL 1
REMARK minimizedAffinity -1.4757185
REMARK minimizedRMSD -1
REMARK  0 active torsions:
REMARK  status: ('A' for Active; 'I' for Inactive)
ROOT
ATOM      1  C4' PXY d   1       3.274   0.894  -5.248  0.00  0.00     0.077 C 
ATOM      2  C1' PXY d   1       5.881   5.999  -6.000  0.00  0.00     0.077 C 
ATOM      3  C1  PXY d   1       5.187   4.667  -5.797  0.00  0.00    -0.082 A 
ATOM      4  C2  PXY d   1       5.908   3.562  -5.699  0.00  0.00     0.003 A 
ATOM      5  C3  PXY d   1       5.295   2.344  -5.548  0.00  0.00     0.003 A 
ATOM      6  C4  PXY d   1       3.933   2.263  -5.444  0.00  0.00    -0.082 A 
ATOM      7  C5  PXY d   1       3.190   3.387  -5.533  0.00  0.00     0.003 A 
ATOM      8  C6  PXY d   1       3.829   4.608  -5.727  0.00  0.00     0.003 A 
ENDROOT
TORSDOF 0
ENDMDL
