MODEL 1
REMARK minimizedAffinity -1.09673989
REMARK minimizedRMSD -1
REMARK  0 active torsions:
REMARK  status: ('A' for Active; 'I' for Inactive)
ROOT
ATOM      1  C4' PXY d   1       3.113   1.036  -5.263  0.00  0.00     0.077 C 
ATOM      2  C1' PXY d   1       5.988   5.996  -5.995  0.00  0.00     0.077 C 
ATOM      3  C1  PXY d   1       5.245   4.689  -5.808  0.00  0.00    -0.082 A 
ATOM      4  C2  PXY d   1       3.922   4.680  -5.824  0.00  0.00     0.003 A 
ATOM      5  C3  PXY d   1       3.233   3.512  -5.624  0.00  0.00     0.003 A 
ATOM      6  C4  PXY d   1       3.906   2.331  -5.458  0.00  0.00    -0.082 A 
ATOM      7  C5  PXY d   1       5.255   2.330  -5.450  0.00  0.00     0.003 A 
ATOM      8  C6  PXY d   1       5.936   3.533  -5.614  0.00  0.00     0.003 A 
ENDROOT
TORSDOF 0
ENDMDL
