MODEL 1
REMARK minimizedAffinity -3.58846784
REMARK minimizedRMSD -1
REMARK  0 active torsions:
REMARK  status: ('A' for Active; 'I' for Inactive)
ROOT
ATOM      1  C4' PXY d   1       0.265   4.476  -5.572  0.00  0.00     0.077 C 
ATOM      2  C1' PXY d   1       6.000   3.886  -5.997  0.00  0.00     0.077 C 
ATOM      3  C1  PXY d   1       4.494   4.028  -5.889  0.00  0.00    -0.082 A 
ATOM      4  C2  PXY d   1       3.942   5.226  -5.990  0.00  0.00     0.003 A 
ATOM      5  C3  PXY d   1       2.585   5.377  -5.863  0.00  0.00     0.003 A 
ATOM      6  C4  PXY d   1       1.780   4.284  -5.684  0.00  0.00    -0.082 A 
ATOM      7  C5  PXY d   1       2.335   3.057  -5.590  0.00  0.00     0.003 A 
ATOM      8  C6  PXY d   1       3.719   2.930  -5.681  0.00  0.00     0.003 A 
ENDROOT
TORSDOF 0
ENDMDL
