MODEL 1
REMARK minimizedAffinity -1.59146726
REMARK minimizedRMSD -1
REMARK  0 active torsions:
REMARK  status: ('A' for Active; 'I' for Inactive)
ROOT
ATOM      1  C4' PXY d   1       0.445   5.320  -5.971  0.00  0.00     0.077 C 
ATOM      2  C1' PXY d   1       5.861   3.301  -6.000  0.00  0.00     0.077 C 
ATOM      3  C1  PXY d   1       4.445   3.842  -5.987  0.00  0.00    -0.082 A 
ATOM      4  C2  PXY d   1       3.424   3.000  -5.975  0.00  0.00     0.003 A 
ATOM      5  C3  PXY d   1       2.136   3.472  -5.996  0.00  0.00     0.003 A 
ATOM      6  C4  PXY d   1       1.892   4.819  -5.975  0.00  0.00    -0.082 A 
ATOM      7  C5  PXY d   1       2.928   5.684  -5.976  0.00  0.00     0.003 A 
ATOM      8  C6  PXY d   1       4.227   5.185  -5.997  0.00  0.00     0.003 A 
ENDROOT
TORSDOF 0
ENDMDL
