MODEL 1
REMARK minimizedAffinity -1.75406408
REMARK minimizedRMSD -1
REMARK  0 active torsions:
REMARK  status: ('A' for Active; 'I' for Inactive)
ROOT
ATOM      1  C4' PXY d   1       6.000   3.008  -5.582  0.00  0.00     0.077 C 
ATOM      2  C1' PXY d   1       0.437   4.523  -5.998  0.00  0.00     0.077 C 
ATOM      3  C1  PXY d   1       1.893   4.115  -5.882  0.00  0.00    -0.082 A 
ATOM      4  C2  PXY d   1       2.840   5.031  -6.000  0.00  0.00     0.003 A 
ATOM      5  C3  PXY d   1       4.162   4.674  -5.930  0.00  0.00     0.003 A 
ATOM      6  C4  PXY d   1       4.517   3.375  -5.683  0.00  0.00    -0.082 A 
ATOM      7  C5  PXY d   1       3.556   2.436  -5.551  0.00  0.00     0.003 A 
ATOM      8  C6  PXY d   1       2.221   2.812  -5.667  0.00  0.00     0.003 A 
ENDROOT
TORSDOF 0
ENDMDL
