MODEL 1
REMARK minimizedAffinity 2.31960034
REMARK minimizedRMSD -1
REMARK  0 active torsions:
REMARK  status: ('A' for Active; 'I' for Inactive)
ROOT
ATOM      1  C4' PXY d   1       5.995   2.994  -6.000  0.00  0.00     0.077 C 
ATOM      2  C1' PXY d   1       0.651   4.496  -4.388  0.00  0.00     0.077 C 
ATOM      3  C1  PXY d   1       2.052   4.110  -4.821  0.00  0.00    -0.082 A 
ATOM      4  C2  PXY d   1       2.559   2.950  -4.436  0.00  0.00     0.003 A 
ATOM      5  C3  PXY d   1       3.836   2.599  -4.792  0.00  0.00     0.003 A 
ATOM      6  C4  PXY d   1       4.582   3.421  -5.594  0.00  0.00    -0.082 A 
ATOM      7  C5  PXY d   1       4.067   4.601  -6.000  0.00  0.00     0.003 A 
ATOM      8  C6  PXY d   1       2.784   4.957  -5.594  0.00  0.00     0.003 A 
ENDROOT
TORSDOF 0
ENDMDL
