MODEL 1
REMARK minimizedAffinity -1.44160342
REMARK minimizedRMSD -1
REMARK  0 active torsions:
REMARK  status: ('A' for Active; 'I' for Inactive)
ROOT
ATOM      1  C4' PXY d   1       0.386   6.000  -5.963  0.00  0.00     0.077 C 
ATOM      2  C1' PXY d   1       5.240   2.861  -5.998  0.00  0.00     0.077 C 
ATOM      3  C1  PXY d   1       3.974   3.695  -5.984  0.00  0.00    -0.082 A 
ATOM      4  C2  PXY d   1       2.795   3.093  -5.967  0.00  0.00     0.003 A 
ATOM      5  C3  PXY d   1       1.640   3.831  -5.986  0.00  0.00     0.003 A 
ATOM      6  C4  PXY d   1       1.691   5.199  -5.968  0.00  0.00    -0.082 A 
ATOM      7  C5  PXY d   1       2.889   5.820  -5.975  0.00  0.00     0.003 A 
ATOM      8  C6  PXY d   1       4.051   5.053  -5.998  0.00  0.00     0.003 A 
ENDROOT
TORSDOF 0
ENDMDL
