MODEL 1
REMARK minimizedAffinity 1.72834301
REMARK minimizedRMSD -1
REMARK  0 active torsions:
REMARK  status: ('A' for Active; 'I' for Inactive)
ROOT
ATOM      1  C4' PXY d   1       0.272   4.120  -5.960  0.00  0.00     0.077 C 
ATOM      2  C1' PXY d   1       5.925   2.909  -6.000  0.00  0.00     0.077 C 
ATOM      3  C1  PXY d   1       4.440   3.215  -5.995  0.00  0.00    -0.082 A 
ATOM      4  C2  PXY d   1       4.031   4.474  -5.989  0.00  0.00     0.003 A 
ATOM      5  C3  PXY d   1       2.693   4.768  -5.952  0.00  0.00     0.003 A 
ATOM      6  C4  PXY d   1       1.762   3.764  -5.974  0.00  0.00    -0.082 A 
ATOM      7  C5  PXY d   1       2.170   2.478  -5.991  0.00  0.00     0.003 A 
ATOM      8  C6  PXY d   1       3.534   2.200  -5.986  0.00  0.00     0.003 A 
ENDROOT
TORSDOF 0
ENDMDL
