MODEL 1
REMARK minimizedAffinity -1.05631113
REMARK minimizedRMSD -1
REMARK  0 active torsions:
REMARK  status: ('A' for Active; 'I' for Inactive)
ROOT
ATOM      1  C4' PXY d   1       0.399   5.971  -5.790  0.00  0.00     0.077 C 
ATOM      2  C1' PXY d   1       5.355   2.998  -5.659  0.00  0.00     0.077 C 
ATOM      3  C1  PXY d   1       4.049   3.767  -5.695  0.00  0.00    -0.082 A 
ATOM      4  C2  PXY d   1       4.056   5.056  -5.993  0.00  0.00     0.003 A 
ATOM      5  C3  PXY d   1       2.888   5.773  -5.999  0.00  0.00     0.003 A 
ATOM      6  C4  PXY d   1       1.693   5.153  -5.750  0.00  0.00    -0.082 A 
ATOM      7  C5  PXY d   1       1.676   3.835  -5.456  0.00  0.00     0.003 A 
ATOM      8  C6  PXY d   1       2.877   3.134  -5.414  0.00  0.00     0.003 A 
ENDROOT
TORSDOF 0
ENDMDL
