MODEL 1
REMARK minimizedAffinity 4.28599834
REMARK minimizedRMSD -1
REMARK  0 active torsions:
REMARK  status: ('A' for Active; 'I' for Inactive)
ROOT
ATOM      1  C4' PXY d   1       5.999  -0.746   2.292  0.00  0.00     0.077 C 
ATOM      2  C1' PXY d   1       1.684   2.571   0.346  0.00  0.00     0.077 C 
ATOM      3  C1  PXY d   1       2.823   1.707   0.847  0.00  0.00    -0.082 A 
ATOM      4  C2  PXY d   1       2.557   0.571   1.471  0.00  0.00     0.003 A 
ATOM      5  C3  PXY d   1       3.575  -0.207   1.959  0.00  0.00     0.003 A 
ATOM      6  C4  PXY d   1       4.880   0.154   1.760  0.00  0.00    -0.082 A 
ATOM      7  C5  PXY d   1       5.161   1.307   1.115  0.00  0.00     0.003 A 
ATOM      8  C6  PXY d   1       4.112   2.103   0.663  0.00  0.00     0.003 A 
ENDROOT
TORSDOF 0
ENDMDL
