MODEL 1
REMARK minimizedAffinity -1.30958903
REMARK minimizedRMSD -1
REMARK  0 active torsions:
REMARK  status: ('A' for Active; 'I' for Inactive)
ROOT
ATOM      1  C4' PXY d   1       6.000   2.153  -5.624  0.00  0.00     0.077 C 
ATOM      2  C1' PXY d   1       1.009   5.046  -5.994  0.00  0.00     0.077 C 
ATOM      3  C1  PXY d   1       2.324   4.297  -5.903  0.00  0.00    -0.082 A 
ATOM      4  C2  PXY d   1       2.319   2.986  -5.722  0.00  0.00     0.003 A 
ATOM      5  C3  PXY d   1       3.499   2.297  -5.606  0.00  0.00     0.003 A 
ATOM      6  C4  PXY d   1       4.697   2.949  -5.730  0.00  0.00    -0.082 A 
ATOM      7  C5  PXY d   1       4.710   4.284  -5.925  0.00  0.00     0.003 A 
ATOM      8  C6  PXY d   1       3.502   4.971  -5.999  0.00  0.00     0.003 A 
ENDROOT
TORSDOF 0
ENDMDL
