MODEL 1
REMARK minimizedAffinity -0.314678907
REMARK minimizedRMSD -1
REMARK  0 active torsions:
REMARK  status: ('A' for Active; 'I' for Inactive)
ROOT
ATOM      1  C4' PXY d   1       5.996   4.635  -5.799  0.00  0.00     0.077 C 
ATOM      2  C1' PXY d   1       0.371   3.322  -5.997  0.00  0.00     0.077 C 
ATOM      3  C1  PXY d   1       1.848   3.655  -5.939  0.00  0.00    -0.082 A 
ATOM      4  C2  PXY d   1       2.236   4.920  -5.971  0.00  0.00     0.003 A 
ATOM      5  C3  PXY d   1       3.569   5.237  -5.952  0.00  0.00     0.003 A 
ATOM      6  C4  PXY d   1       4.515   4.253  -5.845  0.00  0.00    -0.082 A 
ATOM      7  C5  PXY d   1       4.127   2.960  -5.802  0.00  0.00     0.003 A 
ATOM      8  C6  PXY d   1       2.770   2.657  -5.864  0.00  0.00     0.003 A 
ENDROOT
TORSDOF 0
ENDMDL
