MODEL 1
REMARK minimizedAffinity 1.6900363
REMARK minimizedRMSD -1
REMARK  0 active torsions:
REMARK  status: ('A' for Active; 'I' for Inactive)
ROOT
ATOM      1  C4' PXY d   1       4.614   0.978  -4.502  0.00  0.00     0.077 C 
ATOM      2  C1' PXY d   1       2.034   5.929  -6.000  0.00  0.00     0.077 C 
ATOM      3  C1  PXY d   1       2.699   4.625  -5.604  0.00  0.00    -0.082 A 
ATOM      4  C2  PXY d   1       3.980   4.619  -5.271  0.00  0.00     0.003 A 
ATOM      5  C3  PXY d   1       4.605   3.445  -4.942  0.00  0.00     0.003 A 
ATOM      6  C4  PXY d   1       3.899   2.272  -4.900  0.00  0.00    -0.082 A 
ATOM      7  C5  PXY d   1       2.589   2.272  -5.227  0.00  0.00     0.003 A 
ATOM      8  C6  PXY d   1       1.983   3.468  -5.599  0.00  0.00     0.003 A 
ENDROOT
TORSDOF 0
ENDMDL
