MODEL 1
REMARK minimizedAffinity 1.56160045
REMARK minimizedRMSD -1
REMARK  0 active torsions:
REMARK  status: ('A' for Active; 'I' for Inactive)
ROOT
ATOM      1  C4' PXY d   1       4.488   2.012  -4.993  0.00  0.00     0.077 C 
ATOM      2  C1' PXY d   1       0.074   5.741  -5.142  0.00  0.00     0.077 C 
ATOM      3  C1  PXY d   1       1.239   4.772  -5.096  0.00  0.00    -0.082 A 
ATOM      4  C2  PXY d   1       1.322   3.806  -5.997  0.00  0.00     0.003 A 
ATOM      5  C3  PXY d   1       2.351   2.902  -5.951  0.00  0.00     0.003 A 
ATOM      6  C4  PXY d   1       3.335   3.019  -5.006  0.00  0.00    -0.082 A 
ATOM      7  C5  PXY d   1       3.263   4.008  -4.090  0.00  0.00     0.003 A 
ATOM      8  C6  PXY d   1       2.188   4.891  -4.129  0.00  0.00     0.003 A 
ENDROOT
TORSDOF 0
ENDMDL
