MODEL 1
REMARK minimizedAffinity 0.121964492
REMARK minimizedRMSD -1
REMARK  0 active torsions:
REMARK  status: ('A' for Active; 'I' for Inactive)
ROOT
ATOM      1  C4' PXY d   1       5.985   5.975  -5.992  0.00  0.00     0.077 C 
ATOM      2  C1' PXY d   1       0.840   3.381  -5.529  0.00  0.00     0.077 C 
ATOM      3  C1  PXY d   1       2.195   4.051  -5.644  0.00  0.00    -0.082 A 
ATOM      4  C2  PXY d   1       2.265   5.364  -5.792  0.00  0.00     0.003 A 
ATOM      5  C3  PXY d   1       3.480   5.983  -5.930  0.00  0.00     0.003 A 
ATOM      6  C4  PXY d   1       4.639   5.257  -5.862  0.00  0.00    -0.082 A 
ATOM      7  C5  PXY d   1       4.577   3.918  -5.701  0.00  0.00     0.003 A 
ATOM      8  C6  PXY d   1       3.331   3.304  -5.605  0.00  0.00     0.003 A 
ENDROOT
TORSDOF 0
ENDMDL
