MODEL 1
REMARK minimizedAffinity 0.544239223
REMARK minimizedRMSD -1
REMARK  0 active torsions:
REMARK  status: ('A' for Active; 'I' for Inactive)
ROOT
ATOM      1  C4' PXY d   1       0.220   4.226  -5.623  0.00  0.00     0.077 C 
ATOM      2  C1' PXY d   1       5.999   4.380  -5.609  0.00  0.00     0.077 C 
ATOM      3  C1  PXY d   1       4.484   4.327  -5.614  0.00  0.00    -0.082 A 
ATOM      4  C2  PXY d   1       3.793   5.388  -5.996  0.00  0.00     0.003 A 
ATOM      5  C3  PXY d   1       2.422   5.368  -5.976  0.00  0.00     0.003 A 
ATOM      6  C4  PXY d   1       1.752   4.232  -5.611  0.00  0.00    -0.082 A 
ATOM      7  C5  PXY d   1       2.449   3.141  -5.230  0.00  0.00     0.003 A 
ATOM      8  C6  PXY d   1       3.840   3.195  -5.218  0.00  0.00     0.003 A 
ENDROOT
TORSDOF 0
ENDMDL
