MODEL 1
REMARK minimizedAffinity 0.0964698344
REMARK minimizedRMSD -1
REMARK  0 active torsions:
REMARK  status: ('A' for Active; 'I' for Inactive)
ROOT
ATOM      1  C   UNL d   1       0.845  -1.027  -0.883  0.00  0.00     0.023 A 
ATOM      2  C1  UNL d   1       0.464  -1.240   0.442  0.00  0.00     0.003 A 
ATOM      3  C2  UNL d   1      -0.299  -0.283   1.113  0.00  0.00     0.048 A 
ATOM      4  C3  UNL d   1      -0.678   0.886   0.454  0.00  0.00     0.023 A 
ATOM      5  C4  UNL d   1      -0.299   1.104  -0.872  0.00  0.00     0.048 A 
ATOM      6  C5  UNL d   1       0.464   0.144  -1.539  0.00  0.00     0.003 A 
ATOM      7  I   UNL d   1      -1.813   2.313   1.451  0.00  0.00    -0.146 I 
ENDROOT
TORSDOF 0
ENDMDL
