MODEL 1
REMARK minimizedAffinity -4.63217974
REMARK minimizedRMSD -1
REMARK  0 active torsions:
REMARK  status: ('A' for Active; 'I' for Inactive)
ROOT
ATOM      1  C   UNL d   1      -1.691   3.268   0.878  0.00  0.00     0.023 A 
ATOM      2  C1  UNL d   1      -0.817   3.328  -0.207  0.00  0.00     0.003 A 
ATOM      3  C2  UNL d   1      -0.241   2.158  -0.708  0.00  0.00     0.048 A 
ATOM      4  C3  UNL d   1      -0.545   0.932  -0.119  0.00  0.00     0.023 A 
ATOM      5  C4  UNL d   1      -1.420   0.866   0.967  0.00  0.00     0.048 A 
ATOM      6  C5  UNL d   1      -1.993   2.039   1.464  0.00  0.00     0.003 A 
ATOM      7  I   UNL d   1       0.310  -0.811  -0.862  0.00  0.00    -0.146 I 
ENDROOT
TORSDOF 0
ENDMDL
