MODEL 1
REMARK minimizedAffinity -2.9568572
REMARK minimizedRMSD -1
REMARK  0 active torsions:
REMARK  status: ('A' for Active; 'I' for Inactive)
ROOT
ATOM      1  C   UNL d   1       0.731  -3.500  -2.535  0.00  0.00     0.023 A 
ATOM      2  C1  UNL d   1       1.371  -3.170  -1.340  0.00  0.00     0.003 A 
ATOM      3  C2  UNL d   1       1.158  -1.920  -0.755  0.00  0.00     0.048 A 
ATOM      4  C3  UNL d   1       0.304  -1.005  -1.369  0.00  0.00     0.023 A 
ATOM      5  C4  UNL d   1      -0.340  -1.331  -2.564  0.00  0.00     0.048 A 
ATOM      6  C5  UNL d   1      -0.123  -2.582  -3.146  0.00  0.00     0.003 A 
ATOM      7  I   UNL d   1      -0.015   0.856  -0.499  0.00  0.00    -0.146 I 
ENDROOT
TORSDOF 0
ENDMDL
