MODEL 1
REMARK minimizedAffinity -3.84504533
REMARK minimizedRMSD -1
REMARK  0 active torsions:
REMARK  status: ('A' for Active; 'I' for Inactive)
ROOT
ATOM      1  C   UNL d   1      -1.658   1.898   1.326  0.00  0.00     0.023 A 
ATOM      2  C1  UNL d   1      -1.517   0.651   1.935  0.00  0.00     0.003 A 
ATOM      3  C2  UNL d   1      -0.766  -0.349   1.315  0.00  0.00     0.048 A 
ATOM      4  C3  UNL d   1      -0.159  -0.096   0.085  0.00  0.00     0.023 A 
ATOM      5  C4  UNL d   1      -0.296   1.150  -0.528  0.00  0.00     0.048 A 
ATOM      6  C5  UNL d   1      -1.049   2.147   0.096  0.00  0.00     0.003 A 
ATOM      7  I   UNL d   1       0.960  -1.584  -0.840  0.00  0.00    -0.146 I 
ENDROOT
TORSDOF 0
ENDMDL
