MODEL 1
REMARK minimizedAffinity -5.04222155
REMARK minimizedRMSD -1
REMARK  0 active torsions:
REMARK  status: ('A' for Active; 'I' for Inactive)
ROOT
ATOM      1  C   UNL d   1      -1.717   1.763   1.958  0.00  0.00     0.023 A 
ATOM      2  C1  UNL d   1      -0.771   0.874   2.469  0.00  0.00     0.003 A 
ATOM      3  C2  UNL d   1      -0.090   0.007   1.611  0.00  0.00     0.048 A 
ATOM      4  C3  UNL d   1      -0.360   0.035   0.244  0.00  0.00     0.023 A 
ATOM      5  C4  UNL d   1      -1.305   0.923  -0.272  0.00  0.00     0.048 A 
ATOM      6  C5  UNL d   1      -1.984   1.787   0.589  0.00  0.00     0.003 A 
ATOM      7  I   UNL d   1       0.652  -1.254  -1.035  0.00  0.00    -0.146 I 
ENDROOT
TORSDOF 0
ENDMDL
