MODEL 1
REMARK minimizedAffinity -2.21343446
REMARK minimizedRMSD -1
REMARK  0 active torsions:
REMARK  status: ('A' for Active; 'I' for Inactive)
ROOT
ATOM      1  C   UNL d   1      -0.262   1.259   0.723  0.00  0.00     0.023 A 
ATOM      2  C1  UNL d   1      -0.489  -0.014   1.244  0.00  0.00     0.003 A 
ATOM      3  C2  UNL d   1      -0.135  -1.146   0.506  0.00  0.00     0.048 A 
ATOM      4  C3  UNL d   1       0.446  -0.996  -0.753  0.00  0.00     0.023 A 
ATOM      5  C4  UNL d   1       0.677   0.277  -1.278  0.00  0.00     0.048 A 
ATOM      6  C5  UNL d   1       0.320   1.405  -0.536  0.00  0.00     0.003 A 
ATOM      7  I   UNL d   1       0.974  -2.678  -1.853  0.00  0.00    -0.146 I 
ENDROOT
TORSDOF 0
ENDMDL
