MODEL 1
REMARK minimizedAffinity -1.88100982
REMARK minimizedRMSD -1
REMARK  0 active torsions:
REMARK  status: ('A' for Active; 'I' for Inactive)
ROOT
ATOM      1  C   UNL d   1      -0.949   0.336   2.925  0.00  0.00     0.023 A 
ATOM      2  C1  UNL d   1      -1.233   1.615   2.446  0.00  0.00     0.003 A 
ATOM      3  C2  UNL d   1      -0.781   2.006   1.184  0.00  0.00     0.048 A 
ATOM      4  C3  UNL d   1      -0.046   1.112   0.406  0.00  0.00     0.023 A 
ATOM      5  C4  UNL d   1       0.239  -0.169   0.880  0.00  0.00     0.048 A 
ATOM      6  C5  UNL d   1      -0.214  -0.555   2.142  0.00  0.00     0.003 A 
ATOM      7  I   UNL d   1       0.628   1.692  -1.473  0.00  0.00    -0.146 I 
ENDROOT
TORSDOF 0
ENDMDL
