MODEL 1
REMARK minimizedAffinity -3.11259317
REMARK minimizedRMSD -1
REMARK  0 active torsions:
REMARK  status: ('A' for Active; 'I' for Inactive)
ROOT
ATOM      1  C   UNL d   1      -0.177  -3.519  -3.844  0.00  0.00     0.023 A 
ATOM      2  C1  UNL d   1      -0.311  -3.535  -2.456  0.00  0.00     0.003 A 
ATOM      3  C2  UNL d   1       0.489  -2.707  -1.666  0.00  0.00     0.048 A 
ATOM      4  C3  UNL d   1       1.421  -1.864  -2.271  0.00  0.00     0.023 A 
ATOM      5  C4  UNL d   1       1.558  -1.844  -3.660  0.00  0.00     0.048 A 
ATOM      6  C5  UNL d   1       0.756  -2.675  -4.446  0.00  0.00     0.003 A 
ATOM      7  I   UNL d   1       2.613  -0.630  -1.098  0.00  0.00    -0.146 I 
ENDROOT
TORSDOF 0
ENDMDL
