MODEL 1
REMARK minimizedAffinity -4.00840902
REMARK minimizedRMSD -1
REMARK  0 active torsions:
REMARK  status: ('A' for Active; 'I' for Inactive)
ROOT
ATOM      1  C   UNL d   1      -2.016   1.246   2.137  0.00  0.00     0.023 A 
ATOM      2  C1  UNL d   1      -1.106   0.244   2.477  0.00  0.00     0.003 A 
ATOM      3  C2  UNL d   1      -0.257  -0.289   1.505  0.00  0.00     0.048 A 
ATOM      4  C3  UNL d   1      -0.322   0.185   0.195  0.00  0.00     0.023 A 
ATOM      5  C4  UNL d   1      -1.230   1.188  -0.149  0.00  0.00     0.048 A 
ATOM      6  C5  UNL d   1      -2.077   1.717   0.826  0.00  0.00     0.003 A 
ATOM      7  I   UNL d   1       0.941  -0.607  -1.254  0.00  0.00    -0.146 I 
ENDROOT
TORSDOF 0
ENDMDL
