MODEL 1
REMARK minimizedAffinity -4.6591239
REMARK minimizedRMSD -1
REMARK  0 active torsions:
REMARK  status: ('A' for Active; 'I' for Inactive)
ROOT
ATOM      1  C   UNL d   1      -1.593   2.092   1.614  0.00  0.00     0.023 A 
ATOM      2  C1  UNL d   1      -1.400   2.303   0.248  0.00  0.00     0.003 A 
ATOM      3  C2  UNL d   1      -0.738   1.344  -0.521  0.00  0.00     0.048 A 
ATOM      4  C3  UNL d   1      -0.272   0.176   0.081  0.00  0.00     0.023 A 
ATOM      5  C4  UNL d   1      -0.463  -0.040   1.447  0.00  0.00     0.048 A 
ATOM      6  C5  UNL d   1      -1.125   0.922   2.212  0.00  0.00     0.003 A 
ATOM      7  I   UNL d   1       0.714  -1.253  -1.061  0.00  0.00    -0.146 I 
ENDROOT
TORSDOF 0
ENDMDL
