MODEL 1
REMARK minimizedAffinity -0.266046524
REMARK minimizedRMSD -1
REMARK  0 active torsions:
REMARK  status: ('A' for Active; 'I' for Inactive)
ROOT
ATOM      1  C   UNL d   1      -1.125   1.509   1.440  0.00  0.00     0.023 A 
ATOM      2  C1  UNL d   1      -0.932   0.244   1.993  0.00  0.00     0.003 A 
ATOM      3  C2  UNL d   1      -0.320  -0.763   1.243  0.00  0.00     0.048 A 
ATOM      4  C3  UNL d   1       0.097  -0.496  -0.061  0.00  0.00     0.023 A 
ATOM      5  C4  UNL d   1      -0.093   0.769  -0.619  0.00  0.00     0.048 A 
ATOM      6  C5  UNL d   1      -0.706   1.772   0.135  0.00  0.00     0.003 A 
ATOM      7  I   UNL d   1       1.008  -1.992  -1.180  0.00  0.00    -0.146 I 
ENDROOT
TORSDOF 0
ENDMDL
