MODEL 1
REMARK minimizedAffinity -4.0065918
REMARK minimizedRMSD -1
REMARK  0 active torsions:
REMARK  status: ('A' for Active; 'I' for Inactive)
ROOT
ATOM      1  C   UNL d   1      -1.323   1.249   1.964  0.00  0.00     0.023 A 
ATOM      2  C1  UNL d   1      -1.124  -0.081   2.333  0.00  0.00     0.003 A 
ATOM      3  C2  UNL d   1      -0.433  -0.947   1.482  0.00  0.00     0.048 A 
ATOM      4  C3  UNL d   1       0.056  -0.476   0.264  0.00  0.00     0.023 A 
ATOM      5  C4  UNL d   1      -0.140   0.855  -0.108  0.00  0.00     0.048 A 
ATOM      6  C5  UNL d   1      -0.832   1.717   0.745  0.00  0.00     0.003 A 
ATOM      7  I   UNL d   1       1.084  -1.762  -1.003  0.00  0.00    -0.146 I 
ENDROOT
TORSDOF 0
ENDMDL
