MODEL 1
REMARK minimizedAffinity -0.891416311
REMARK minimizedRMSD -1
REMARK  0 active torsions:
REMARK  status: ('A' for Active; 'I' for Inactive)
ROOT
ATOM      1  C   UNL d   1       1.067  -0.982  -0.344  0.00  0.00     0.023 A 
ATOM      2  C1  UNL d   1       0.563   0.059  -1.123  0.00  0.00     0.003 A 
ATOM      3  C2  UNL d   1      -0.404   0.920  -0.599  0.00  0.00     0.048 A 
ATOM      4  C3  UNL d   1      -0.861   0.735   0.705  0.00  0.00     0.023 A 
ATOM      5  C4  UNL d   1      -0.359  -0.305   1.489  0.00  0.00     0.048 A 
ATOM      6  C5  UNL d   1       0.607  -1.164   0.960  0.00  0.00     0.003 A 
ATOM      7  I   UNL d   1      -2.299   2.015   1.487  0.00  0.00    -0.146 I 
ENDROOT
TORSDOF 0
ENDMDL
