MODEL 1
REMARK minimizedAffinity -5.07718849
REMARK minimizedRMSD -1
REMARK  0 active torsions:
REMARK  status: ('A' for Active; 'I' for Inactive)
ROOT
ATOM      1  C   UNL d   1      -1.524   1.616   1.543  0.00  0.00     0.023 A 
ATOM      2  C1  UNL d   1      -1.268   1.939   0.211  0.00  0.00     0.003 A 
ATOM      3  C2  UNL d   1      -0.574   1.044  -0.606  0.00  0.00     0.048 A 
ATOM      4  C3  UNL d   1      -0.140  -0.174  -0.083  0.00  0.00     0.023 A 
ATOM      5  C4  UNL d   1      -0.395  -0.503   1.249  0.00  0.00     0.048 A 
ATOM      6  C5  UNL d   1      -1.088   0.396   2.062  0.00  0.00     0.003 A 
ATOM      7  I   UNL d   1       0.893  -1.509  -1.296  0.00  0.00    -0.146 I 
ENDROOT
TORSDOF 0
ENDMDL
