MODEL 1
REMARK minimizedAffinity -4.97431612
REMARK minimizedRMSD -1
REMARK  0 active torsions:
REMARK  status: ('A' for Active; 'I' for Inactive)
ROOT
ATOM      1  C   UNL d   1      -1.877   1.930   1.606  0.00  0.00     0.023 A 
ATOM      2  C1  UNL d   1      -1.324   0.776   2.163  0.00  0.00     0.003 A 
ATOM      3  C2  UNL d   1      -0.567  -0.089   1.371  0.00  0.00     0.048 A 
ATOM      4  C3  UNL d   1      -0.365   0.206   0.023  0.00  0.00     0.023 A 
ATOM      5  C4  UNL d   1      -0.915   1.359  -0.538  0.00  0.00     0.048 A 
ATOM      6  C5  UNL d   1      -1.673   2.221   0.257  0.00  0.00     0.003 A 
ATOM      7  I   UNL d   1       0.763  -1.081  -1.158  0.00  0.00    -0.146 I 
ENDROOT
TORSDOF 0
ENDMDL
