MODEL 1
REMARK minimizedAffinity -2.11658263
REMARK minimizedRMSD -1
REMARK  0 active torsions:
REMARK  status: ('A' for Active; 'I' for Inactive)
ROOT
ATOM      1  C   UNL d   1       1.064  -0.573  -0.589  0.00  0.00     0.023 A 
ATOM      2  C1  UNL d   1       0.830   0.705  -1.096  0.00  0.00     0.003 A 
ATOM      3  C2  UNL d   1      -0.096   1.545  -0.475  0.00  0.00     0.048 A 
ATOM      4  C3  UNL d   1      -0.784   1.102   0.654  0.00  0.00     0.023 A 
ATOM      5  C4  UNL d   1      -0.553  -0.176   1.166  0.00  0.00     0.048 A 
ATOM      6  C5  UNL d   1       0.373  -1.013   0.541  0.00  0.00     0.003 A 
ATOM      7  I   UNL d   1      -2.162   2.352   1.580  0.00  0.00    -0.146 I 
ENDROOT
TORSDOF 0
ENDMDL
