MODEL 1
REMARK minimizedAffinity -3.86624575
REMARK minimizedRMSD -1
REMARK  0 active torsions:
REMARK  status: ('A' for Active; 'I' for Inactive)
ROOT
ATOM      1  C   UNL d   1       0.832  -1.212  -0.555  0.00  0.00     0.023 A 
ATOM      2  C1  UNL d   1       0.610  -0.058  -1.305  0.00  0.00     0.003 A 
ATOM      3  C2  UNL d   1      -0.210   0.956  -0.803  0.00  0.00     0.048 A 
ATOM      4  C3  UNL d   1      -0.802   0.808   0.451  0.00  0.00     0.023 A 
ATOM      5  C4  UNL d   1      -0.582  -0.345   1.205  0.00  0.00     0.048 A 
ATOM      6  C5  UNL d   1       0.237  -1.356   0.699  0.00  0.00     0.003 A 
ATOM      7  I   UNL d   1      -2.022   2.315   1.200  0.00  0.00    -0.146 I 
ENDROOT
TORSDOF 0
ENDMDL
