MODEL 1
REMARK minimizedAffinity -5.18417215
REMARK minimizedRMSD -1
REMARK  2 active torsions:
REMARK  status: ('A' for Active; 'I' for Inactive)
REMARK    1  A    between atoms: C2'_3  and  C1'_4 
REMARK    2  A    between atoms: C1'_4  and  C1_5 
ROOT
ATOM      1  C1  I4B d   1      -0.023   0.201   0.139  0.00  0.00    -0.075 A 
ATOM      2  C2  I4B d   1      -0.598  -0.199   1.319  0.00  0.00     0.003 A 
ATOM      3  C3  I4B d   1      -1.437   0.685   2.039  0.00  0.00     0.002 A 
ATOM      4  C4  I4B d   1      -1.632   1.969   1.572  0.00  0.00    -0.004 A 
ATOM      5  C5  I4B d   1      -1.066   2.366   0.364  0.00  0.00     0.002 A 
ATOM      6  C6  I4B d   1      -0.266   1.473  -0.364  0.00  0.00     0.003 A 
ENDROOT
BRANCH   1   7
ATOM      7  C1' I4B d   1       0.885  -0.747  -0.579  0.00  0.00     0.060 C 
BRANCH   7   8
ATOM      8  C2' I4B d   1       0.049  -1.913  -1.066  0.00  0.00    -0.013 C 
ATOM      9  C4' I4B d   1      -0.498  -1.653  -2.445  0.00  0.00     0.013 C 
ATOM     10  C3' I4B d   1       0.912  -3.140  -1.049  0.00  0.00     0.013 C 
ENDBRANCH   7   8
ENDBRANCH   1   7
TORSDOF 2
ENDMDL
