MODEL 1
REMARK minimizedAffinity -5.83254194
REMARK minimizedRMSD -1
REMARK  2 active torsions:
REMARK  status: ('A' for Active; 'I' for Inactive)
REMARK    1  A    between atoms: C2'_3  and  C1'_4 
REMARK    2  A    between atoms: C1'_4  and  C1_5 
ROOT
ATOM      1  C1  I4B d   1      -0.159   0.110  -0.045  0.00  0.00    -0.075 A 
ATOM      2  C2  I4B d   1      -0.497  -0.502   1.137  0.00  0.00     0.003 A 
ATOM      3  C3  I4B d   1      -1.490   0.063   1.974  0.00  0.00     0.002 A 
ATOM      4  C4  I4B d   1      -2.079   1.259   1.617  0.00  0.00    -0.004 A 
ATOM      5  C5  I4B d   1      -1.751   1.866   0.408  0.00  0.00     0.002 A 
ATOM      6  C6  I4B d   1      -0.794   1.281  -0.435  0.00  0.00     0.003 A 
ENDROOT
BRANCH   1   7
ATOM      7  C1' I4B d   1       0.917  -0.497  -0.888  0.00  0.00     0.060 C 
BRANCH   7   8
ATOM      8  C2' I4B d   1       0.609  -1.972  -1.047  0.00  0.00    -0.013 C 
ATOM      9  C4' I4B d   1      -0.234  -2.225  -2.269  0.00  0.00     0.013 C 
ATOM     10  C3' I4B d   1       1.912  -2.711  -1.126  0.00  0.00     0.013 C 
ENDBRANCH   7   8
ENDBRANCH   1   7
TORSDOF 2
ENDMDL
