MODEL 1
REMARK minimizedAffinity -2.91192055
REMARK minimizedRMSD -1
REMARK  2 active torsions:
REMARK  status: ('A' for Active; 'I' for Inactive)
REMARK    1  A    between atoms: C2'_3  and  C1'_4 
REMARK    2  A    between atoms: C1'_4  and  C1_5 
ROOT
ATOM      1  C1  I4B d   1      -0.231  -0.144  -0.156  0.00  0.00    -0.075 A 
ATOM      2  C2  I4B d   1      -0.776   0.986  -0.714  0.00  0.00     0.003 A 
ATOM      3  C3  I4B d   1      -1.588   1.845   0.065  0.00  0.00     0.002 A 
ATOM      4  C4  I4B d   1      -1.868   1.513   1.375  0.00  0.00    -0.004 A 
ATOM      5  C5  I4B d   1      -1.296   0.380   1.946  0.00  0.00     0.002 A 
ATOM      6  C6  I4B d   1      -0.462  -0.447   1.179  0.00  0.00     0.003 A 
ENDROOT
BRANCH   1   7
ATOM      7  C1' I4B d   1       0.595  -1.046  -1.017  0.00  0.00     0.060 C 
BRANCH   7   8
ATOM      8  C2' I4B d   1      -0.327  -2.082  -1.627  0.00  0.00    -0.013 C 
ATOM      9  C4' I4B d   1      -0.585  -1.793  -3.082  0.00  0.00     0.013 C 
ATOM     10  C3' I4B d   1       0.305  -3.429  -1.446  0.00  0.00     0.013 C 
ENDBRANCH   7   8
ENDBRANCH   1   7
TORSDOF 2
ENDMDL
