MODEL 1
REMARK minimizedAffinity -5.00404978
REMARK minimizedRMSD -1
REMARK  2 active torsions:
REMARK  status: ('A' for Active; 'I' for Inactive)
REMARK    1  A    between atoms: C2'_3  and  C1'_4 
REMARK    2  A    between atoms: C1'_4  and  C1_5 
ROOT
ATOM      1  C1  I4B d   1      -0.190   0.084   0.581  0.00  0.00    -0.075 A 
ATOM      2  C2  I4B d   1      -0.417   0.410   1.895  0.00  0.00     0.003 A 
ATOM      3  C3  I4B d   1      -0.921   1.689   2.235  0.00  0.00     0.002 A 
ATOM      4  C4  I4B d   1      -1.133   2.622   1.241  0.00  0.00    -0.004 A 
ATOM      5  C5  I4B d   1      -0.923   2.282  -0.092  0.00  0.00     0.002 A 
ATOM      6  C6  I4B d   1      -0.461   1.001  -0.426  0.00  0.00     0.003 A 
ENDROOT
BRANCH   1   7
ATOM      7  C1' I4B d   1       0.373  -1.264   0.260  0.00  0.00     0.060 C 
BRANCH   7   8
ATOM      8  C2' I4B d   1       1.245  -1.125  -0.971  0.00  0.00    -0.013 C 
ATOM      9  C4' I4B d   1       2.521  -0.391  -0.655  0.00  0.00     0.013 C 
ATOM     10  C3' I4B d   1       1.528  -2.501  -1.497  0.00  0.00     0.013 C 
ENDBRANCH   7   8
ENDBRANCH   1   7
TORSDOF 2
ENDMDL
