MODEL 1
REMARK minimizedAffinity -6.62226105
REMARK minimizedRMSD -1
REMARK  2 active torsions:
REMARK  status: ('A' for Active; 'I' for Inactive)
REMARK    1  A    between atoms: C2'_3  and  C1'_4 
REMARK    2  A    between atoms: C1'_4  and  C1_5 
ROOT
ATOM      1  C1  I4B d   1      -0.035  -0.076   0.152  0.00  0.00    -0.075 A 
ATOM      2  C2  I4B d   1      -0.408   1.186  -0.239  0.00  0.00     0.003 A 
ATOM      3  C3  I4B d   1      -1.330   1.929   0.537  0.00  0.00     0.002 A 
ATOM      4  C4  I4B d   1      -1.889   1.357   1.661  0.00  0.00    -0.004 A 
ATOM      5  C5  I4B d   1      -1.492   0.086   2.068  0.00  0.00     0.002 A 
ATOM      6  C6  I4B d   1      -0.550  -0.630   1.316  0.00  0.00     0.003 A 
ENDROOT
BRANCH   1   7
ATOM      7  C1' I4B d   1       0.916  -0.845  -0.709  0.00  0.00     0.060 C 
BRANCH   7   8
ATOM      8  C2' I4B d   1       0.344  -2.234  -0.910  0.00  0.00    -0.013 C 
ATOM      9  C4' I4B d   1      -0.504  -2.300  -2.153  0.00  0.00     0.013 C 
ATOM     10  C3' I4B d   1       1.489  -3.200  -0.984  0.00  0.00     0.013 C 
ENDBRANCH   7   8
ENDBRANCH   1   7
TORSDOF 2
ENDMDL
