MODEL 1
REMARK minimizedAffinity -4.52863884
REMARK minimizedRMSD -1
REMARK  2 active torsions:
REMARK  status: ('A' for Active; 'I' for Inactive)
REMARK    1  A    between atoms: C2'_3  and  C1'_4 
REMARK    2  A    between atoms: C1'_4  and  C1_5 
ROOT
ATOM      1  C1  I4B d   1       0.366  -1.020  -0.151  0.00  0.00    -0.075 A 
ATOM      2  C2  I4B d   1       0.916   0.216  -0.383  0.00  0.00     0.003 A 
ATOM      3  C3  I4B d   1       0.282   1.383   0.108  0.00  0.00     0.002 A 
ATOM      4  C4  I4B d   1      -0.919   1.272   0.778  0.00  0.00    -0.004 A 
ATOM      5  C5  I4B d   1      -1.464   0.017   1.033  0.00  0.00     0.002 A 
ATOM      6  C6  I4B d   1      -0.812  -1.138   0.576  0.00  0.00     0.003 A 
ENDROOT
BRANCH   1   7
ATOM      7  C1' I4B d   1       1.045  -2.229  -0.713  0.00  0.00     0.060 C 
BRANCH   7   8
ATOM      8  C2' I4B d   1       0.027  -2.998  -1.531  0.00  0.00    -0.013 C 
ATOM      9  C4' I4B d   1       0.033  -2.550  -2.969  0.00  0.00     0.013 C 
ATOM     10  C3' I4B d   1       0.350  -4.458  -1.417  0.00  0.00     0.013 C 
ENDBRANCH   7   8
ENDBRANCH   1   7
TORSDOF 2
ENDMDL
