MODEL 1
REMARK minimizedAffinity -2.26156592
REMARK minimizedRMSD -1
REMARK  2 active torsions:
REMARK  status: ('A' for Active; 'I' for Inactive)
REMARK    1  A    between atoms: C2'_3  and  C1'_4 
REMARK    2  A    between atoms: C1'_4  and  C1_5 
ROOT
ATOM      1  C1  I4B d   1       0.176  -0.638  -0.371  0.00  0.00    -0.075 A 
ATOM      2  C2  I4B d   1      -0.160   0.427  -1.169  0.00  0.00     0.003 A 
ATOM      3  C3  I4B d   1      -1.002   1.452  -0.673  0.00  0.00     0.002 A 
ATOM      4  C4  I4B d   1      -1.522   1.348   0.601  0.00  0.00    -0.004 A 
ATOM      5  C5  I4B d   1      -1.161   0.279   1.417  0.00  0.00     0.002 A 
ATOM      6  C6  I4B d   1      -0.297  -0.714   0.933  0.00  0.00     0.003 A 
ENDROOT
BRANCH   1   7
ATOM      7  C1' I4B d   1       1.040  -1.719  -0.938  0.00  0.00     0.060 C 
BRANCH   7   8
ATOM      8  C2' I4B d   1       0.302  -2.342  -2.105  0.00  0.00    -0.013 C 
ATOM      9  C4' I4B d   1       1.168  -2.387  -3.336  0.00  0.00     0.013 C 
ATOM     10  C3' I4B d   1      -0.131  -3.719  -1.697  0.00  0.00     0.013 C 
ENDBRANCH   7   8
ENDBRANCH   1   7
TORSDOF 2
ENDMDL
