MODEL 1
REMARK minimizedAffinity -3.00550032
REMARK minimizedRMSD -1
REMARK  1 active torsions:
REMARK  status: ('A' for Active; 'I' for Inactive)
REMARK    1  A    between atoms: C1_2  and  C2_3 
ROOT
ATOM      1  C2  UNL d   1       0.656  -1.451   1.715  0.00  0.00    -0.073 A 
ATOM      2  C3  UNL d   1       1.890  -1.827   1.173  0.00  0.00    -0.002 A 
ATOM      3  C4  UNL d   1       2.350  -1.239  -0.006  0.00  0.00     0.004 A 
ATOM      4  C5  UNL d   1       1.586  -0.267  -0.651  0.00  0.00    -0.004 A 
ATOM      5  C6  UNL d   1       0.355   0.130  -0.119  0.00  0.00    -0.075 A 
ATOM      6  C7  UNL d   1      -0.481   1.172  -0.802  0.00  0.00     0.076 C 
ATOM      7  C8  UNL d   1      -0.102  -0.467   1.064  0.00  0.00     0.001 A 
ENDROOT
BRANCH   1   8
ATOM      8  C1  UNL d   1       0.158  -2.078   2.991  0.00  0.00     0.053 C 
ATOM      9  C   UNL d   1      -1.147  -1.454   3.462  0.00  0.00     0.018 C 
ENDBRANCH   1   8
TORSDOF 1
ENDMDL
