MODEL 1
REMARK minimizedAffinity -2.82095456
REMARK minimizedRMSD -1
REMARK  1 active torsions:
REMARK  status: ('A' for Active; 'I' for Inactive)
REMARK    1  A    between atoms: C1_2  and  C2_3 
ROOT
ATOM      1  C2  UNL d   1       0.363   0.715  -0.533  0.00  0.00    -0.073 A 
ATOM      2  C3  UNL d   1      -0.489  -0.017   0.302  0.00  0.00    -0.002 A 
ATOM      3  C4  UNL d   1      -1.865  -0.027   0.071  0.00  0.00     0.004 A 
ATOM      4  C5  UNL d   1      -2.403   0.687  -0.999  0.00  0.00    -0.004 A 
ATOM      5  C6  UNL d   1      -1.567   1.415  -1.852  0.00  0.00    -0.075 A 
ATOM      6  C7  UNL d   1      -2.130   2.191  -3.007  0.00  0.00     0.076 C 
ATOM      7  C8  UNL d   1      -0.186   1.423  -1.612  0.00  0.00     0.001 A 
ENDROOT
BRANCH   1   8
ATOM      8  C1  UNL d   1       1.850   0.724  -0.292  0.00  0.00     0.053 C 
ATOM      9  C   UNL d   1       2.374  -0.652   0.088  0.00  0.00     0.018 C 
ENDBRANCH   1   8
TORSDOF 1
ENDMDL
