MODEL 1
REMARK minimizedAffinity -5.17093515
REMARK minimizedRMSD -1
REMARK  1 active torsions:
REMARK  status: ('A' for Active; 'I' for Inactive)
REMARK    1  A    between atoms: C1_2  and  C2_3 
ROOT
ATOM      1  C2  UNL d   1      -0.617  -0.126  -1.293  0.00  0.00    -0.073 A 
ATOM      2  C3  UNL d   1      -1.623  -0.052  -0.323  0.00  0.00    -0.002 A 
ATOM      3  C4  UNL d   1      -1.341  -0.357   1.009  0.00  0.00     0.004 A 
ATOM      4  C5  UNL d   1      -0.052  -0.734   1.386  0.00  0.00    -0.004 A 
ATOM      5  C6  UNL d   1       0.969  -0.803   0.433  0.00  0.00    -0.075 A 
ATOM      6  C7  UNL d   1       2.361  -1.209   0.822  0.00  0.00     0.076 C 
ATOM      7  C8  UNL d   1       0.678  -0.497  -0.903  0.00  0.00     0.001 A 
ENDROOT
BRANCH   1   8
ATOM      8  C1  UNL d   1      -0.914   0.209  -2.731  0.00  0.00     0.053 C 
ATOM      9  C   UNL d   1      -2.061   1.199  -2.860  0.00  0.00     0.018 C 
ENDBRANCH   1   8
TORSDOF 1
ENDMDL
