MODEL 1
REMARK minimizedAffinity -2.1433723
REMARK minimizedRMSD -1
REMARK  1 active torsions:
REMARK  status: ('A' for Active; 'I' for Inactive)
REMARK    1  A    between atoms: C1_2  and  C2_3 
ROOT
ATOM      1  C2  UNL d   1      -0.779   0.798  -1.385  0.00  0.00    -0.073 A 
ATOM      2  C3  UNL d   1      -1.531   0.878  -0.208  0.00  0.00    -0.002 A 
ATOM      3  C4  UNL d   1      -1.010   0.402   0.996  0.00  0.00     0.004 A 
ATOM      4  C5  UNL d   1       0.270  -0.151   1.037  0.00  0.00    -0.004 A 
ATOM      5  C6  UNL d   1       1.042  -0.229  -0.126  0.00  0.00    -0.075 A 
ATOM      6  C7  UNL d   1       2.420  -0.823  -0.099  0.00  0.00     0.076 C 
ATOM      7  C8  UNL d   1       0.511   0.249  -1.332  0.00  0.00     0.001 A 
ENDROOT
BRANCH   1   8
ATOM      8  C1  UNL d   1      -1.335   1.316  -2.686  0.00  0.00     0.053 C 
ATOM      9  C   UNL d   1      -2.705   0.732  -2.993  0.00  0.00     0.018 C 
ENDBRANCH   1   8
TORSDOF 1
ENDMDL
