MODEL 1
REMARK minimizedAffinity -6.07237148
REMARK minimizedRMSD -1
REMARK  1 active torsions:
REMARK  status: ('A' for Active; 'I' for Inactive)
REMARK    1  A    between atoms: C1_2  and  C2_3 
ROOT
ATOM      1  C2  UNL d   1       0.165  -0.437  -0.321  0.00  0.00    -0.073 A 
ATOM      2  C3  UNL d   1      -0.998  -0.965   0.251  0.00  0.00    -0.002 A 
ATOM      3  C4  UNL d   1      -2.237  -0.371   0.006  0.00  0.00     0.004 A 
ATOM      4  C5  UNL d   1      -2.327   0.751  -0.817  0.00  0.00    -0.004 A 
ATOM      5  C6  UNL d   1      -1.178   1.286  -1.408  0.00  0.00    -0.075 A 
ATOM      6  C7  UNL d   1      -1.258   2.495  -2.294  0.00  0.00     0.076 C 
ATOM      7  C8  UNL d   1       0.063   0.686  -1.155  0.00  0.00     0.001 A 
ENDROOT
BRANCH   1   8
ATOM      8  C1  UNL d   1       1.504  -1.079  -0.065  0.00  0.00     0.053 C 
ATOM      9  C   UNL d   1       1.386  -2.581   0.136  0.00  0.00     0.018 C 
ENDBRANCH   1   8
TORSDOF 1
ENDMDL
