MODEL 1
REMARK minimizedAffinity 2.02673483
REMARK minimizedRMSD -1
REMARK  1 active torsions:
REMARK  status: ('A' for Active; 'I' for Inactive)
REMARK    1  A    between atoms: C1_2  and  C2_3 
ROOT
ATOM      1  C2  UNL d   1      -0.342  -0.875   0.218  0.00  0.00    -0.073 A 
ATOM      2  C3  UNL d   1      -1.004   0.188   0.842  0.00  0.00    -0.002 A 
ATOM      3  C4  UNL d   1      -2.199  -0.032   1.529  0.00  0.00     0.004 A 
ATOM      4  C5  UNL d   1      -2.739  -1.315   1.606  0.00  0.00    -0.004 A 
ATOM      5  C6  UNL d   1      -2.086  -2.393   0.999  0.00  0.00    -0.075 A 
ATOM      6  C7  UNL d   1      -2.655  -3.779   1.071  0.00  0.00     0.076 C 
ATOM      7  C8  UNL d   1      -0.888  -2.164   0.308  0.00  0.00     0.001 A 
ENDROOT
BRANCH   1   8
ATOM      8  C1  UNL d   1       0.951  -0.645  -0.520  0.00  0.00     0.053 C 
ATOM      9  C   UNL d   1       1.298   0.833  -0.614  0.00  0.00     0.018 C 
ENDBRANCH   1   8
TORSDOF 1
ENDMDL
