MODEL 1
REMARK minimizedAffinity -6.56286812
REMARK minimizedRMSD -1
REMARK  1 active torsions:
REMARK  status: ('A' for Active; 'I' for Inactive)
REMARK    1  A    between atoms: C1_2  and  C2_3 
ROOT
ATOM      1  C2  UNL d   1      -0.512  -1.057   1.682  0.00  0.00    -0.073 A 
ATOM      2  C3  UNL d   1      -1.391  -0.044   2.083  0.00  0.00    -0.002 A 
ATOM      3  C4  UNL d   1      -1.632   1.050   1.251  0.00  0.00     0.004 A 
ATOM      4  C5  UNL d   1      -1.003   1.140   0.010  0.00  0.00    -0.004 A 
ATOM      5  C6  UNL d   1      -0.130   0.133  -0.414  0.00  0.00    -0.075 A 
ATOM      6  C7  UNL d   1       0.557   0.216  -1.745  0.00  0.00     0.076 C 
ATOM      7  C8  UNL d   1       0.109  -0.962   0.428  0.00  0.00     0.001 A 
ENDROOT
BRANCH   1   8
ATOM      8  C1  UNL d   1      -0.254  -2.244   2.574  0.00  0.00     0.053 C 
ATOM      9  C   UNL d   1       1.050  -2.944   2.227  0.00  0.00     0.018 C 
ENDBRANCH   1   8
TORSDOF 1
ENDMDL
