MODEL 1
REMARK minimizedAffinity 0.544523954
REMARK minimizedRMSD -1
REMARK  1 active torsions:
REMARK  status: ('A' for Active; 'I' for Inactive)
REMARK    1  A    between atoms: C1_2  and  C2_3 
ROOT
ATOM      1  C2  UNL d   1      -1.040   0.532  -1.176  0.00  0.00    -0.073 A 
ATOM      2  C3  UNL d   1      -1.607   0.213   0.063  0.00  0.00    -0.002 A 
ATOM      3  C4  UNL d   1      -0.805   0.112   1.200  0.00  0.00     0.004 A 
ATOM      4  C5  UNL d   1       0.569   0.336   1.113  0.00  0.00    -0.004 A 
ATOM      5  C6  UNL d   1       1.153   0.668  -0.114  0.00  0.00    -0.075 A 
ATOM      6  C7  UNL d   1       2.630   0.909  -0.226  0.00  0.00     0.076 C 
ATOM      7  C8  UNL d   1       0.341   0.764  -1.253  0.00  0.00     0.001 A 
ENDROOT
BRANCH   1   8
ATOM      8  C1  UNL d   1      -1.903   0.647  -2.406  0.00  0.00     0.053 C 
ATOM      9  C   UNL d   1      -1.708   1.978  -3.116  0.00  0.00     0.018 C 
ENDBRANCH   1   8
TORSDOF 1
ENDMDL
