MODEL 1
REMARK minimizedAffinity -1.97872841
REMARK minimizedRMSD -1
REMARK  1 active torsions:
REMARK  status: ('A' for Active; 'I' for Inactive)
REMARK    1  A    between atoms: C1_2  and  C2_3 
ROOT
ATOM      1  C2  UNL d   1       0.034   0.505   0.024  0.00  0.00    -0.073 A 
ATOM      2  C3  UNL d   1      -0.969  -0.140   0.757  0.00  0.00    -0.002 A 
ATOM      3  C4  UNL d   1      -2.274  -0.199   0.266  0.00  0.00     0.004 A 
ATOM      4  C5  UNL d   1      -2.588   0.379  -0.964  0.00  0.00    -0.004 A 
ATOM      5  C6  UNL d   1      -1.597   1.018  -1.716  0.00  0.00    -0.075 A 
ATOM      6  C7  UNL d   1      -1.919   1.647  -3.040  0.00  0.00     0.076 C 
ATOM      7  C8  UNL d   1      -0.290   1.075  -1.215  0.00  0.00     0.001 A 
ENDROOT
BRANCH   1   8
ATOM      8  C1  UNL d   1       1.446   0.565   0.547  0.00  0.00     0.053 C 
ATOM      9  C   UNL d   1       2.271  -0.630   0.099  0.00  0.00     0.018 C 
ENDBRANCH   1   8
TORSDOF 1
ENDMDL
