MODEL 1
REMARK minimizedAffinity -5.86000443
REMARK minimizedRMSD -1
REMARK  3 active torsions:
REMARK  status: ('A' for Active; 'I' for Inactive)
REMARK    1  A    between atoms: C3'_2  and  C2'_3 
REMARK    2  A    between atoms: C2'_3  and  C1'_4 
REMARK    3  A    between atoms: C1'_4  and  C1_5 
ROOT
ATOM      1  C1  N4B d   1       0.038  -0.301   0.101  0.00  0.00    -0.075 A 
ATOM      2  C2  N4B d   1       0.590   0.266   1.270  0.00  0.00     0.002 A 
ATOM      3  C3  N4B d   1      -0.212   0.960   2.142  0.00  0.00     0.002 A 
ATOM      4  C4  N4B d   1      -1.561   1.116   1.857  0.00  0.00    -0.004 A 
ATOM      5  C5  N4B d   1      -2.091   0.543   0.738  0.00  0.00     0.002 A 
ATOM      6  C6  N4B d   1      -1.297  -0.161  -0.145  0.00  0.00     0.002 A 
ENDROOT
BRANCH   1   7
ATOM      7  C1' N4B d   1       0.892  -0.995  -0.925  0.00  0.00     0.057 C 
BRANCH   7   8
ATOM      8  C2' N4B d   1       0.381  -0.647  -2.320  0.00  0.00     0.009 C 
BRANCH   8   9
ATOM      9  C3' N4B d   1       1.344   0.260  -3.067  0.00  0.00     0.004 C 
ATOM     10  C4' N4B d   1       0.795   0.734  -4.380  0.00  0.00     0.003 C 
ENDBRANCH   8   9
ENDBRANCH   7   8
ENDBRANCH   1   7
TORSDOF 3
ENDMDL
