MODEL 1
REMARK minimizedAffinity -5.01899815
REMARK minimizedRMSD -1
REMARK  3 active torsions:
REMARK  status: ('A' for Active; 'I' for Inactive)
REMARK    1  A    between atoms: C3'_2  and  C2'_3 
REMARK    2  A    between atoms: C2'_3  and  C1'_4 
REMARK    3  A    between atoms: C1'_4  and  C1_5 
ROOT
ATOM      1  C1  N4B d   1      -0.196   0.042   0.847  0.00  0.00    -0.075 A 
ATOM      2  C2  N4B d   1       1.119  -0.012   1.359  0.00  0.00     0.002 A 
ATOM      3  C3  N4B d   1       1.382   0.451   2.625  0.00  0.00     0.002 A 
ATOM      4  C4  N4B d   1       0.354   0.986   3.387  0.00  0.00    -0.004 A 
ATOM      5  C5  N4B d   1      -0.918   1.011   2.895  0.00  0.00     0.002 A 
ATOM      6  C6  N4B d   1      -1.198   0.546   1.626  0.00  0.00     0.002 A 
ENDROOT
BRANCH   1   7
ATOM      7  C1' N4B d   1      -0.517  -0.373  -0.563  0.00  0.00     0.057 C 
BRANCH   7   8
ATOM      8  C2' N4B d   1       0.653  -0.005  -1.471  0.00  0.00     0.009 C 
BRANCH   8   9
ATOM      9  C3' N4B d   1       0.308  -0.179  -2.940  0.00  0.00     0.004 C 
ATOM     10  C4' N4B d   1       1.128   0.700  -3.837  0.00  0.00     0.003 C 
ENDBRANCH   8   9
ENDBRANCH   7   8
ENDBRANCH   1   7
TORSDOF 3
ENDMDL
