MODEL 1
REMARK minimizedAffinity -6.03151989
REMARK minimizedRMSD -1
REMARK  3 active torsions:
REMARK  status: ('A' for Active; 'I' for Inactive)
REMARK    1  A    between atoms: C3'_2  and  C2'_3 
REMARK    2  A    between atoms: C2'_3  and  C1'_4 
REMARK    3  A    between atoms: C1'_4  and  C1_5 
ROOT
ATOM      1  C1  N4B d   1      -0.060  -0.012   0.069  0.00  0.00    -0.075 A 
ATOM      2  C2  N4B d   1      -1.443   0.271   0.114  0.00  0.00     0.002 A 
ATOM      3  C3  N4B d   1      -1.939   1.121   1.073  0.00  0.00     0.002 A 
ATOM      4  C4  N4B d   1      -1.077   1.682   2.003  0.00  0.00    -0.004 A 
ATOM      5  C5  N4B d   1       0.261   1.424   1.937  0.00  0.00     0.002 A 
ATOM      6  C6  N4B d   1       0.773   0.575   0.977  0.00  0.00     0.002 A 
ENDROOT
BRANCH   1   7
ATOM      7  C1' N4B d   1       0.517  -1.001  -0.906  0.00  0.00     0.057 C 
BRANCH   7   8
ATOM      8  C2' N4B d   1       0.210  -0.540  -2.328  0.00  0.00     0.009 C 
BRANCH   8   9
ATOM      9  C3' N4B d   1       1.039   0.669  -2.725  0.00  0.00     0.004 C 
ATOM     10  C4' N4B d   1       0.608   1.265  -4.031  0.00  0.00     0.003 C 
ENDBRANCH   8   9
ENDBRANCH   7   8
ENDBRANCH   1   7
TORSDOF 3
ENDMDL
