MODEL 1
REMARK minimizedAffinity -0.32275781
REMARK minimizedRMSD -1
REMARK  3 active torsions:
REMARK  status: ('A' for Active; 'I' for Inactive)
REMARK    1  A    between atoms: C3'_2  and  C2'_3 
REMARK    2  A    between atoms: C2'_3  and  C1'_4 
REMARK    3  A    between atoms: C1'_4  and  C1_5 
ROOT
ATOM      1  C1  N4B d   1      -0.101   0.658   0.094  0.00  0.00    -0.075 A 
ATOM      2  C2  N4B d   1       0.799   1.462   0.829  0.00  0.00     0.002 A 
ATOM      3  C3  N4B d   1       0.514   1.799   2.129  0.00  0.00     0.002 A 
ATOM      4  C4  N4B d   1      -0.669   1.363   2.707  0.00  0.00    -0.004 A 
ATOM      5  C5  N4B d   1      -1.521   0.567   2.000  0.00  0.00     0.002 A 
ATOM      6  C6  N4B d   1      -1.245   0.216   0.693  0.00  0.00     0.002 A 
ENDROOT
BRANCH   1   7
ATOM      7  C1' N4B d   1       0.126   0.334  -1.357  0.00  0.00     0.057 C 
BRANCH   7   8
ATOM      8  C2' N4B d   1       1.402   1.024  -1.830  0.00  0.00     0.009 C 
BRANCH   8   9
ATOM      9  C3' N4B d   1       1.541   0.987  -3.342  0.00  0.00     0.004 C 
ATOM     10  C4' N4B d   1       2.936   0.669  -3.790  0.00  0.00     0.003 C 
ENDBRANCH   8   9
ENDBRANCH   7   8
ENDBRANCH   1   7
TORSDOF 3
ENDMDL
