MODEL 1
REMARK minimizedAffinity -5.70911646
REMARK minimizedRMSD -1
REMARK  3 active torsions:
REMARK  status: ('A' for Active; 'I' for Inactive)
REMARK    1  A    between atoms: C3'_2  and  C2'_3 
REMARK    2  A    between atoms: C2'_3  and  C1'_4 
REMARK    3  A    between atoms: C1'_4  and  C1_5 
ROOT
ATOM      1  C1  N4B d   1      -0.171  -0.204   0.348  0.00  0.00    -0.075 A 
ATOM      2  C2  N4B d   1      -1.334  -0.640   1.022  0.00  0.00     0.002 A 
ATOM      3  C3  N4B d   1      -1.742  -0.003   2.168  0.00  0.00     0.002 A 
ATOM      4  C4  N4B d   1      -0.997   1.055   2.667  0.00  0.00    -0.004 A 
ATOM      5  C5  N4B d   1       0.110   1.486   1.997  0.00  0.00     0.002 A 
ATOM      6  C6  N4B d   1       0.530   0.858   0.842  0.00  0.00     0.002 A 
ENDROOT
BRANCH   1   7
ATOM      7  C1' N4B d   1       0.362  -0.924  -0.860  0.00  0.00     0.057 C 
BRANCH   7   8
ATOM      8  C2' N4B d   1       0.483   0.063  -2.018  0.00  0.00     0.009 C 
BRANCH   8   9
ATOM      9  C3' N4B d   1       1.169  -0.556  -3.223  0.00  0.00     0.004 C 
ATOM     10  C4' N4B d   1       2.116   0.388  -3.901  0.00  0.00     0.003 C 
ENDBRANCH   8   9
ENDBRANCH   7   8
ENDBRANCH   1   7
TORSDOF 3
ENDMDL
