MODEL 1
REMARK minimizedAffinity -3.04264498
REMARK minimizedRMSD -1
REMARK  0 active torsions:
REMARK  status: ('A' for Active; 'I' for Inactive)
ROOT
ATOM      1  C   UNL d   1       1.622   1.264  -1.856  0.00  0.00     0.172 C 
ATOM      2  N   UNL d   1       0.822   0.845  -0.729  0.00  0.00    -0.070 N 
ATOM      3  C1  UNL d   1       1.273   0.684   0.554  0.00  0.00    -0.004 A 
ATOM      4  C2  UNL d   1       0.207   0.277   1.328  0.00  0.00    -0.047 A 
ATOM      5  C3  UNL d   1      -0.922   0.189   0.480  0.00  0.00    -0.047 A 
ATOM      6  C4  UNL d   1      -0.513   0.546  -0.788  0.00  0.00    -0.004 A 
ENDROOT
TORSDOF 0
ENDMDL
