MODEL 1
REMARK minimizedAffinity -2.74611974
REMARK minimizedRMSD -1
REMARK  0 active torsions:
REMARK  status: ('A' for Active; 'I' for Inactive)
ROOT
ATOM      1  C   UNL d   1       0.286  -0.554  -0.758  0.00  0.00     0.172 C 
ATOM      2  N   UNL d   1       0.173  -0.472   0.679  0.00  0.00    -0.070 N 
ATOM      3  C1  UNL d   1      -0.482  -1.368   1.481  0.00  0.00    -0.004 A 
ATOM      4  C2  UNL d   1      -0.359  -0.937   2.784  0.00  0.00    -0.047 A 
ATOM      5  C3  UNL d   1       0.394   0.261   2.764  0.00  0.00    -0.047 A 
ATOM      6  C4  UNL d   1       0.711   0.526   1.449  0.00  0.00    -0.004 A 
ENDROOT
TORSDOF 0
ENDMDL
