MODEL 1
REMARK minimizedAffinity -3.41821599
REMARK minimizedRMSD -1
REMARK  0 active torsions:
REMARK  status: ('A' for Active; 'I' for Inactive)
ROOT
ATOM      1  C   UNL d   1      -0.187   0.557  -0.831  0.00  0.00     0.172 C 
ATOM      2  N   UNL d   1      -0.258   0.102   0.538  0.00  0.00    -0.070 N 
ATOM      3  C1  UNL d   1      -1.187  -0.768   1.043  0.00  0.00    -0.004 A 
ATOM      4  C2  UNL d   1      -0.913  -0.947   2.382  0.00  0.00    -0.047 A 
ATOM      5  C3  UNL d   1       0.220  -0.157   2.692  0.00  0.00    -0.047 A 
ATOM      6  C4  UNL d   1       0.605   0.482   1.532  0.00  0.00    -0.004 A 
ENDROOT
TORSDOF 0
ENDMDL
