MODEL 1
REMARK minimizedAffinity -3.34324121
REMARK minimizedRMSD -1
REMARK  0 active torsions:
REMARK  status: ('A' for Active; 'I' for Inactive)
ROOT
ATOM      1  C   UNL d   1       1.236   0.732  -1.774  0.00  0.00     0.172 C 
ATOM      2  N   UNL d   1       0.760   0.428  -0.445  0.00  0.00    -0.070 N 
ATOM      3  C1  UNL d   1       1.269   0.935   0.720  0.00  0.00    -0.004 A 
ATOM      4  C2  UNL d   1       0.544   0.403   1.764  0.00  0.00    -0.047 A 
ATOM      5  C3  UNL d   1      -0.434  -0.455   1.207  0.00  0.00    -0.047 A 
ATOM      6  C4  UNL d   1      -0.278  -0.420  -0.163  0.00  0.00    -0.004 A 
ENDROOT
TORSDOF 0
ENDMDL
