MODEL 1
REMARK minimizedAffinity -2.90912366
REMARK minimizedRMSD -1
REMARK  0 active torsions:
REMARK  status: ('A' for Active; 'I' for Inactive)
ROOT
ATOM      1  C   UNL d   1      -1.687   1.014  -0.626  0.00  0.00     0.172 C 
ATOM      2  N   UNL d   1      -0.282   0.682  -0.632  0.00  0.00    -0.070 N 
ATOM      3  C1  UNL d   1       0.588   0.871   0.408  0.00  0.00    -0.004 A 
ATOM      4  C2  UNL d   1       1.830   0.428   0.006  0.00  0.00    -0.047 A 
ATOM      5  C3  UNL d   1       1.702  -0.044  -1.322  0.00  0.00    -0.047 A 
ATOM      6  C4  UNL d   1       0.384   0.125  -1.692  0.00  0.00    -0.004 A 
ENDROOT
TORSDOF 0
ENDMDL
