MODEL 1
REMARK minimizedAffinity -2.9185822
REMARK minimizedRMSD -1
REMARK  0 active torsions:
REMARK  status: ('A' for Active; 'I' for Inactive)
ROOT
ATOM      1  C   UNL d   1      -0.079  -0.417   3.291  0.00  0.00     0.172 C 
ATOM      2  N   UNL d   1       0.189   0.089   1.965  0.00  0.00    -0.070 N 
ATOM      3  C1  UNL d   1       1.319   0.760   1.580  0.00  0.00    -0.004 A 
ATOM      4  C2  UNL d   1       1.190   1.071   0.244  0.00  0.00    -0.047 A 
ATOM      5  C3  UNL d   1      -0.060   0.570  -0.189  0.00  0.00    -0.047 A 
ATOM      6  C4  UNL d   1      -0.659  -0.033   0.897  0.00  0.00    -0.004 A 
ENDROOT
TORSDOF 0
ENDMDL
