MODEL 1
REMARK minimizedAffinity -3.26910877
REMARK minimizedRMSD -1
REMARK  0 active torsions:
REMARK  status: ('A' for Active; 'I' for Inactive)
ROOT
ATOM      1  C   UNL d   1       1.391  -2.321  -3.969  0.00  0.00     0.172 C 
ATOM      2  N   UNL d   1       1.936  -1.001  -3.754  0.00  0.00    -0.070 N 
ATOM      3  C1  UNL d   1       1.284   0.044  -3.154  0.00  0.00    -0.004 A 
ATOM      4  C2  UNL d   1       2.140   1.124  -3.140  0.00  0.00    -0.047 A 
ATOM      5  C3  UNL d   1       3.348   0.714  -3.753  0.00  0.00    -0.047 A 
ATOM      6  C4  UNL d   1       3.194  -0.605  -4.124  0.00  0.00    -0.004 A 
ENDROOT
TORSDOF 0
ENDMDL
