MODEL 1
REMARK minimizedAffinity -3.06971931
REMARK minimizedRMSD -1
REMARK  0 active torsions:
REMARK  status: ('A' for Active; 'I' for Inactive)
ROOT
ATOM      1  C   UNL d   1      -0.804  -0.537   2.368  0.00  0.00     0.172 C 
ATOM      2  N   UNL d   1      -0.732   0.005   1.032  0.00  0.00    -0.070 N 
ATOM      3  C1  UNL d   1       0.419   0.276   0.341  0.00  0.00    -0.004 A 
ATOM      4  C2  UNL d   1       0.063   0.779  -0.892  0.00  0.00    -0.047 A 
ATOM      5  C3  UNL d   1      -1.351   0.812  -0.944  0.00  0.00    -0.047 A 
ATOM      6  C4  UNL d   1      -1.817   0.327   0.260  0.00  0.00    -0.004 A 
ENDROOT
TORSDOF 0
ENDMDL
