MODEL 1
REMARK minimizedAffinity -2.68348002
REMARK minimizedRMSD -1
REMARK  0 active torsions:
REMARK  status: ('A' for Active; 'I' for Inactive)
ROOT
ATOM      1  C   UNL d   1      -0.944  -0.483   2.730  0.00  0.00     0.172 C 
ATOM      2  N   UNL d   1      -0.835  -0.057   1.354  0.00  0.00    -0.070 N 
ATOM      3  C1  UNL d   1       0.331   0.065   0.646  0.00  0.00    -0.004 A 
ATOM      4  C2  UNL d   1       0.011   0.493  -0.624  0.00  0.00    -0.047 A 
ATOM      5  C3  UNL d   1      -1.396   0.634  -0.681  0.00  0.00    -0.047 A 
ATOM      6  C4  UNL d   1      -1.895   0.287   0.557  0.00  0.00    -0.004 A 
ENDROOT
TORSDOF 0
ENDMDL
