MODEL 1
REMARK minimizedAffinity 1.9270798
REMARK minimizedRMSD -1
REMARK  0 active torsions:
REMARK  status: ('A' for Active; 'I' for Inactive)
ROOT
ATOM      1  C   UNL d   1       3.285   0.109   2.006  0.00  0.00     0.172 C 
ATOM      2  N   UNL d   1       1.897   0.273   2.370  0.00  0.00    -0.070 N 
ATOM      3  C1  UNL d   1       1.250  -0.401   3.371  0.00  0.00    -0.004 A 
ATOM      4  C2  UNL d   1      -0.056   0.038   3.400  0.00  0.00    -0.047 A 
ATOM      5  C3  UNL d   1      -0.199   1.009   2.380  0.00  0.00    -0.047 A 
ATOM      6  C4  UNL d   1       1.026   1.135   1.759  0.00  0.00    -0.004 A 
ENDROOT
TORSDOF 0
ENDMDL
