MODEL 1
REMARK minimizedAffinity 1.98656487
REMARK minimizedRMSD -1
REMARK  0 active torsions:
REMARK  status: ('A' for Active; 'I' for Inactive)
ROOT
ATOM      1  C   UNL d   1      -3.410   2.307   3.028  0.00  0.00     0.172 C 
ATOM      2  N   UNL d   1      -3.474   1.363   1.938  0.00  0.00    -0.070 N 
ATOM      3  C1  UNL d   1      -2.988   1.568   0.674  0.00  0.00    -0.004 A 
ATOM      4  C2  UNL d   1      -3.244   0.435  -0.066  0.00  0.00    -0.047 A 
ATOM      5  C3  UNL d   1      -3.908  -0.484   0.782  0.00  0.00    -0.047 A 
ATOM      6  C4  UNL d   1      -4.038   0.117   2.016  0.00  0.00    -0.004 A 
ENDROOT
TORSDOF 0
ENDMDL
