MODEL 1
REMARK minimizedAffinity -3.31055617
REMARK minimizedRMSD -1
REMARK  0 active torsions:
REMARK  status: ('A' for Active; 'I' for Inactive)
ROOT
ATOM      1  C   UNL d   1       0.254  -0.241  -0.837  0.00  0.00     0.172 C 
ATOM      2  N   UNL d   1       0.069  -0.222   0.595  0.00  0.00    -0.070 N 
ATOM      3  C1  UNL d   1       0.751   0.571   1.478  0.00  0.00    -0.004 A 
ATOM      4  C2  UNL d   1       0.285   0.291   2.744  0.00  0.00    -0.047 A 
ATOM      5  C3  UNL d   1      -0.711  -0.706   2.618  0.00  0.00    -0.047 A 
ATOM      6  C4  UNL d   1      -0.825  -1.005   1.277  0.00  0.00    -0.004 A 
ENDROOT
TORSDOF 0
ENDMDL
