MODEL 1
REMARK minimizedAffinity -3.35720086
REMARK minimizedRMSD -1
REMARK  0 active torsions:
REMARK  status: ('A' for Active; 'I' for Inactive)
ROOT
ATOM      1  C   UNL d   1       0.400   0.222  -0.903  0.00  0.00     0.172 C 
ATOM      2  N   UNL d   1       0.562  -0.064   0.503  0.00  0.00    -0.070 N 
ATOM      3  C1  UNL d   1       1.745  -0.035   1.192  0.00  0.00    -0.004 A 
ATOM      4  C2  UNL d   1       1.478  -0.366   2.503  0.00  0.00    -0.047 A 
ATOM      5  C3  UNL d   1       0.087  -0.603   2.605  0.00  0.00    -0.047 A 
ATOM      6  C4  UNL d   1      -0.456  -0.409   1.353  0.00  0.00    -0.004 A 
ENDROOT
TORSDOF 0
ENDMDL
