MODEL 1
REMARK minimizedAffinity -3.92554522
REMARK minimizedRMSD -1
REMARK  0 active torsions:
REMARK  status: ('A' for Active; 'I' for Inactive)
ROOT
ATOM      1  C   UNL d   1      -0.018  -0.513  -0.648  0.00  0.00     0.172 C 
ATOM      2  N   UNL d   1       0.015  -0.396   0.791  0.00  0.00    -0.070 N 
ATOM      3  C1  UNL d   1      -1.074  -0.432   1.621  0.00  0.00    -0.004 A 
ATOM      4  C2  UNL d   1      -0.623  -0.289   2.915  0.00  0.00    -0.047 A 
ATOM      5  C3  UNL d   1       0.786  -0.162   2.862  0.00  0.00    -0.047 A 
ATOM      6  C4  UNL d   1       1.154  -0.232   1.535  0.00  0.00    -0.004 A 
ENDROOT
TORSDOF 0
ENDMDL
