MODEL 1
REMARK minimizedAffinity -3.18556809
REMARK minimizedRMSD -1
REMARK  0 active torsions:
REMARK  status: ('A' for Active; 'I' for Inactive)
ROOT
ATOM      1  C   UNL d   1       1.820  -0.803  -3.645  0.00  0.00     0.172 C 
ATOM      2  N   UNL d   1       2.745   0.273  -3.910  0.00  0.00    -0.070 N 
ATOM      3  C1  UNL d   1       2.787   1.472  -3.250  0.00  0.00    -0.004 A 
ATOM      4  C2  UNL d   1       3.807   2.221  -3.797  0.00  0.00    -0.047 A 
ATOM      5  C3  UNL d   1       4.398   1.445  -4.822  0.00  0.00    -0.047 A 
ATOM      6  C4  UNL d   1       3.721   0.245  -4.871  0.00  0.00    -0.004 A 
ENDROOT
TORSDOF 0
ENDMDL
