MODEL 1
REMARK minimizedAffinity -2.17264843
REMARK minimizedRMSD -1
REMARK  0 active torsions:
REMARK  status: ('A' for Active; 'I' for Inactive)
ROOT
ATOM      1  C   UNL d   1      -0.730  -0.523   2.948  0.00  0.00     0.172 C 
ATOM      2  N   UNL d   1      -0.655  -0.188   1.545  0.00  0.00    -0.070 N 
ATOM      3  C1  UNL d   1      -1.717   0.138   0.744  0.00  0.00    -0.004 A 
ATOM      4  C2  UNL d   1      -1.230   0.389  -0.521  0.00  0.00    -0.047 A 
ATOM      5  C3  UNL d   1       0.173   0.207  -0.478  0.00  0.00    -0.047 A 
ATOM      6  C4  UNL d   1       0.502  -0.150   0.812  0.00  0.00    -0.004 A 
ENDROOT
TORSDOF 0
ENDMDL
