MODEL 1
REMARK minimizedAffinity -3.53987741
REMARK minimizedRMSD -1
REMARK  0 active torsions:
REMARK  status: ('A' for Active; 'I' for Inactive)
ROOT
ATOM      1  C   UNL d   1       0.241   0.440  -1.022  0.00  0.00     0.172 C 
ATOM      2  N   UNL d   1      -0.097   0.181   0.357  0.00  0.00    -0.070 N 
ATOM      3  C1  UNL d   1      -1.277  -0.350   0.804  0.00  0.00    -0.004 A 
ATOM      4  C2  UNL d   1      -1.207  -0.439   2.177  0.00  0.00    -0.047 A 
ATOM      5  C3  UNL d   1       0.059   0.057   2.570  0.00  0.00    -0.047 A 
ATOM      6  C4  UNL d   1       0.725   0.434   1.423  0.00  0.00    -0.004 A 
ENDROOT
TORSDOF 0
ENDMDL
