MODEL 1
REMARK minimizedAffinity -3.90984082
REMARK minimizedRMSD -1
REMARK  0 active torsions:
REMARK  status: ('A' for Active; 'I' for Inactive)
ROOT
ATOM      1  N1  IND d   1       1.503  -1.300  -1.173  0.00  0.00    -0.196 N 
ATOM      2  C2  IND d   1       0.405  -0.807  -1.821  0.00  0.00     0.054 A 
ATOM      3  C3  IND d   1      -0.459  -0.263  -0.936  0.00  0.00    -0.031 A 
ATOM      4  C4  IND d   1      -0.229   0.018   1.613  0.00  0.00     0.051 A 
ATOM      5  C5  IND d   1       0.582  -0.308   2.664  0.00  0.00    -0.031 A 
ATOM      6  C6  IND d   1       1.767  -0.992   2.485  0.00  0.00     0.015 A 
ATOM      7  C7  IND d   1       2.192  -1.368   1.243  0.00  0.00    -0.016 A 
ATOM      8  C8  IND d   1       1.368  -1.045   0.174  0.00  0.00    -0.047 A 
ATOM      9  C9  IND d   1       0.143  -0.388   0.354  0.00  0.00    -0.096 A 
ATOM     10  HN1 IND d   1       2.167  -1.701  -1.544  0.00  0.00     0.298 HD
ENDROOT
TORSDOF 0
ENDMDL
