MODEL 1
REMARK minimizedAffinity -4.65115118
REMARK minimizedRMSD -1
REMARK  0 active torsions:
REMARK  status: ('A' for Active; 'I' for Inactive)
ROOT
ATOM      1  N1  IND d   1       0.238   0.860  -1.514  0.00  0.00    -0.196 N 
ATOM      2  C2  IND d   1      -0.949   1.020  -2.175  0.00  0.00     0.054 A 
ATOM      3  C3  IND d   1      -1.980   0.643  -1.386  0.00  0.00    -0.031 A 
ATOM      4  C4  IND d   1      -1.960  -0.171   1.056  0.00  0.00     0.051 A 
ATOM      5  C5  IND d   1      -1.111  -0.514   2.070  0.00  0.00    -0.031 A 
ATOM      6  C6  IND d   1       0.259  -0.412   1.940  0.00  0.00     0.015 A 
ATOM      7  C7  IND d   1       0.833   0.050   0.789  0.00  0.00    -0.016 A 
ATOM      8  C8  IND d   1      -0.027   0.392  -0.245  0.00  0.00    -0.047 A 
ATOM      9  C9  IND d   1      -1.416   0.251  -0.134  0.00  0.00    -0.096 A 
ATOM     10  HN1 IND d   1       1.018   1.023  -1.837  0.00  0.00     0.298 HD
ENDROOT
TORSDOF 0
ENDMDL
