MODEL 1
REMARK minimizedAffinity -2.39738011
REMARK minimizedRMSD -1
REMARK  0 active torsions:
REMARK  status: ('A' for Active; 'I' for Inactive)
ROOT
ATOM      1  N1  IND d   1       0.774  -1.357   1.911  0.00  0.00    -0.196 N 
ATOM      2  C2  IND d   1      -0.175  -0.643   2.589  0.00  0.00     0.054 A 
ATOM      3  C3  IND d   1      -0.804   0.214   1.754  0.00  0.00    -0.031 A 
ATOM      4  C4  IND d   1      -0.507   0.541  -0.782  0.00  0.00     0.051 A 
ATOM      5  C5  IND d   1       0.265   0.142  -1.837  0.00  0.00    -0.031 A 
ATOM      6  C6  IND d   1       1.265  -0.799  -1.693  0.00  0.00     0.015 A 
ATOM      7  C7  IND d   1       1.523  -1.385  -0.487  0.00  0.00    -0.016 A 
ATOM      8  C8  IND d   1       0.746  -0.977   0.587  0.00  0.00    -0.047 A 
ATOM      9  C9  IND d   1      -0.242   0.007   0.457  0.00  0.00    -0.096 A 
ATOM     10  HN1 IND d   1       1.300  -1.944   2.254  0.00  0.00     0.298 HD
ENDROOT
TORSDOF 0
ENDMDL
