MODEL 1
REMARK minimizedAffinity -1.87024689
REMARK minimizedRMSD -1
REMARK  0 active torsions:
REMARK  status: ('A' for Active; 'I' for Inactive)
ROOT
ATOM      1  N1  IND d   1       1.968  -1.775  -0.421  0.00  0.00    -0.196 N 
ATOM      2  C2  IND d   1       2.603  -2.727   0.327  0.00  0.00     0.054 A 
ATOM      3  C3  IND d   1       2.137  -2.715   1.597  0.00  0.00    -0.031 A 
ATOM      4  C4  IND d   1       0.267  -1.286   2.639  0.00  0.00     0.051 A 
ATOM      5  C5  IND d   1      -0.582  -0.252   2.359  0.00  0.00    -0.031 A 
ATOM      6  C6  IND d   1      -0.626   0.338   1.112  0.00  0.00     0.015 A 
ATOM      7  C7  IND d   1       0.172  -0.094   0.091  0.00  0.00    -0.016 A 
ATOM      8  C8  IND d   1       1.039  -1.140   0.373  0.00  0.00    -0.047 A 
ATOM      9  C9  IND d   1       1.119  -1.714   1.649  0.00  0.00    -0.096 A 
ATOM     10  HN1 IND d   1       2.124  -1.602  -1.249  0.00  0.00     0.298 HD
ENDROOT
TORSDOF 0
ENDMDL
