MODEL 1
REMARK minimizedAffinity -4.73369789
REMARK minimizedRMSD -1
REMARK  0 active torsions:
REMARK  status: ('A' for Active; 'I' for Inactive)
ROOT
ATOM      1  N1  IND d   1       0.221   0.108  -0.916  0.00  0.00    -0.196 N 
ATOM      2  C2  IND d   1      -0.962   0.697  -0.566  0.00  0.00     0.054 A 
ATOM      3  C3  IND d   1      -1.206   0.515   0.751  0.00  0.00    -0.031 A 
ATOM      4  C4  IND d   1       0.247  -0.631   2.541  0.00  0.00     0.051 A 
ATOM      5  C5  IND d   1       1.398  -1.352   2.694  0.00  0.00    -0.031 A 
ATOM      6  C6  IND d   1       2.234  -1.626   1.631  0.00  0.00     0.015 A 
ATOM      7  C7  IND d   1       1.954  -1.178   0.371  0.00  0.00    -0.016 A 
ATOM      8  C8  IND d   1       0.782  -0.452   0.210  0.00  0.00    -0.047 A 
ATOM      9  C9  IND d   1      -0.091  -0.207   1.277  0.00  0.00    -0.096 A 
ATOM     10  HN1 IND d   1       0.557   0.090  -1.707  0.00  0.00     0.298 HD
ENDROOT
TORSDOF 0
ENDMDL
