MODEL 1
REMARK minimizedAffinity 4.75038004
REMARK minimizedRMSD -1
REMARK  0 active torsions:
REMARK  status: ('A' for Active; 'I' for Inactive)
ROOT
ATOM      1  N1  IND d   1      -0.117  -0.328   3.607  0.00  0.00    -0.196 N 
ATOM      2  C2  IND d   1       0.719  -1.229   3.008  0.00  0.00     0.054 A 
ATOM      3  C3  IND d   1       0.221  -1.608   1.810  0.00  0.00    -0.031 A 
ATOM      4  C4  IND d   1      -1.898  -0.803   0.591  0.00  0.00     0.051 A 
ATOM      5  C5  IND d   1      -3.001  -0.013   0.755  0.00  0.00    -0.031 A 
ATOM      6  C6  IND d   1      -3.202   0.729   1.901  0.00  0.00     0.015 A 
ATOM      7  C7  IND d   1      -2.297   0.718   2.925  0.00  0.00    -0.016 A 
ATOM      8  C8  IND d   1      -1.179  -0.088   2.764  0.00  0.00    -0.047 A 
ATOM      9  C9  IND d   1      -0.991  -0.877   1.621  0.00  0.00    -0.096 A 
ATOM     10  HN1 IND d   1       0.001   0.028   4.381  0.00  0.00     0.298 HD
ENDROOT
TORSDOF 0
ENDMDL
