MODEL 1
REMARK minimizedAffinity -2.14444089
REMARK minimizedRMSD -1
REMARK  0 active torsions:
REMARK  status: ('A' for Active; 'I' for Inactive)
ROOT
ATOM      1  N1  IND d   1      -1.803  -0.740   1.027  0.00  0.00    -0.196 N 
ATOM      2  C2  IND d   1      -2.662   0.147   1.614  0.00  0.00     0.054 A 
ATOM      3  C3  IND d   1      -2.097   0.690   2.715  0.00  0.00    -0.031 A 
ATOM      4  C4  IND d   1       0.264   0.345   3.682  0.00  0.00     0.051 A 
ATOM      5  C5  IND d   1       1.399  -0.398   3.513  0.00  0.00    -0.031 A 
ATOM      6  C6  IND d   1       1.528  -1.309   2.485  0.00  0.00     0.015 A 
ATOM      7  C7  IND d   1       0.527  -1.504   1.576  0.00  0.00    -0.016 A 
ATOM      8  C8  IND d   1      -0.630  -0.757   1.748  0.00  0.00    -0.047 A 
ATOM      9  C9  IND d   1      -0.783   0.138   2.815  0.00  0.00    -0.096 A 
ATOM     10  HN1 IND d   1      -1.968  -1.209   0.325  0.00  0.00     0.298 HD
ENDROOT
TORSDOF 0
ENDMDL
