MODEL 1
REMARK minimizedAffinity -3.72253656
REMARK minimizedRMSD -1
REMARK  0 active torsions:
REMARK  status: ('A' for Active; 'I' for Inactive)
ROOT
ATOM      1  C2' OXE d   1       0.335  -1.639   2.096  0.00  0.00     0.078 C 
ATOM      2  C1' OXE d   1       0.818  -1.556  -0.668  0.00  0.00     0.078 C 
ATOM      3  C1  OXE d   1      -0.037  -0.467  -0.070  0.00  0.00    -0.078 A 
ATOM      4  C2  OXE d   1      -0.307  -0.541   1.275  0.00  0.00    -0.078 A 
ATOM      5  C3  OXE d   1      -1.045   0.468   1.887  0.00  0.00     0.003 A 
ATOM      6  C4  OXE d   1      -1.644   1.474   1.119  0.00  0.00    -0.002 A 
ATOM      7  C5  OXE d   1      -1.415   1.545  -0.259  0.00  0.00    -0.002 A 
ATOM      8  C6  OXE d   1      -0.581   0.609  -0.861  0.00  0.00     0.003 A 
ENDROOT
TORSDOF 0
ENDMDL
