MODEL 1
REMARK minimizedAffinity -2.68093276
REMARK minimizedRMSD -1
REMARK  0 active torsions:
REMARK  status: ('A' for Active; 'I' for Inactive)
ROOT
ATOM      1  C2' OXE d   1       1.129  -1.087  -0.839  0.00  0.00     0.078 C 
ATOM      2  C1' OXE d   1       0.373   1.589  -1.223  0.00  0.00     0.078 C 
ATOM      3  C1  OXE d   1      -0.119   0.890   0.019  0.00  0.00    -0.078 A 
ATOM      4  C2  OXE d   1       0.216  -0.433   0.176  0.00  0.00    -0.078 A 
ATOM      5  C3  OXE d   1      -0.166  -1.110   1.331  0.00  0.00     0.003 A 
ATOM      6  C4  OXE d   1      -1.019  -0.500   2.260  0.00  0.00    -0.002 A 
ATOM      7  C5  OXE d   1      -1.405   0.835   2.099  0.00  0.00    -0.002 A 
ATOM      8  C6  OXE d   1      -0.931   1.555   1.009  0.00  0.00     0.003 A 
ENDROOT
TORSDOF 0
ENDMDL
