MODEL 1
REMARK minimizedAffinity -5.33399963
REMARK minimizedRMSD -1
REMARK  0 active torsions:
REMARK  status: ('A' for Active; 'I' for Inactive)
ROOT
ATOM      1  C2' OXE d   1       0.095  -1.028   2.216  0.00  0.00     0.078 C 
ATOM      2  C1' OXE d   1       0.961  -0.688  -0.432  0.00  0.00     0.078 C 
ATOM      3  C1  OXE d   1      -0.051   0.291   0.108  0.00  0.00    -0.078 A 
ATOM      4  C2  OXE d   1      -0.504   0.089   1.390  0.00  0.00    -0.078 A 
ATOM      5  C3  OXE d   1      -1.397   0.995   1.956  0.00  0.00     0.003 A 
ATOM      6  C4  OXE d   1      -1.953   2.020   1.181  0.00  0.00    -0.002 A 
ATOM      7  C5  OXE d   1      -1.535   2.219  -0.139  0.00  0.00    -0.002 A 
ATOM      8  C6  OXE d   1      -0.555   1.392  -0.675  0.00  0.00     0.003 A 
ENDROOT
TORSDOF 0
ENDMDL
