MODEL 1
REMARK minimizedAffinity -3.4747355
REMARK minimizedRMSD -1
REMARK  0 active torsions:
REMARK  status: ('A' for Active; 'I' for Inactive)
ROOT
ATOM      1  C2' OXE d   1      -0.747  -0.592   1.693  0.00  0.00     0.078 C 
ATOM      2  C1' OXE d   1       0.024  -0.081  -0.958  0.00  0.00     0.078 C 
ATOM      3  C1  OXE d   1      -0.491   1.077  -0.139  0.00  0.00    -0.078 A 
ATOM      4  C2  OXE d   1      -0.910   0.808   1.142  0.00  0.00    -0.078 A 
ATOM      5  C3  OXE d   1      -1.343   1.850   1.958  0.00  0.00     0.003 A 
ATOM      6  C4  OXE d   1      -1.500   3.140   1.438  0.00  0.00    -0.002 A 
ATOM      7  C5  OXE d   1      -1.116   3.427   0.123  0.00  0.00    -0.002 A 
ATOM      8  C6  OXE d   1      -0.571   2.418  -0.663  0.00  0.00     0.003 A 
ENDROOT
TORSDOF 0
ENDMDL
