MODEL 1
REMARK minimizedAffinity -0.593473673
REMARK minimizedRMSD -1
REMARK  0 active torsions:
REMARK  status: ('A' for Active; 'I' for Inactive)
ROOT
ATOM      1  C2' OXE d   1       2.061   0.013  -1.805  0.00  0.00     0.078 C 
ATOM      2  C1' OXE d   1       0.861  -0.647   0.646  0.00  0.00     0.078 C 
ATOM      3  C1  OXE d   1       0.899  -1.707  -0.427  0.00  0.00    -0.078 A 
ATOM      4  C2  OXE d   1       1.446  -1.360  -1.639  0.00  0.00    -0.078 A 
ATOM      5  C3  OXE d   1       1.556  -2.317  -2.644  0.00  0.00     0.003 A 
ATOM      6  C4  OXE d   1       0.977  -3.581  -2.486  0.00  0.00    -0.002 A 
ATOM      7  C5  OXE d   1       0.379  -3.942  -1.274  0.00  0.00    -0.002 A 
ATOM      8  C6  OXE d   1       0.370  -3.033  -0.222  0.00  0.00     0.003 A 
ENDROOT
TORSDOF 0
ENDMDL
