MODEL 1
REMARK minimizedAffinity -1.79108799
REMARK minimizedRMSD -1
REMARK  0 active torsions:
REMARK  status: ('A' for Active; 'I' for Inactive)
ROOT
ATOM      1  C2' OXE d   1      -1.700   1.664   1.591  0.00  0.00     0.078 C 
ATOM      2  C1' OXE d   1      -0.683  -0.905   2.086  0.00  0.00     0.078 C 
ATOM      3  C1  OXE d   1      -0.157  -0.160   0.885  0.00  0.00    -0.078 A 
ATOM      4  C2  OXE d   1      -0.694   1.078   0.624  0.00  0.00    -0.078 A 
ATOM      5  C3  OXE d   1      -0.206   1.831  -0.440  0.00  0.00     0.003 A 
ATOM      6  C4  OXE d   1       0.717   1.278  -1.335  0.00  0.00    -0.002 A 
ATOM      7  C5  OXE d   1       1.248   0.003  -1.111  0.00  0.00    -0.002 A 
ATOM      8  C6  OXE d   1       0.854  -0.710   0.016  0.00  0.00     0.003 A 
ENDROOT
TORSDOF 0
ENDMDL
