MODEL 1
REMARK minimizedAffinity -5.64415312
REMARK minimizedRMSD -1
REMARK  0 active torsions:
REMARK  status: ('A' for Active; 'I' for Inactive)
ROOT
ATOM      1  C2' OXE d   1       0.776  -0.288  -0.776  0.00  0.00     0.078 C 
ATOM      2  C1' OXE d   1      -0.073   2.349  -1.227  0.00  0.00     0.078 C 
ATOM      3  C1  OXE d   1      -0.674   1.607  -0.059  0.00  0.00    -0.078 A 
ATOM      4  C2  OXE d   1      -0.288   0.301   0.126  0.00  0.00    -0.078 A 
ATOM      5  C3  OXE d   1      -0.770  -0.412   1.219  0.00  0.00     0.003 A 
ATOM      6  C4  OXE d   1      -1.761   0.137   2.043  0.00  0.00    -0.002 A 
ATOM      7  C5  OXE d   1      -2.197   1.451   1.848  0.00  0.00    -0.002 A 
ATOM      8  C6  OXE d   1      -1.634   2.213   0.829  0.00  0.00     0.003 A 
ENDROOT
TORSDOF 0
ENDMDL
