MODEL 1
REMARK minimizedAffinity -1.21598637
REMARK minimizedRMSD -1
REMARK  0 active torsions:
REMARK  status: ('A' for Active; 'I' for Inactive)
ROOT
ATOM      1  C2' OXE d   1       0.381  -1.408  -1.053  0.00  0.00     0.078 C 
ATOM      2  C1' OXE d   1       0.564   1.371  -1.407  0.00  0.00     0.078 C 
ATOM      3  C1  OXE d   1      -0.093   0.864  -0.147  0.00  0.00    -0.078 A 
ATOM      4  C2  OXE d   1      -0.220  -0.497  -0.004  0.00  0.00    -0.078 A 
ATOM      5  C3  OXE d   1      -0.768  -1.019   1.164  0.00  0.00     0.003 A 
ATOM      6  C4  OXE d   1      -1.330  -0.169   2.125  0.00  0.00    -0.002 A 
ATOM      7  C5  OXE d   1      -1.247   1.220   1.980  0.00  0.00    -0.002 A 
ATOM      8  C6  OXE d   1      -0.595   1.751   0.873  0.00  0.00     0.003 A 
ENDROOT
TORSDOF 0
ENDMDL
