MODEL 1
REMARK minimizedAffinity -5.49649048
REMARK minimizedRMSD -1
REMARK  0 active torsions:
REMARK  status: ('A' for Active; 'I' for Inactive)
ROOT
ATOM      1  C2' OXE d   1       1.389   0.037  -0.840  0.00  0.00     0.078 C 
ATOM      2  C1' OXE d   1      -0.568   1.913  -1.569  0.00  0.00     0.078 C 
ATOM      3  C1  OXE d   1      -0.710   1.232  -0.231  0.00  0.00    -0.078 A 
ATOM      4  C2  OXE d   1       0.226   0.281   0.097  0.00  0.00    -0.078 A 
ATOM      5  C3  OXE d   1       0.173  -0.338   1.343  0.00  0.00     0.003 A 
ATOM      6  C4  OXE d   1      -0.911  -0.114   2.200  0.00  0.00    -0.002 A 
ATOM      7  C5  OXE d   1      -1.897   0.821   1.868  0.00  0.00    -0.002 A 
ATOM      8  C6  OXE d   1      -1.789   1.532   0.678  0.00  0.00     0.003 A 
ENDROOT
TORSDOF 0
ENDMDL
