MODEL 1
REMARK minimizedAffinity -5.12263155
REMARK minimizedRMSD -1
REMARK  0 active torsions:
REMARK  status: ('A' for Active; 'I' for Inactive)
ROOT
ATOM      1  C2' OXE d   1       0.230  -1.539   2.524  0.00  0.00     0.078 C 
ATOM      2  C1' OXE d   1       0.704  -1.376  -0.238  0.00  0.00     0.078 C 
ATOM      3  C1  OXE d   1      -0.163  -0.314   0.391  0.00  0.00    -0.078 A 
ATOM      4  C2  OXE d   1      -0.428  -0.428   1.735  0.00  0.00    -0.078 A 
ATOM      5  C3  OXE d   1      -1.177   0.554   2.375  0.00  0.00     0.003 A 
ATOM      6  C4  OXE d   1      -1.790   1.573   1.636  0.00  0.00    -0.002 A 
ATOM      7  C5  OXE d   1      -1.566   1.685   0.260  0.00  0.00    -0.002 A 
ATOM      8  C6  OXE d   1      -0.723   0.776  -0.369  0.00  0.00     0.003 A 
ENDROOT
TORSDOF 0
ENDMDL
