MODEL 1
REMARK minimizedAffinity -5.68359089
REMARK minimizedRMSD -1
REMARK  0 active torsions:
REMARK  status: ('A' for Active; 'I' for Inactive)
ROOT
ATOM      1  C2' OXE d   1      -1.457   0.705   1.870  0.00  0.00     0.078 C 
ATOM      2  C1' OXE d   1       0.337  -0.185  -0.097  0.00  0.00     0.078 C 
ATOM      3  C1  OXE d   1      -0.156   1.238  -0.186  0.00  0.00    -0.078 A 
ATOM      4  C2  OXE d   1      -1.069   1.650   0.753  0.00  0.00    -0.078 A 
ATOM      5  C3  OXE d   1      -1.515   2.969   0.750  0.00  0.00     0.003 A 
ATOM      6  C4  OXE d   1      -1.159   3.834  -0.292  0.00  0.00    -0.002 A 
ATOM      7  C5  OXE d   1      -0.260   3.422  -1.282  0.00  0.00    -0.002 A 
ATOM      8  C6  OXE d   1       0.282   2.143  -1.220  0.00  0.00     0.003 A 
ENDROOT
TORSDOF 0
ENDMDL
