MODEL 1
REMARK minimizedAffinity -4.5202508
REMARK minimizedRMSD -1
REMARK  0 active torsions:
REMARK  status: ('A' for Active; 'I' for Inactive)
ROOT
ATOM      1  C2' OXE d   1      -1.488   1.121   2.226  0.00  0.00     0.078 C 
ATOM      2  C1' OXE d   1      -0.086  -0.332   0.277  0.00  0.00     0.078 C 
ATOM      3  C1  OXE d   1      -0.278   1.147   0.049  0.00  0.00    -0.078 A 
ATOM      4  C2  OXE d   1      -1.005   1.841   0.986  0.00  0.00    -0.078 A 
ATOM      5  C3  OXE d   1      -1.165   3.217   0.852  0.00  0.00     0.003 A 
ATOM      6  C4  OXE d   1      -0.724   3.874  -0.303  0.00  0.00    -0.002 A 
ATOM      7  C5  OXE d   1      -0.015   3.178  -1.288  0.00  0.00    -0.002 A 
ATOM      8  C6  OXE d   1       0.253   1.825  -1.107  0.00  0.00     0.003 A 
ENDROOT
TORSDOF 0
ENDMDL
