MODEL 1
REMARK minimizedAffinity -4.53989649
REMARK minimizedRMSD -1
REMARK  0 active torsions:
REMARK  status: ('A' for Active; 'I' for Inactive)
ROOT
ATOM      1  C2' OXE d   1       0.180  -1.272   2.083  0.00  0.00     0.078 C 
ATOM      2  C1' OXE d   1       0.990  -0.720  -0.547  0.00  0.00     0.078 C 
ATOM      3  C1  OXE d   1      -0.062   0.170   0.066  0.00  0.00    -0.078 A 
ATOM      4  C2  OXE d   1      -0.486  -0.136   1.337  0.00  0.00    -0.078 A 
ATOM      5  C3  OXE d   1      -1.415   0.685   1.969  0.00  0.00     0.003 A 
ATOM      6  C4  OXE d   1      -2.033   1.728   1.268  0.00  0.00    -0.002 A 
ATOM      7  C5  OXE d   1      -1.644   2.031  -0.041  0.00  0.00    -0.002 A 
ATOM      8  C6  OXE d   1      -0.632   1.290  -0.640  0.00  0.00     0.003 A 
ENDROOT
TORSDOF 0
ENDMDL
