MODEL 1
REMARK minimizedAffinity -3.53425598
REMARK minimizedRMSD -1
REMARK  0 active torsions:
REMARK  status: ('A' for Active; 'I' for Inactive)
ROOT
ATOM      1  C2' OXE d   1      -2.293   1.934   1.051  0.00  0.00     0.078 C 
ATOM      2  C1' OXE d   1      -0.848   2.377  -1.315  0.00  0.00     0.078 C 
ATOM      3  C1  OXE d   1      -0.494   1.164  -0.491  0.00  0.00    -0.078 A 
ATOM      4  C2  OXE d   1      -1.175   0.980   0.689  0.00  0.00    -0.078 A 
ATOM      5  C3  OXE d   1      -0.926  -0.152   1.459  0.00  0.00     0.003 A 
ATOM      6  C4  OXE d   1       0.117  -1.023   1.123  0.00  0.00    -0.002 A 
ATOM      7  C5  OXE d   1       0.849  -0.833  -0.054  0.00  0.00    -0.002 A 
ATOM      8  C6  OXE d   1       0.529   0.229  -0.892  0.00  0.00     0.003 A 
ENDROOT
TORSDOF 0
ENDMDL
