MODEL 1
REMARK minimizedAffinity -4.3431654
REMARK minimizedRMSD -1
REMARK  0 active torsions:
REMARK  status: ('A' for Active; 'I' for Inactive)
ROOT
ATOM      1  C2' OXE d   1       0.796  -1.115  -0.401  0.00  0.00     0.078 C 
ATOM      2  C1' OXE d   1      -0.054  -1.245   2.272  0.00  0.00     0.078 C 
ATOM      3  C1  OXE d   1      -0.540  -0.089   1.434  0.00  0.00    -0.078 A 
ATOM      4  C2  OXE d   1      -0.082  -0.008   0.141  0.00  0.00    -0.078 A 
ATOM      5  C3  OXE d   1      -0.542   1.008  -0.691  0.00  0.00     0.003 A 
ATOM      6  C4  OXE d   1      -1.346   2.034  -0.180  0.00  0.00    -0.002 A 
ATOM      7  C5  OXE d   1      -1.792   1.993   1.146  0.00  0.00    -0.002 A 
ATOM      8  C6  OXE d   1      -1.434   0.918   1.952  0.00  0.00     0.003 A 
ENDROOT
TORSDOF 0
ENDMDL
