MODEL 1
REMARK minimizedAffinity 9.79867649
REMARK minimizedRMSD -1
REMARK  0 active torsions:
REMARK  status: ('A' for Active; 'I' for Inactive)
ROOT
ATOM      1  C   UNL d   1       0.186  -5.358  -2.312  0.00  0.00     0.020 A 
ATOM      2  C1  UNL d   1      -0.614  -6.000  -1.367  0.00  0.00     0.020 A 
ATOM      3  C2  UNL d   1      -0.486  -5.683  -0.013  0.00  0.00     0.034 A 
ATOM      4  C3  UNL d   1       0.444  -4.722   0.400  0.00  0.00     0.017 A 
ATOM      5  C4  UNL d   1       1.246  -4.078  -0.549  0.00  0.00     0.017 A 
ATOM      6  C5  UNL d   1       1.114  -4.399  -1.904  0.00  0.00     0.034 A 
ATOM      7 Cl   UNL d   1       2.416  -2.881  -0.116  0.00  0.00    -0.070 Cl
ATOM      8 Cl1  UNL d   1       0.549  -4.379   2.090  0.00  0.00    -0.070 Cl
ENDROOT
TORSDOF 0
ENDMDL
