MODEL 1
REMARK minimizedAffinity 7.34808493
REMARK minimizedRMSD -1
REMARK  0 active torsions:
REMARK  status: ('A' for Active; 'I' for Inactive)
ROOT
ATOM      1  C   UNL d   1       5.900   4.902   6.000  0.00  0.00     0.020 A 
ATOM      2  C1  UNL d   1       5.148   5.999   5.583  0.00  0.00     0.020 A 
ATOM      3  C2  UNL d   1       4.495   5.970   4.349  0.00  0.00     0.034 A 
ATOM      4  C3  UNL d   1       4.593   4.842   3.527  0.00  0.00     0.017 A 
ATOM      5  C4  UNL d   1       5.348   3.740   3.946  0.00  0.00     0.017 A 
ATOM      6  C5  UNL d   1       6.000   3.775   5.183  0.00  0.00     0.034 A 
ATOM      7 Cl   UNL d   1       5.516   2.312   2.987  0.00  0.00    -0.070 Cl
ATOM      8 Cl1  UNL d   1       3.759   4.874   2.014  0.00  0.00    -0.070 Cl
ENDROOT
TORSDOF 0
ENDMDL
