MODEL 1
REMARK minimizedAffinity 6.27029419
REMARK minimizedRMSD -1
REMARK  0 active torsions:
REMARK  status: ('A' for Active; 'I' for Inactive)
ROOT
ATOM      1  C   UNL d   1       5.164   5.949   1.498  0.00  0.00     0.020 A 
ATOM      2  C1  UNL d   1       5.168   4.788   0.725  0.00  0.00     0.020 A 
ATOM      3  C2  UNL d   1       5.428   3.553   1.322  0.00  0.00     0.034 A 
ATOM      4  C3  UNL d   1       5.685   3.475   2.696  0.00  0.00     0.017 A 
ATOM      5  C4  UNL d   1       5.681   4.641   3.471  0.00  0.00     0.017 A 
ATOM      6  C5  UNL d   1       5.420   5.875   2.868  0.00  0.00     0.034 A 
ATOM      7 Cl   UNL d   1       5.990   4.624   5.171  0.00  0.00    -0.070 Cl
ATOM      8 Cl1  UNL d   1       5.998   1.914   3.368  0.00  0.00    -0.070 Cl
ENDROOT
TORSDOF 0
ENDMDL
