MODEL 1
REMARK minimizedAffinity 13.8471346
REMARK minimizedRMSD -1
REMARK  0 active torsions:
REMARK  status: ('A' for Active; 'I' for Inactive)
ROOT
ATOM      1  C   UNL d   1       1.109   0.762  -5.451  0.00  0.00     0.020 A 
ATOM      2  C1  UNL d   1       1.511   1.086  -4.156  0.00  0.00     0.020 A 
ATOM      3  C2  UNL d   1       0.780   2.012  -3.409  0.00  0.00     0.034 A 
ATOM      4  C3  UNL d   1      -0.357   2.618  -3.956  0.00  0.00     0.017 A 
ATOM      5  C4  UNL d   1      -0.759   2.292  -5.257  0.00  0.00     0.017 A 
ATOM      6  C5  UNL d   1      -0.023   1.364  -6.000  0.00  0.00     0.034 A 
ATOM      7 Cl   UNL d   1      -2.151   2.998  -6.000  0.00  0.00    -0.070 Cl
ATOM      8 Cl1  UNL d   1      -1.213   3.754  -2.976  0.00  0.00    -0.070 Cl
ENDROOT
TORSDOF 0
ENDMDL
