MODEL 1
REMARK minimizedAffinity 15.0159883
REMARK minimizedRMSD -1
REMARK  0 active torsions:
REMARK  status: ('A' for Active; 'I' for Inactive)
ROOT
ATOM      1  C   UNL d   1       5.297   5.972   1.615  0.00  0.00     0.020 A 
ATOM      2  C1  UNL d   1       4.044   5.978   1.003  0.00  0.00     0.020 A 
ATOM      3  C2  UNL d   1       3.268   4.817   0.991  0.00  0.00     0.034 A 
ATOM      4  C3  UNL d   1       3.743   3.646   1.592  0.00  0.00     0.017 A 
ATOM      5  C4  UNL d   1       5.001   3.641   2.206  0.00  0.00     0.017 A 
ATOM      6  C5  UNL d   1       5.774   4.806   2.215  0.00  0.00     0.034 A 
ATOM      7 Cl   UNL d   1       5.655   2.234   2.968  0.00  0.00    -0.070 Cl
ATOM      8 Cl1  UNL d   1       2.730   2.247   1.539  0.00  0.00    -0.070 Cl
ENDROOT
TORSDOF 0
ENDMDL
