MODEL 1
REMARK minimizedAffinity 12.062108
REMARK minimizedRMSD -1
REMARK  0 active torsions:
REMARK  status: ('A' for Active; 'I' for Inactive)
ROOT
ATOM      1  C   UNL d   1      -0.756   2.235  -5.664  0.00  0.00     0.020 A 
ATOM      2  C1  UNL d   1      -0.910   1.381  -4.572  0.00  0.00     0.020 A 
ATOM      3  C2  UNL d   1       0.203   1.008  -3.816  0.00  0.00     0.034 A 
ATOM      4  C3  UNL d   1       1.475   1.488  -4.150  0.00  0.00     0.017 A 
ATOM      5  C4  UNL d   1       1.628   2.345  -5.246  0.00  0.00     0.017 A 
ATOM      6  C5  UNL d   1       0.510   2.716  -6.000  0.00  0.00     0.034 A 
ATOM      7 Cl   UNL d   1       3.164   2.979  -5.720  0.00  0.00    -0.070 Cl
ATOM      8 Cl1  UNL d   1       2.807   0.986  -3.171  0.00  0.00    -0.070 Cl
ENDROOT
TORSDOF 0
ENDMDL
