MODEL 1
REMARK minimizedAffinity 0.325807065
REMARK minimizedRMSD -1
REMARK  0 active torsions:
REMARK  status: ('A' for Active; 'I' for Inactive)
ROOT
ATOM      1  C   UNL d   1       3.034   2.040   1.241  0.00  0.00     0.020 A 
ATOM      2  C1  UNL d   1       2.233   1.830   2.362  0.00  0.00     0.020 A 
ATOM      3  C2  UNL d   1       1.887   2.905   3.184  0.00  0.00     0.034 A 
ATOM      4  C3  UNL d   1       2.343   4.194   2.886  0.00  0.00     0.017 A 
ATOM      5  C4  UNL d   1       3.148   4.403   1.760  0.00  0.00     0.017 A 
ATOM      6  C5  UNL d   1       3.491   3.324   0.941  0.00  0.00     0.034 A 
ATOM      7 Cl   UNL d   1       3.748   5.965   1.328  0.00  0.00    -0.070 Cl
ATOM      8 Cl1  UNL d   1       1.876   5.476   3.946  0.00  0.00    -0.070 Cl
ENDROOT
TORSDOF 0
ENDMDL
