MODEL 1
REMARK minimizedAffinity 1.17369139
REMARK minimizedRMSD -1
REMARK  0 active torsions:
REMARK  status: ('A' for Active; 'I' for Inactive)
ROOT
ATOM      1  C   UNL d   1       3.739   4.100   3.742  0.00  0.00     0.020 A 
ATOM      2  C1  UNL d   1       4.076   5.441   3.561  0.00  0.00     0.020 A 
ATOM      3  C2  UNL d   1       4.056   5.999   2.281  0.00  0.00     0.034 A 
ATOM      4  C3  UNL d   1       3.699   5.215   1.177  0.00  0.00     0.017 A 
ATOM      5  C4  UNL d   1       3.362   3.869   1.360  0.00  0.00     0.017 A 
ATOM      6  C5  UNL d   1       3.383   3.316   2.644  0.00  0.00     0.034 A 
ATOM      7 Cl   UNL d   1       2.911   2.840   0.047  0.00  0.00    -0.070 Cl
ATOM      8 Cl1  UNL d   1       3.696   5.970  -0.377  0.00  0.00    -0.070 Cl
ENDROOT
TORSDOF 0
ENDMDL
