MODEL 1
REMARK minimizedAffinity 3.49023581
REMARK minimizedRMSD -1
REMARK  0 active torsions:
REMARK  status: ('A' for Active; 'I' for Inactive)
ROOT
ATOM      1  C   UNL d   1      -5.968   4.115  -5.997  0.00  0.00     0.020 A 
ATOM      2  C1  UNL d   1      -5.723   2.743  -5.998  0.00  0.00     0.020 A 
ATOM      3  C2  UNL d   1      -4.410   2.268  -5.998  0.00  0.00     0.034 A 
ATOM      4  C3  UNL d   1      -3.337   3.166  -5.998  0.00  0.00     0.017 A 
ATOM      5  C4  UNL d   1      -3.584   4.544  -5.997  0.00  0.00     0.017 A 
ATOM      6  C5  UNL d   1      -4.900   5.014  -5.997  0.00  0.00     0.034 A 
ATOM      7 Cl   UNL d   1      -2.311   5.713  -5.997  0.00  0.00    -0.070 Cl
ATOM      8 Cl1  UNL d   1      -1.739   2.508  -5.998  0.00  0.00    -0.070 Cl
ENDROOT
TORSDOF 0
ENDMDL
