MODEL 1
REMARK minimizedAffinity 2.06670761
REMARK minimizedRMSD -1
REMARK  0 active torsions:
REMARK  status: ('A' for Active; 'I' for Inactive)
ROOT
ATOM      1  C   UNL d   1      -5.296   1.991  -5.992  0.00  0.00     0.020 A 
ATOM      2  C1  UNL d   1      -5.939   3.228  -5.998  0.00  0.00     0.020 A 
ATOM      3  C2  UNL d   1      -5.187   4.405  -6.000  0.00  0.00     0.034 A 
ATOM      4  C3  UNL d   1      -3.789   4.348  -5.996  0.00  0.00     0.017 A 
ATOM      5  C4  UNL d   1      -3.145   3.105  -5.990  0.00  0.00     0.017 A 
ATOM      6  C5  UNL d   1      -3.902   1.930  -5.988  0.00  0.00     0.034 A 
ATOM      7 Cl   UNL d   1      -1.423   2.954  -5.985  0.00  0.00    -0.070 Cl
ATOM      8 Cl1  UNL d   1      -2.923   5.843  -6.000  0.00  0.00    -0.070 Cl
ENDROOT
TORSDOF 0
ENDMDL
