MODEL 1
REMARK minimizedAffinity 3.87453103
REMARK minimizedRMSD -1
REMARK  0 active torsions:
REMARK  status: ('A' for Active; 'I' for Inactive)
ROOT
ATOM      1  C   UNL d   1       0.007  -2.268   1.273  0.00  0.00     0.020 A 
ATOM      2  C1  UNL d   1       1.230  -1.649   1.016  0.00  0.00     0.020 A 
ATOM      3  C2  UNL d   1       1.291  -0.263   0.855  0.00  0.00     0.034 A 
ATOM      4  C3  UNL d   1       0.127   0.508   0.951  0.00  0.00     0.017 A 
ATOM      5  C4  UNL d   1      -1.100  -0.114   1.209  0.00  0.00     0.017 A 
ATOM      6  C5  UNL d   1      -1.155  -1.502   1.370  0.00  0.00     0.034 A 
ATOM      7 Cl   UNL d   1      -2.579   0.771   1.342  0.00  0.00    -0.070 Cl
ATOM      8 Cl1  UNL d   1       0.276   2.217   0.742  0.00  0.00    -0.070 Cl
ENDROOT
TORSDOF 0
ENDMDL
