MODEL 1
REMARK minimizedAffinity -1.08505404
REMARK minimizedRMSD -1
REMARK  0 active torsions:
REMARK  status: ('A' for Active; 'I' for Inactive)
ROOT
ATOM      1  C   UNL d   1      -0.094   3.950  -5.982  0.00  0.00     0.020 A 
ATOM      2  C1  UNL d   1      -0.288   5.330  -5.994  0.00  0.00     0.020 A 
ATOM      3  C2  UNL d   1      -1.583   5.852  -5.998  0.00  0.00     0.034 A 
ATOM      4  C3  UNL d   1      -2.689   4.994  -5.991  0.00  0.00     0.017 A 
ATOM      5  C4  UNL d   1      -2.492   3.608  -5.979  0.00  0.00     0.017 A 
ATOM      6  C5  UNL d   1      -1.193   3.091  -5.975  0.00  0.00     0.034 A 
ATOM      7 Cl   UNL d   1      -3.806   2.486  -5.970  0.00  0.00    -0.070 Cl
ATOM      8 Cl1  UNL d   1      -4.262   5.709  -5.996  0.00  0.00    -0.070 Cl
ENDROOT
TORSDOF 0
ENDMDL
