MODEL 1
REMARK minimizedAffinity -2.85266042
REMARK minimizedRMSD -1
REMARK  0 active torsions:
REMARK  status: ('A' for Active; 'I' for Inactive)
ROOT
ATOM      1  C   UNL d   1       0.845   1.676  -5.658  0.00  0.00     0.020 A 
ATOM      2  C1  UNL d   1       1.354   2.952  -5.898  0.00  0.00     0.020 A 
ATOM      3  C2  UNL d   1       0.487   4.042  -6.000  0.00  0.00     0.034 A 
ATOM      4  C3  UNL d   1      -0.893   3.858  -5.862  0.00  0.00     0.017 A 
ATOM      5  C4  UNL d   1      -1.403   2.577  -5.621  0.00  0.00     0.017 A 
ATOM      6  C5  UNL d   1      -0.531   1.489  -5.520  0.00  0.00     0.034 A 
ATOM      7 Cl   UNL d   1      -3.095   2.272  -5.440  0.00  0.00    -0.070 Cl
ATOM      8 Cl1  UNL d   1      -1.907   5.251  -6.000  0.00  0.00    -0.070 Cl
ENDROOT
TORSDOF 0
ENDMDL
