MODEL 1
REMARK minimizedAffinity 1.39887869
REMARK minimizedRMSD -1
REMARK  0 active torsions:
REMARK  status: ('A' for Active; 'I' for Inactive)
ROOT
ATOM      1  C   UNL d   1       0.779   4.058  -5.965  0.00  0.00     0.020 A 
ATOM      2  C1  UNL d   1       0.598   5.441  -5.985  0.00  0.00     0.020 A 
ATOM      3  C2  UNL d   1      -0.691   5.976  -5.992  0.00  0.00     0.034 A 
ATOM      4  C3  UNL d   1      -1.805   5.129  -5.980  0.00  0.00     0.017 A 
ATOM      5  C4  UNL d   1      -1.623   3.742  -5.960  0.00  0.00     0.017 A 
ATOM      6  C5  UNL d   1      -0.330   3.211  -5.952  0.00  0.00     0.034 A 
ATOM      7 Cl   UNL d   1      -2.949   2.633  -5.943  0.00  0.00    -0.070 Cl
ATOM      8 Cl1  UNL d   1      -3.371   5.861  -5.990  0.00  0.00    -0.070 Cl
ENDROOT
TORSDOF 0
ENDMDL
