MODEL 1
REMARK minimizedAffinity -1.97371876
REMARK minimizedRMSD -1
REMARK  0 active torsions:
REMARK  status: ('A' for Active; 'I' for Inactive)
ROOT
ATOM      1  C   UNL d   1      -3.938   3.488  -5.999  0.00  0.00     0.020 A 
ATOM      2  C1  UNL d   1      -3.355   2.222  -5.997  0.00  0.00     0.020 A 
ATOM      3  C2  UNL d   1      -1.965   2.093  -5.996  0.00  0.00     0.034 A 
ATOM      4  C3  UNL d   1      -1.152   3.232  -5.997  0.00  0.00     0.017 A 
ATOM      5  C4  UNL d   1      -1.738   4.503  -5.999  0.00  0.00     0.017 A 
ATOM      6  C5  UNL d   1      -3.130   4.627  -6.000  0.00  0.00     0.034 A 
ATOM      7 Cl   UNL d   1      -0.800   5.956  -6.000  0.00  0.00    -0.070 Cl
ATOM      8 Cl1  UNL d   1       0.560   2.998  -5.994  0.00  0.00    -0.070 Cl
ENDROOT
TORSDOF 0
ENDMDL
