MODEL 1
REMARK minimizedAffinity 3.94349051
REMARK minimizedRMSD -1
REMARK  0 active torsions:
REMARK  status: ('A' for Active; 'I' for Inactive)
ROOT
ATOM      1  C   UNL d   1      -0.782   2.337  -5.989  0.00  0.00     0.020 A 
ATOM      2  C1  UNL d   1      -0.506   3.703  -5.993  0.00  0.00     0.020 A 
ATOM      3  C2  UNL d   1      -1.553   4.627  -5.996  0.00  0.00     0.034 A 
ATOM      4  C3  UNL d   1      -2.882   4.185  -5.995  0.00  0.00     0.017 A 
ATOM      5  C4  UNL d   1      -3.158   2.813  -5.990  0.00  0.00     0.017 A 
ATOM      6  C5  UNL d   1      -2.105   1.893  -5.987  0.00  0.00     0.034 A 
ATOM      7 Cl   UNL d   1      -4.770   2.192  -5.988  0.00  0.00    -0.070 Cl
ATOM      8 Cl1  UNL d   1      -4.127   5.383  -5.998  0.00  0.00    -0.070 Cl
ENDROOT
TORSDOF 0
ENDMDL
