MODEL 1
REMARK minimizedAffinity 2.19425821
REMARK minimizedRMSD -1
REMARK  0 active torsions:
REMARK  status: ('A' for Active; 'I' for Inactive)
ROOT
ATOM      1  C   UNL d   1      -3.050   3.567  -5.998  0.00  0.00     0.020 A 
ATOM      2  C1  UNL d   1      -2.613   2.243  -5.992  0.00  0.00     0.020 A 
ATOM      3  C2  UNL d   1      -1.245   1.960  -5.987  0.00  0.00     0.034 A 
ATOM      4  C3  UNL d   1      -0.310   3.001  -5.988  0.00  0.00     0.017 A 
ATOM      5  C4  UNL d   1      -0.751   4.330  -5.994  0.00  0.00     0.017 A 
ATOM      6  C5  UNL d   1      -2.121   4.608  -5.999  0.00  0.00     0.034 A 
ATOM      7 Cl   UNL d   1       0.343   5.669  -5.996  0.00  0.00    -0.070 Cl
ATOM      8 Cl1  UNL d   1       1.365   2.578  -5.981  0.00  0.00    -0.070 Cl
ENDROOT
TORSDOF 0
ENDMDL
