MODEL 1
REMARK minimizedAffinity 4.88403702
REMARK minimizedRMSD -1
REMARK  0 active torsions:
REMARK  status: ('A' for Active; 'I' for Inactive)
ROOT
ATOM      1  C   UNL d   1       2.388   3.937  -5.545  0.00  0.00     0.020 A 
ATOM      2  C1  UNL d   1       1.311   4.697  -6.000  0.00  0.00     0.020 A 
ATOM      3  C2  UNL d   1       0.023   4.156  -5.996  0.00  0.00     0.034 A 
ATOM      4  C3  UNL d   1      -0.190   2.851  -5.537  0.00  0.00     0.017 A 
ATOM      5  C4  UNL d   1       0.891   2.089  -5.081  0.00  0.00     0.017 A 
ATOM      6  C5  UNL d   1       2.178   2.636  -5.087  0.00  0.00     0.034 A 
ATOM      7 Cl   UNL d   1       0.706   0.472  -4.500  0.00  0.00    -0.070 Cl
ATOM      8 Cl1  UNL d   1      -1.809   2.246  -5.561  0.00  0.00    -0.070 Cl
ENDROOT
TORSDOF 0
ENDMDL
