MODEL 1
REMARK minimizedAffinity 8.34306908
REMARK minimizedRMSD -1
REMARK  0 active torsions:
REMARK  status: ('A' for Active; 'I' for Inactive)
ROOT
ATOM      1  C   UNL d   1      -0.001   1.635   2.908  0.00  0.00     0.077 C 
ATOM      2  C1  UNL d   1      -0.185   2.185   1.524  0.00  0.00    -0.074 A 
ATOM      3  C2  UNL d   1      -0.586   1.358   0.470  0.00  0.00    -0.005 A 
ATOM      4  C3  UNL d   1      -0.763   1.886  -0.809  0.00  0.00     0.006 A 
ATOM      5  C4  UNL d   1      -0.540   3.243  -1.046  0.00  0.00    -0.005 A 
ATOM      6  C5  UNL d   1      -0.139   4.085  -0.004  0.00  0.00    -0.074 A 
ATOM      7  C6  UNL d   1       0.095   5.547  -0.240  0.00  0.00     0.077 C 
ATOM      8  C7  UNL d   1       0.029   3.549   1.280  0.00  0.00    -0.001 A 
ENDROOT
TORSDOF 0
ENDMDL
