MODEL 1
REMARK minimizedAffinity 4.31439781
REMARK minimizedRMSD -1
REMARK  0 active torsions:
REMARK  status: ('A' for Active; 'I' for Inactive)
ROOT
ATOM      1  C   UNL d   1       2.390   3.055   3.197  0.00  0.00     0.077 C 
ATOM      2  C1  UNL d   1       1.097   2.991   2.440  0.00  0.00    -0.074 A 
ATOM      3  C2  UNL d   1      -0.023   2.353   2.982  0.00  0.00    -0.005 A 
ATOM      4  C3  UNL d   1      -1.221   2.309   2.270  0.00  0.00     0.006 A 
ATOM      5  C4  UNL d   1      -1.312   2.904   1.011  0.00  0.00    -0.005 A 
ATOM      6  C5  UNL d   1      -0.203   3.548   0.453  0.00  0.00    -0.074 A 
ATOM      7  C6  UNL d   1      -0.287   4.200  -0.895  0.00  0.00     0.077 C 
ATOM      8  C7  UNL d   1       0.995   3.593   1.178  0.00  0.00    -0.001 A 
ENDROOT
TORSDOF 0
ENDMDL
