MODEL 1
REMARK minimizedAffinity 7.007967
REMARK minimizedRMSD -1
REMARK  0 active torsions:
REMARK  status: ('A' for Active; 'I' for Inactive)
ROOT
ATOM      1  C   UNL d   1       1.105  -1.317  -1.894  0.00  0.00     0.077 C 
ATOM      2  C1  UNL d   1       2.196  -2.115  -1.245  0.00  0.00    -0.074 A 
ATOM      3  C2  UNL d   1       1.899  -3.233  -0.458  0.00  0.00    -0.005 A 
ATOM      4  C3  UNL d   1       2.925  -3.971   0.131  0.00  0.00     0.006 A 
ATOM      5  C4  UNL d   1       4.257  -3.600  -0.060  0.00  0.00    -0.005 A 
ATOM      6  C5  UNL d   1       4.573  -2.486  -0.845  0.00  0.00    -0.074 A 
ATOM      7  C6  UNL d   1       6.000  -2.080  -1.069  0.00  0.00     0.077 C 
ATOM      8  C7  UNL d   1       3.537  -1.754  -1.439  0.00  0.00    -0.001 A 
ENDROOT
TORSDOF 0
ENDMDL
