MODEL 1
REMARK minimizedAffinity 4.51888657
REMARK minimizedRMSD -1
REMARK  0 active torsions:
REMARK  status: ('A' for Active; 'I' for Inactive)
ROOT
ATOM      1  C   UNL d   1      -1.110   2.129   2.502  0.00  0.00     0.077 C 
ATOM      2  C1  UNL d   1      -0.944   2.622   1.095  0.00  0.00    -0.074 A 
ATOM      3  C2  UNL d   1      -0.712   1.731   0.043  0.00  0.00    -0.005 A 
ATOM      4  C3  UNL d   1      -0.570   2.203  -1.262  0.00  0.00     0.006 A 
ATOM      5  C4  UNL d   1      -0.659   3.570  -1.527  0.00  0.00    -0.005 A 
ATOM      6  C5  UNL d   1      -0.892   4.477  -0.488  0.00  0.00    -0.074 A 
ATOM      7  C6  UNL d   1      -1.000   5.949  -0.757  0.00  0.00     0.077 C 
ATOM      8  C7  UNL d   1      -1.040   3.993   0.819  0.00  0.00    -0.001 A 
ENDROOT
TORSDOF 0
ENDMDL
