MODEL 1
REMARK minimizedAffinity 11.1040325
REMARK minimizedRMSD -1
REMARK  0 active torsions:
REMARK  status: ('A' for Active; 'I' for Inactive)
ROOT
ATOM      1  C   UNL d   1       0.287  -1.389  -2.533  0.00  0.00     0.077 C 
ATOM      2  C1  UNL d   1      -0.628  -0.453  -1.801  0.00  0.00    -0.074 A 
ATOM      3  C2  UNL d   1      -1.953  -0.810  -1.528  0.00  0.00    -0.005 A 
ATOM      4  C3  UNL d   1      -2.789   0.068  -0.838  0.00  0.00     0.006 A 
ATOM      5  C4  UNL d   1      -2.311   1.309  -0.416  0.00  0.00    -0.005 A 
ATOM      6  C5  UNL d   1      -0.990   1.683  -0.680  0.00  0.00    -0.074 A 
ATOM      7  C6  UNL d   1      -0.457   3.009  -0.225  0.00  0.00     0.077 C 
ATOM      8  C7  UNL d   1      -0.153   0.793  -1.367  0.00  0.00    -0.001 A 
ENDROOT
TORSDOF 0
ENDMDL
