MODEL 1
REMARK minimizedAffinity 13.5055246
REMARK minimizedRMSD -1
REMARK  0 active torsions:
REMARK  status: ('A' for Active; 'I' for Inactive)
ROOT
ATOM      1  C   UNL d   1      -0.886   2.606  -0.389  0.00  0.00     0.077 C 
ATOM      2  C1  UNL d   1      -1.252   1.228  -0.857  0.00  0.00    -0.074 A 
ATOM      3  C2  UNL d   1      -2.575   0.777  -0.800  0.00  0.00    -0.005 A 
ATOM      4  C3  UNL d   1      -2.901  -0.503  -1.247  0.00  0.00     0.006 A 
ATOM      5  C4  UNL d   1      -1.910  -1.344  -1.754  0.00  0.00    -0.005 A 
ATOM      6  C5  UNL d   1      -0.582  -0.910  -1.820  0.00  0.00    -0.074 A 
ATOM      7  C6  UNL d   1       0.494  -1.798  -2.371  0.00  0.00     0.077 C 
ATOM      8  C7  UNL d   1      -0.263   0.380  -1.375  0.00  0.00    -0.001 A 
ENDROOT
TORSDOF 0
ENDMDL
