MODEL 1
REMARK minimizedAffinity 11.9013891
REMARK minimizedRMSD -1
REMARK  0 active torsions:
REMARK  status: ('A' for Active; 'I' for Inactive)
ROOT
ATOM      1  C   UNL d   1       0.587   2.627   2.788  0.00  0.00     0.077 C 
ATOM      2  C1  UNL d   1       0.177   2.958   1.384  0.00  0.00    -0.074 A 
ATOM      3  C2  UNL d   1      -0.386   1.986   0.550  0.00  0.00    -0.005 A 
ATOM      4  C3  UNL d   1      -0.772   2.312  -0.750  0.00  0.00     0.006 A 
ATOM      5  C4  UNL d   1      -0.598   3.611  -1.229  0.00  0.00    -0.005 A 
ATOM      6  C5  UNL d   1      -0.038   4.597  -0.411  0.00  0.00    -0.074 A 
ATOM      7  C6  UNL d   1       0.146   6.000  -0.907  0.00  0.00     0.077 C 
ATOM      8  C7  UNL d   1       0.340   4.263   0.897  0.00  0.00    -0.001 A 
ENDROOT
TORSDOF 0
ENDMDL
