MODEL 1
REMARK minimizedAffinity -0.108580746
REMARK minimizedRMSD -1
REMARK  0 active torsions:
REMARK  status: ('A' for Active; 'I' for Inactive)
ROOT
ATOM      1  C   UNL d   1      -0.402   2.166   2.435  0.00  0.00     0.077 C 
ATOM      2  C1  UNL d   1      -0.570   2.623   1.016  0.00  0.00    -0.074 A 
ATOM      3  C2  UNL d   1      -0.829   1.706  -0.008  0.00  0.00    -0.005 A 
ATOM      4  C3  UNL d   1      -0.992   2.146  -1.321  0.00  0.00     0.006 A 
ATOM      5  C4  UNL d   1      -0.899   3.506  -1.623  0.00  0.00    -0.005 A 
ATOM      6  C5  UNL d   1      -0.642   4.437  -0.612  0.00  0.00    -0.074 A 
ATOM      7  C6  UNL d   1      -0.549   5.902  -0.918  0.00  0.00     0.077 C 
ATOM      8  C7  UNL d   1      -0.486   3.987   0.706  0.00  0.00    -0.001 A 
ENDROOT
TORSDOF 0
ENDMDL
