MODEL 1
REMARK minimizedAffinity 3.78632569
REMARK minimizedRMSD -1
REMARK  0 active torsions:
REMARK  status: ('A' for Active; 'I' for Inactive)
ROOT
ATOM      1  C   UNL d   1       1.772  -0.577  -0.610  0.00  0.00    -0.002 A 
ATOM      2  C1  UNL d   1       1.703   0.028  -1.857  0.00  0.00     0.010 A 
ATOM      3  C2  UNL d   1       1.431   1.393  -1.971  0.00  0.00     0.041 A 
ATOM      4  C3  UNL d   1       1.229   2.147  -0.798  0.00  0.00    -0.075 A 
ATOM      5  S   UNL d   1       0.883   3.833  -0.693  0.00  0.00     0.015 SA
ATOM      6  C4  UNL d   1       0.820   3.790   1.009  0.00  0.00     0.022 A 
ATOM      7  C5  UNL d   1       1.054   2.528   1.503  0.00  0.00     0.026 A 
ATOM      8  C6  UNL d   1       1.294   1.561   0.469  0.00  0.00    -0.082 A 
ATOM      9  C7  UNL d   1       1.571   0.175   0.551  0.00  0.00     0.045 A 
ENDROOT
TORSDOF 0
ENDMDL
