MODEL 1
REMARK minimizedAffinity 1.90524614
REMARK minimizedRMSD -1
REMARK  0 active torsions:
REMARK  status: ('A' for Active; 'I' for Inactive)
ROOT
ATOM      1  C   UNL d   1       0.922   2.324   0.162  0.00  0.00    -0.002 A 
ATOM      2  C1  UNL d   1       1.184   2.325  -1.201  0.00  0.00     0.010 A 
ATOM      3  C2  UNL d   1       1.382   1.125  -1.887  0.00  0.00     0.041 A 
ATOM      4  C3  UNL d   1       1.310  -0.088  -1.174  0.00  0.00    -0.075 A 
ATOM      5  S   UNL d   1       1.517  -1.679  -1.805  0.00  0.00     0.015 SA
ATOM      6  C4  UNL d   1       1.262  -2.397  -0.281  0.00  0.00     0.022 A 
ATOM      7  C5  UNL d   1       1.023  -1.461   0.697  0.00  0.00     0.026 A 
ATOM      8  C6  UNL d   1       1.046  -0.115   0.199  0.00  0.00    -0.082 A 
ATOM      9  C7  UNL d   1       0.851   1.119   0.866  0.00  0.00     0.045 A 
ENDROOT
TORSDOF 0
ENDMDL
