MODEL 1
REMARK minimizedAffinity -1.00610816
REMARK minimizedRMSD -1
REMARK  0 active torsions:
REMARK  status: ('A' for Active; 'I' for Inactive)
ROOT
ATOM      1  C   UNL d   1       1.716  -0.520  -1.363  0.00  0.00    -0.002 A 
ATOM      2  C1  UNL d   1       1.550  -0.559   0.014  0.00  0.00     0.010 A 
ATOM      3  C2  UNL d   1       1.305   0.612   0.734  0.00  0.00     0.041 A 
ATOM      4  C3  UNL d   1       1.227   1.835   0.039  0.00  0.00    -0.075 A 
ATOM      5  S   UNL d   1       0.935   3.396   0.711  0.00  0.00     0.015 SA
ATOM      6  C4  UNL d   1       1.022   4.151  -0.814  0.00  0.00     0.022 A 
ATOM      7  C5  UNL d   1       1.268   3.250  -1.823  0.00  0.00     0.026 A 
ATOM      8  C6  UNL d   1       1.390   1.900  -1.348  0.00  0.00    -0.082 A 
ATOM      9  C7  UNL d   1       1.638   0.695  -2.049  0.00  0.00     0.045 A 
ENDROOT
TORSDOF 0
ENDMDL
