MODEL 1
REMARK minimizedAffinity 16.7485943
REMARK minimizedRMSD -1
REMARK  0 active torsions:
REMARK  status: ('A' for Active; 'I' for Inactive)
ROOT
ATOM      1  C   UNL d   1       0.819   2.347  -1.739  0.00  0.00    -0.002 A 
ATOM      2  C1  UNL d   1       0.578   1.088  -2.269  0.00  0.00     0.010 A 
ATOM      3  C2  UNL d   1       1.129  -0.050  -1.676  0.00  0.00     0.041 A 
ATOM      4  C3  UNL d   1       1.933   0.101  -0.529  0.00  0.00    -0.075 A 
ATOM      5  S   UNL d   1       2.712  -1.149   0.367  0.00  0.00     0.015 SA
ATOM      6  C4  UNL d   1       3.382  -0.041   1.474  0.00  0.00     0.022 A 
ATOM      7  C5  UNL d   1       3.031   1.256   1.183  0.00  0.00     0.026 A 
ATOM      8  C6  UNL d   1       2.189   1.359   0.024  0.00  0.00    -0.082 A 
ATOM      9  C7  UNL d   1       1.617   2.493  -0.601  0.00  0.00     0.045 A 
ENDROOT
TORSDOF 0
ENDMDL
