MODEL 1
REMARK minimizedAffinity 2.99813628
REMARK minimizedRMSD -1
REMARK  0 active torsions:
REMARK  status: ('A' for Active; 'I' for Inactive)
ROOT
ATOM      1  C   UNL d   1       1.115  -0.009  -1.493  0.00  0.00    -0.002 A 
ATOM      2  C1  UNL d   1       1.264  -0.093  -0.116  0.00  0.00     0.010 A 
ATOM      3  C2  UNL d   1       1.309   1.064   0.665  0.00  0.00     0.041 A 
ATOM      4  C3  UNL d   1       1.198   2.318   0.033  0.00  0.00    -0.075 A 
ATOM      5  S   UNL d   1       1.226   3.868   0.786  0.00  0.00     0.015 SA
ATOM      6  C4  UNL d   1       1.039   4.678  -0.702  0.00  0.00     0.022 A 
ATOM      7  C5  UNL d   1       0.956   3.802  -1.758  0.00  0.00     0.026 A 
ATOM      8  C6  UNL d   1       1.046   2.427  -1.353  0.00  0.00    -0.082 A 
ATOM      9  C7  UNL d   1       1.005   1.236  -2.117  0.00  0.00     0.045 A 
ENDROOT
TORSDOF 0
ENDMDL
