MODEL 1
REMARK minimizedAffinity -2.11244845
REMARK minimizedRMSD -1
REMARK  0 active torsions:
REMARK  status: ('A' for Active; 'I' for Inactive)
ROOT
ATOM      1  C   UNL d   1       0.731  -0.130  -0.094  0.00  0.00    -0.002 A 
ATOM      2  C1  UNL d   1       0.861   0.307   1.217  0.00  0.00     0.010 A 
ATOM      3  C2  UNL d   1       1.026   1.664   1.500  0.00  0.00     0.041 A 
ATOM      4  C3  UNL d   1       1.056   2.584   0.434  0.00  0.00    -0.075 A 
ATOM      5  S   UNL d   1       1.247   4.294   0.541  0.00  0.00     0.015 SA
ATOM      6  C4  UNL d   1       1.160   4.485  -1.150  0.00  0.00     0.022 A 
ATOM      7  C5  UNL d   1       0.990   3.283  -1.797  0.00  0.00     0.026 A 
ATOM      8  C6  UNL d   1       0.927   2.168  -0.895  0.00  0.00    -0.082 A 
ATOM      9  C7  UNL d   1       0.762   0.785  -1.149  0.00  0.00     0.045 A 
ENDROOT
TORSDOF 0
ENDMDL
