MODEL 1
REMARK minimizedAffinity -1.01810741
REMARK minimizedRMSD -1
REMARK  0 active torsions:
REMARK  status: ('A' for Active; 'I' for Inactive)
ROOT
ATOM      1  C   UNL d   1       1.016  -0.024  -1.173  0.00  0.00    -0.002 A 
ATOM      2  C1  UNL d   1       0.875  -0.007   0.207  0.00  0.00     0.010 A 
ATOM      3  C2  UNL d   1       0.876   1.201   0.907  0.00  0.00     0.041 A 
ATOM      4  C3  UNL d   1       1.023   2.404   0.189  0.00  0.00    -0.075 A 
ATOM      5  S   UNL d   1       1.053   4.003   0.834  0.00  0.00     0.015 SA
ATOM      6  C4  UNL d   1       1.253   4.701  -0.708  0.00  0.00     0.022 A 
ATOM      7  C5  UNL d   1       1.299   3.752  -1.702  0.00  0.00     0.026 A 
ATOM      8  C6  UNL d   1       1.166   2.413  -1.202  0.00  0.00    -0.082 A 
ATOM      9  C7  UNL d   1       1.161   1.171  -1.882  0.00  0.00     0.045 A 
ENDROOT
TORSDOF 0
ENDMDL
