MODEL 1
REMARK minimizedAffinity 4.52717638
REMARK minimizedRMSD -1
REMARK  0 active torsions:
REMARK  status: ('A' for Active; 'I' for Inactive)
ROOT
ATOM      1  C   UNL d   1       1.503  -0.072   0.968  0.00  0.00    -0.002 A 
ATOM      2  C1  UNL d   1       2.052   1.078   1.519  0.00  0.00     0.010 A 
ATOM      3  C2  UNL d   1       1.967   2.298   0.846  0.00  0.00     0.041 A 
ATOM      4  C3  UNL d   1       1.313   2.345  -0.401  0.00  0.00    -0.075 A 
ATOM      5  S   UNL d   1       1.086   3.728  -1.405  0.00  0.00     0.015 SA
ATOM      6  C4  UNL d   1       0.255   2.826  -2.588  0.00  0.00     0.022 A 
ATOM      7  C5  UNL d   1       0.144   1.500  -2.242  0.00  0.00     0.026 A 
ATOM      8  C6  UNL d   1       0.751   1.201  -0.976  0.00  0.00    -0.082 A 
ATOM      9  C7  UNL d   1       0.855  -0.022  -0.269  0.00  0.00     0.045 A 
ENDROOT
TORSDOF 0
ENDMDL
