MODEL 1
REMARK minimizedAffinity 5.28473234
REMARK minimizedRMSD -1
REMARK  0 active torsions:
REMARK  status: ('A' for Active; 'I' for Inactive)
ROOT
ATOM      1  C   UNL d   1       0.618   3.687  -1.312  0.00  0.00    -0.002 A 
ATOM      2  C1  UNL d   1       1.354   3.225  -2.394  0.00  0.00     0.010 A 
ATOM      3  C2  UNL d   1       1.829   1.912  -2.422  0.00  0.00     0.041 A 
ATOM      4  C3  UNL d   1       1.546   1.063  -1.334  0.00  0.00    -0.075 A 
ATOM      5  S   UNL d   1       2.024  -0.584  -1.150  0.00  0.00     0.015 SA
ATOM      6  C4  UNL d   1       1.261  -0.713   0.369  0.00  0.00     0.022 A 
ATOM      7  C5  UNL d   1       0.653   0.462   0.742  0.00  0.00     0.026 A 
ATOM      8  C6  UNL d   1       0.807   1.504  -0.233  0.00  0.00    -0.082 A 
ATOM      9  C7  UNL d   1       0.340   2.841  -0.235  0.00  0.00     0.045 A 
ENDROOT
TORSDOF 0
ENDMDL
