MODEL 1
REMARK minimizedAffinity 5.41734743
REMARK minimizedRMSD -1
REMARK  0 active torsions:
REMARK  status: ('A' for Active; 'I' for Inactive)
ROOT
ATOM      1  C   UNL d   1       0.685   0.903   2.059  0.00  0.00    -0.002 A 
ATOM      2  C1  UNL d   1       0.252   2.184   1.748  0.00  0.00     0.010 A 
ATOM      3  C2  UNL d   1       0.318   2.657   0.436  0.00  0.00     0.041 A 
ATOM      4  C3  UNL d   1       0.830   1.812  -0.568  0.00  0.00    -0.075 A 
ATOM      5  S   UNL d   1       1.006   2.177  -2.244  0.00  0.00     0.015 SA
ATOM      6  C4  UNL d   1       1.659   0.641  -2.587  0.00  0.00     0.022 A 
ATOM      7  C5  UNL d   1       1.748  -0.144  -1.462  0.00  0.00     0.026 A 
ATOM      8  C6  UNL d   1       1.272   0.518  -0.280  0.00  0.00    -0.082 A 
ATOM      9  C7  UNL d   1       1.192   0.068   1.060  0.00  0.00     0.045 A 
ENDROOT
TORSDOF 0
ENDMDL
