MODEL 1
REMARK minimizedAffinity 7.46482325
REMARK minimizedRMSD -1
REMARK  0 active torsions:
REMARK  status: ('A' for Active; 'I' for Inactive)
ROOT
ATOM      1  C   UNL d   1       1.237   0.018  -2.278  0.00  0.00    -0.002 A 
ATOM      2  C1  UNL d   1       0.600   1.230  -2.502  0.00  0.00     0.010 A 
ATOM      3  C2  UNL d   1       0.419   2.141  -1.460  0.00  0.00     0.041 A 
ATOM      4  C3  UNL d   1       0.895   1.811  -0.175  0.00  0.00    -0.075 A 
ATOM      5  S   UNL d   1       0.786   2.771   1.252  0.00  0.00     0.015 SA
ATOM      6  C4  UNL d   1       1.583   1.595   2.194  0.00  0.00     0.022 A 
ATOM      7  C5  UNL d   1       1.930   0.490   1.453  0.00  0.00     0.026 A 
ATOM      8  C6  UNL d   1       1.540   0.596   0.075  0.00  0.00    -0.082 A 
ATOM      9  C7  UNL d   1       1.708  -0.306  -1.002  0.00  0.00     0.045 A 
ENDROOT
TORSDOF 0
ENDMDL
