MODEL 1
REMARK minimizedAffinity 8.48720551
REMARK minimizedRMSD -1
REMARK  0 active torsions:
REMARK  status: ('A' for Active; 'I' for Inactive)
ROOT
ATOM      1  C   UNL d   1      -4.252   1.907   1.918  0.00  0.00    -0.002 A 
ATOM      2  C1  UNL d   1      -5.050   0.903   2.449  0.00  0.00     0.010 A 
ATOM      3  C2  UNL d   1      -4.775   0.368   3.709  0.00  0.00     0.041 A 
ATOM      4  C3  UNL d   1      -3.674   0.866   4.435  0.00  0.00    -0.075 A 
ATOM      5  S   UNL d   1      -3.147   0.363   5.997  0.00  0.00     0.015 SA
ATOM      6  C4  UNL d   1      -1.851   1.470   5.998  0.00  0.00     0.022 A 
ATOM      7  C5  UNL d   1      -1.807   2.213   4.842  0.00  0.00     0.026 A 
ATOM      8  C6  UNL d   1      -2.857   1.877   3.922  0.00  0.00    -0.082 A 
ATOM      9  C7  UNL d   1      -3.162   2.398   2.641  0.00  0.00     0.045 A 
ENDROOT
TORSDOF 0
ENDMDL
