MODEL 1
REMARK minimizedAffinity 7.77599955
REMARK minimizedRMSD -1
REMARK  0 active torsions:
REMARK  status: ('A' for Active; 'I' for Inactive)
ROOT
ATOM      1  C1  BNZ d   1      -1.234   5.997   5.955  0.00  0.00     0.000 A 
ATOM      2  C2  BNZ d   1       0.061   5.997   5.510  0.00  0.00     0.000 A 
ATOM      3  C3  BNZ d   1       0.342   5.995   4.172  0.00  0.00     0.000 A 
ATOM      4  C4  BNZ d   1      -0.671   5.952   3.283  0.00  0.00     0.000 A 
ATOM      5  C5  BNZ d   1      -1.982   5.941   3.716  0.00  0.00     0.000 A 
ATOM      6  C6  BNZ d   1      -2.261   5.983   5.063  0.00  0.00     0.000 A 
ENDROOT
TORSDOF 0
ENDMDL
