MODEL 1
REMARK minimizedAffinity 0.675723791
REMARK minimizedRMSD -1
REMARK  0 active torsions:
REMARK  status: ('A' for Active; 'I' for Inactive)
ROOT
ATOM      1  C1  BNZ d   1      -4.730   6.000   5.999  0.00  0.00     0.000 A 
ATOM      2  C2  BNZ d   1      -3.654   5.999   5.152  0.00  0.00     0.000 A 
ATOM      3  C3  BNZ d   1      -3.750   5.462   3.899  0.00  0.00     0.000 A 
ATOM      4  C4  BNZ d   1      -4.908   4.892   3.509  0.00  0.00     0.000 A 
ATOM      5  C5  BNZ d   1      -5.999   4.876   4.355  0.00  0.00     0.000 A 
ATOM      6  C6  BNZ d   1      -5.910   5.452   5.602  0.00  0.00     0.000 A 
ENDROOT
TORSDOF 0
ENDMDL
