MODEL 1
REMARK minimizedAffinity 4.92165995
REMARK minimizedRMSD -1
REMARK  0 active torsions:
REMARK  status: ('A' for Active; 'I' for Inactive)
ROOT
ATOM      1  C1  BNZ d   1       4.117   2.481  -0.094  0.00  0.00     0.000 A 
ATOM      2  C2  BNZ d   1       3.245   1.647   0.552  0.00  0.00     0.000 A 
ATOM      3  C3  BNZ d   1       2.683   0.583  -0.096  0.00  0.00     0.000 A 
ATOM      4  C4  BNZ d   1       2.963   0.377  -1.399  0.00  0.00     0.000 A 
ATOM      5  C5  BNZ d   1       3.833   1.215  -2.067  0.00  0.00     0.000 A 
ATOM      6  C6  BNZ d   1       4.427   2.262  -1.401  0.00  0.00     0.000 A 
ENDROOT
TORSDOF 0
ENDMDL
