MODEL 1
REMARK minimizedAffinity 5.74297857
REMARK minimizedRMSD -1
REMARK  0 active torsions:
REMARK  status: ('A' for Active; 'I' for Inactive)
ROOT
ATOM      1  C1  BNZ d   1       2.994  -0.541   0.846  0.00  0.00     0.000 A 
ATOM      2  C2  BNZ d   1       2.423  -1.782   0.753  0.00  0.00     0.000 A 
ATOM      3  C3  BNZ d   1       1.765  -2.166  -0.382  0.00  0.00     0.000 A 
ATOM      4  C4  BNZ d   1       1.645  -1.295  -1.406  0.00  0.00     0.000 A 
ATOM      5  C5  BNZ d   1       2.207  -0.037  -1.323  0.00  0.00     0.000 A 
ATOM      6  C6  BNZ d   1       2.902   0.332  -0.194  0.00  0.00     0.000 A 
ENDROOT
TORSDOF 0
ENDMDL
