MODEL 1
REMARK minimizedAffinity 6.16141129
REMARK minimizedRMSD -1
REMARK  0 active torsions:
REMARK  status: ('A' for Active; 'I' for Inactive)
ROOT
ATOM      1  C1  BNZ d   1      -4.815   5.936   5.793  0.00  0.00     0.000 A 
ATOM      2  C2  BNZ d   1      -3.668   5.999   5.047  0.00  0.00     0.000 A 
ATOM      3  C3  BNZ d   1      -3.678   5.677   3.719  0.00  0.00     0.000 A 
ATOM      4  C4  BNZ d   1      -4.824   5.254   3.148  0.00  0.00     0.000 A 
ATOM      5  C5  BNZ d   1      -5.987   5.176   3.888  0.00  0.00     0.000 A 
ATOM      6  C6  BNZ d   1      -5.981   5.539   5.216  0.00  0.00     0.000 A 
ENDROOT
TORSDOF 0
ENDMDL
