MODEL 1
REMARK minimizedAffinity -0.0273387097
REMARK minimizedRMSD -1
REMARK  0 active torsions:
REMARK  status: ('A' for Active; 'I' for Inactive)
ROOT
ATOM      1  C1  BNZ d   1      -5.895   3.864   5.894  0.00  0.00     0.000 A 
ATOM      2  C2  BNZ d   1      -5.802   5.228   5.973  0.00  0.00     0.000 A 
ATOM      3  C3  BNZ d   1      -5.822   5.997   4.844  0.00  0.00     0.000 A 
ATOM      4  C4  BNZ d   1      -5.893   5.401   3.636  0.00  0.00     0.000 A 
ATOM      5  C5  BNZ d   1      -5.978   4.026   3.540  0.00  0.00     0.000 A 
ATOM      6  C6  BNZ d   1      -5.997   3.257   4.681  0.00  0.00     0.000 A 
ENDROOT
TORSDOF 0
ENDMDL
