MODEL 1
REMARK minimizedAffinity 2.56835032
REMARK minimizedRMSD -1
REMARK  0 active torsions:
REMARK  status: ('A' for Active; 'I' for Inactive)
ROOT
ATOM      1  C1  BNZ d   1      -3.456   1.645   0.879  0.00  0.00     0.000 A 
ATOM      2  C2  BNZ d   1      -2.501   1.151   0.030  0.00  0.00     0.000 A 
ATOM      3  C3  BNZ d   1      -2.852   0.409  -1.063  0.00  0.00     0.000 A 
ATOM      4  C4  BNZ d   1      -4.153   0.127  -1.283  0.00  0.00     0.000 A 
ATOM      5  C5  BNZ d   1      -5.126   0.610  -0.431  0.00  0.00     0.000 A 
ATOM      6  C6  BNZ d   1      -4.772   1.389   0.646  0.00  0.00     0.000 A 
ENDROOT
TORSDOF 0
ENDMDL
