MODEL 1
REMARK minimizedAffinity 12.6954689
REMARK minimizedRMSD -1
REMARK  0 active torsions:
REMARK  status: ('A' for Active; 'I' for Inactive)
ROOT
ATOM      1  C1  BNZ d   1      -3.826   1.318   0.773  0.00  0.00     0.000 A 
ATOM      2  C2  BNZ d   1      -2.647   1.020   0.145  0.00  0.00     0.000 A 
ATOM      3  C3  BNZ d   1      -2.639   0.364  -1.055  0.00  0.00     0.000 A 
ATOM      4  C4  BNZ d   1      -3.807  -0.027  -1.604  0.00  0.00     0.000 A 
ATOM      5  C5  BNZ d   1      -5.004   0.257  -0.977  0.00  0.00     0.000 A 
ATOM      6  C6  BNZ d   1      -5.010   0.951   0.211  0.00  0.00     0.000 A 
ENDROOT
TORSDOF 0
ENDMDL
