MODEL 1
REMARK minimizedAffinity -5.21740627
REMARK minimizedRMSD -1
REMARK  2 active torsions:
REMARK  status: ('A' for Active; 'I' for Inactive)
REMARK    1  A    between atoms: C2'_3  and  C1'_4 
REMARK    2  A    between atoms: C1'_4  and  C1_5 
ROOT
ATOM      1  C1  I4B d   1       0.808  -1.290  -0.530  0.00  0.00    -0.075 A 
ATOM      2  C2  I4B d   1       0.297  -2.121   0.436  0.00  0.00     0.003 A 
ATOM      3  C3  I4B d   1      -0.239  -3.382   0.080  0.00  0.00     0.002 A 
ATOM      4  C4  I4B d   1      -0.290  -3.748  -1.249  0.00  0.00    -0.004 A 
ATOM      5  C5  I4B d   1       0.249  -2.915  -2.225  0.00  0.00     0.002 A 
ATOM      6  C6  I4B d   1       0.813  -1.683  -1.862  0.00  0.00     0.003 A 
ENDROOT
BRANCH   1   7
ATOM      7  C1' I4B d   1       1.337   0.049  -0.123  0.00  0.00     0.060 C 
BRANCH   7   8
ATOM      8  C2' I4B d   1       0.228   1.065  -0.309  0.00  0.00    -0.013 C 
ATOM      9  C4' I4B d   1      -0.890   0.837   0.674  0.00  0.00     0.013 C 
ATOM     10  C3' I4B d   1       0.821   2.432  -0.146  0.00  0.00     0.013 C 
ENDBRANCH   7   8
ENDBRANCH   1   7
TORSDOF 2
ENDMDL
