MODEL 1
REMARK minimizedAffinity -4.02700233
REMARK minimizedRMSD -1
REMARK  2 active torsions:
REMARK  status: ('A' for Active; 'I' for Inactive)
REMARK    1  A    between atoms: C2'_3  and  C1'_4 
REMARK    2  A    between atoms: C1'_4  and  C1_5 
ROOT
ATOM      1  C1  I4B d   1       0.194  -1.353  -0.225  0.00  0.00    -0.075 A 
ATOM      2  C2  I4B d   1       0.101  -2.469   0.568  0.00  0.00     0.003 A 
ATOM      3  C3  I4B d   1       0.205  -3.760  -0.003  0.00  0.00     0.002 A 
ATOM      4  C4  I4B d   1       0.350  -3.890  -1.369  0.00  0.00    -0.004 A 
ATOM      5  C5  I4B d   1       0.466  -2.757  -2.169  0.00  0.00     0.002 A 
ATOM      6  C6  I4B d   1       0.400  -1.480  -1.593  0.00  0.00     0.003 A 
ENDROOT
BRANCH   1   7
ATOM      7  C1' I4B d   1       0.046  -0.005   0.406  0.00  0.00     0.060 C 
BRANCH   7   8
ATOM      8  C2' I4B d   1       0.416   1.038  -0.628  0.00  0.00    -0.013 C 
ATOM      9  C4' I4B d   1      -0.778   1.871  -1.014  0.00  0.00     0.013 C 
ATOM     10  C3' I4B d   1       1.509   1.891  -0.056  0.00  0.00     0.013 C 
ENDBRANCH   7   8
ENDBRANCH   1   7
TORSDOF 2
ENDMDL
