MODEL 1
REMARK minimizedAffinity -4.68611288
REMARK minimizedRMSD -1
REMARK  2 active torsions:
REMARK  status: ('A' for Active; 'I' for Inactive)
REMARK    1  A    between atoms: C2'_3  and  C1'_4 
REMARK    2  A    between atoms: C1'_4  and  C1_5 
ROOT
ATOM      1  C1  I4B d   1       0.570  -1.801   0.045  0.00  0.00    -0.075 A 
ATOM      2  C2  I4B d   1       0.438  -1.917  -1.316  0.00  0.00     0.003 A 
ATOM      3  C3  I4B d   1       0.122  -3.169  -1.898  0.00  0.00     0.002 A 
ATOM      4  C4  I4B d   1      -0.001  -4.281  -1.091  0.00  0.00    -0.004 A 
ATOM      5  C5  I4B d   1       0.111  -4.158   0.291  0.00  0.00     0.002 A 
ATOM      6  C6  I4B d   1       0.386  -2.908   0.864  0.00  0.00     0.003 A 
ENDROOT
BRANCH   1   7
ATOM      7  C1' I4B d   1       0.936  -0.471   0.624  0.00  0.00     0.060 C 
BRANCH   7   8
ATOM      8  C2' I4B d   1      -0.145   0.518   0.240  0.00  0.00    -0.013 C 
ATOM      9  C4' I4B d   1      -1.271   0.510   1.240  0.00  0.00     0.013 C 
ATOM     10  C3' I4B d   1       0.483   1.876   0.142  0.00  0.00     0.013 C 
ENDBRANCH   7   8
ENDBRANCH   1   7
TORSDOF 2
ENDMDL
