MODEL 1
REMARK minimizedAffinity -4.71629429
REMARK minimizedRMSD -1
REMARK  2 active torsions:
REMARK  status: ('A' for Active; 'I' for Inactive)
REMARK    1  A    between atoms: C2'_3  and  C1'_4 
REMARK    2  A    between atoms: C1'_4  and  C1_5 
ROOT
ATOM      1  C1  I4B d   1      -0.019  -0.230  -0.298  0.00  0.00    -0.075 A 
ATOM      2  C2  I4B d   1      -0.750  -0.512   0.829  0.00  0.00     0.003 A 
ATOM      3  C3  I4B d   1      -0.910  -1.852   1.258  0.00  0.00     0.002 A 
ATOM      4  C4  I4B d   1      -0.369  -2.875   0.506  0.00  0.00    -0.004 A 
ATOM      5  C5  I4B d   1       0.391  -2.586  -0.623  0.00  0.00     0.002 A 
ATOM      6  C6  I4B d   1       0.577  -1.254  -1.022  0.00  0.00     0.003 A 
ENDROOT
BRANCH   1   7
ATOM      7  C1' I4B d   1       0.102   1.194  -0.740  0.00  0.00     0.060 C 
BRANCH   7   8
ATOM      8  C2' I4B d   1       0.929   1.934   0.291  0.00  0.00    -0.013 C 
ATOM      9  C4' I4B d   1       2.309   2.238  -0.232  0.00  0.00     0.013 C 
ATOM     10  C3' I4B d   1       0.199   3.193   0.654  0.00  0.00     0.013 C 
ENDBRANCH   7   8
ENDBRANCH   1   7
TORSDOF 2
ENDMDL
