MODEL 1
REMARK minimizedAffinity -3.26431775
REMARK minimizedRMSD -1
REMARK  2 active torsions:
REMARK  status: ('A' for Active; 'I' for Inactive)
REMARK    1  A    between atoms: C2'_3  and  C1'_4 
REMARK    2  A    between atoms: C1'_4  and  C1_5 
ROOT
ATOM      1  C1  I4B d   1       0.248  -1.279  -0.944  0.00  0.00    -0.075 A 
ATOM      2  C2  I4B d   1       0.405  -1.362  -2.305  0.00  0.00     0.003 A 
ATOM      3  C3  I4B d   1      -0.019  -2.519  -3.002  0.00  0.00     0.002 A 
ATOM      4  C4  I4B d   1      -0.546  -3.582  -2.298  0.00  0.00    -0.004 A 
ATOM      5  C5  I4B d   1      -0.726  -3.488  -0.921  0.00  0.00     0.002 A 
ATOM      6  C6  I4B d   1      -0.338  -2.324  -0.241  0.00  0.00     0.003 A 
ENDROOT
BRANCH   1   7
ATOM      7  C1' I4B d   1       0.737  -0.057  -0.235  0.00  0.00     0.060 C 
BRANCH   7   8
ATOM      8  C2' I4B d   1      -0.419   0.917  -0.131  0.00  0.00    -0.013 C 
ATOM      9  C4' I4B d   1      -1.284   0.611   1.063  0.00  0.00     0.013 C 
ATOM     10  C3' I4B d   1       0.149   2.303  -0.047  0.00  0.00     0.013 C 
ENDBRANCH   7   8
ENDBRANCH   1   7
TORSDOF 2
ENDMDL
