MODEL 1
REMARK minimizedAffinity -4.22830439
REMARK minimizedRMSD -1
REMARK  2 active torsions:
REMARK  status: ('A' for Active; 'I' for Inactive)
REMARK    1  A    between atoms: C2'_3  and  C1'_4 
REMARK    2  A    between atoms: C1'_4  and  C1_5 
ROOT
ATOM      1  C1  I4B d   1      -0.328   0.896  -0.039  0.00  0.00    -0.075 A 
ATOM      2  C2  I4B d   1       0.252  -0.239  -0.548  0.00  0.00     0.003 A 
ATOM      3  C3  I4B d   1      -0.113  -1.512  -0.047  0.00  0.00     0.002 A 
ATOM      4  C4  I4B d   1      -1.018  -1.600   0.991  0.00  0.00    -0.004 A 
ATOM      5  C5  I4B d   1      -1.622  -0.450   1.490  0.00  0.00     0.002 A 
ATOM      6  C6  I4B d   1      -1.284   0.806   0.964  0.00  0.00     0.003 A 
ENDROOT
BRANCH   1   7
ATOM      7  C1' I4B d   1       0.106   2.226  -0.568  0.00  0.00     0.060 C 
BRANCH   7   8
ATOM      8  C2' I4B d   1       1.137   2.795   0.385  0.00  0.00    -0.013 C 
ATOM      9  C4' I4B d   1       2.397   3.182  -0.342  0.00  0.00     0.013 C 
ATOM     10  C3' I4B d   1       0.526   3.977   1.076  0.00  0.00     0.013 C 
ENDBRANCH   7   8
ENDBRANCH   1   7
TORSDOF 2
ENDMDL
