MODEL 1
REMARK minimizedAffinity -6.37715483
REMARK minimizedRMSD -1
REMARK  2 active torsions:
REMARK  status: ('A' for Active; 'I' for Inactive)
REMARK    1  A    between atoms: C2'_3  and  C1'_4 
REMARK    2  A    between atoms: C1'_4  and  C1_5 
ROOT
ATOM      1  C1  I4B d   1      -0.172  -1.059   0.073  0.00  0.00    -0.075 A 
ATOM      2  C2  I4B d   1      -0.220  -2.037   1.036  0.00  0.00     0.003 A 
ATOM      3  C3  I4B d   1      -0.089  -3.400   0.675  0.00  0.00     0.002 A 
ATOM      4  C4  I4B d   1       0.035  -3.741  -0.656  0.00  0.00    -0.004 A 
ATOM      5  C5  I4B d   1       0.106  -2.748  -1.629  0.00  0.00     0.002 A 
ATOM      6  C6  I4B d   1       0.014  -1.397  -1.261  0.00  0.00     0.003 A 
ENDROOT
BRANCH   1   7
ATOM      7  C1' I4B d   1      -0.347   0.368   0.486  0.00  0.00     0.060 C 
BRANCH   7   8
ATOM      8  C2' I4B d   1       0.626   1.208  -0.316  0.00  0.00    -0.013 C 
ATOM      9  C4' I4B d   1      -0.025   1.761  -1.556  0.00  0.00     0.013 C 
ATOM     10  C3' I4B d   1       1.127   2.309   0.570  0.00  0.00     0.013 C 
ENDBRANCH   7   8
ENDBRANCH   1   7
TORSDOF 2
ENDMDL
