MODEL 1
REMARK minimizedAffinity -4.4989357
REMARK minimizedRMSD -1
REMARK  2 active torsions:
REMARK  status: ('A' for Active; 'I' for Inactive)
REMARK    1  A    between atoms: C2'_3  and  C1'_4 
REMARK    2  A    between atoms: C1'_4  and  C1_5 
ROOT
ATOM      1  C1  I4B d   1      -0.071   0.176  -0.080  0.00  0.00    -0.075 A 
ATOM      2  C2  I4B d   1       0.395  -1.012  -0.584  0.00  0.00     0.003 A 
ATOM      3  C3  I4B d   1       0.119  -2.228   0.086  0.00  0.00     0.002 A 
ATOM      4  C4  I4B d   1      -0.580  -2.205   1.275  0.00  0.00    -0.004 A 
ATOM      5  C5  I4B d   1      -1.073  -1.002   1.773  0.00  0.00     0.002 A 
ATOM      6  C6  I4B d   1      -0.827   0.195   1.085  0.00  0.00     0.003 A 
ENDROOT
BRANCH   1   7
ATOM      7  C1' I4B d   1       0.267   1.446  -0.795  0.00  0.00     0.060 C 
BRANCH   7   8
ATOM      8  C2' I4B d   1       1.241   2.222   0.068  0.00  0.00    -0.013 C 
ATOM      9  C4' I4B d   1       2.591   2.326  -0.591  0.00  0.00     0.013 C 
ATOM     10  C3' I4B d   1       0.655   3.580   0.319  0.00  0.00     0.013 C 
ENDBRANCH   7   8
ENDBRANCH   1   7
TORSDOF 2
ENDMDL
