MODEL 1
REMARK minimizedAffinity 1.29383123
REMARK minimizedRMSD -1
REMARK  2 active torsions:
REMARK  status: ('A' for Active; 'I' for Inactive)
REMARK    1  A    between atoms: C2'_3  and  C1'_4 
REMARK    2  A    between atoms: C1'_4  and  C1_5 
ROOT
ATOM      1  C1  I4B d   1       0.128  -1.242  -0.291  0.00  0.00    -0.075 A 
ATOM      2  C2  I4B d   1      -0.555  -0.626   0.728  0.00  0.00     0.003 A 
ATOM      3  C3  I4B d   1      -1.132   0.651   0.528  0.00  0.00     0.002 A 
ATOM      4  C4  I4B d   1      -0.961   1.293  -0.681  0.00  0.00    -0.004 A 
ATOM      5  C5  I4B d   1      -0.289   0.657  -1.721  0.00  0.00     0.002 A 
ATOM      6  C6  I4B d   1       0.249  -0.624  -1.529  0.00  0.00     0.003 A 
ENDROOT
BRANCH   1   7
ATOM      7  C1' I4B d   1       0.754  -2.577  -0.035  0.00  0.00     0.060 C 
BRANCH   7   8
ATOM      8  C2' I4B d   1      -0.320  -3.501   0.502  0.00  0.00    -0.013 C 
ATOM      9  C4' I4B d   1      -1.642  -3.252  -0.175  0.00  0.00     0.013 C 
ATOM     10  C3' I4B d   1       0.137  -4.913   0.294  0.00  0.00     0.013 C 
ENDBRANCH   7   8
ENDBRANCH   1   7
TORSDOF 2
ENDMDL
