MODEL 1
REMARK minimizedAffinity -3.89658451
REMARK minimizedRMSD -1
REMARK  1 active torsions:
REMARK  status: ('A' for Active; 'I' for Inactive)
REMARK    1  A    between atoms: C1_2  and  C2_3 
ROOT
ATOM      1  C2  UNL d   1       0.031   1.091   0.357  0.00  0.00    -0.077 A 
ATOM      2  C3  UNL d   1      -0.702  -0.101   0.442  0.00  0.00     0.002 A 
ATOM      3  C4  UNL d   1      -0.044  -1.329   0.533  0.00  0.00     0.002 A 
ATOM      4  C5  UNL d   1       1.348  -1.377   0.545  0.00  0.00    -0.004 A 
ATOM      5  C6  UNL d   1       2.086  -0.197   0.460  0.00  0.00     0.002 A 
ATOM      6  C7  UNL d   1       1.431   1.032   0.367  0.00  0.00     0.002 A 
ENDROOT
BRANCH   1   7
ATOM      7  C1  UNL d   1      -0.676   2.421   0.308  0.00  0.00     0.055 C 
ATOM      8  C   UNL d   1       0.275   3.539  -0.093  0.00  0.00     0.019 C 
ENDBRANCH   1   7
TORSDOF 1
ENDMDL
