MODEL 1
REMARK minimizedAffinity -6.13272095
REMARK minimizedRMSD -1
REMARK  1 active torsions:
REMARK  status: ('A' for Active; 'I' for Inactive)
REMARK    1  A    between atoms: C1_2  and  C2_3 
ROOT
ATOM      1  C2  UNL d   1       0.305   1.452   0.170  0.00  0.00    -0.077 A 
ATOM      2  C3  UNL d   1       1.698   1.294   0.201  0.00  0.00     0.002 A 
ATOM      3  C4  UNL d   1       2.262   0.025   0.347  0.00  0.00     0.002 A 
ATOM      4  C5  UNL d   1       1.442  -1.095   0.458  0.00  0.00    -0.004 A 
ATOM      5  C6  UNL d   1       0.055  -0.949   0.430  0.00  0.00     0.002 A 
ATOM      6  C7  UNL d   1      -0.510   0.319   0.285  0.00  0.00     0.002 A 
ENDROOT
BRANCH   1   7
ATOM      7  C1  UNL d   1      -0.305   2.814  -0.037  0.00  0.00     0.055 C 
ATOM      8  C   UNL d   1       0.701   3.919   0.249  0.00  0.00     0.019 C 
ENDBRANCH   1   7
TORSDOF 1
ENDMDL
