MODEL 1
REMARK minimizedAffinity -5.58959341
REMARK minimizedRMSD -1
REMARK  1 active torsions:
REMARK  status: ('A' for Active; 'I' for Inactive)
REMARK    1  A    between atoms: C1_2  and  C2_3 
ROOT
ATOM      1  C2  UNL d   1       0.258  -0.039   0.018  0.00  0.00    -0.077 A 
ATOM      2  C3  UNL d   1       1.152   0.959  -0.392  0.00  0.00     0.002 A 
ATOM      3  C4  UNL d   1       0.788   2.306  -0.322  0.00  0.00     0.002 A 
ATOM      4  C5  UNL d   1      -0.468   2.665   0.161  0.00  0.00    -0.004 A 
ATOM      5  C6  UNL d   1      -1.365   1.679   0.569  0.00  0.00     0.002 A 
ATOM      6  C7  UNL d   1      -1.004   0.333   0.499  0.00  0.00     0.002 A 
ENDROOT
BRANCH   1   7
ATOM      7  C1  UNL d   1       0.667  -1.489  -0.010  0.00  0.00     0.055 C 
ATOM      8  C   UNL d   1      -0.077  -2.253  -1.096  0.00  0.00     0.019 C 
ENDBRANCH   1   7
TORSDOF 1
ENDMDL
