MODEL 1
REMARK minimizedAffinity -4.8548317
REMARK minimizedRMSD -1
REMARK  1 active torsions:
REMARK  status: ('A' for Active; 'I' for Inactive)
REMARK    1  A    between atoms: C1_2  and  C2_3 
ROOT
ATOM      1  C2  UNL d   1       0.596   1.445   0.121  0.00  0.00    -0.077 A 
ATOM      2  C3  UNL d   1      -0.422   0.490  -0.007  0.00  0.00     0.002 A 
ATOM      3  C4  UNL d   1      -0.129  -0.872   0.084  0.00  0.00     0.002 A 
ATOM      4  C5  UNL d   1       1.181  -1.290   0.308  0.00  0.00    -0.004 A 
ATOM      5  C6  UNL d   1       2.201  -0.348   0.435  0.00  0.00     0.002 A 
ATOM      6  C7  UNL d   1       1.910   1.014   0.343  0.00  0.00     0.002 A 
ENDROOT
BRANCH   1   7
ATOM      7  C1  UNL d   1       0.273   2.916   0.072  0.00  0.00     0.055 C 
ATOM      8  C   UNL d   1      -0.461   3.364   1.327  0.00  0.00     0.019 C 
ENDBRANCH   1   7
TORSDOF 1
ENDMDL
