MODEL 1
REMARK minimizedAffinity -5.76876736
REMARK minimizedRMSD -1
REMARK  1 active torsions:
REMARK  status: ('A' for Active; 'I' for Inactive)
REMARK    1  A    between atoms: C1_2  and  C2_3 
ROOT
ATOM      1  C2  UNL d   1       1.051   0.653   0.526  0.00  0.00    -0.077 A 
ATOM      2  C3  UNL d   1       2.074   1.556   0.849  0.00  0.00     0.002 A 
ATOM      3  C4  UNL d   1       1.814   2.926   0.910  0.00  0.00     0.002 A 
ATOM      4  C5  UNL d   1       0.531   3.406   0.655  0.00  0.00    -0.004 A 
ATOM      5  C6  UNL d   1      -0.493   2.516   0.332  0.00  0.00     0.002 A 
ATOM      6  C7  UNL d   1      -0.235   1.146   0.269  0.00  0.00     0.002 A 
ENDROOT
BRANCH   1   7
ATOM      7  C1  UNL d   1       1.318  -0.829   0.508  0.00  0.00     0.055 C 
ATOM      8  C   UNL d   1       0.229  -1.578  -0.246  0.00  0.00     0.019 C 
ENDBRANCH   1   7
TORSDOF 1
ENDMDL
