MODEL 1
REMARK minimizedAffinity -4.92073154
REMARK minimizedRMSD -1
REMARK  1 active torsions:
REMARK  status: ('A' for Active; 'I' for Inactive)
REMARK    1  A    between atoms: C1_2  and  C2_3 
ROOT
ATOM      1  C2  UNL d   1      -0.032   0.174  -0.088  0.00  0.00    -0.077 A 
ATOM      2  C3  UNL d   1       1.096   0.901  -0.496  0.00  0.00     0.002 A 
ATOM      3  C4  UNL d   1       1.075   2.297  -0.493  0.00  0.00     0.002 A 
ATOM      4  C5  UNL d   1      -0.068   2.978  -0.081  0.00  0.00    -0.004 A 
ATOM      5  C6  UNL d   1      -1.196   2.264   0.325  0.00  0.00     0.002 A 
ATOM      6  C7  UNL d   1      -1.177   0.869   0.322  0.00  0.00     0.002 A 
ENDROOT
BRANCH   1   7
ATOM      7  C1  UNL d   1       0.005  -1.331  -0.043  0.00  0.00     0.055 C 
ATOM      8  C   UNL d   1      -0.393  -1.935  -1.382  0.00  0.00     0.019 C 
ENDBRANCH   1   7
TORSDOF 1
ENDMDL
