MODEL 1
REMARK minimizedAffinity -3.82278991
REMARK minimizedRMSD -1
REMARK  1 active torsions:
REMARK  status: ('A' for Active; 'I' for Inactive)
REMARK    1  A    between atoms: C1_2  and  C2_3 
ROOT
ATOM      1  C2  UNL d   1      -0.132  -0.193   0.072  0.00  0.00    -0.077 A 
ATOM      2  C3  UNL d   1       0.820   0.523  -0.666  0.00  0.00     0.002 A 
ATOM      3  C4  UNL d   1       0.739   1.914  -0.762  0.00  0.00     0.002 A 
ATOM      4  C5  UNL d   1      -0.288   2.600  -0.118  0.00  0.00    -0.004 A 
ATOM      5  C6  UNL d   1      -1.241   1.896   0.617  0.00  0.00     0.002 A 
ATOM      6  C7  UNL d   1      -1.163   0.506   0.713  0.00  0.00     0.002 A 
ENDROOT
BRANCH   1   7
ATOM      7  C1  UNL d   1      -0.019  -1.688   0.218  0.00  0.00     0.055 C 
ATOM      8  C   UNL d   1      -0.064  -2.381  -1.137  0.00  0.00     0.019 C 
ENDBRANCH   1   7
TORSDOF 1
ENDMDL
