MODEL 1
REMARK minimizedAffinity -5.40413952
REMARK minimizedRMSD -1
REMARK  1 active torsions:
REMARK  status: ('A' for Active; 'I' for Inactive)
REMARK    1  A    between atoms: C1_2  and  C2_3 
ROOT
ATOM      1  C2  UNL d   1      -0.021   1.152  -0.049  0.00  0.00    -0.077 A 
ATOM      2  C3  UNL d   1      -0.783   0.014   0.251  0.00  0.00     0.002 A 
ATOM      3  C4  UNL d   1      -0.156  -1.178   0.619  0.00  0.00     0.002 A 
ATOM      4  C5  UNL d   1       1.234  -1.243   0.694  0.00  0.00    -0.004 A 
ATOM      5  C6  UNL d   1       2.000  -0.117   0.396  0.00  0.00     0.002 A 
ATOM      6  C7  UNL d   1       1.375   1.075   0.027  0.00  0.00     0.002 A 
ENDROOT
BRANCH   1   7
ATOM      7  C1  UNL d   1      -0.697   2.452  -0.398  0.00  0.00     0.055 C 
ATOM      8  C   UNL d   1      -0.034   3.627   0.307  0.00  0.00     0.019 C 
ENDBRANCH   1   7
TORSDOF 1
ENDMDL
