MODEL 1
REMARK minimizedAffinity -5.22606087
REMARK minimizedRMSD -1
REMARK  1 active torsions:
REMARK  status: ('A' for Active; 'I' for Inactive)
REMARK    1  A    between atoms: C1_2  and  C2_3 
ROOT
ATOM      1  C2  UNL d   1      -0.248  -0.953  -0.121  0.00  0.00    -0.077 A 
ATOM      2  C3  UNL d   1      -1.331  -0.186   0.331  0.00  0.00     0.002 A 
ATOM      3  C4  UNL d   1      -1.223   1.204   0.418  0.00  0.00     0.002 A 
ATOM      4  C5  UNL d   1      -0.038   1.837   0.052  0.00  0.00    -0.004 A 
ATOM      5  C6  UNL d   1       1.045   1.082  -0.397  0.00  0.00     0.002 A 
ATOM      6  C7  UNL d   1       0.940  -0.307  -0.484  0.00  0.00     0.002 A 
ENDROOT
BRANCH   1   7
ATOM      7  C1  UNL d   1      -0.378  -2.448  -0.263  0.00  0.00     0.055 C 
ATOM      8  C   UNL d   1      -0.598  -2.849  -1.714  0.00  0.00     0.019 C 
ENDBRANCH   1   7
TORSDOF 1
ENDMDL
