MODEL 1
REMARK minimizedAffinity -4.49250126
REMARK minimizedRMSD -1
REMARK  1 active torsions:
REMARK  status: ('A' for Active; 'I' for Inactive)
REMARK    1  A    between atoms: C1_2  and  C2_3 
ROOT
ATOM      1  C2  UNL d   1      -0.065  -0.484  -0.252  0.00  0.00    -0.077 A 
ATOM      2  C3  UNL d   1      -1.296   0.045   0.160  0.00  0.00     0.002 A 
ATOM      3  C4  UNL d   1      -1.464   1.425   0.293  0.00  0.00     0.002 A 
ATOM      4  C5  UNL d   1      -0.406   2.287   0.012  0.00  0.00    -0.004 A 
ATOM      5  C6  UNL d   1       0.824   1.770  -0.397  0.00  0.00     0.002 A 
ATOM      6  C7  UNL d   1       0.993   0.392  -0.529  0.00  0.00     0.002 A 
ENDROOT
BRANCH   1   7
ATOM      7  C1  UNL d   1       0.102  -1.968  -0.443  0.00  0.00     0.055 C 
ATOM      8  C   UNL d   1       0.069  -2.344  -1.917  0.00  0.00     0.019 C 
ENDBRANCH   1   7
TORSDOF 1
ENDMDL
