MODEL 1
REMARK minimizedAffinity -3.73239923
REMARK minimizedRMSD -1
REMARK  1 active torsions:
REMARK  status: ('A' for Active; 'I' for Inactive)
REMARK    1  A    between atoms: C1_2  and  C2_3 
ROOT
ATOM      1  C2  UNL d   1      -0.120  -0.374   0.002  0.00  0.00    -0.077 A 
ATOM      2  C3  UNL d   1       0.965   0.372  -0.480  0.00  0.00     0.002 A 
ATOM      3  C4  UNL d   1       0.939   1.767  -0.433  0.00  0.00     0.002 A 
ATOM      4  C5  UNL d   1      -0.166   2.427   0.100  0.00  0.00    -0.004 A 
ATOM      5  C6  UNL d   1      -1.250   1.694   0.581  0.00  0.00     0.002 A 
ATOM      6  C7  UNL d   1      -1.227   0.300   0.533  0.00  0.00     0.002 A 
ENDROOT
BRANCH   1   7
ATOM      7  C1  UNL d   1      -0.073  -1.880  -0.003  0.00  0.00     0.055 C 
ATOM      8  C   UNL d   1      -0.342  -2.437  -1.393  0.00  0.00     0.019 C 
ENDBRANCH   1   7
TORSDOF 1
ENDMDL
