MODEL 1
REMARK minimizedAffinity -3.89440799
REMARK minimizedRMSD -1
REMARK  1 active torsions:
REMARK  status: ('A' for Active; 'I' for Inactive)
REMARK    1  A    between atoms: C1_2  and  C2_3 
ROOT
ATOM      1  C2  UNL d   1      -0.145  -0.396  -0.118  0.00  0.00    -0.077 A 
ATOM      2  C3  UNL d   1       0.951   0.443  -0.363  0.00  0.00     0.002 A 
ATOM      3  C4  UNL d   1       0.818   1.828  -0.255  0.00  0.00     0.002 A 
ATOM      4  C5  UNL d   1      -0.408   2.386   0.103  0.00  0.00    -0.004 A 
ATOM      5  C6  UNL d   1      -1.504   1.560   0.347  0.00  0.00     0.002 A 
ATOM      6  C7  UNL d   1      -1.374   0.175   0.238  0.00  0.00     0.002 A 
ENDROOT
BRANCH   1   7
ATOM      7  C1  UNL d   1       0.009  -1.893  -0.185  0.00  0.00     0.055 C 
ATOM      8  C   UNL d   1      -0.230  -2.411  -1.596  0.00  0.00     0.019 C 
ENDBRANCH   1   7
TORSDOF 1
ENDMDL
