MODEL 1
REMARK minimizedAffinity 16.6446285
REMARK minimizedRMSD -1
REMARK  0 active torsions:
REMARK  status: ('A' for Active; 'I' for Inactive)
ROOT
ATOM      1  C   UNL d   1      -0.156  -0.254   0.941  0.00  0.00     0.077 C 
ATOM      2  C1  UNL d   1       1.081  -0.982   1.376  0.00  0.00    -0.074 A 
ATOM      3  C2  UNL d   1       2.282  -0.843   0.673  0.00  0.00    -0.005 A 
ATOM      4  C3  UNL d   1       3.427  -1.519   1.095  0.00  0.00     0.006 A 
ATOM      5  C4  UNL d   1       3.383  -2.339   2.223  0.00  0.00    -0.005 A 
ATOM      6  C5  UNL d   1       2.191  -2.490   2.940  0.00  0.00    -0.074 A 
ATOM      7  C6  UNL d   1       2.129  -3.360   4.160  0.00  0.00     0.077 C 
ATOM      8  C7  UNL d   1       1.047  -1.802   2.513  0.00  0.00    -0.001 A 
ENDROOT
TORSDOF 0
ENDMDL
