MODEL 1
REMARK minimizedAffinity 8.43464279
REMARK minimizedRMSD -1
REMARK  0 active torsions:
REMARK  status: ('A' for Active; 'I' for Inactive)
ROOT
ATOM      1  C   UNL d   1       6.000  -2.639   2.261  0.00  0.00     0.077 C 
ATOM      2  C1  UNL d   1       4.724  -1.949   1.881  0.00  0.00    -0.074 A 
ATOM      3  C2  UNL d   1       4.688  -1.035   0.823  0.00  0.00    -0.005 A 
ATOM      4  C3  UNL d   1       3.492  -0.408   0.475  0.00  0.00     0.006 A 
ATOM      5  C4  UNL d   1       2.321  -0.688   1.181  0.00  0.00    -0.005 A 
ATOM      6  C5  UNL d   1       2.337  -1.600   2.241  0.00  0.00    -0.074 A 
ATOM      7  C6  UNL d   1       1.085  -1.920   3.002  0.00  0.00     0.077 C 
ATOM      8  C7  UNL d   1       3.541  -2.231   2.580  0.00  0.00    -0.001 A 
ENDROOT
TORSDOF 0
ENDMDL
