MODEL 1
REMARK minimizedAffinity 7.07622051
REMARK minimizedRMSD -1
REMARK  0 active torsions:
REMARK  status: ('A' for Active; 'I' for Inactive)
ROOT
ATOM      1  C   UNL d   1      -6.000   4.876  -0.392  0.00  0.00     0.077 C 
ATOM      2  C1  UNL d   1      -5.005   4.485   0.660  0.00  0.00    -0.074 A 
ATOM      3  C2  UNL d   1      -5.246   4.751   2.012  0.00  0.00    -0.005 A 
ATOM      4  C3  UNL d   1      -4.316   4.374   2.980  0.00  0.00     0.006 A 
ATOM      5  C4  UNL d   1      -3.136   3.727   2.606  0.00  0.00    -0.005 A 
ATOM      6  C5  UNL d   1      -2.878   3.452   1.260  0.00  0.00    -0.074 A 
ATOM      7  C6  UNL d   1      -1.621   2.750   0.843  0.00  0.00     0.077 C 
ATOM      8  C7  UNL d   1      -3.821   3.829   0.294  0.00  0.00    -0.001 A 
ENDROOT
TORSDOF 0
ENDMDL
