MODEL 1
REMARK minimizedAffinity 14.5696507
REMARK minimizedRMSD -1
REMARK  0 active torsions:
REMARK  status: ('A' for Active; 'I' for Inactive)
ROOT
ATOM      1  C   UNL d   1       1.583  -2.991   4.486  0.00  0.00     0.077 C 
ATOM      2  C1  UNL d   1       1.754  -2.208   3.218  0.00  0.00    -0.074 A 
ATOM      3  C2  UNL d   1       2.600  -2.664   2.201  0.00  0.00    -0.005 A 
ATOM      4  C3  UNL d   1       2.742  -1.930   1.023  0.00  0.00     0.006 A 
ATOM      5  C4  UNL d   1       2.042  -0.735   0.851  0.00  0.00    -0.005 A 
ATOM      6  C5  UNL d   1       1.191  -0.265   1.856  0.00  0.00    -0.074 A 
ATOM      7  C6  UNL d   1       0.424   1.012   1.683  0.00  0.00     0.077 C 
ATOM      8  C7  UNL d   1       1.048  -1.011   3.034  0.00  0.00    -0.001 A 
ENDROOT
TORSDOF 0
ENDMDL
