MODEL 1
REMARK minimizedAffinity 12.0347576
REMARK minimizedRMSD -1
REMARK  0 active torsions:
REMARK  status: ('A' for Active; 'I' for Inactive)
ROOT
ATOM      1  C   UNL d   1       0.809  -1.635   5.278  0.00  0.00     0.077 C 
ATOM      2  C1  UNL d   1       1.078  -1.245   3.855  0.00  0.00    -0.074 A 
ATOM      3  C2  UNL d   1       0.920  -2.167   2.815  0.00  0.00    -0.005 A 
ATOM      4  C3  UNL d   1       1.165  -1.788   1.495  0.00  0.00     0.006 A 
ATOM      5  C4  UNL d   1       1.570  -0.485   1.202  0.00  0.00    -0.005 A 
ATOM      6  C5  UNL d   1       1.733   0.451   2.229  0.00  0.00    -0.074 A 
ATOM      7  C6  UNL d   1       2.158   1.858   1.931  0.00  0.00     0.077 C 
ATOM      8  C7  UNL d   1       1.478   0.064   3.552  0.00  0.00    -0.001 A 
ENDROOT
TORSDOF 0
ENDMDL
