MODEL 1
REMARK minimizedAffinity 11.5351677
REMARK minimizedRMSD -1
REMARK  0 active torsions:
REMARK  status: ('A' for Active; 'I' for Inactive)
ROOT
ATOM      1  C   UNL d   1      -4.014  -5.970  -5.076  0.00  0.00     0.077 C 
ATOM      2  C1  UNL d   1      -4.505  -4.553  -5.121  0.00  0.00    -0.074 A 
ATOM      3  C2  UNL d   1      -5.548  -4.181  -5.975  0.00  0.00    -0.005 A 
ATOM      4  C3  UNL d   1      -6.000  -2.862  -5.999  0.00  0.00     0.006 A 
ATOM      5  C4  UNL d   1      -5.414  -1.903  -5.172  0.00  0.00    -0.005 A 
ATOM      6  C5  UNL d   1      -4.370  -2.257  -4.311  0.00  0.00    -0.074 A 
ATOM      7  C6  UNL d   1      -3.736  -1.241  -3.408  0.00  0.00     0.077 C 
ATOM      8  C7  UNL d   1      -3.926  -3.586  -4.287  0.00  0.00    -0.001 A 
ENDROOT
TORSDOF 0
ENDMDL
