MODEL 1
REMARK minimizedAffinity 9.68313599
REMARK minimizedRMSD -1
REMARK  0 active torsions:
REMARK  status: ('A' for Active; 'I' for Inactive)
ROOT
ATOM      1  C   UNL d   1      -2.802   1.009  -3.013  0.00  0.00     0.077 C 
ATOM      2  C1  UNL d   1      -3.095   1.776  -1.758  0.00  0.00    -0.074 A 
ATOM      3  C2  UNL d   1      -2.274   1.654  -0.632  0.00  0.00    -0.005 A 
ATOM      4  C3  UNL d   1      -2.554   2.381   0.525  0.00  0.00     0.006 A 
ATOM      5  C4  UNL d   1      -3.655   3.237   0.568  0.00  0.00    -0.005 A 
ATOM      6  C5  UNL d   1      -4.487   3.373  -0.549  0.00  0.00    -0.074 A 
ATOM      7  C6  UNL d   1      -5.669   4.296  -0.522  0.00  0.00     0.077 C 
ATOM      8  C7  UNL d   1      -4.195   2.644  -1.710  0.00  0.00    -0.001 A 
ENDROOT
TORSDOF 0
ENDMDL
