MODEL 1
REMARK minimizedAffinity 8.51480675
REMARK minimizedRMSD -1
REMARK  0 active torsions:
REMARK  status: ('A' for Active; 'I' for Inactive)
ROOT
ATOM      1  C   UNL d   1       5.578  -2.282   1.990  0.00  0.00     0.077 C 
ATOM      2  C1  UNL d   1       4.105  -2.491   1.803  0.00  0.00    -0.074 A 
ATOM      3  C2  UNL d   1       3.559  -3.779   1.776  0.00  0.00    -0.005 A 
ATOM      4  C3  UNL d   1       2.186  -3.957   1.611  0.00  0.00     0.006 A 
ATOM      5  C4  UNL d   1       1.345  -2.852   1.472  0.00  0.00    -0.005 A 
ATOM      6  C5  UNL d   1       1.873  -1.557   1.497  0.00  0.00    -0.074 A 
ATOM      7  C6  UNL d   1       0.982  -0.358   1.359  0.00  0.00     0.077 C 
ATOM      8  C7  UNL d   1       3.253  -1.386   1.671  0.00  0.00    -0.001 A 
ENDROOT
TORSDOF 0
ENDMDL
