MODEL 1
REMARK minimizedAffinity 10.120676
REMARK minimizedRMSD -1
REMARK  0 active torsions:
REMARK  status: ('A' for Active; 'I' for Inactive)
ROOT
ATOM      1  C   UNL d   1       1.124  -1.925   6.000  0.00  0.00     0.077 C 
ATOM      2  C1  UNL d   1       1.001  -1.547   4.554  0.00  0.00    -0.074 A 
ATOM      3  C2  UNL d   1       0.337  -2.380   3.647  0.00  0.00    -0.005 A 
ATOM      4  C3  UNL d   1       0.222  -2.010   2.307  0.00  0.00     0.006 A 
ATOM      5  C4  UNL d   1       0.768  -0.806   1.861  0.00  0.00    -0.005 A 
ATOM      6  C5  UNL d   1       1.434   0.040   2.753  0.00  0.00    -0.074 A 
ATOM      7  C6  UNL d   1       2.018   1.342   2.292  0.00  0.00     0.077 C 
ATOM      8  C7  UNL d   1       1.540  -0.335   4.100  0.00  0.00    -0.001 A 
ENDROOT
TORSDOF 0
ENDMDL
