MODEL 1
REMARK minimizedAffinity 12.6467705
REMARK minimizedRMSD -1
REMARK  0 active torsions:
REMARK  status: ('A' for Active; 'I' for Inactive)
ROOT
ATOM      1  C   UNL d   1       3.375   1.196   1.085  0.00  0.00     0.077 C 
ATOM      2  C1  UNL d   1       2.570  -0.062   1.227  0.00  0.00    -0.074 A 
ATOM      3  C2  UNL d   1       1.979  -0.403   2.449  0.00  0.00    -0.005 A 
ATOM      4  C3  UNL d   1       1.225  -1.571   2.563  0.00  0.00     0.006 A 
ATOM      5  C4  UNL d   1       1.055  -2.408   1.460  0.00  0.00    -0.005 A 
ATOM      6  C5  UNL d   1       1.637  -2.083   0.231  0.00  0.00    -0.074 A 
ATOM      7  C6  UNL d   1       1.455  -2.967  -0.967  0.00  0.00     0.077 C 
ATOM      8  C7  UNL d   1       2.387  -0.904   0.122  0.00  0.00    -0.001 A 
ENDROOT
TORSDOF 0
ENDMDL
