MODEL 1
REMARK minimizedAffinity -0.934539557
REMARK minimizedRMSD -1
REMARK  0 active torsions:
REMARK  status: ('A' for Active; 'I' for Inactive)
ROOT
ATOM      1  C   UNL d   1       5.804   5.559  -6.000  0.00  0.00     0.077 C 
ATOM      2  C1  UNL d   1       5.454   5.254  -4.574  0.00  0.00    -0.074 A 
ATOM      3  C2  UNL d   1       6.000   6.000  -3.524  0.00  0.00    -0.005 A 
ATOM      4  C3  UNL d   1       5.658   5.710  -2.203  0.00  0.00     0.006 A 
ATOM      5  C4  UNL d   1       4.769   4.673  -1.919  0.00  0.00    -0.005 A 
ATOM      6  C5  UNL d   1       4.213   3.917  -2.955  0.00  0.00    -0.074 A 
ATOM      7  C6  UNL d   1       3.248   2.805  -2.667  0.00  0.00     0.077 C 
ATOM      8  C7  UNL d   1       4.556   4.218  -4.280  0.00  0.00    -0.001 A 
ENDROOT
TORSDOF 0
ENDMDL
