MODEL 1
REMARK minimizedAffinity -2.61220169
REMARK minimizedRMSD -1
REMARK  0 active torsions:
REMARK  status: ('A' for Active; 'I' for Inactive)
ROOT
ATOM      1  C   UNL d   1      -1.361  -1.474   2.364  0.00  0.00     0.023 A 
ATOM      2  C1  UNL d   1      -0.048  -1.902   2.168  0.00  0.00     0.003 A 
ATOM      3  C2  UNL d   1       0.775  -1.239   1.256  0.00  0.00     0.048 A 
ATOM      4  C3  UNL d   1       0.280  -0.148   0.544  0.00  0.00     0.023 A 
ATOM      5  C4  UNL d   1      -1.033   0.285   0.737  0.00  0.00     0.048 A 
ATOM      6  C5  UNL d   1      -1.853  -0.382   1.649  0.00  0.00     0.003 A 
ATOM      7  I   UNL d   1       1.504   0.841  -0.814  0.00  0.00    -0.146 I 
ENDROOT
TORSDOF 0
ENDMDL
