MODEL 1
REMARK minimizedAffinity -3.41551328
REMARK minimizedRMSD -1
REMARK  0 active torsions:
REMARK  status: ('A' for Active; 'I' for Inactive)
ROOT
ATOM      1  C   UNL d   1      -2.871  -3.025   0.323  0.00  0.00     0.023 A 
ATOM      2  C1  UNL d   1      -1.818  -3.014   1.238  0.00  0.00     0.003 A 
ATOM      3  C2  UNL d   1      -0.918  -1.946   1.256  0.00  0.00     0.048 A 
ATOM      4  C3  UNL d   1      -1.077  -0.893   0.356  0.00  0.00     0.023 A 
ATOM      5  C4  UNL d   1      -2.130  -0.899  -0.561  0.00  0.00     0.048 A 
ATOM      6  C5  UNL d   1      -3.026  -1.969  -0.575  0.00  0.00     0.003 A 
ATOM      7  I   UNL d   1       0.261   0.697   0.381  0.00  0.00    -0.146 I 
ENDROOT
TORSDOF 0
ENDMDL
