MODEL 1
REMARK minimizedAffinity -3.49737787
REMARK minimizedRMSD -1
REMARK  0 active torsions:
REMARK  status: ('A' for Active; 'I' for Inactive)
ROOT
ATOM      1  C   UNL d   1      -1.711   0.303  -1.483  0.00  0.00     0.023 A 
ATOM      2  C1  UNL d   1      -1.247  -0.435  -0.394  0.00  0.00     0.003 A 
ATOM      3  C2  UNL d   1      -0.104  -0.023   0.294  0.00  0.00     0.048 A 
ATOM      4  C3  UNL d   1       0.571   1.128  -0.113  0.00  0.00     0.023 A 
ATOM      5  C4  UNL d   1       0.110   1.869  -1.201  0.00  0.00     0.048 A 
ATOM      6  C5  UNL d   1      -1.033   1.454  -1.887  0.00  0.00     0.003 A 
ATOM      7  I   UNL d   1       2.273   1.742   0.910  0.00  0.00    -0.146 I 
ENDROOT
TORSDOF 0
ENDMDL
