MODEL 1
REMARK minimizedAffinity -2.33250904
REMARK minimizedRMSD -1
REMARK  0 active torsions:
REMARK  status: ('A' for Active; 'I' for Inactive)
ROOT
ATOM      1  C   UNL d   1       1.524   1.479   1.737  0.00  0.00     0.023 A 
ATOM      2  C1  UNL d   1       1.330   1.061   0.420  0.00  0.00     0.003 A 
ATOM      3  C2  UNL d   1       1.886   1.789  -0.634  0.00  0.00     0.048 A 
ATOM      4  C3  UNL d   1       2.636   2.933  -0.364  0.00  0.00     0.023 A 
ATOM      5  C4  UNL d   1       2.834   3.354   0.952  0.00  0.00     0.048 A 
ATOM      6  C5  UNL d   1       2.276   2.624   2.003  0.00  0.00     0.003 A 
ATOM      7  I   UNL d   1       3.465   4.018  -1.931  0.00  0.00    -0.146 I 
ENDROOT
TORSDOF 0
ENDMDL
