MODEL 1
REMARK minimizedAffinity -2.00577784
REMARK minimizedRMSD -1
REMARK  0 active torsions:
REMARK  status: ('A' for Active; 'I' for Inactive)
ROOT
ATOM      1  C   UNL d   1      -1.670  -0.852  -1.423  0.00  0.00     0.023 A 
ATOM      2  C1  UNL d   1      -1.499  -0.881  -0.038  0.00  0.00     0.003 A 
ATOM      3  C2  UNL d   1      -0.362  -0.311   0.538  0.00  0.00     0.048 A 
ATOM      4  C3  UNL d   1       0.599   0.289  -0.275  0.00  0.00     0.023 A 
ATOM      5  C4  UNL d   1       0.431   0.322  -1.660  0.00  0.00     0.048 A 
ATOM      6  C5  UNL d   1      -0.706  -0.251  -2.232  0.00  0.00     0.003 A 
ATOM      7  I   UNL d   1       2.291   1.139   0.581  0.00  0.00    -0.146 I 
ENDROOT
TORSDOF 0
ENDMDL
