MODEL 1
REMARK minimizedAffinity -2.09100914
REMARK minimizedRMSD -1
REMARK  0 active torsions:
REMARK  status: ('A' for Active; 'I' for Inactive)
ROOT
ATOM      1  C   UNL d   1      -2.421  -1.502  -1.128  0.00  0.00     0.023 A 
ATOM      2  C1  UNL d   1      -1.719  -0.728  -2.051  0.00  0.00     0.003 A 
ATOM      3  C2  UNL d   1      -0.593  -0.008  -1.648  0.00  0.00     0.048 A 
ATOM      4  C3  UNL d   1      -0.172  -0.069  -0.320  0.00  0.00     0.023 A 
ATOM      5  C4  UNL d   1      -0.871  -0.843   0.608  0.00  0.00     0.048 A 
ATOM      6  C5  UNL d   1      -1.998  -1.560   0.200  0.00  0.00     0.003 A 
ATOM      7  I   UNL d   1       1.505   1.001   0.283  0.00  0.00    -0.146 I 
ENDROOT
TORSDOF 0
ENDMDL
