MODEL 1
REMARK minimizedAffinity -1.96614635
REMARK minimizedRMSD -1
REMARK  0 active torsions:
REMARK  status: ('A' for Active; 'I' for Inactive)
ROOT
ATOM      1  C   UNL d   1       2.912   3.780   1.298  0.00  0.00     0.023 A 
ATOM      2  C1  UNL d   1       3.464   2.985   0.293  0.00  0.00     0.003 A 
ATOM      3  C2  UNL d   1       2.844   1.788  -0.071  0.00  0.00     0.048 A 
ATOM      4  C3  UNL d   1       1.673   1.392   0.573  0.00  0.00     0.023 A 
ATOM      5  C4  UNL d   1       1.117   2.184   1.579  0.00  0.00     0.048 A 
ATOM      6  C5  UNL d   1       1.741   3.380   1.940  0.00  0.00     0.003 A 
ATOM      7  I   UNL d   1       0.749  -0.390   0.033  0.00  0.00    -0.146 I 
ENDROOT
TORSDOF 0
ENDMDL
