MODEL 1
REMARK minimizedAffinity -2.45769262
REMARK minimizedRMSD -1
REMARK  0 active torsions:
REMARK  status: ('A' for Active; 'I' for Inactive)
ROOT
ATOM      1  C   UNL d   1       1.898  -0.771   1.106  0.00  0.00     0.023 A 
ATOM      2  C1  UNL d   1       0.823  -1.536   1.559  0.00  0.00     0.003 A 
ATOM      3  C2  UNL d   1      -0.435  -1.395   0.969  0.00  0.00     0.048 A 
ATOM      4  C3  UNL d   1      -0.610  -0.488  -0.075  0.00  0.00     0.023 A 
ATOM      5  C4  UNL d   1       0.462   0.279  -0.533  0.00  0.00     0.048 A 
ATOM      6  C5  UNL d   1       1.717   0.135   0.061  0.00  0.00     0.003 A 
ATOM      7  I   UNL d   1      -2.481  -0.277  -0.956  0.00  0.00    -0.146 I 
ENDROOT
TORSDOF 0
ENDMDL
