MODEL 1
REMARK minimizedAffinity -0.247370675
REMARK minimizedRMSD -1
REMARK  0 active torsions:
REMARK  status: ('A' for Active; 'I' for Inactive)
ROOT
ATOM      1  C   UNL d   1      -1.042   0.190  -1.504  0.00  0.00     0.023 A 
ATOM      2  C1  UNL d   1      -1.615   1.044  -0.560  0.00  0.00     0.003 A 
ATOM      3  C2  UNL d   1      -0.805   1.725   0.350  0.00  0.00     0.048 A 
ATOM      4  C3  UNL d   1       0.578   1.549   0.311  0.00  0.00     0.023 A 
ATOM      5  C4  UNL d   1       1.156   0.697  -0.631  0.00  0.00     0.048 A 
ATOM      6  C5  UNL d   1       0.341   0.017  -1.539  0.00  0.00     0.003 A 
ATOM      7  I   UNL d   1       1.786   2.562   1.665  0.00  0.00    -0.146 I 
ENDROOT
TORSDOF 0
ENDMDL
