MODEL 1
REMARK minimizedAffinity -2.16707683
REMARK minimizedRMSD -1
REMARK  0 active torsions:
REMARK  status: ('A' for Active; 'I' for Inactive)
ROOT
ATOM      1  C   UNL d   1       3.027   2.257   1.100  0.00  0.00     0.023 A 
ATOM      2  C1  UNL d   1       3.172   1.116   0.311  0.00  0.00     0.003 A 
ATOM      3  C2  UNL d   1       2.044   0.444  -0.162  0.00  0.00     0.048 A 
ATOM      4  C3  UNL d   1       0.772   0.920   0.156  0.00  0.00     0.023 A 
ATOM      5  C4  UNL d   1       0.621   2.062   0.944  0.00  0.00     0.048 A 
ATOM      6  C5  UNL d   1       1.753   2.729   1.416  0.00  0.00     0.003 A 
ATOM      7  I   UNL d   1      -0.910  -0.078  -0.548  0.00  0.00    -0.146 I 
ENDROOT
TORSDOF 0
ENDMDL
