MODEL 1
REMARK minimizedAffinity -2.04462719
REMARK minimizedRMSD -1
REMARK  0 active torsions:
REMARK  status: ('A' for Active; 'I' for Inactive)
ROOT
ATOM      1  C   UNL d   1       2.349   3.005   1.761  0.00  0.00     0.023 A 
ATOM      2  C1  UNL d   1       2.096   1.723   2.248  0.00  0.00     0.003 A 
ATOM      3  C2  UNL d   1       1.435   0.789   1.448  0.00  0.00     0.048 A 
ATOM      4  C3  UNL d   1       1.031   1.143   0.162  0.00  0.00     0.023 A 
ATOM      5  C4  UNL d   1       1.283   2.425  -0.330  0.00  0.00     0.048 A 
ATOM      6  C5  UNL d   1       1.944   3.356   0.474  0.00  0.00     0.003 A 
ATOM      7  I   UNL d   1       0.047  -0.245  -1.031  0.00  0.00    -0.146 I 
ENDROOT
TORSDOF 0
ENDMDL
