MODEL 1
REMARK minimizedAffinity -0.393648922
REMARK minimizedRMSD -1
REMARK  0 active torsions:
REMARK  status: ('A' for Active; 'I' for Inactive)
ROOT
ATOM      1  C   UNL d   1      -2.425  -1.100  -1.484  0.00  0.00     0.023 A 
ATOM      2  C1  UNL d   1      -1.872   0.036  -2.076  0.00  0.00     0.003 A 
ATOM      3  C2  UNL d   1      -0.755   0.649  -1.506  0.00  0.00     0.048 A 
ATOM      4  C3  UNL d   1      -0.195   0.121  -0.343  0.00  0.00     0.023 A 
ATOM      5  C4  UNL d   1      -0.744  -1.016   0.252  0.00  0.00     0.048 A 
ATOM      6  C5  UNL d   1      -1.861  -1.625  -0.321  0.00  0.00     0.003 A 
ATOM      7  I   UNL d   1       1.469   1.031   0.508  0.00  0.00    -0.146 I 
ENDROOT
TORSDOF 0
ENDMDL
