MODEL 1
REMARK minimizedAffinity -4.25244236
REMARK minimizedRMSD -1
REMARK  0 active torsions:
REMARK  status: ('A' for Active; 'I' for Inactive)
ROOT
ATOM      1  C   UNL d   1      -2.617  -2.628  -0.210  0.00  0.00     0.023 A 
ATOM      2  C1  UNL d   1      -1.687  -2.758   0.822  0.00  0.00     0.003 A 
ATOM      3  C2  UNL d   1      -0.645  -1.836   0.945  0.00  0.00     0.048 A 
ATOM      4  C3  UNL d   1      -0.538  -0.787   0.033  0.00  0.00     0.023 A 
ATOM      5  C4  UNL d   1      -1.467  -0.652  -1.001  0.00  0.00     0.048 A 
ATOM      6  C5  UNL d   1      -2.507  -1.576  -1.120  0.00  0.00     0.003 A 
ATOM      7  I   UNL d   1       1.012   0.585   0.214  0.00  0.00    -0.146 I 
ENDROOT
TORSDOF 0
ENDMDL
