MODEL 1
REMARK minimizedAffinity -2.61951518
REMARK minimizedRMSD -1
REMARK  0 active torsions:
REMARK  status: ('A' for Active; 'I' for Inactive)
ROOT
ATOM      1  C   UNL d   1      -1.373   0.249  -2.977  0.00  0.00     0.023 A 
ATOM      2  C1  UNL d   1      -2.027  -0.555  -2.043  0.00  0.00     0.003 A 
ATOM      3  C2  UNL d   1      -1.423  -0.835  -0.816  0.00  0.00     0.048 A 
ATOM      4  C3  UNL d   1      -0.165  -0.307  -0.528  0.00  0.00     0.023 A 
ATOM      5  C4  UNL d   1       0.493   0.499  -1.458  0.00  0.00     0.048 A 
ATOM      6  C5  UNL d   1      -0.115   0.776  -2.684  0.00  0.00     0.003 A 
ATOM      7  I   UNL d   1       0.736  -0.722   1.299  0.00  0.00    -0.146 I 
ENDROOT
TORSDOF 0
ENDMDL
