MODEL 1
REMARK minimizedAffinity -2.53370142
REMARK minimizedRMSD -1
REMARK  0 active torsions:
REMARK  status: ('A' for Active; 'I' for Inactive)
ROOT
ATOM      1  C1  DEN d   1       0.008  -2.177   0.742  0.00  0.00     0.130 A 
ATOM      2  C2  DEN d   1       0.878  -2.306  -0.423  0.00  0.00    -0.031 A 
ATOM      3  C3  DEN d   1       0.722  -1.089  -1.246  0.00  0.00     0.027 A 
ATOM      4  C4  DEN d   1      -0.770   0.972  -0.827  0.00  0.00     0.027 A 
ATOM      5  C5  DEN d   1      -1.696   1.533   0.025  0.00  0.00    -0.003 A 
ATOM      6  C6  DEN d   1      -2.140   0.888   1.148  0.00  0.00     0.001 A 
ATOM      7  C7  DEN d   1      -1.625  -0.339   1.475  0.00  0.00     0.017 A 
ATOM      8  C8  DEN d   1      -0.697  -0.915   0.617  0.00  0.00    -0.094 A 
ATOM      9  C9  DEN d   1      -0.251  -0.241  -0.508  0.00  0.00    -0.072 A 
ENDROOT
TORSDOF 0
ENDMDL
