MODEL 1
REMARK minimizedAffinity -2.1180203
REMARK minimizedRMSD -1
REMARK  0 active torsions:
REMARK  status: ('A' for Active; 'I' for Inactive)
ROOT
ATOM      1  C1  DEN d   1      -3.425  -0.969   3.065  0.00  0.00     0.130 A 
ATOM      2  C2  DEN d   1      -3.748  -0.493   4.408  0.00  0.00    -0.031 A 
ATOM      3  C3  DEN d   1      -3.011   0.766   4.635  0.00  0.00     0.027 A 
ATOM      4  C4  DEN d   1      -1.413   2.021   3.046  0.00  0.00     0.027 A 
ATOM      5  C5  DEN d   1      -0.820   1.999   1.803  0.00  0.00    -0.003 A 
ATOM      6  C6  DEN d   1      -1.024   0.976   0.915  0.00  0.00     0.001 A 
ATOM      7  C7  DEN d   1      -1.879  -0.044   1.238  0.00  0.00     0.017 A 
ATOM      8  C8  DEN d   1      -2.475  -0.032   2.492  0.00  0.00    -0.094 A 
ATOM      9  C9  DEN d   1      -2.266   1.017   3.372  0.00  0.00    -0.072 A 
ENDROOT
TORSDOF 0
ENDMDL
