MODEL 1
REMARK minimizedAffinity -0.297469079
REMARK minimizedRMSD -1
REMARK  0 active torsions:
REMARK  status: ('A' for Active; 'I' for Inactive)
ROOT
ATOM      1  C1  DEN d   1       2.382   1.109  -3.024  0.00  0.00     0.130 A 
ATOM      2  C2  DEN d   1       1.645   2.360  -2.873  0.00  0.00    -0.031 A 
ATOM      3  C3  DEN d   1       0.711   2.206  -1.739  0.00  0.00     0.027 A 
ATOM      4  C4  DEN d   1       0.342   0.163  -0.208  0.00  0.00     0.027 A 
ATOM      5  C5  DEN d   1       0.727  -1.135   0.044  0.00  0.00    -0.003 A 
ATOM      6  C6  DEN d   1       1.659  -1.782  -0.724  0.00  0.00     0.001 A 
ATOM      7  C7  DEN d   1       2.270  -1.117  -1.754  0.00  0.00     0.017 A 
ATOM      8  C8  DEN d   1       1.881   0.189  -2.019  0.00  0.00    -0.094 A 
ATOM      9  C9  DEN d   1       0.946   0.830  -1.224  0.00  0.00    -0.072 A 
ENDROOT
TORSDOF 0
ENDMDL
