MODEL 1
REMARK minimizedAffinity -2.30561113
REMARK minimizedRMSD -1
REMARK  0 active torsions:
REMARK  status: ('A' for Active; 'I' for Inactive)
ROOT
ATOM      1  C1  DEN d   1      -4.532  -1.361   2.760  0.00  0.00     0.130 A 
ATOM      2  C2  DEN d   1      -4.695  -2.052   4.036  0.00  0.00    -0.031 A 
ATOM      3  C3  DEN d   1      -3.667  -1.542   4.965  0.00  0.00     0.027 A 
ATOM      4  C4  DEN d   1      -1.853   0.246   4.556  0.00  0.00     0.027 A 
ATOM      5  C5  DEN d   1      -1.315   1.106   3.625  0.00  0.00    -0.003 A 
ATOM      6  C6  DEN d   1      -1.786   1.180   2.341  0.00  0.00     0.001 A 
ATOM      7  C7  DEN d   1      -2.855   0.410   1.965  0.00  0.00     0.017 A 
ATOM      8  C8  DEN d   1      -3.398  -0.465   2.896  0.00  0.00    -0.094 A 
ATOM      9  C9  DEN d   1      -2.916  -0.516   4.193  0.00  0.00    -0.072 A 
ENDROOT
TORSDOF 0
ENDMDL
