MODEL 1
REMARK minimizedAffinity -3.36911416
REMARK minimizedRMSD -1
REMARK  0 active torsions:
REMARK  status: ('A' for Active; 'I' for Inactive)
ROOT
ATOM      1  C1  DEN d   1      -0.797   0.698   3.239  0.00  0.00     0.130 A 
ATOM      2  C2  DEN d   1      -2.217   1.036   3.247  0.00  0.00    -0.031 A 
ATOM      3  C3  DEN d   1      -2.728   0.892   1.869  0.00  0.00     0.027 A 
ATOM      4  C4  DEN d   1      -1.466   0.176  -0.263  0.00  0.00     0.027 A 
ATOM      5  C5  DEN d   1      -0.242  -0.201  -0.770  0.00  0.00    -0.003 A 
ATOM      6  C6  DEN d   1       0.881  -0.271   0.011  0.00  0.00     0.001 A 
ATOM      7  C7  DEN d   1       0.794  -0.003   1.352  0.00  0.00     0.017 A 
ATOM      8  C8  DEN d   1      -0.436   0.384   1.868  0.00  0.00    -0.094 A 
ATOM      9  C9  DEN d   1      -1.562   0.437   1.065  0.00  0.00    -0.072 A 
ENDROOT
TORSDOF 0
ENDMDL
