MODEL 1
REMARK minimizedAffinity -5.25234127
REMARK minimizedRMSD -1
REMARK  0 active torsions:
REMARK  status: ('A' for Active; 'I' for Inactive)
ROOT
ATOM      1  C1  DEN d   1       0.569  -2.176   0.324  0.00  0.00     0.130 A 
ATOM      2  C2  DEN d   1       1.882  -2.182  -0.314  0.00  0.00    -0.031 A 
ATOM      3  C3  DEN d   1       2.098  -0.856  -0.927  0.00  0.00     0.027 A 
ATOM      4  C4  DEN d   1       0.536   1.197  -0.945  0.00  0.00     0.027 A 
ATOM      5  C5  DEN d   1      -0.691   1.677  -0.544  0.00  0.00    -0.003 A 
ATOM      6  C6  DEN d   1      -1.590   0.903   0.140  0.00  0.00     0.001 A 
ATOM      7  C7  DEN d   1      -1.258  -0.381   0.483  0.00  0.00     0.017 A 
ATOM      8  C8  DEN d   1      -0.026  -0.875   0.075  0.00  0.00    -0.094 A 
ATOM      9  C9  DEN d   1       0.875  -0.073  -0.605  0.00  0.00    -0.072 A 
ENDROOT
TORSDOF 0
ENDMDL
