MODEL 1
REMARK minimizedAffinity -4.96233559
REMARK minimizedRMSD -1
REMARK  0 active torsions:
REMARK  status: ('A' for Active; 'I' for Inactive)
ROOT
ATOM      1  C1  DEN d   1       2.099   0.741  -1.261  0.00  0.00     0.130 A 
ATOM      2  C2  DEN d   1       2.694  -0.591  -1.315  0.00  0.00    -0.031 A 
ATOM      3  C3  DEN d   1       1.674  -1.565  -0.879  0.00  0.00     0.027 A 
ATOM      4  C4  DEN d   1      -0.759  -1.143  -0.135  0.00  0.00     0.027 A 
ATOM      5  C5  DEN d   1      -1.714  -0.174   0.086  0.00  0.00    -0.003 A 
ATOM      6  C6  DEN d   1      -1.456   1.159  -0.093  0.00  0.00     0.001 A 
ATOM      7  C7  DEN d   1      -0.227   1.558  -0.549  0.00  0.00     0.017 A 
ATOM      8  C8  DEN d   1       0.743   0.588  -0.766  0.00  0.00    -0.094 A 
ATOM      9  C9  DEN d   1       0.459  -0.756  -0.591  0.00  0.00    -0.072 A 
ENDROOT
TORSDOF 0
ENDMDL
