MODEL 1
REMARK minimizedAffinity -5.56685257
REMARK minimizedRMSD -1
REMARK  0 active torsions:
REMARK  status: ('A' for Active; 'I' for Inactive)
ROOT
ATOM      1  C1  DEN d   1      -1.363  -0.769   1.005  0.00  0.00     0.130 A 
ATOM      2  C2  DEN d   1      -1.634   0.584   1.484  0.00  0.00    -0.031 A 
ATOM      3  C3  DEN d   1      -0.646   1.493   0.869  0.00  0.00     0.027 A 
ATOM      4  C4  DEN d   1       1.264   0.941  -0.773  0.00  0.00     0.027 A 
ATOM      5  C5  DEN d   1       1.896  -0.071  -1.461  0.00  0.00    -0.003 A 
ATOM      6  C6  DEN d   1       1.510  -1.381  -1.350  0.00  0.00     0.001 A 
ATOM      7  C7  DEN d   1       0.435  -1.708  -0.567  0.00  0.00     0.017 A 
ATOM      8  C8  DEN d   1      -0.202  -0.693   0.136  0.00  0.00    -0.094 A 
ATOM      9  C9  DEN d   1       0.195   0.626   0.000  0.00  0.00    -0.072 A 
ENDROOT
TORSDOF 0
ENDMDL
