MODEL 1
REMARK minimizedAffinity -4.15645218
REMARK minimizedRMSD -1
REMARK  0 active torsions:
REMARK  status: ('A' for Active; 'I' for Inactive)
ROOT
ATOM      1  C1  DEN d   1      -3.877  -0.307   4.740  0.00  0.00     0.130 A 
ATOM      2  C2  DEN d   1      -4.351  -1.532   4.101  0.00  0.00    -0.031 A 
ATOM      3  C3  DEN d   1      -3.886  -1.525   2.700  0.00  0.00     0.027 A 
ATOM      4  C4  DEN d   1      -2.480   0.251   1.466  0.00  0.00     0.027 A 
ATOM      5  C5  DEN d   1      -1.852   1.470   1.590  0.00  0.00    -0.003 A 
ATOM      6  C6  DEN d   1      -1.883   2.193   2.753  0.00  0.00     0.001 A 
ATOM      7  C7  DEN d   1      -2.519   1.681   3.853  0.00  0.00     0.017 A 
ATOM      8  C8  DEN d   1      -3.161   0.455   3.733  0.00  0.00    -0.094 A 
ATOM      9  C9  DEN d   1      -3.107  -0.266   2.552  0.00  0.00    -0.072 A 
ENDROOT
TORSDOF 0
ENDMDL
