MODEL 1
REMARK minimizedAffinity -1.39529848
REMARK minimizedRMSD -1
REMARK  0 active torsions:
REMARK  status: ('A' for Active; 'I' for Inactive)
ROOT
ATOM      1  C1  DEN d   1      -0.008   1.339   0.386  0.00  0.00     0.130 A 
ATOM      2  C2  DEN d   1      -1.160   0.867   1.149  0.00  0.00    -0.031 A 
ATOM      3  C3  DEN d   1      -1.242  -0.599   0.992  0.00  0.00     0.027 A 
ATOM      4  C4  DEN d   1       0.297  -2.176  -0.348  0.00  0.00     0.027 A 
ATOM      5  C5  DEN d   1       1.401  -2.237  -1.169  0.00  0.00    -0.003 A 
ATOM      6  C6  DEN d   1       2.088  -1.115  -1.553  0.00  0.00     0.001 A 
ATOM      7  C7  DEN d   1       1.703   0.111  -1.080  0.00  0.00     0.017 A 
ATOM      8  C8  DEN d   1       0.586   0.181  -0.258  0.00  0.00    -0.094 A 
ATOM      9  C9  DEN d   1      -0.087  -0.965   0.129  0.00  0.00    -0.072 A 
ENDROOT
TORSDOF 0
ENDMDL
