MODEL 1
REMARK minimizedAffinity -5.12276602
REMARK minimizedRMSD -1
REMARK  0 active torsions:
REMARK  status: ('A' for Active; 'I' for Inactive)
ROOT
ATOM      1  C1  DEN d   1       2.108   0.708  -1.430  0.00  0.00     0.130 A 
ATOM      2  C2  DEN d   1       2.979  -0.461  -1.514  0.00  0.00    -0.031 A 
ATOM      3  C3  DEN d   1       2.306  -1.582  -0.827  0.00  0.00     0.027 A 
ATOM      4  C4  DEN d   1       0.010  -1.622   0.346  0.00  0.00     0.027 A 
ATOM      5  C5  DEN d   1      -1.091  -0.866   0.686  0.00  0.00    -0.003 A 
ATOM      6  C6  DEN d   1      -1.187   0.465   0.376  0.00  0.00     0.001 A 
ATOM      7  C7  DEN d   1      -0.183   1.070  -0.333  0.00  0.00     0.017 A 
ATOM      8  C8  DEN d   1       0.933   0.317  -0.673  0.00  0.00    -0.094 A 
ATOM      9  C9  DEN d   1       1.005  -1.030  -0.361  0.00  0.00    -0.072 A 
ENDROOT
TORSDOF 0
ENDMDL
