MODEL 1
REMARK minimizedAffinity -2.53585148
REMARK minimizedRMSD -1
REMARK  0 active torsions:
REMARK  status: ('A' for Active; 'I' for Inactive)
ROOT
ATOM      1  C1  DEN d   1       0.058   0.892   1.034  0.00  0.00     0.130 A 
ATOM      2  C2  DEN d   1      -0.344   0.006  -0.055  0.00  0.00    -0.031 A 
ATOM      3  C3  DEN d   1      -1.693  -0.511   0.252  0.00  0.00     0.027 A 
ATOM      4  C4  DEN d   1      -3.192  -0.022   2.293  0.00  0.00     0.027 A 
ATOM      5  C5  DEN d   1      -3.276   0.661   3.486  0.00  0.00    -0.003 A 
ATOM      6  C6  DEN d   1      -2.250   1.435   3.958  0.00  0.00     0.001 A 
ATOM      7  C7  DEN d   1      -1.111   1.582   3.211  0.00  0.00     0.017 A 
ATOM      8  C8  DEN d   1      -1.016   0.891   2.010  0.00  0.00    -0.094 A 
ATOM      9  C9  DEN d   1      -2.069   0.123   1.545  0.00  0.00    -0.072 A 
ENDROOT
TORSDOF 0
ENDMDL
