MODEL 1
REMARK minimizedAffinity -4.22102737
REMARK minimizedRMSD -1
REMARK  0 active torsions:
REMARK  status: ('A' for Active; 'I' for Inactive)
ROOT
ATOM      1  C1  DEN d   1       2.540   0.469  -1.377  0.00  0.00     0.130 A 
ATOM      2  C2  DEN d   1       3.224  -0.761  -1.769  0.00  0.00    -0.031 A 
ATOM      3  C3  DEN d   1       2.417  -1.903  -1.294  0.00  0.00     0.027 A 
ATOM      4  C4  DEN d   1       0.185  -1.887  -0.002  0.00  0.00     0.027 A 
ATOM      5  C5  DEN d   1      -0.777  -1.082   0.566  0.00  0.00    -0.003 A 
ATOM      6  C6  DEN d   1      -0.685   0.285   0.556  0.00  0.00     0.001 A 
ATOM      7  C7  DEN d   1       0.371   0.889  -0.074  0.00  0.00     0.017 A 
ATOM      8  C8  DEN d   1       1.349   0.084  -0.642  0.00  0.00    -0.094 A 
ATOM      9  C9  DEN d   1       1.231  -1.295  -0.633  0.00  0.00    -0.072 A 
ENDROOT
TORSDOF 0
ENDMDL
