MODEL 1
REMARK minimizedAffinity -2.79922891
REMARK minimizedRMSD -1
REMARK  0 active torsions:
REMARK  status: ('A' for Active; 'I' for Inactive)
ROOT
ATOM      1  C1  DEN d   1       1.098   2.358  -2.042  0.00  0.00     0.130 A 
ATOM      2  C2  DEN d   1       2.101   2.208  -3.092  0.00  0.00    -0.031 A 
ATOM      3  C3  DEN d   1       2.707   0.868  -2.957  0.00  0.00     0.027 A 
ATOM      4  C4  DEN d   1       2.188  -0.981  -1.235  0.00  0.00     0.027 A 
ATOM      5  C5  DEN d   1       1.422  -1.311  -0.139  0.00  0.00    -0.003 A 
ATOM      6  C6  DEN d   1       0.525  -0.436   0.415  0.00  0.00     0.001 A 
ATOM      7  C7  DEN d   1       0.340   0.797  -0.152  0.00  0.00     0.017 A 
ATOM      8  C8  DEN d   1       1.115   1.140  -1.252  0.00  0.00    -0.094 A 
ATOM      9  C9  DEN d   1       2.007   0.237  -1.806  0.00  0.00    -0.072 A 
ENDROOT
TORSDOF 0
ENDMDL
