MODEL 1
REMARK minimizedAffinity -5.33548403
REMARK minimizedRMSD -1
REMARK  0 active torsions:
REMARK  status: ('A' for Active; 'I' for Inactive)
ROOT
ATOM      1  C1  DEN d   1       2.158  -1.800  -1.102  0.00  0.00     0.130 A 
ATOM      2  C2  DEN d   1       1.168  -2.158  -0.090  0.00  0.00    -0.031 A 
ATOM      3  C3  DEN d   1       0.249  -1.014   0.073  0.00  0.00     0.027 A 
ATOM      4  C4  DEN d   1       0.259   1.262  -1.140  0.00  0.00     0.027 A 
ATOM      5  C5  DEN d   1       0.914   2.033  -2.075  0.00  0.00    -0.003 A 
ATOM      6  C6  DEN d   1       2.040   1.596  -2.722  0.00  0.00     0.001 A 
ATOM      7  C7  DEN d   1       2.520   0.337  -2.474  0.00  0.00     0.017 A 
ATOM      8  C8  DEN d   1       1.869  -0.443  -1.527  0.00  0.00    -0.094 A 
ATOM      9  C9  DEN d   1       0.725   0.012  -0.894  0.00  0.00    -0.072 A 
ENDROOT
TORSDOF 0
ENDMDL
