MODEL 1
REMARK minimizedAffinity 8.55400658
REMARK minimizedRMSD -1
REMARK  0 active torsions:
REMARK  status: ('A' for Active; 'I' for Inactive)
ROOT
ATOM      1  O1  BZF d   1      -1.917  -4.708  -2.723  0.00  0.00    -0.204 OA
ATOM      2  C2  BZF d   1      -1.856  -5.998  -3.214  0.00  0.00     0.174 A 
ATOM      3  C3  BZF d   1      -1.481  -5.999  -4.510  0.00  0.00    -0.012 A 
ATOM      4  C3A BZF d   1      -1.207  -4.631  -4.824  0.00  0.00    -0.107 A 
ATOM      5  C4  BZF d   1      -0.780  -3.994  -5.954  0.00  0.00     0.055 A 
ATOM      6  C5  BZF d   1      -0.682  -2.639  -5.951  0.00  0.00    -0.016 A 
ATOM      7  C6  BZF d   1      -1.009  -1.889  -4.840  0.00  0.00     0.022 A 
ATOM      8  C7  BZF d   1      -1.433  -2.476  -3.695  0.00  0.00     0.029 A 
ATOM      9  C7A BZF d   1      -1.501  -3.848  -3.683  0.00  0.00     0.058 A 
ENDROOT
TORSDOF 0
ENDMDL
