MODEL 1
REMARK minimizedAffinity 2.26676536
REMARK minimizedRMSD -1
REMARK  0 active torsions:
REMARK  status: ('A' for Active; 'I' for Inactive)
ROOT
ATOM      1  O1  BZF d   1       3.191  -3.884   5.348  0.00  0.00    -0.204 OA
ATOM      2  C2  BZF d   1       4.297  -3.374   6.000  0.00  0.00     0.174 A 
ATOM      3  C3  BZF d   1       4.471  -2.071   5.699  0.00  0.00    -0.012 A 
ATOM      4  C3A BZF d   1       3.353  -1.723   4.876  0.00  0.00    -0.107 A 
ATOM      5  C4  BZF d   1       2.956  -0.563   4.274  0.00  0.00     0.055 A 
ATOM      6  C5  BZF d   1       1.855  -0.576   3.478  0.00  0.00    -0.016 A 
ATOM      7  C6  BZF d   1       1.131  -1.730   3.258  0.00  0.00     0.022 A 
ATOM      8  C7  BZF d   1       1.484  -2.903   3.837  0.00  0.00     0.029 A 
ATOM      9  C7A BZF d   1       2.577  -2.886   4.669  0.00  0.00     0.058 A 
ENDROOT
TORSDOF 0
ENDMDL
