MODEL 1
REMARK minimizedAffinity 13.2569447
REMARK minimizedRMSD -1
REMARK  0 active torsions:
REMARK  status: ('A' for Active; 'I' for Inactive)
ROOT
ATOM      1  O1  BZF d   1       5.453  -2.251   4.790  0.00  0.00    -0.204 OA
ATOM      2  C2  BZF d   1       5.677  -3.605   4.949  0.00  0.00     0.174 A 
ATOM      3  C3  BZF d   1       4.525  -4.297   4.831  0.00  0.00    -0.012 A 
ATOM      4  C3A BZF d   1       3.533  -3.323   4.492  0.00  0.00    -0.107 A 
ATOM      5  C4  BZF d   1       2.195  -3.397   4.229  0.00  0.00     0.055 A 
ATOM      6  C5  BZF d   1       1.502  -2.251   4.003  0.00  0.00    -0.016 A 
ATOM      7  C6  BZF d   1       2.112  -1.014   4.038  0.00  0.00     0.022 A 
ATOM      8  C7  BZF d   1       3.438  -0.890   4.289  0.00  0.00     0.029 A 
ATOM      9  C7A BZF d   1       4.148  -2.050   4.485  0.00  0.00     0.058 A 
ENDROOT
TORSDOF 0
ENDMDL
