MODEL 1
REMARK minimizedAffinity 13.1888638
REMARK minimizedRMSD -1
REMARK  0 active torsions:
REMARK  status: ('A' for Active; 'I' for Inactive)
ROOT
ATOM      1  O1  BZF d   1      -1.905  -4.077  -3.914  0.00  0.00    -0.204 OA
ATOM      2  C2  BZF d   1      -1.995  -4.365  -5.262  0.00  0.00     0.174 A 
ATOM      3  C3  BZF d   1      -1.425  -3.389  -5.999  0.00  0.00    -0.012 A 
ATOM      4  C3A BZF d   1      -0.867  -2.477  -5.048  0.00  0.00    -0.107 A 
ATOM      5  C4  BZF d   1      -0.160  -1.315  -5.166  0.00  0.00     0.055 A 
ATOM      6  C5  BZF d   1       0.173  -0.628  -4.042  0.00  0.00    -0.016 A 
ATOM      7  C6  BZF d   1      -0.188  -1.070  -2.786  0.00  0.00     0.022 A 
ATOM      8  C7  BZF d   1      -0.886  -2.220  -2.619  0.00  0.00     0.029 A 
ATOM      9  C7A BZF d   1      -1.196  -2.934  -3.751  0.00  0.00     0.058 A 
ENDROOT
TORSDOF 0
ENDMDL
