MODEL 1
REMARK minimizedAffinity 5.90317202
REMARK minimizedRMSD -1
REMARK  0 active torsions:
REMARK  status: ('A' for Active; 'I' for Inactive)
ROOT
ATOM      1  O1  BZF d   1      -1.371  -4.485  -5.996  0.00  0.00    -0.204 OA
ATOM      2  C2  BZF d   1      -2.157  -5.156  -5.080  0.00  0.00     0.174 A 
ATOM      3  C3  BZF d   1      -2.287  -4.439  -3.945  0.00  0.00    -0.012 A 
ATOM      4  C3A BZF d   1      -1.611  -3.204  -4.200  0.00  0.00    -0.107 A 
ATOM      5  C4  BZF d   1      -1.407  -2.075  -3.459  0.00  0.00     0.055 A 
ATOM      6  C5  BZF d   1      -0.641  -1.077  -3.974  0.00  0.00    -0.016 A 
ATOM      7  C6  BZF d   1      -0.061  -1.177  -5.222  0.00  0.00     0.022 A 
ATOM      8  C7  BZF d   1      -0.240  -2.275  -5.995  0.00  0.00     0.029 A 
ATOM      9  C7A BZF d   1      -1.040  -3.272  -5.492  0.00  0.00     0.058 A 
ENDROOT
TORSDOF 0
ENDMDL
