MODEL 1
REMARK minimizedAffinity -4.77484512
REMARK minimizedRMSD -1
REMARK  2 active torsions:
REMARK  status: ('A' for Active; 'I' for Inactive)
REMARK    1  A    between atoms: C1_2  and  C2_3 
REMARK    2  A    between atoms: C2_3  and  C3_4 
ROOT
ATOM      1  C3  UNL d   1      -0.125  -2.226  -1.314  0.00  0.00    -0.075 A 
ATOM      2  C4  UNL d   1      -0.507  -0.978  -1.830  0.00  0.00     0.002 A 
ATOM      3  C5  UNL d   1      -0.561   0.144  -1.002  0.00  0.00     0.002 A 
ATOM      4  C6  UNL d   1      -0.246   0.032   0.350  0.00  0.00    -0.004 A 
ATOM      5  C7  UNL d   1       0.118  -1.206   0.877  0.00  0.00     0.002 A 
ATOM      6  C8  UNL d   1       0.178  -2.329   0.050  0.00  0.00     0.002 A 
ENDROOT
BRANCH   1   7
ATOM      7  C2  UNL d   1      -0.036  -3.438  -2.210  0.00  0.00     0.056 C 
BRANCH   7   8
ATOM      8  C1  UNL d   1      -1.342  -3.774  -2.937  0.00  0.00     0.007 C 
ATOM      9  C   UNL d   1      -2.544  -3.852  -2.005  0.00  0.00     0.009 C 
ENDBRANCH   7   8
ENDBRANCH   1   7
TORSDOF 2
ENDMDL
