MODEL 1
REMARK minimizedAffinity -5.13714361
REMARK minimizedRMSD -1
REMARK  2 active torsions:
REMARK  status: ('A' for Active; 'I' for Inactive)
REMARK    1  A    between atoms: C1_2  and  C2_3 
REMARK    2  A    between atoms: C2_3  and  C3_4 
ROOT
ATOM      1  C3  UNL d   1      -0.073  -0.420  -0.049  0.00  0.00    -0.075 A 
ATOM      2  C4  UNL d   1      -1.210  -0.142   0.724  0.00  0.00     0.002 A 
ATOM      3  C5  UNL d   1      -1.590   1.177   0.976  0.00  0.00     0.002 A 
ATOM      4  C6  UNL d   1      -0.834   2.232   0.469  0.00  0.00    -0.004 A 
ATOM      5  C7  UNL d   1       0.307   1.967  -0.286  0.00  0.00     0.002 A 
ATOM      6  C8  UNL d   1       0.687   0.649  -0.543  0.00  0.00     0.002 A 
ENDROOT
BRANCH   1   7
ATOM      7  C2  UNL d   1       0.327  -1.844  -0.350  0.00  0.00     0.056 C 
BRANCH   7   8
ATOM      8  C1  UNL d   1      -0.818  -2.716  -0.875  0.00  0.00     0.007 C 
ATOM      9  C   UNL d   1      -0.504  -3.381  -2.208  0.00  0.00     0.009 C 
ENDBRANCH   7   8
ENDBRANCH   1   7
TORSDOF 2
ENDMDL
