MODEL 1
REMARK minimizedAffinity -4.03562307
REMARK minimizedRMSD -1
REMARK  2 active torsions:
REMARK  status: ('A' for Active; 'I' for Inactive)
REMARK    1  A    between atoms: C1_2  and  C2_3 
REMARK    2  A    between atoms: C2_3  and  C3_4 
ROOT
ATOM      1  C3  UNL d   1      -0.116   0.111  -0.083  0.00  0.00    -0.075 A 
ATOM      2  C4  UNL d   1      -0.728   1.345   0.182  0.00  0.00     0.002 A 
ATOM      3  C5  UNL d   1       0.018   2.412   0.682  0.00  0.00     0.002 A 
ATOM      4  C6  UNL d   1       1.379   2.258   0.932  0.00  0.00    -0.004 A 
ATOM      5  C7  UNL d   1       1.994   1.032   0.688  0.00  0.00     0.002 A 
ATOM      6  C8  UNL d   1       1.251  -0.037   0.184  0.00  0.00     0.002 A 
ENDROOT
BRANCH   1   7
ATOM      7  C2  UNL d   1      -0.912  -1.040  -0.652  0.00  0.00     0.056 C 
BRANCH   7   8
ATOM      8  C1  UNL d   1      -0.305  -1.652  -1.919  0.00  0.00     0.007 C 
ATOM      9  C   UNL d   1      -1.208  -2.685  -2.578  0.00  0.00     0.009 C 
ENDBRANCH   7   8
ENDBRANCH   1   7
TORSDOF 2
ENDMDL
