MODEL 1
REMARK minimizedAffinity -4.77790833
REMARK minimizedRMSD -1
REMARK  2 active torsions:
REMARK  status: ('A' for Active; 'I' for Inactive)
REMARK    1  A    between atoms: C1_2  and  C2_3 
REMARK    2  A    between atoms: C2_3  and  C3_4 
ROOT
ATOM      1  C3  UNL d   1       0.151  -0.180   0.261  0.00  0.00    -0.075 A 
ATOM      2  C4  UNL d   1      -1.059   0.365   0.713  0.00  0.00     0.002 A 
ATOM      3  C5  UNL d   1      -1.287   1.739   0.643  0.00  0.00     0.002 A 
ATOM      4  C6  UNL d   1      -0.307   2.586   0.130  0.00  0.00    -0.004 A 
ATOM      5  C7  UNL d   1       0.906   2.057  -0.307  0.00  0.00     0.002 A 
ATOM      6  C8  UNL d   1       1.135   0.682  -0.242  0.00  0.00     0.002 A 
ENDROOT
BRANCH   1   7
ATOM      7  C2  UNL d   1       0.393  -1.670   0.307  0.00  0.00     0.056 C 
BRANCH   7   8
ATOM      8  C1  UNL d   1       0.195  -2.376  -1.039  0.00  0.00     0.007 C 
ATOM      9  C   UNL d   1      -0.860  -3.474  -0.991  0.00  0.00     0.009 C 
ENDBRANCH   7   8
ENDBRANCH   1   7
TORSDOF 2
ENDMDL
