MODEL 1
REMARK minimizedAffinity -3.65545559
REMARK minimizedRMSD -1
REMARK  2 active torsions:
REMARK  status: ('A' for Active; 'I' for Inactive)
REMARK    1  A    between atoms: C1_2  and  C2_3 
REMARK    2  A    between atoms: C2_3  and  C3_4 
ROOT
ATOM      1  C3  UNL d   1      -1.513  -4.044  -1.312  0.00  0.00    -0.075 A 
ATOM      2  C4  UNL d   1      -1.073  -3.281  -0.221  0.00  0.00     0.002 A 
ATOM      3  C5  UNL d   1       0.164  -2.637  -0.260  0.00  0.00     0.002 A 
ATOM      4  C6  UNL d   1       0.980  -2.755  -1.383  0.00  0.00    -0.004 A 
ATOM      5  C7  UNL d   1       0.560  -3.525  -2.466  0.00  0.00     0.002 A 
ATOM      6  C8  UNL d   1      -0.679  -4.166  -2.432  0.00  0.00     0.002 A 
ENDROOT
BRANCH   1   7
ATOM      7  C2  UNL d   1      -2.863  -4.719  -1.288  0.00  0.00     0.056 C 
BRANCH   7   8
ATOM      8  C1  UNL d   1      -3.486  -4.818   0.108  0.00  0.00     0.007 C 
ATOM      9  C   UNL d   1      -4.744  -5.677   0.145  0.00  0.00     0.009 C 
ENDBRANCH   7   8
ENDBRANCH   1   7
TORSDOF 2
ENDMDL
