MODEL 1
REMARK minimizedAffinity -1.67794406
REMARK minimizedRMSD -1
REMARK  2 active torsions:
REMARK  status: ('A' for Active; 'I' for Inactive)
REMARK    1  A    between atoms: C1_2  and  C2_3 
REMARK    2  A    between atoms: C2_3  and  C3_4 
ROOT
ATOM      1  C3  UNL d   1       0.134  -1.051  -0.160  0.00  0.00    -0.075 A 
ATOM      2  C4  UNL d   1      -0.789  -0.032   0.114  0.00  0.00     0.002 A 
ATOM      3  C5  UNL d   1      -0.351   1.249   0.452  0.00  0.00     0.002 A 
ATOM      4  C6  UNL d   1       1.012   1.524   0.531  0.00  0.00    -0.004 A 
ATOM      5  C7  UNL d   1       1.938   0.514   0.277  0.00  0.00     0.002 A 
ATOM      6  C8  UNL d   1       1.503  -0.767  -0.066  0.00  0.00     0.002 A 
ENDROOT
BRANCH   1   7
ATOM      7  C2  UNL d   1      -0.334  -2.431  -0.555  0.00  0.00     0.056 C 
BRANCH   7   8
ATOM      8  C1  UNL d   1      -0.174  -2.740  -2.047  0.00  0.00     0.007 C 
ATOM      9  C   UNL d   1      -0.924  -3.992  -2.485  0.00  0.00     0.009 C 
ENDBRANCH   7   8
ENDBRANCH   1   7
TORSDOF 2
ENDMDL
