MODEL 1
REMARK minimizedAffinity -4.63839817
REMARK minimizedRMSD -1
REMARK  2 active torsions:
REMARK  status: ('A' for Active; 'I' for Inactive)
REMARK    1  A    between atoms: C1_2  and  C2_3 
REMARK    2  A    between atoms: C2_3  and  C3_4 
ROOT
ATOM      1  C3  UNL d   1      -0.169  -0.809   0.226  0.00  0.00    -0.075 A 
ATOM      2  C4  UNL d   1      -1.413  -0.314   0.644  0.00  0.00     0.002 A 
ATOM      3  C5  UNL d   1      -1.615   1.059   0.792  0.00  0.00     0.002 A 
ATOM      4  C6  UNL d   1      -0.577   1.951   0.534  0.00  0.00    -0.004 A 
ATOM      5  C7  UNL d   1       0.668   1.469   0.135  0.00  0.00     0.002 A 
ATOM      6  C8  UNL d   1       0.872   0.097  -0.018  0.00  0.00     0.002 A 
ENDROOT
BRANCH   1   7
ATOM      7  C2  UNL d   1       0.048  -2.291   0.036  0.00  0.00     0.056 C 
BRANCH   7   8
ATOM      8  C1  UNL d   1      -0.905  -2.936  -0.975  0.00  0.00     0.007 C 
ATOM      9  C   UNL d   1      -0.228  -3.305  -2.289  0.00  0.00     0.009 C 
ENDBRANCH   7   8
ENDBRANCH   1   7
TORSDOF 2
ENDMDL
