MODEL 1
REMARK minimizedAffinity -2.80944562
REMARK minimizedRMSD -1
REMARK  2 active torsions:
REMARK  status: ('A' for Active; 'I' for Inactive)
REMARK    1  A    between atoms: C1_2  and  C2_3 
REMARK    2  A    between atoms: C2_3  and  C3_4 
ROOT
ATOM      1  C3  UNL d   1      -0.286  -0.980  -0.888  0.00  0.00    -0.075 A 
ATOM      2  C4  UNL d   1       0.698  -0.543   0.011  0.00  0.00     0.002 A 
ATOM      3  C5  UNL d   1       0.443   0.520   0.878  0.00  0.00     0.002 A 
ATOM      4  C6  UNL d   1      -0.791   1.165   0.851  0.00  0.00    -0.004 A 
ATOM      5  C7  UNL d   1      -1.770   0.750  -0.050  0.00  0.00     0.002 A 
ATOM      6  C8  UNL d   1      -1.520  -0.316  -0.915  0.00  0.00     0.002 A 
ENDROOT
BRANCH   1   7
ATOM      7  C2  UNL d   1      -0.028  -2.149  -1.809  0.00  0.00     0.056 C 
BRANCH   7   8
ATOM      8  C1  UNL d   1      -1.095  -3.246  -1.739  0.00  0.00     0.007 C 
ATOM      9  C   UNL d   1      -2.182  -3.094  -2.794  0.00  0.00     0.009 C 
ENDBRANCH   7   8
ENDBRANCH   1   7
TORSDOF 2
ENDMDL
