MODEL 1
REMARK minimizedAffinity -4.85395288
REMARK minimizedRMSD -1
REMARK  2 active torsions:
REMARK  status: ('A' for Active; 'I' for Inactive)
REMARK    1  A    between atoms: C1_2  and  C2_3 
REMARK    2  A    between atoms: C2_3  and  C3_4 
ROOT
ATOM      1  C3  UNL d   1       0.673   0.668   0.018  0.00  0.00    -0.075 A 
ATOM      2  C4  UNL d   1       2.037   0.492   0.293  0.00  0.00     0.002 A 
ATOM      3  C5  UNL d   1       2.788   1.532   0.840  0.00  0.00     0.002 A 
ATOM      4  C6  UNL d   1       2.190   2.762   1.109  0.00  0.00    -0.004 A 
ATOM      5  C7  UNL d   1       0.840   2.952   0.824  0.00  0.00     0.002 A 
ATOM      6  C8  UNL d   1       0.084   1.912   0.281  0.00  0.00     0.002 A 
ENDROOT
BRANCH   1   7
ATOM      7  C2  UNL d   1      -0.153  -0.463  -0.547  0.00  0.00     0.056 C 
BRANCH   7   8
ATOM      8  C1  UNL d   1       0.080  -1.811   0.143  0.00  0.00     0.007 C 
ATOM      9  C   UNL d   1      -0.135  -3.003  -0.780  0.00  0.00     0.009 C 
ENDBRANCH   7   8
ENDBRANCH   1   7
TORSDOF 2
ENDMDL
