MODEL 1
REMARK minimizedAffinity -6.17871046
REMARK minimizedRMSD -1
REMARK  2 active torsions:
REMARK  status: ('A' for Active; 'I' for Inactive)
REMARK    1  A    between atoms: C1_2  and  C2_3 
REMARK    2  A    between atoms: C2_3  and  C3_4 
ROOT
ATOM      1  C3  UNL d   1      -0.043   0.102   0.088  0.00  0.00    -0.075 A 
ATOM      2  C4  UNL d   1      -0.976   0.962   0.685  0.00  0.00     0.002 A 
ATOM      3  C5  UNL d   1      -0.814   2.346   0.610  0.00  0.00     0.002 A 
ATOM      4  C6  UNL d   1       0.285   2.887  -0.053  0.00  0.00    -0.004 A 
ATOM      5  C7  UNL d   1       1.227   2.042  -0.636  0.00  0.00     0.002 A 
ATOM      6  C8  UNL d   1       1.066   0.657  -0.566  0.00  0.00     0.002 A 
ENDROOT
BRANCH   1   7
ATOM      7  C2  UNL d   1      -0.228  -1.395   0.140  0.00  0.00     0.056 C 
BRANCH   7   8
ATOM      8  C1  UNL d   1      -0.093  -2.088  -1.220  0.00  0.00     0.007 C 
ATOM      9  C   UNL d   1      -1.057  -3.254  -1.398  0.00  0.00     0.009 C 
ENDBRANCH   7   8
ENDBRANCH   1   7
TORSDOF 2
ENDMDL
