MODEL 1
REMARK minimizedAffinity -5.94234467
REMARK minimizedRMSD -1
REMARK  2 active torsions:
REMARK  status: ('A' for Active; 'I' for Inactive)
REMARK    1  A    between atoms: C1_2  and  C2_3 
REMARK    2  A    between atoms: C2_3  and  C3_4 
ROOT
ATOM      1  C3  UNL d   1       0.070  -0.030   0.024  0.00  0.00    -0.075 A 
ATOM      2  C4  UNL d   1      -1.036   0.720   0.450  0.00  0.00     0.002 A 
ATOM      3  C5  UNL d   1      -0.954   2.109   0.553  0.00  0.00     0.002 A 
ATOM      4  C6  UNL d   1       0.236   2.764   0.243  0.00  0.00    -0.004 A 
ATOM      5  C7  UNL d   1       1.346   2.028  -0.165  0.00  0.00     0.002 A 
ATOM      6  C8  UNL d   1       1.265   0.639  -0.274  0.00  0.00     0.002 A 
ENDROOT
BRANCH   1   7
ATOM      7  C2  UNL d   1      -0.022  -1.530  -0.119  0.00  0.00     0.056 C 
BRANCH   7   8
ATOM      8  C1  UNL d   1      -0.387  -2.001  -1.530  0.00  0.00     0.007 C 
ATOM      9  C   UNL d   1      -0.731  -3.483  -1.598  0.00  0.00     0.009 C 
ENDBRANCH   7   8
ENDBRANCH   1   7
TORSDOF 2
ENDMDL
