MODEL 1
REMARK minimizedAffinity -4.63610601
REMARK minimizedRMSD -1
REMARK  2 active torsions:
REMARK  status: ('A' for Active; 'I' for Inactive)
REMARK    1  A    between atoms: C1_2  and  C2_3 
REMARK    2  A    between atoms: C2_3  and  C3_4 
ROOT
ATOM      1  C3  UNL d   1      -0.576   1.118   0.229  0.00  0.00    -0.075 A 
ATOM      2  C4  UNL d   1       0.484   1.411  -0.643  0.00  0.00     0.002 A 
ATOM      3  C5  UNL d   1       1.110   2.657  -0.602  0.00  0.00     0.002 A 
ATOM      4  C6  UNL d   1       0.680   3.627   0.300  0.00  0.00    -0.004 A 
ATOM      5  C7  UNL d   1      -0.382   3.353   1.159  0.00  0.00     0.002 A 
ATOM      6  C8  UNL d   1      -1.008   2.105   1.124  0.00  0.00     0.002 A 
ENDROOT
BRANCH   1   7
ATOM      7  C2  UNL d   1      -1.238  -0.239   0.210  0.00  0.00     0.056 C 
BRANCH   7   8
ATOM      8  C1  UNL d   1      -0.269  -1.404  -0.013  0.00  0.00     0.007 C 
ATOM      9  C   UNL d   1      -0.880  -2.550  -0.807  0.00  0.00     0.009 C 
ENDBRANCH   7   8
ENDBRANCH   1   7
TORSDOF 2
ENDMDL
