MODEL 1
REMARK minimizedAffinity -4.28831387
REMARK minimizedRMSD -1
REMARK  0 active torsions:
REMARK  status: ('A' for Active; 'I' for Inactive)
ROOT
ATOM      1  C1  BNZ d   1       1.303   0.975  -1.127  0.00  0.00     0.000 A 
ATOM      2  C2  BNZ d   1       0.689   1.321   0.047  0.00  0.00     0.000 A 
ATOM      3  C3  BNZ d   1      -0.068   0.413   0.734  0.00  0.00     0.000 A 
ATOM      4  C4  BNZ d   1      -0.243  -0.824   0.228  0.00  0.00     0.000 A 
ATOM      5  C5  BNZ d   1       0.363  -1.185  -0.960  0.00  0.00     0.000 A 
ATOM      6  C6  BNZ d   1       1.156  -0.281  -1.629  0.00  0.00     0.000 A 
ENDROOT
TORSDOF 0
ENDMDL
