MODEL 1
REMARK minimizedAffinity 3.47719526
REMARK minimizedRMSD -1
REMARK  0 active torsions:
REMARK  status: ('A' for Active; 'I' for Inactive)
ROOT
ATOM      1  C1  BNZ d   1       1.094   1.892   2.036  0.00  0.00     0.000 A 
ATOM      2  C2  BNZ d   1       0.249   1.056   2.716  0.00  0.00     0.000 A 
ATOM      3  C3  BNZ d   1       0.566   0.607   3.967  0.00  0.00     0.000 A 
ATOM      4  C4  BNZ d   1       1.744   0.961   4.520  0.00  0.00     0.000 A 
ATOM      5  C5  BNZ d   1       2.611   1.796   3.843  0.00  0.00     0.000 A 
ATOM      6  C6  BNZ d   1       2.271   2.278   2.600  0.00  0.00     0.000 A 
ENDROOT
TORSDOF 0
ENDMDL
