MODEL 1
REMARK minimizedAffinity -3.57524371
REMARK minimizedRMSD -1
REMARK  0 active torsions:
REMARK  status: ('A' for Active; 'I' for Inactive)
ROOT
ATOM      1  C1  BNZ d   1       1.619  -0.070  -2.278  0.00  0.00     0.000 A 
ATOM      2  C2  BNZ d   1       0.302  -0.439  -2.336  0.00  0.00     0.000 A 
ATOM      3  C3  BNZ d   1      -0.548  -0.164  -1.301  0.00  0.00     0.000 A 
ATOM      4  C4  BNZ d   1      -0.072   0.444  -0.196  0.00  0.00     0.000 A 
ATOM      5  C5  BNZ d   1       1.256   0.815  -0.119  0.00  0.00     0.000 A 
ATOM      6  C6  BNZ d   1       2.100   0.570  -1.178  0.00  0.00     0.000 A 
ENDROOT
TORSDOF 0
ENDMDL
