MODEL 1
REMARK minimizedAffinity -2.63742685
REMARK minimizedRMSD -1
REMARK  0 active torsions:
REMARK  status: ('A' for Active; 'I' for Inactive)
ROOT
ATOM      1  C1  BNZ d   1      -3.799   3.245  -5.943  0.00  0.00     0.000 A 
ATOM      2  C2  BNZ d   1      -3.314   4.525  -5.952  0.00  0.00     0.000 A 
ATOM      3  C3  BNZ d   1      -4.165   5.595  -5.960  0.00  0.00     0.000 A 
ATOM      4  C4  BNZ d   1      -5.496   5.384  -5.999  0.00  0.00     0.000 A 
ATOM      5  C5  BNZ d   1      -6.000   4.098  -6.000  0.00  0.00     0.000 A 
ATOM      6  C6  BNZ d   1      -5.141   3.024  -5.953  0.00  0.00     0.000 A 
ENDROOT
TORSDOF 0
ENDMDL
