MODEL 1
REMARK minimizedAffinity -4.08293056
REMARK minimizedRMSD -1
REMARK  0 active torsions:
REMARK  status: ('A' for Active; 'I' for Inactive)
ROOT
ATOM      1  C1  BNZ d   1      -0.079   0.281  -0.120  0.00  0.00     0.000 A 
ATOM      2  C2  BNZ d   1       0.435  -0.150  -1.313  0.00  0.00     0.000 A 
ATOM      3  C3  BNZ d   1       0.685  -1.477  -1.530  0.00  0.00     0.000 A 
ATOM      4  C4  BNZ d   1       0.458  -2.364  -0.540  0.00  0.00     0.000 A 
ATOM      5  C5  BNZ d   1      -0.052  -1.944   0.672  0.00  0.00     0.000 A 
ATOM      6  C6  BNZ d   1      -0.338  -0.613   0.873  0.00  0.00     0.000 A 
ENDROOT
TORSDOF 0
ENDMDL
