MODEL 1
REMARK minimizedAffinity -2.86550283
REMARK minimizedRMSD -1
REMARK  0 active torsions:
REMARK  status: ('A' for Active; 'I' for Inactive)
ROOT
ATOM      1  C1  BNZ d   1       1.544   1.130   3.584  0.00  0.00     0.000 A 
ATOM      2  C2  BNZ d   1       2.111   2.161   4.285  0.00  0.00     0.000 A 
ATOM      3  C3  BNZ d   1       2.599   3.263   3.638  0.00  0.00     0.000 A 
ATOM      4  C4  BNZ d   1       2.554   3.314   2.291  0.00  0.00     0.000 A 
ATOM      5  C5  BNZ d   1       1.994   2.279   1.570  0.00  0.00     0.000 A 
ATOM      6  C6  BNZ d   1       1.469   1.189   2.226  0.00  0.00     0.000 A 
ENDROOT
TORSDOF 0
ENDMDL
