MODEL 1
REMARK minimizedAffinity -0.937808454
REMARK minimizedRMSD -1
REMARK  0 active torsions:
REMARK  status: ('A' for Active; 'I' for Inactive)
ROOT
ATOM      1  C1  BNZ d   1      -2.383   1.131   1.586  0.00  0.00     0.000 A 
ATOM      2  C2  BNZ d   1      -3.055   0.228   0.805  0.00  0.00     0.000 A 
ATOM      3  C3  BNZ d   1      -4.294  -0.223   1.165  0.00  0.00     0.000 A 
ATOM      4  C4  BNZ d   1      -4.842   0.197   2.324  0.00  0.00     0.000 A 
ATOM      5  C5  BNZ d   1      -4.173   1.100   3.126  0.00  0.00     0.000 A 
ATOM      6  C6  BNZ d   1      -2.943   1.582   2.741  0.00  0.00     0.000 A 
ENDROOT
TORSDOF 0
ENDMDL
