MODEL 1
REMARK minimizedAffinity -2.00855279
REMARK minimizedRMSD -1
REMARK  0 active torsions:
REMARK  status: ('A' for Active; 'I' for Inactive)
ROOT
ATOM      1  C1  BNZ d   1       0.700  -0.919  -2.245  0.00  0.00     0.000 A 
ATOM      2  C2  BNZ d   1       1.768  -0.078  -2.407  0.00  0.00     0.000 A 
ATOM      3  C3  BNZ d   1       2.096   0.832  -1.440  0.00  0.00     0.000 A 
ATOM      4  C4  BNZ d   1       1.332   0.926  -0.333  0.00  0.00     0.000 A 
ATOM      5  C5  BNZ d   1       0.246   0.091  -0.159  0.00  0.00     0.000 A 
ATOM      6  C6  BNZ d   1      -0.057  -0.850  -1.116  0.00  0.00     0.000 A 
ENDROOT
TORSDOF 0
ENDMDL
