MODEL 1
REMARK minimizedAffinity -3.92858624
REMARK minimizedRMSD -1
REMARK  0 active torsions:
REMARK  status: ('A' for Active; 'I' for Inactive)
ROOT
ATOM      1  C1  BNZ d   1       0.181   0.405  -0.288  0.00  0.00     0.000 A 
ATOM      2  C2  BNZ d   1       0.808  -0.100  -1.395  0.00  0.00     0.000 A 
ATOM      3  C3  BNZ d   1       0.893  -1.450  -1.597  0.00  0.00     0.000 A 
ATOM      4  C4  BNZ d   1       0.388  -2.292  -0.673  0.00  0.00     0.000 A 
ATOM      5  C5  BNZ d   1      -0.239  -1.798   0.454  0.00  0.00     0.000 A 
ATOM      6  C6  BNZ d   1      -0.357  -0.439   0.635  0.00  0.00     0.000 A 
ENDROOT
TORSDOF 0
ENDMDL
