MODEL 1
REMARK minimizedAffinity -1.07842505
REMARK minimizedRMSD -1
REMARK  0 active torsions:
REMARK  status: ('A' for Active; 'I' for Inactive)
ROOT
ATOM      1  C1  BNZ d   1      -4.037   1.255   1.460  0.00  0.00     0.000 A 
ATOM      2  C2  BNZ d   1      -2.679   1.088   1.409  0.00  0.00     0.000 A 
ATOM      3  C3  BNZ d   1      -2.127  -0.162   1.407  0.00  0.00     0.000 A 
ATOM      4  C4  BNZ d   1      -2.930  -1.242   1.497  0.00  0.00     0.000 A 
ATOM      5  C5  BNZ d   1      -4.301  -1.090   1.558  0.00  0.00     0.000 A 
ATOM      6  C6  BNZ d   1      -4.855   0.169   1.521  0.00  0.00     0.000 A 
ENDROOT
TORSDOF 0
ENDMDL
