MODEL 1
REMARK minimizedAffinity -2.95244408
REMARK minimizedRMSD -1
REMARK  0 active torsions:
REMARK  status: ('A' for Active; 'I' for Inactive)
ROOT
ATOM      1  C1  BNZ d   1       0.994  -0.701  -2.168  0.00  0.00     0.000 A 
ATOM      2  C2  BNZ d   1      -0.025  -0.472  -1.282  0.00  0.00     0.000 A 
ATOM      3  C3  BNZ d   1       0.086   0.493  -0.321  0.00  0.00     0.000 A 
ATOM      4  C4  BNZ d   1       1.230   1.201  -0.222  0.00  0.00     0.000 A 
ATOM      5  C5  BNZ d   1       2.270   0.976  -1.102  0.00  0.00     0.000 A 
ATOM      6  C6  BNZ d   1       2.139   0.030  -2.092  0.00  0.00     0.000 A 
ENDROOT
TORSDOF 0
ENDMDL
