MODEL 1
REMARK minimizedAffinity -3.38179302
REMARK minimizedRMSD -1
REMARK  0 active torsions:
REMARK  status: ('A' for Active; 'I' for Inactive)
ROOT
ATOM      1  C1  BNZ d   1       2.273   3.663   1.373  0.00  0.00     0.000 A 
ATOM      2  C2  BNZ d   1       1.628   2.465   1.214  0.00  0.00     0.000 A 
ATOM      3  C3  BNZ d   1       1.448   1.622   2.275  0.00  0.00     0.000 A 
ATOM      4  C4  BNZ d   1       1.947   1.958   3.482  0.00  0.00     0.000 A 
ATOM      5  C5  BNZ d   1       2.608   3.157   3.655  0.00  0.00     0.000 A 
ATOM      6  C6  BNZ d   1       2.753   4.022   2.594  0.00  0.00     0.000 A 
ENDROOT
TORSDOF 0
ENDMDL
