MODEL 1
REMARK minimizedAffinity -2.80775595
REMARK minimizedRMSD -1
REMARK  0 active torsions:
REMARK  status: ('A' for Active; 'I' for Inactive)
ROOT
ATOM      1  C1  BNZ d   1       0.262   0.516  -0.058  0.00  0.00     0.000 A 
ATOM      2  C2  BNZ d   1      -0.096  -0.693  -0.593  0.00  0.00     0.000 A 
ATOM      3  C3  BNZ d   1       0.647  -1.266  -1.586  0.00  0.00     0.000 A 
ATOM      4  C4  BNZ d   1       1.722  -0.613  -2.072  0.00  0.00     0.000 A 
ATOM      5  C5  BNZ d   1       2.091   0.612  -1.550  0.00  0.00     0.000 A 
ATOM      6  C6  BNZ d   1       1.363   1.168  -0.523  0.00  0.00     0.000 A 
ENDROOT
TORSDOF 0
ENDMDL
