MODEL 1
REMARK minimizedAffinity -2.23684263
REMARK minimizedRMSD -1
REMARK  0 active torsions:
REMARK  status: ('A' for Active; 'I' for Inactive)
ROOT
ATOM      1  C1  BNZ d   1      -4.088   5.466  -5.973  0.00  0.00     0.000 A 
ATOM      2  C2  BNZ d   1      -5.392   5.049  -5.997  0.00  0.00     0.000 A 
ATOM      3  C3  BNZ d   1      -5.702   3.718  -5.991  0.00  0.00     0.000 A 
ATOM      4  C4  BNZ d   1      -4.708   2.806  -6.000  0.00  0.00     0.000 A 
ATOM      5  C5  BNZ d   1      -3.388   3.210  -5.985  0.00  0.00     0.000 A 
ATOM      6  C6  BNZ d   1      -3.080   4.551  -5.952  0.00  0.00     0.000 A 
ENDROOT
TORSDOF 0
ENDMDL
