MODEL 1
REMARK minimizedAffinity -4.26706028
REMARK minimizedRMSD -1
REMARK  0 active torsions:
REMARK  status: ('A' for Active; 'I' for Inactive)
ROOT
ATOM      1  C1  BNZ d   1      -3.441   0.399   1.940  0.00  0.00     0.000 A 
ATOM      2  C2  BNZ d   1      -3.742   1.274   2.950  0.00  0.00     0.000 A 
ATOM      3  C3  BNZ d   1      -2.749   1.887   3.663  0.00  0.00     0.000 A 
ATOM      4  C4  BNZ d   1      -1.461   1.594   3.392  0.00  0.00     0.000 A 
ATOM      5  C5  BNZ d   1      -1.142   0.707   2.384  0.00  0.00     0.000 A 
ATOM      6  C6  BNZ d   1      -2.143   0.122   1.642  0.00  0.00     0.000 A 
ENDROOT
TORSDOF 0
ENDMDL
