MODEL 1
REMARK minimizedAffinity 2.77961922
REMARK minimizedRMSD -1
REMARK  1 active torsions:
REMARK  status: ('A' for Active; 'I' for Inactive)
REMARK    1  A    between atoms: C3_4  and  O_7 
ROOT
ATOM      1  C   UNL d   1      -6.000  -3.485  -4.783  0.00  0.00    -0.033 A 
ATOM      2  C1  UNL d   1      -5.727  -2.819  -3.586  0.00  0.00     0.039 A 
ATOM      3  C2  UNL d   1      -5.448  -1.451  -3.594  0.00  0.00    -0.080 A 
ATOM      4  C3  UNL d   1      -5.446  -0.761  -4.804  0.00  0.00     0.150 A 
ATOM      5  C4  UNL d   1      -5.721  -1.418  -5.999  0.00  0.00    -0.007 A 
ATOM      6  C5  UNL d   1      -5.998  -2.784  -5.989  0.00  0.00     0.039 A 
ENDROOT
BRANCH   4   7
ATOM      7  O   UNL d   1      -5.174   0.573  -4.863  0.00  0.00    -0.526 OA
ATOM      8  H5  UNL d   1      -4.975   0.887  -3.965  0.00  0.00     0.418 HD
ENDBRANCH   4   7
TORSDOF 1
ENDMDL
