MODEL 1
REMARK minimizedAffinity 3.37947965
REMARK minimizedRMSD -1
REMARK  1 active torsions:
REMARK  status: ('A' for Active; 'I' for Inactive)
REMARK    1  A    between atoms: C3_4  and  O_7 
ROOT
ATOM      1  C   UNL d   1      -5.999  -3.884  -5.999  0.00  0.00    -0.033 A 
ATOM      2  C1  UNL d   1      -5.657  -5.238  -5.994  0.00  0.00     0.039 A 
ATOM      3  C2  UNL d   1      -4.767  -5.731  -5.037  0.00  0.00    -0.080 A 
ATOM      4  C3  UNL d   1      -4.229  -4.862  -4.093  0.00  0.00     0.150 A 
ATOM      5  C4  UNL d   1      -4.568  -3.513  -4.090  0.00  0.00    -0.007 A 
ATOM      6  C5  UNL d   1      -5.456  -3.022  -5.046  0.00  0.00     0.039 A 
ENDROOT
BRANCH   4   7
ATOM      7  O   UNL d   1      -3.353  -5.296  -3.142  0.00  0.00    -0.526 OA
ATOM      8  H5  UNL d   1      -3.189  -6.243  -3.285  0.00  0.00     0.418 HD
ENDBRANCH   4   7
TORSDOF 1
ENDMDL
