MODEL 1
REMARK minimizedAffinity -1.15025806
REMARK minimizedRMSD -1
REMARK  1 active torsions:
REMARK  status: ('A' for Active; 'I' for Inactive)
REMARK    1  A    between atoms: C3_4  and  O_7 
ROOT
ATOM      1  C   UNL d   1      -5.963   3.734  -0.700  0.00  0.00    -0.033 A 
ATOM      2  C1  UNL d   1      -5.997   2.468  -1.287  0.00  0.00     0.039 A 
ATOM      3  C2  UNL d   1      -5.915   1.324  -0.491  0.00  0.00    -0.080 A 
ATOM      4  C3  UNL d   1      -5.801   1.460   0.890  0.00  0.00     0.150 A 
ATOM      5  C4  UNL d   1      -5.771   2.718   1.483  0.00  0.00    -0.007 A 
ATOM      6  C5  UNL d   1      -5.852   3.859   0.685  0.00  0.00     0.039 A 
ENDROOT
BRANCH   4   7
ATOM      7  O   UNL d   1      -5.714   0.373   1.708  0.00  0.00    -0.526 OA
ATOM      8  H5  UNL d   1      -5.718  -0.428   1.158  0.00  0.00     0.418 HD
ENDBRANCH   4   7
TORSDOF 1
ENDMDL
