MODEL 1
REMARK minimizedAffinity 0.987034202
REMARK minimizedRMSD -1
REMARK  1 active torsions:
REMARK  status: ('A' for Active; 'I' for Inactive)
REMARK    1  A    between atoms: C3_4  and  O_7 
ROOT
ATOM      1  C   UNL d   1      -5.998  -2.864  -3.569  0.00  0.00    -0.033 A 
ATOM      2  C1  UNL d   1      -5.970  -4.159  -3.047  0.00  0.00     0.039 A 
ATOM      3  C2  UNL d   1      -5.546  -5.225  -3.843  0.00  0.00    -0.080 A 
ATOM      4  C3  UNL d   1      -5.153  -4.983  -5.157  0.00  0.00     0.150 A 
ATOM      5  C4  UNL d   1      -5.175  -3.695  -5.682  0.00  0.00    -0.007 A 
ATOM      6  C5  UNL d   1      -5.599  -2.632  -4.886  0.00  0.00     0.039 A 
ENDROOT
BRANCH   4   7
ATOM      7  O   UNL d   1      -4.737  -5.992  -5.973  0.00  0.00    -0.526 OA
ATOM      8  H5  UNL d   1      -4.802  -6.830  -5.485  0.00  0.00     0.418 HD
ENDBRANCH   4   7
TORSDOF 1
ENDMDL
