MODEL 1
REMARK minimizedAffinity -2.68826938
REMARK minimizedRMSD -1
REMARK  1 active torsions:
REMARK  status: ('A' for Active; 'I' for Inactive)
REMARK    1  A    between atoms: C3_4  and  O_7 
ROOT
ATOM      1  C   UNL d   1      -5.314   3.428  -0.972  0.00  0.00    -0.033 A 
ATOM      2  C1  UNL d   1      -4.783   3.446   0.319  0.00  0.00     0.039 A 
ATOM      3  C2  UNL d   1      -4.862   2.308   1.124  0.00  0.00    -0.080 A 
ATOM      4  C3  UNL d   1      -5.472   1.160   0.626  0.00  0.00     0.150 A 
ATOM      5  C4  UNL d   1      -5.999   1.134  -0.661  0.00  0.00    -0.007 A 
ATOM      6  C5  UNL d   1      -5.921   2.272  -1.463  0.00  0.00     0.039 A 
ENDROOT
BRANCH   4   7
ATOM      7  O   UNL d   1      -5.576   0.026   1.376  0.00  0.00    -0.526 OA
ATOM      8  H5  UNL d   1      -5.194   0.200   2.252  0.00  0.00     0.418 HD
ENDBRANCH   4   7
TORSDOF 1
ENDMDL
