MODEL 1
REMARK minimizedAffinity -0.798187256
REMARK minimizedRMSD -1
REMARK  1 active torsions:
REMARK  status: ('A' for Active; 'I' for Inactive)
REMARK    1  A    between atoms: C3_4  and  O_7 
ROOT
ATOM      1  C   UNL d   1      -5.998   2.903  -0.541  0.00  0.00    -0.033 A 
ATOM      2  C1  UNL d   1      -5.441   1.870   0.216  0.00  0.00     0.039 A 
ATOM      3  C2  UNL d   1      -4.482   2.156   1.190  0.00  0.00    -0.080 A 
ATOM      4  C3  UNL d   1      -4.091   3.476   1.397  0.00  0.00     0.150 A 
ATOM      5  C4  UNL d   1      -4.644   4.509   0.649  0.00  0.00    -0.007 A 
ATOM      6  C5  UNL d   1      -5.601   4.222  -0.324  0.00  0.00     0.039 A 
ENDROOT
BRANCH   4   7
ATOM      7  O   UNL d   1      -3.155   3.803   2.332  0.00  0.00    -0.526 OA
ATOM      8  H5  UNL d   1      -2.840   2.985   2.752  0.00  0.00     0.418 HD
ENDBRANCH   4   7
TORSDOF 1
ENDMDL
