MODEL 1
REMARK minimizedAffinity -2.28584599
REMARK minimizedRMSD -1
REMARK  0 active torsions:
REMARK  status: ('A' for Active; 'I' for Inactive)
ROOT
ATOM      1  C   UNL d   1      -2.509  -4.784  -5.235  0.00  0.00     0.172 C 
ATOM      2  N   UNL d   1      -3.852  -4.253  -5.247  0.00  0.00    -0.070 N 
ATOM      3  C1  UNL d   1      -4.892  -4.730  -6.000  0.00  0.00    -0.004 A 
ATOM      4  C2  UNL d   1      -5.999  -3.956  -5.728  0.00  0.00    -0.047 A 
ATOM      5  C3  UNL d   1      -5.611  -2.980  -4.780  0.00  0.00    -0.047 A 
ATOM      6  C4  UNL d   1      -4.277  -3.187  -4.500  0.00  0.00    -0.004 A 
ENDROOT
TORSDOF 0
ENDMDL
