MODEL 1
REMARK minimizedAffinity -2.8377862
REMARK minimizedRMSD -1
REMARK  0 active torsions:
REMARK  status: ('A' for Active; 'I' for Inactive)
ROOT
ATOM      1  C   UNL d   1      -5.165  -1.587  -4.501  0.00  0.00     0.172 C 
ATOM      2  N   UNL d   1      -4.278  -2.695  -4.770  0.00  0.00    -0.070 N 
ATOM      3  C1  UNL d   1      -3.833  -3.603  -3.847  0.00  0.00    -0.004 A 
ATOM      4  C2  UNL d   1      -3.011  -4.498  -4.498  0.00  0.00    -0.047 A 
ATOM      5  C3  UNL d   1      -2.961  -4.114  -5.859  0.00  0.00    -0.047 A 
ATOM      6  C4  UNL d   1      -3.754  -2.995  -6.000  0.00  0.00    -0.004 A 
ENDROOT
TORSDOF 0
ENDMDL
