MODEL 1
REMARK minimizedAffinity 0.62884295
REMARK minimizedRMSD -1
REMARK  0 active torsions:
REMARK  status: ('A' for Active; 'I' for Inactive)
ROOT
ATOM      1  C   UNL d   1      -2.764  -2.450   0.293  0.00  0.00     0.172 C 
ATOM      2  N   UNL d   1      -1.531  -1.747   0.555  0.00  0.00    -0.070 N 
ATOM      3  C1  UNL d   1      -1.158  -0.552  -0.001  0.00  0.00    -0.004 A 
ATOM      4  C2  UNL d   1       0.080  -0.219   0.504  0.00  0.00    -0.047 A 
ATOM      5  C3  UNL d   1       0.466  -1.250   1.394  0.00  0.00    -0.047 A 
ATOM      6  C4  UNL d   1      -0.550  -2.183   1.407  0.00  0.00    -0.004 A 
ENDROOT
TORSDOF 0
ENDMDL
