MODEL 1
REMARK minimizedAffinity -2.27821517
REMARK minimizedRMSD -1
REMARK  0 active torsions:
REMARK  status: ('A' for Active; 'I' for Inactive)
ROOT
ATOM      1  C   UNL d   1      -5.718  -2.988  -5.986  0.00  0.00     0.172 C 
ATOM      2  N   UNL d   1      -4.656  -3.966  -5.992  0.00  0.00    -0.070 N 
ATOM      3  C1  UNL d   1      -3.315  -3.688  -5.996  0.00  0.00    -0.004 A 
ATOM      4  C2  UNL d   1      -2.636  -4.887  -6.000  0.00  0.00    -0.047 A 
ATOM      5  C3  UNL d   1      -3.602  -5.921  -5.999  0.00  0.00    -0.047 A 
ATOM      6  C4  UNL d   1      -4.844  -5.323  -5.994  0.00  0.00    -0.004 A 
ENDROOT
TORSDOF 0
ENDMDL
