MODEL 1
REMARK minimizedAffinity -0.882355511
REMARK minimizedRMSD -1
REMARK  0 active torsions:
REMARK  status: ('A' for Active; 'I' for Inactive)
ROOT
ATOM      1  C   UNL d   1      -2.478  -4.119  -4.860  0.00  0.00     0.172 C 
ATOM      2  N   UNL d   1      -3.911  -3.960  -4.950  0.00  0.00    -0.070 N 
ATOM      3  C1  UNL d   1      -4.696  -3.272  -4.064  0.00  0.00    -0.004 A 
ATOM      4  C2  UNL d   1      -6.000  -3.356  -4.501  0.00  0.00    -0.047 A 
ATOM      5  C3  UNL d   1      -5.999  -4.121  -5.691  0.00  0.00    -0.047 A 
ATOM      6  C4  UNL d   1      -4.693  -4.483  -5.946  0.00  0.00    -0.004 A 
ENDROOT
TORSDOF 0
ENDMDL
