MODEL 1
REMARK minimizedAffinity -2.1495533
REMARK minimizedRMSD -1
REMARK  0 active torsions:
REMARK  status: ('A' for Active; 'I' for Inactive)
ROOT
ATOM      1  C   UNL d   1      -1.417  -5.626  -5.007  0.00  0.00     0.172 C 
ATOM      2  N   UNL d   1      -2.734  -5.186  -5.402  0.00  0.00    -0.070 N 
ATOM      3  C1  UNL d   1      -3.807  -6.000  -5.650  0.00  0.00    -0.004 A 
ATOM      4  C2  UNL d   1      -4.873  -5.199  -5.998  0.00  0.00    -0.047 A 
ATOM      5  C3  UNL d   1      -4.425  -3.857  -5.959  0.00  0.00    -0.047 A 
ATOM      6  C4  UNL d   1      -3.097  -3.878  -5.587  0.00  0.00    -0.004 A 
ENDROOT
TORSDOF 0
ENDMDL
