MODEL 1
REMARK minimizedAffinity -2.32066178
REMARK minimizedRMSD -1
REMARK  0 active torsions:
REMARK  status: ('A' for Active; 'I' for Inactive)
ROOT
ATOM      1  C   UNL d   1      -6.000  -2.977  -5.606  0.00  0.00     0.172 C 
ATOM      2  N   UNL d   1      -4.986  -4.005  -5.637  0.00  0.00    -0.070 N 
ATOM      3  C1  UNL d   1      -3.646  -3.811  -5.435  0.00  0.00    -0.004 A 
ATOM      4  C2  UNL d   1      -3.021  -5.034  -5.546  0.00  0.00    -0.047 A 
ATOM      5  C3  UNL d   1      -4.020  -5.996  -5.825  0.00  0.00    -0.047 A 
ATOM      6  C4  UNL d   1      -5.228  -5.332  -5.876  0.00  0.00    -0.004 A 
ENDROOT
TORSDOF 0
ENDMDL
