MODEL 1
REMARK minimizedAffinity -2.39886308
REMARK minimizedRMSD -1
REMARK  0 active torsions:
REMARK  status: ('A' for Active; 'I' for Inactive)
ROOT
ATOM      1  C   UNL d   1      -5.463  -3.759  -4.876  0.00  0.00     0.172 C 
ATOM      2  N   UNL d   1      -4.250  -4.534  -4.990  0.00  0.00    -0.070 N 
ATOM      3  C1  UNL d   1      -3.195  -4.499  -4.118  0.00  0.00    -0.004 A 
ATOM      4  C2  UNL d   1      -2.239  -5.379  -4.577  0.00  0.00    -0.047 A 
ATOM      5  C3  UNL d   1      -2.736  -5.962  -5.766  0.00  0.00    -0.047 A 
ATOM      6  C4  UNL d   1      -3.983  -5.421  -5.999  0.00  0.00    -0.004 A 
ENDROOT
TORSDOF 0
ENDMDL
