MODEL 1
REMARK minimizedAffinity -2.55549264
REMARK minimizedRMSD -1
REMARK  0 active torsions:
REMARK  status: ('A' for Active; 'I' for Inactive)
ROOT
ATOM      1  C   UNL d   1      -5.903  -3.375  -4.608  0.00  0.00     0.172 C 
ATOM      2  N   UNL d   1      -4.877  -4.333  -4.945  0.00  0.00    -0.070 N 
ATOM      3  C1  UNL d   1      -4.918  -5.210  -5.996  0.00  0.00    -0.004 A 
ATOM      4  C2  UNL d   1      -3.754  -5.948  -5.975  0.00  0.00    -0.047 A 
ATOM      5  C3  UNL d   1      -2.988  -5.500  -4.873  0.00  0.00    -0.047 A 
ATOM      6  C4  UNL d   1      -3.706  -4.500  -4.253  0.00  0.00    -0.004 A 
ENDROOT
TORSDOF 0
ENDMDL
