MODEL 1
REMARK minimizedAffinity -1.69983077
REMARK minimizedRMSD -1
REMARK  0 active torsions:
REMARK  status: ('A' for Active; 'I' for Inactive)
ROOT
ATOM      1  C   UNL d   1      -5.995  -3.084  -4.885  0.00  0.00     0.172 C 
ATOM      2  N   UNL d   1      -5.049  -4.127  -5.201  0.00  0.00    -0.070 N 
ATOM      3  C1  UNL d   1      -5.322  -5.263  -5.917  0.00  0.00    -0.004 A 
ATOM      4  C2  UNL d   1      -4.160  -5.999  -5.998  0.00  0.00    -0.047 A 
ATOM      5  C3  UNL d   1      -3.154  -5.282  -5.307  0.00  0.00    -0.047 A 
ATOM      6  C4  UNL d   1      -3.732  -4.128  -4.823  0.00  0.00    -0.004 A 
ENDROOT
TORSDOF 0
ENDMDL
