MODEL 1
REMARK minimizedAffinity -1.11764276
REMARK minimizedRMSD -1
REMARK  0 active torsions:
REMARK  status: ('A' for Active; 'I' for Inactive)
ROOT
ATOM      1  C   UNL d   1      -4.231  -3.768  -3.823  0.00  0.00     0.172 C 
ATOM      2  N   UNL d   1      -3.172  -4.485  -4.492  0.00  0.00    -0.070 N 
ATOM      3  C1  UNL d   1      -2.577  -5.633  -4.043  0.00  0.00    -0.004 A 
ATOM      4  C2  UNL d   1      -1.618  -6.000  -4.962  0.00  0.00    -0.047 A 
ATOM      5  C3  UNL d   1      -1.637  -5.038  -6.000  0.00  0.00    -0.047 A 
ATOM      6  C4  UNL d   1      -2.608  -4.112  -5.684  0.00  0.00    -0.004 A 
ENDROOT
TORSDOF 0
ENDMDL
