MODEL 1
REMARK minimizedAffinity 1.9530133
REMARK minimizedRMSD -1
REMARK  0 active torsions:
REMARK  status: ('A' for Active; 'I' for Inactive)
ROOT
ATOM      1  C   UNL d   1      -6.000  -4.087  -6.000  0.00  0.00     0.172 C 
ATOM      2  N   UNL d   1      -4.838  -3.796  -5.193  0.00  0.00    -0.070 N 
ATOM      3  C1  UNL d   1      -3.597  -3.469  -5.669  0.00  0.00    -0.004 A 
ATOM      4  C2  UNL d   1      -2.769  -3.267  -4.586  0.00  0.00    -0.047 A 
ATOM      5  C3  UNL d   1      -3.540  -3.482  -3.418  0.00  0.00    -0.047 A 
ATOM      6  C4  UNL d   1      -4.817  -3.808  -3.823  0.00  0.00    -0.004 A 
ENDROOT
TORSDOF 0
ENDMDL
