MODEL 1
REMARK minimizedAffinity -2.42975497
REMARK minimizedRMSD -1
REMARK  0 active torsions:
REMARK  status: ('A' for Active; 'I' for Inactive)
ROOT
ATOM      1  C   UNL d   1      -1.546  -5.641  -5.680  0.00  0.00     0.172 C 
ATOM      2  N   UNL d   1      -2.918  -5.199  -5.758  0.00  0.00    -0.070 N 
ATOM      3  C1  UNL d   1      -4.002  -6.000  -5.999  0.00  0.00    -0.004 A 
ATOM      4  C2  UNL d   1      -5.126  -5.202  -5.995  0.00  0.00    -0.047 A 
ATOM      5  C3  UNL d   1      -4.702  -3.875  -5.744  0.00  0.00    -0.047 A 
ATOM      6  C4  UNL d   1      -3.331  -3.902  -5.602  0.00  0.00    -0.004 A 
ENDROOT
TORSDOF 0
ENDMDL
