MODEL 1
REMARK minimizedAffinity -2.18266487
REMARK minimizedRMSD -1
REMARK  0 active torsions:
REMARK  status: ('A' for Active; 'I' for Inactive)
ROOT
ATOM      1  C   UNL d   1      -2.214  -5.950  -2.455  0.00  0.00     0.172 C 
ATOM      2  N   UNL d   1      -2.194  -5.774  -3.888  0.00  0.00    -0.070 N 
ATOM      3  C1  UNL d   1      -1.118  -6.000  -4.704  0.00  0.00    -0.004 A 
ATOM      4  C2  UNL d   1      -1.503  -5.718  -5.997  0.00  0.00    -0.047 A 
ATOM      5  C3  UNL d   1      -2.857  -5.308  -5.956  0.00  0.00    -0.047 A 
ATOM      6  C4  UNL d   1      -3.259  -5.351  -4.638  0.00  0.00    -0.004 A 
ENDROOT
TORSDOF 0
ENDMDL
