MODEL 1
REMARK minimizedAffinity -2.18403935
REMARK minimizedRMSD -1
REMARK  0 active torsions:
REMARK  status: ('A' for Active; 'I' for Inactive)
ROOT
ATOM      1  C   UNL d   1      -2.396  -5.623  -4.875  0.00  0.00     0.172 C 
ATOM      2  N   UNL d   1      -3.753  -5.216  -5.153  0.00  0.00    -0.070 N 
ATOM      3  C1  UNL d   1      -4.381  -4.120  -4.626  0.00  0.00    -0.004 A 
ATOM      4  C2  UNL d   1      -5.661  -4.080  -5.137  0.00  0.00    -0.047 A 
ATOM      5  C3  UNL d   1      -5.807  -5.192  -6.000  0.00  0.00    -0.047 A 
ATOM      6  C4  UNL d   1      -4.611  -5.878  -5.991  0.00  0.00    -0.004 A 
ENDROOT
TORSDOF 0
ENDMDL
