MODEL 1
REMARK minimizedAffinity -1.23752272
REMARK minimizedRMSD -1
REMARK  0 active torsions:
REMARK  status: ('A' for Active; 'I' for Inactive)
ROOT
ATOM      1  C   UNL d   1      -2.354  -5.911  -5.157  0.00  0.00     0.172 C 
ATOM      2  N   UNL d   1      -3.672  -5.362  -5.371  0.00  0.00    -0.070 N 
ATOM      3  C1  UNL d   1      -4.710  -5.998  -5.998  0.00  0.00    -0.004 A 
ATOM      4  C2  UNL d   1      -5.790  -5.142  -5.999  0.00  0.00    -0.047 A 
ATOM      5  C3  UNL d   1      -5.387  -3.950  -5.351  0.00  0.00    -0.047 A 
ATOM      6  C4  UNL d   1      -4.072  -4.113  -4.973  0.00  0.00    -0.004 A 
ENDROOT
TORSDOF 0
ENDMDL
