MODEL 1
REMARK minimizedAffinity -2.76264572
REMARK minimizedRMSD -1
REMARK  0 active torsions:
REMARK  status: ('A' for Active; 'I' for Inactive)
ROOT
ATOM      1  C   UNL d   1      -1.188  -6.000  -4.459  0.00  0.00     0.172 C 
ATOM      2  N   UNL d   1      -2.505  -5.528  -4.816  0.00  0.00    -0.070 N 
ATOM      3  C1  UNL d   1      -3.194  -5.867  -5.949  0.00  0.00    -0.004 A 
ATOM      4  C2  UNL d   1      -4.406  -5.211  -5.919  0.00  0.00    -0.047 A 
ATOM      5  C3  UNL d   1      -4.445  -4.451  -4.726  0.00  0.00    -0.047 A 
ATOM      6  C4  UNL d   1      -3.256  -4.665  -4.062  0.00  0.00    -0.004 A 
ENDROOT
TORSDOF 0
ENDMDL
