MODEL 1
REMARK minimizedAffinity -6.05542135
REMARK minimizedRMSD -1
REMARK  0 active torsions:
REMARK  status: ('A' for Active; 'I' for Inactive)
ROOT
ATOM      1  C   UNL d   1      -0.215   0.893   3.208  0.00  0.00     0.020 A 
ATOM      2  C1  UNL d   1       0.998   0.243   2.983  0.00  0.00     0.020 A 
ATOM      3  C2  UNL d   1       1.262  -0.330   1.737  0.00  0.00     0.034 A 
ATOM      4  C3  UNL d   1       0.312  -0.253   0.711  0.00  0.00     0.017 A 
ATOM      5  C4  UNL d   1      -0.905   0.400   0.938  0.00  0.00     0.017 A 
ATOM      6  C5  UNL d   1      -1.164   0.971   2.188  0.00  0.00     0.034 A 
ATOM      7 Cl   UNL d   1      -2.125   0.535  -0.278  0.00  0.00    -0.070 Cl
ATOM      8 Cl1  UNL d   1       0.706  -0.983  -0.805  0.00  0.00    -0.070 Cl
ENDROOT
TORSDOF 0
ENDMDL
