MODEL 1
REMARK minimizedAffinity -1.72468412
REMARK minimizedRMSD -1
REMARK  0 active torsions:
REMARK  status: ('A' for Active; 'I' for Inactive)
ROOT
ATOM      1  C   UNL d   1       2.058   0.738  -2.821  0.00  0.00     0.020 A 
ATOM      2  C1  UNL d   1       1.662   0.754  -4.157  0.00  0.00     0.020 A 
ATOM      3  C2  UNL d   1       0.489   0.103  -4.546  0.00  0.00     0.034 A 
ATOM      4  C3  UNL d   1      -0.292  -0.567  -3.597  0.00  0.00     0.017 A 
ATOM      5  C4  UNL d   1       0.106  -0.582  -2.255  0.00  0.00     0.017 A 
ATOM      6  C5  UNL d   1       1.281   0.072  -1.871  0.00  0.00     0.034 A 
ATOM      7 Cl   UNL d   1      -0.805  -1.387  -1.027  0.00  0.00    -0.070 Cl
ATOM      8 Cl1  UNL d   1      -1.730  -1.350  -4.148  0.00  0.00    -0.070 Cl
ENDROOT
TORSDOF 0
ENDMDL
