MODEL 1
REMARK minimizedAffinity -3.61572123
REMARK minimizedRMSD -1
REMARK  0 active torsions:
REMARK  status: ('A' for Active; 'I' for Inactive)
ROOT
ATOM      1  C   UNL d   1       0.825  -0.664  -0.015  0.00  0.00     0.020 A 
ATOM      2  C1  UNL d   1       0.232  -0.732  -1.275  0.00  0.00     0.020 A 
ATOM      3  C2  UNL d   1      -1.037  -0.186  -1.479  0.00  0.00     0.034 A 
ATOM      4  C3  UNL d   1      -1.717   0.429  -0.422  0.00  0.00     0.017 A 
ATOM      5  C4  UNL d   1      -1.121   0.496   0.843  0.00  0.00     0.017 A 
ATOM      6  C5  UNL d   1       0.150  -0.052   1.042  0.00  0.00     0.034 A 
ATOM      7 Cl   UNL d   1      -1.898   1.239   2.196  0.00  0.00    -0.070 Cl
ATOM      8 Cl1  UNL d   1      -3.283   1.083  -0.746  0.00  0.00    -0.070 Cl
ENDROOT
TORSDOF 0
ENDMDL
