MODEL 1
REMARK minimizedAffinity -3.30779147
REMARK minimizedRMSD -1
REMARK  0 active torsions:
REMARK  status: ('A' for Active; 'I' for Inactive)
ROOT
ATOM      1  C   UNL d   1       0.286  -0.673  -1.037  0.00  0.00     0.020 A 
ATOM      2  C1  UNL d   1      -1.046  -0.350  -0.783  0.00  0.00     0.020 A 
ATOM      3  C2  UNL d   1      -1.449  -0.018   0.512  0.00  0.00     0.034 A 
ATOM      4  C3  UNL d   1      -0.518  -0.008   1.558  0.00  0.00     0.017 A 
ATOM      5  C4  UNL d   1       0.819  -0.332   1.301  0.00  0.00     0.017 A 
ATOM      6  C5  UNL d   1       1.217  -0.664   0.003  0.00  0.00     0.034 A 
ATOM      7 Cl   UNL d   1       2.024  -0.341   2.540  0.00  0.00    -0.070 Cl
ATOM      8 Cl1  UNL d   1      -1.086   0.413   3.134  0.00  0.00    -0.070 Cl
ENDROOT
TORSDOF 0
ENDMDL
