MODEL 1
REMARK minimizedAffinity -4.3293581
REMARK minimizedRMSD -1
REMARK  0 active torsions:
REMARK  status: ('A' for Active; 'I' for Inactive)
ROOT
ATOM      1  C   UNL d   1      -0.326   1.326   2.701  0.00  0.00     0.020 A 
ATOM      2  C1  UNL d   1       1.004   1.192   2.304  0.00  0.00     0.020 A 
ATOM      3  C2  UNL d   1       1.309   0.619   1.068  0.00  0.00     0.034 A 
ATOM      4  C3  UNL d   1       0.283   0.179   0.224  0.00  0.00     0.017 A 
ATOM      5  C4  UNL d   1      -1.051   0.314   0.622  0.00  0.00     0.017 A 
ATOM      6  C5  UNL d   1      -1.351   0.889   1.861  0.00  0.00     0.034 A 
ATOM      7 Cl   UNL d   1      -2.371  -0.205  -0.365  0.00  0.00    -0.070 Cl
ATOM      8 Cl1  UNL d   1       0.734  -0.520  -1.291  0.00  0.00    -0.070 Cl
ENDROOT
TORSDOF 0
ENDMDL
