MODEL 1
REMARK minimizedAffinity -4.83440495
REMARK minimizedRMSD -1
REMARK  0 active torsions:
REMARK  status: ('A' for Active; 'I' for Inactive)
ROOT
ATOM      1  C   UNL d   1       0.301  -0.619  -1.102  0.00  0.00     0.020 A 
ATOM      2  C1  UNL d   1      -0.955  -0.098  -0.794  0.00  0.00     0.020 A 
ATOM      3  C2  UNL d   1      -1.167   0.533   0.434  0.00  0.00     0.034 A 
ATOM      4  C3  UNL d   1      -0.122   0.644   1.358  0.00  0.00     0.017 A 
ATOM      5  C4  UNL d   1       1.138   0.120   1.048  0.00  0.00     0.017 A 
ATOM      6  C5  UNL d   1       1.345  -0.511  -0.183  0.00  0.00     0.034 A 
ATOM      7 Cl   UNL d   1       2.477   0.219   2.137  0.00  0.00    -0.070 Cl
ATOM      8 Cl1  UNL d   1      -0.455   1.436   2.857  0.00  0.00    -0.070 Cl
ENDROOT
TORSDOF 0
ENDMDL
