MODEL 1
REMARK minimizedAffinity 7.39689541
REMARK minimizedRMSD -1
REMARK  0 active torsions:
REMARK  status: ('A' for Active; 'I' for Inactive)
ROOT
ATOM      1  C   UNL d   1       2.076  -1.944   0.953  0.00  0.00     0.020 A 
ATOM      2  C1  UNL d   1       2.072  -2.850  -0.108  0.00  0.00     0.020 A 
ATOM      3  C2  UNL d   1       2.956  -3.930  -0.107  0.00  0.00     0.034 A 
ATOM      4  C3  UNL d   1       3.849  -4.108   0.956  0.00  0.00     0.017 A 
ATOM      5  C4  UNL d   1       3.853  -3.199   2.020  0.00  0.00     0.017 A 
ATOM      6  C5  UNL d   1       2.965  -2.119   2.014  0.00  0.00     0.034 A 
ATOM      7 Cl   UNL d   1       4.925  -3.353   3.367  0.00  0.00    -0.070 Cl
ATOM      8 Cl1  UNL d   1       4.915  -5.467   0.891  0.00  0.00    -0.070 Cl
ENDROOT
TORSDOF 0
ENDMDL
