MODEL 1
REMARK minimizedAffinity 8.14275455
REMARK minimizedRMSD -1
REMARK  0 active torsions:
REMARK  status: ('A' for Active; 'I' for Inactive)
ROOT
ATOM      1  C   UNL d   1       5.654  -4.557   5.938  0.00  0.00     0.020 A 
ATOM      2  C1  UNL d   1       4.950  -3.354   5.946  0.00  0.00     0.020 A 
ATOM      3  C2  UNL d   1       4.245  -2.950   4.810  0.00  0.00     0.034 A 
ATOM      4  C3  UNL d   1       4.242  -3.751   3.662  0.00  0.00     0.017 A 
ATOM      5  C4  UNL d   1       4.948  -4.959   3.655  0.00  0.00     0.017 A 
ATOM      6  C5  UNL d   1       5.653  -5.358   4.795  0.00  0.00     0.034 A 
ATOM      7 Cl   UNL d   1       4.991  -6.000   2.276  0.00  0.00    -0.070 Cl
ATOM      8 Cl1  UNL d   1       3.348  -3.190   2.294  0.00  0.00    -0.070 Cl
ENDROOT
TORSDOF 0
ENDMDL
