MODEL 1
REMARK minimizedAffinity 0.864304483
REMARK minimizedRMSD -1
REMARK  0 active torsions:
REMARK  status: ('A' for Active; 'I' for Inactive)
ROOT
ATOM      1  C   UNL d   1       5.926   4.676  -5.971  0.00  0.00     0.020 A 
ATOM      2  C1  UNL d   1       5.290   5.917  -5.957  0.00  0.00     0.020 A 
ATOM      3  C2  UNL d   1       3.896   5.987  -5.952  0.00  0.00     0.034 A 
ATOM      4  C3  UNL d   1       3.132   4.814  -5.963  0.00  0.00     0.017 A 
ATOM      5  C4  UNL d   1       3.771   3.569  -5.977  0.00  0.00     0.017 A 
ATOM      6  C5  UNL d   1       5.168   3.504  -5.981  0.00  0.00     0.034 A 
ATOM      7 Cl   UNL d   1       2.896   2.078  -5.990  0.00  0.00    -0.070 Cl
ATOM      8 Cl1  UNL d   1       1.412   4.975  -5.956  0.00  0.00    -0.070 Cl
ENDROOT
TORSDOF 0
ENDMDL
