MODEL 1
REMARK minimizedAffinity 8.85241508
REMARK minimizedRMSD -1
REMARK  0 active torsions:
REMARK  status: ('A' for Active; 'I' for Inactive)
ROOT
ATOM      1  C   UNL d   1       3.714   2.167  -5.764  0.00  0.00     0.020 A 
ATOM      2  C1  UNL d   1       2.958   1.130  -5.219  0.00  0.00     0.020 A 
ATOM      3  C2  UNL d   1       1.613   1.337  -4.905  0.00  0.00     0.034 A 
ATOM      4  C3  UNL d   1       1.020   2.583  -5.136  0.00  0.00     0.017 A 
ATOM      5  C4  UNL d   1       1.779   3.623  -5.684  0.00  0.00     0.017 A 
ATOM      6  C5  UNL d   1       3.125   3.411  -5.996  0.00  0.00     0.034 A 
ATOM      7 Cl   UNL d   1       1.117   5.189  -5.998  0.00  0.00    -0.070 Cl
ATOM      8 Cl1  UNL d   1      -0.648   2.768  -4.724  0.00  0.00    -0.070 Cl
ENDROOT
TORSDOF 0
ENDMDL
