MODEL 1
REMARK minimizedAffinity 5.3948617
REMARK minimizedRMSD -1
REMARK  0 active torsions:
REMARK  status: ('A' for Active; 'I' for Inactive)
ROOT
ATOM      1  C   UNL d   1       3.222   1.403  -5.909  0.00  0.00     0.020 A 
ATOM      2  C1  UNL d   1       1.878   1.775  -5.910  0.00  0.00     0.020 A 
ATOM      3  C2  UNL d   1       1.528   3.127  -5.937  0.00  0.00     0.034 A 
ATOM      4  C3  UNL d   1       2.523   4.111  -5.965  0.00  0.00     0.017 A 
ATOM      5  C4  UNL d   1       3.872   3.736  -5.964  0.00  0.00     0.017 A 
ATOM      6  C5  UNL d   1       4.216   2.382  -5.937  0.00  0.00     0.034 A 
ATOM      7 Cl   UNL d   1       5.155   4.894  -5.997  0.00  0.00    -0.070 Cl
ATOM      8 Cl1  UNL d   1       2.018   5.763  -5.999  0.00  0.00    -0.070 Cl
ENDROOT
TORSDOF 0
ENDMDL
