MODEL 1
REMARK minimizedAffinity -0.126888841
REMARK minimizedRMSD -1
REMARK  0 active torsions:
REMARK  status: ('A' for Active; 'I' for Inactive)
ROOT
ATOM      1  C   UNL d   1       2.897   1.930  -5.999  0.00  0.00     0.020 A 
ATOM      2  C1  UNL d   1       4.287   2.043  -5.999  0.00  0.00     0.020 A 
ATOM      3  C2  UNL d   1       4.884   3.305  -6.000  0.00  0.00     0.034 A 
ATOM      4  C3  UNL d   1       4.092   4.459  -6.000  0.00  0.00     0.017 A 
ATOM      5  C4  UNL d   1       2.697   4.344  -5.999  0.00  0.00     0.017 A 
ATOM      6  C5  UNL d   1       2.104   3.078  -5.999  0.00  0.00     0.034 A 
ATOM      7 Cl   UNL d   1       1.654   5.722  -5.999  0.00  0.00    -0.070 Cl
ATOM      8 Cl1  UNL d   1       4.898   5.987  -6.000  0.00  0.00    -0.070 Cl
ENDROOT
TORSDOF 0
ENDMDL
