MODEL 1
REMARK minimizedAffinity 4.62145758
REMARK minimizedRMSD -1
REMARK  0 active torsions:
REMARK  status: ('A' for Active; 'I' for Inactive)
ROOT
ATOM      1  C   UNL d   1       2.819  -2.127   0.280  0.00  0.00     0.020 A 
ATOM      2  C1  UNL d   1       2.213  -2.956   1.223  0.00  0.00     0.020 A 
ATOM      3  C2  UNL d   1       1.324  -2.418   2.157  0.00  0.00     0.034 A 
ATOM      4  C3  UNL d   1       1.040  -1.047   2.149  0.00  0.00     0.017 A 
ATOM      5  C4  UNL d   1       1.649  -0.216   1.202  0.00  0.00     0.017 A 
ATOM      6  C5  UNL d   1       2.538  -0.761   0.269  0.00  0.00     0.034 A 
ATOM      7 Cl   UNL d   1       1.348   1.484   1.130  0.00  0.00    -0.070 Cl
ATOM      8 Cl1  UNL d   1      -0.068  -0.450   3.332  0.00  0.00    -0.070 Cl
ENDROOT
TORSDOF 0
ENDMDL
