MODEL 1
REMARK minimizedAffinity 4.68881178
REMARK minimizedRMSD -1
REMARK  0 active torsions:
REMARK  status: ('A' for Active; 'I' for Inactive)
ROOT
ATOM      1  C   UNL d   1       4.598  -4.182   0.134  0.00  0.00     0.020 A 
ATOM      2  C1  UNL d   1       3.487  -3.571  -0.446  0.00  0.00     0.020 A 
ATOM      3  C2  UNL d   1       2.538  -2.936   0.359  0.00  0.00     0.034 A 
ATOM      4  C3  UNL d   1       2.699  -2.912   1.749  0.00  0.00     0.017 A 
ATOM      5  C4  UNL d   1       3.815  -3.525   2.331  0.00  0.00     0.017 A 
ATOM      6  C5  UNL d   1       4.761  -4.159   1.519  0.00  0.00     0.034 A 
ATOM      7 Cl   UNL d   1       4.082  -3.536   4.038  0.00  0.00    -0.070 Cl
ATOM      8 Cl1  UNL d   1       1.488  -2.109   2.684  0.00  0.00    -0.070 Cl
ENDROOT
TORSDOF 0
ENDMDL
