MODEL 1
REMARK minimizedAffinity 10.1820841
REMARK minimizedRMSD -1
REMARK  0 active torsions:
REMARK  status: ('A' for Active; 'I' for Inactive)
ROOT
ATOM      1  C   UNL d   1      -6.000   1.897   2.568  0.00  0.00     0.020 A 
ATOM      2  C1  UNL d   1      -5.011   1.336   1.761  0.00  0.00     0.020 A 
ATOM      3  C2  UNL d   1      -3.717   1.166   2.259  0.00  0.00     0.034 A 
ATOM      4  C3  UNL d   1      -3.409   1.557   3.567  0.00  0.00     0.017 A 
ATOM      5  C4  UNL d   1      -4.402   2.120   4.376  0.00  0.00     0.017 A 
ATOM      6  C5  UNL d   1      -5.696   2.288   3.873  0.00  0.00     0.034 A 
ATOM      7 Cl   UNL d   1      -4.098   2.627   6.000  0.00  0.00    -0.070 Cl
ATOM      8 Cl1  UNL d   1      -1.789   1.316   4.116  0.00  0.00    -0.070 Cl
ENDROOT
TORSDOF 0
ENDMDL
