MODEL 1
REMARK minimizedAffinity 0.318592191
REMARK minimizedRMSD -1
REMARK  0 active torsions:
REMARK  status: ('A' for Active; 'I' for Inactive)
ROOT
ATOM      1  C4' PXY d   1       0.951  -1.954  -1.188  0.00  0.00     0.077 C 
ATOM      2  C1' PXY d   1      -1.814   2.556   1.141  0.00  0.00     0.077 C 
ATOM      3  C1  PXY d   1      -1.098   1.373   0.520  0.00  0.00    -0.082 A 
ATOM      4  C2  PXY d   1      -0.365   0.578   1.284  0.00  0.00     0.003 A 
ATOM      5  C3  PXY d   1       0.315  -0.477   0.733  0.00  0.00     0.003 A 
ATOM      6  C4  PXY d   1       0.202  -0.754  -0.603  0.00  0.00    -0.082 A 
ATOM      7  C5  PXY d   1      -0.552   0.047  -1.386  0.00  0.00     0.003 A 
ATOM      8  C6  PXY d   1      -1.201   1.137  -0.816  0.00  0.00     0.003 A 
ENDROOT
TORSDOF 0
ENDMDL
