MODEL 1
REMARK minimizedAffinity -3.27813959
REMARK minimizedRMSD -1
REMARK  0 active torsions:
REMARK  status: ('A' for Active; 'I' for Inactive)
ROOT
ATOM      1  C4' PXY d   1      -0.857  -3.065  -1.466  0.00  0.00     0.077 C 
ATOM      2  C1' PXY d   1       0.051   1.602   1.821  0.00  0.00     0.077 C 
ATOM      3  C1  PXY d   1      -0.178   0.382   0.951  0.00  0.00    -0.082 A 
ATOM      4  C2  PXY d   1      -1.340  -0.248   1.000  0.00  0.00     0.003 A 
ATOM      5  C3  PXY d   1      -1.553  -1.371   0.243  0.00  0.00     0.003 A 
ATOM      6  C4  PXY d   1      -0.585  -1.824  -0.612  0.00  0.00    -0.082 A 
ATOM      7  C5  PXY d   1       0.600  -1.180  -0.676  0.00  0.00     0.003 A 
ATOM      8  C6  PXY d   1       0.811  -0.066   0.130  0.00  0.00     0.003 A 
ENDROOT
TORSDOF 0
ENDMDL
