MODEL 1
REMARK minimizedAffinity 0.413515061
REMARK minimizedRMSD -1
REMARK  0 active torsions:
REMARK  status: ('A' for Active; 'I' for Inactive)
ROOT
ATOM      1  C4' PXY d   1       0.704   2.331   3.326  0.00  0.00     0.077 C 
ATOM      2  C1' PXY d   1      -2.052  -0.099  -1.136  0.00  0.00     0.077 C 
ATOM      3  C1  PXY d   1      -1.338   0.549   0.034  0.00  0.00    -0.082 A 
ATOM      4  C2  PXY d   1      -0.073   0.246   0.276  0.00  0.00     0.003 A 
ATOM      5  C3  PXY d   1       0.579   0.798   1.349  0.00  0.00     0.003 A 
ATOM      6  C4  PXY d   1      -0.054   1.709   2.151  0.00  0.00    -0.082 A 
ATOM      7  C5  PXY d   1      -1.342   2.031   1.904  0.00  0.00     0.003 A 
ATOM      8  C6  PXY d   1      -1.998   1.428   0.834  0.00  0.00     0.003 A 
ENDROOT
TORSDOF 0
ENDMDL
