MODEL 1
REMARK minimizedAffinity -1.76271617
REMARK minimizedRMSD -1
REMARK  0 active torsions:
REMARK  status: ('A' for Active; 'I' for Inactive)
ROOT
ATOM      1  C4' PXY d   1      -0.421   2.816   2.076  0.00  0.00     0.077 C 
ATOM      2  C1' PXY d   1       0.767  -1.825  -1.160  0.00  0.00     0.077 C 
ATOM      3  C1  PXY d   1       0.457  -0.600  -0.322  0.00  0.00    -0.082 A 
ATOM      4  C2  PXY d   1       0.692  -0.622   0.980  0.00  0.00     0.003 A 
ATOM      5  C3  PXY d   1       0.387   0.465   1.758  0.00  0.00     0.003 A 
ATOM      6  C4  PXY d   1      -0.114   1.606   1.189  0.00  0.00    -0.082 A 
ATOM      7  C5  PXY d   1      -0.346   1.639  -0.140  0.00  0.00     0.003 A 
ATOM      8  C6  PXY d   1      -0.068   0.511  -0.906  0.00  0.00     0.003 A 
ENDROOT
TORSDOF 0
ENDMDL
