MODEL 1
REMARK minimizedAffinity -2.98258543
REMARK minimizedRMSD -1
REMARK  0 active torsions:
REMARK  status: ('A' for Active; 'I' for Inactive)
ROOT
ATOM      1  C4' PXY d   1       0.487  -2.006  -1.013  0.00  0.00     0.077 C 
ATOM      2  C1' PXY d   1      -0.759   2.767   2.001  0.00  0.00     0.077 C 
ATOM      3  C1  PXY d   1      -0.440   1.519   1.201  0.00  0.00    -0.082 A 
ATOM      4  C2  PXY d   1      -0.009   0.435   1.825  0.00  0.00     0.003 A 
ATOM      5  C3  PXY d   1       0.315  -0.692   1.114  0.00  0.00     0.003 A 
ATOM      6  C4  PXY d   1       0.144  -0.726  -0.244  0.00  0.00    -0.082 A 
ATOM      7  C5  PXY d   1      -0.306   0.372  -0.887  0.00  0.00     0.003 A 
ATOM      8  C6  PXY d   1      -0.589   1.519  -0.151  0.00  0.00     0.003 A 
ENDROOT
TORSDOF 0
ENDMDL
