MODEL 1
REMARK minimizedAffinity -4.30562592
REMARK minimizedRMSD -1
REMARK  0 active torsions:
REMARK  status: ('A' for Active; 'I' for Inactive)
ROOT
ATOM      1  C4' PXY d   1       0.246  -1.708  -1.076  0.00  0.00     0.077 C 
ATOM      2  C1' PXY d   1      -1.492   3.051   1.708  0.00  0.00     0.077 C 
ATOM      3  C1  PXY d   1      -1.027   1.801   0.987  0.00  0.00    -0.082 A 
ATOM      4  C2  PXY d   1      -1.300   1.648  -0.299  0.00  0.00     0.003 A 
ATOM      5  C3  PXY d   1      -0.915   0.509  -0.959  0.00  0.00     0.003 A 
ATOM      6  C4  PXY d   1      -0.196  -0.458  -0.309  0.00  0.00    -0.082 A 
ATOM      7  C5  PXY d   1       0.096  -0.304   1.000  0.00  0.00     0.003 A 
ATOM      8  C6  PXY d   1      -0.340   0.840   1.661  0.00  0.00     0.003 A 
ENDROOT
TORSDOF 0
ENDMDL
