MODEL 1
REMARK minimizedAffinity -4.41944551
REMARK minimizedRMSD -1
REMARK  0 active torsions:
REMARK  status: ('A' for Active; 'I' for Inactive)
ROOT
ATOM      1  C4' PXY d   1      -0.088  -2.014  -1.666  0.00  0.00     0.077 C 
ATOM      2  C1' PXY d   1      -0.147   2.409   2.055  0.00  0.00     0.077 C 
ATOM      3  C1  PXY d   1      -0.144   1.252   1.076  0.00  0.00    -0.082 A 
ATOM      4  C2  PXY d   1       0.676   0.232   1.271  0.00  0.00     0.003 A 
ATOM      5  C3  PXY d   1       0.715  -0.808   0.378  0.00  0.00     0.003 A 
ATOM      6  C4  PXY d   1      -0.132  -0.829  -0.698  0.00  0.00    -0.082 A 
ATOM      7  C5  PXY d   1      -0.979   0.203  -0.898  0.00  0.00     0.003 A 
ATOM      8  C6  PXY d   1      -0.974   1.269  -0.002  0.00  0.00     0.003 A 
ENDROOT
TORSDOF 0
ENDMDL
