MODEL 1
REMARK minimizedAffinity -2.08340859
REMARK minimizedRMSD -1
REMARK  0 active torsions:
REMARK  status: ('A' for Active; 'I' for Inactive)
ROOT
ATOM      1  C4' PXY d   1       0.807  -2.594  -0.946  0.00  0.00     0.077 C 
ATOM      2  C1' PXY d   1      -0.265   2.253   2.016  0.00  0.00     0.077 C 
ATOM      3  C1  PXY d   1       0.006   0.984   1.231  0.00  0.00    -0.082 A 
ATOM      4  C2  PXY d   1       0.598  -0.039   1.826  0.00  0.00     0.003 A 
ATOM      5  C3  PXY d   1       0.880  -1.181   1.122  0.00  0.00     0.003 A 
ATOM      6  C4  PXY d   1       0.505  -1.298  -0.190  0.00  0.00    -0.082 A 
ATOM      7  C5  PXY d   1      -0.109  -0.262  -0.800  0.00  0.00     0.003 A 
ATOM      8  C6  PXY d   1      -0.349   0.904  -0.080  0.00  0.00     0.003 A 
ENDROOT
TORSDOF 0
ENDMDL
