MODEL 1
REMARK minimizedAffinity -2.00258708
REMARK minimizedRMSD -1
REMARK  0 active torsions:
REMARK  status: ('A' for Active; 'I' for Inactive)
ROOT
ATOM      1  C4' PXY d   1      -0.731   2.242   1.018  0.00  0.00     0.077 C 
ATOM      2  C1' PXY d   1       1.303  -2.800  -0.945  0.00  0.00     0.077 C 
ATOM      3  C1  PXY d   1       0.760  -1.478  -0.439  0.00  0.00    -0.082 A 
ATOM      4  C2  PXY d   1       1.562  -0.645   0.204  0.00  0.00     0.003 A 
ATOM      5  C3  PXY d   1       1.079   0.541   0.696  0.00  0.00     0.003 A 
ATOM      6  C4  PXY d   1      -0.224   0.901   0.481  0.00  0.00    -0.082 A 
ATOM      7  C5  PXY d   1      -1.046   0.060  -0.183  0.00  0.00     0.003 A 
ATOM      8  C6  PXY d   1      -0.547  -1.157  -0.638  0.00  0.00     0.003 A 
ENDROOT
TORSDOF 0
ENDMDL
