MODEL 1
REMARK minimizedAffinity -2.40173507
REMARK minimizedRMSD -1
REMARK  0 active torsions:
REMARK  status: ('A' for Active; 'I' for Inactive)
ROOT
ATOM      1  C4' PXY d   1      -0.359   0.841   0.699  0.00  0.00     0.077 C 
ATOM      2  C1' PXY d   1      -0.427  -4.437  -1.659  0.00  0.00     0.077 C 
ATOM      3  C1  PXY d   1      -0.396  -3.054  -1.038  0.00  0.00    -0.082 A 
ATOM      4  C2  PXY d   1      -1.513  -2.525  -0.563  0.00  0.00     0.003 A 
ATOM      5  C3  PXY d   1      -1.509  -1.263  -0.027  0.00  0.00     0.003 A 
ATOM      6  C4  PXY d   1      -0.341  -0.556   0.072  0.00  0.00    -0.082 A 
ATOM      7  C5  PXY d   1       0.804  -1.093  -0.400  0.00  0.00     0.003 A 
ATOM      8  C6  PXY d   1       0.772  -2.359  -0.978  0.00  0.00     0.003 A 
ENDROOT
TORSDOF 0
ENDMDL
