MODEL 1
REMARK minimizedAffinity -0.555373669
REMARK minimizedRMSD -1
REMARK  0 active torsions:
REMARK  status: ('A' for Active; 'I' for Inactive)
ROOT
ATOM      1  C4' PXY d   1      -0.981  -2.400  -0.931  0.00  0.00     0.077 C 
ATOM      2  C1' PXY d   1      -0.263   2.237   2.444  0.00  0.00     0.077 C 
ATOM      3  C1  PXY d   1      -0.448   1.028   1.549  0.00  0.00    -0.082 A 
ATOM      4  C2  PXY d   1      -1.224   0.033   1.946  0.00  0.00     0.003 A 
ATOM      5  C3  PXY d   1      -1.377  -1.082   1.163  0.00  0.00     0.003 A 
ATOM      6  C4  PXY d   1      -0.772  -1.156  -0.063  0.00  0.00    -0.082 A 
ATOM      7  C5  PXY d   1       0.012  -0.140  -0.480  0.00  0.00     0.003 A 
ATOM      8  C6  PXY d   1       0.188   0.965   0.348  0.00  0.00     0.003 A 
ENDROOT
TORSDOF 0
ENDMDL
