MODEL 1
REMARK minimizedAffinity 6.63542318
REMARK minimizedRMSD -1
REMARK  0 active torsions:
REMARK  status: ('A' for Active; 'I' for Inactive)
ROOT
ATOM      1  C   UNL d   1      -3.984  -1.906   3.291  0.00  0.00     0.077 C 
ATOM      2  C1  UNL d   1      -3.119  -1.214   2.279  0.00  0.00    -0.074 A 
ATOM      3  C2  UNL d   1      -2.207  -0.228   2.668  0.00  0.00    -0.005 A 
ATOM      4  C3  UNL d   1      -1.403   0.400   1.717  0.00  0.00     0.006 A 
ATOM      5  C4  UNL d   1      -1.502   0.049   0.371  0.00  0.00    -0.005 A 
ATOM      6  C5  UNL d   1      -2.408  -0.936  -0.037  0.00  0.00    -0.074 A 
ATOM      7  C6  UNL d   1      -2.520  -1.332  -1.479  0.00  0.00     0.077 C 
ATOM      8  C7  UNL d   1      -3.208  -1.567   0.926  0.00  0.00    -0.001 A 
ENDROOT
TORSDOF 0
ENDMDL
