MODEL 1
REMARK minimizedAffinity 2.31561255
REMARK minimizedRMSD -1
REMARK  0 active torsions:
REMARK  status: ('A' for Active; 'I' for Inactive)
ROOT
ATOM      1  C   UNL d   1       0.599  -1.316   4.742  0.00  0.00     0.077 C 
ATOM      2  C1  UNL d   1      -0.728  -1.293   4.043  0.00  0.00    -0.074 A 
ATOM      3  C2  UNL d   1      -1.794  -2.076   4.499  0.00  0.00    -0.005 A 
ATOM      4  C3  UNL d   1      -3.025  -2.037   3.844  0.00  0.00     0.006 A 
ATOM      5  C4  UNL d   1      -3.203  -1.217   2.729  0.00  0.00    -0.005 A 
ATOM      6  C5  UNL d   1      -2.149  -0.427   2.260  0.00  0.00    -0.074 A 
ATOM      7  C6  UNL d   1      -2.326   0.467   1.069  0.00  0.00     0.077 C 
ATOM      8  C7  UNL d   1      -0.917  -0.466   2.927  0.00  0.00    -0.001 A 
ENDROOT
TORSDOF 0
ENDMDL
