MODEL 1
REMARK minimizedAffinity 9.7827816
REMARK minimizedRMSD -1
REMARK  0 active torsions:
REMARK  status: ('A' for Active; 'I' for Inactive)
ROOT
ATOM      1  C   UNL d   1       1.245  -0.639   1.893  0.00  0.00     0.077 C 
ATOM      2  C1  UNL d   1      -0.134  -0.452   1.333  0.00  0.00    -0.074 A 
ATOM      3  C2  UNL d   1      -1.158   0.097   2.112  0.00  0.00    -0.005 A 
ATOM      4  C3  UNL d   1      -2.432   0.275   1.574  0.00  0.00     0.006 A 
ATOM      5  C4  UNL d   1      -2.696  -0.094   0.255  0.00  0.00    -0.005 A 
ATOM      6  C5  UNL d   1      -1.685  -0.644  -0.540  0.00  0.00    -0.074 A 
ATOM      7  C6  UNL d   1      -1.949  -1.036  -1.963  0.00  0.00     0.077 C 
ATOM      8  C7  UNL d   1      -0.405  -0.812   0.006  0.00  0.00    -0.001 A 
ENDROOT
TORSDOF 0
ENDMDL
