MODEL 1
REMARK minimizedAffinity 6.94221878
REMARK minimizedRMSD -1
REMARK  0 active torsions:
REMARK  status: ('A' for Active; 'I' for Inactive)
ROOT
ATOM      1  C   UNL d   1       4.999   1.698   3.249  0.00  0.00     0.077 C 
ATOM      2  C1  UNL d   1       4.234   1.483   1.977  0.00  0.00    -0.074 A 
ATOM      3  C2  UNL d   1       4.628   2.103   0.787  0.00  0.00    -0.005 A 
ATOM      4  C3  UNL d   1       3.912   1.886  -0.390  0.00  0.00     0.006 A 
ATOM      5  C4  UNL d   1       2.796   1.048  -0.389  0.00  0.00    -0.005 A 
ATOM      6  C5  UNL d   1       2.387   0.419   0.791  0.00  0.00    -0.074 A 
ATOM      7  C6  UNL d   1       1.196  -0.491   0.808  0.00  0.00     0.077 C 
ATOM      8  C7  UNL d   1       3.116   0.637   1.969  0.00  0.00    -0.001 A 
ENDROOT
TORSDOF 0
ENDMDL
