MODEL 1
REMARK minimizedAffinity -3.50967216
REMARK minimizedRMSD -1
REMARK  0 active torsions:
REMARK  status: ('A' for Active; 'I' for Inactive)
ROOT
ATOM      1  C   UNL d   1       3.212  -1.071   4.523  0.00  0.00     0.077 C 
ATOM      2  C1  UNL d   1       2.368  -0.503   3.421  0.00  0.00    -0.074 A 
ATOM      3  C2  UNL d   1       0.971  -0.543   3.491  0.00  0.00    -0.005 A 
ATOM      4  C3  UNL d   1       0.200  -0.002   2.463  0.00  0.00     0.006 A 
ATOM      5  C4  UNL d   1       0.815   0.583   1.356  0.00  0.00    -0.005 A 
ATOM      6  C5  UNL d   1       2.210   0.633   1.269  0.00  0.00    -0.074 A 
ATOM      7  C6  UNL d   1       2.887   1.268   0.091  0.00  0.00     0.077 C 
ATOM      8  C7  UNL d   1       2.978   0.094   2.309  0.00  0.00    -0.001 A 
ENDROOT
TORSDOF 0
ENDMDL
