MODEL 1
REMARK minimizedAffinity 7.84265471
REMARK minimizedRMSD -1
REMARK  0 active torsions:
REMARK  status: ('A' for Active; 'I' for Inactive)
ROOT
ATOM      1  C   UNL d   1       1.554  -0.373   0.587  0.00  0.00     0.077 C 
ATOM      2  C1  UNL d   1       1.174  -0.630   2.015  0.00  0.00    -0.074 A 
ATOM      3  C2  UNL d   1      -0.149  -0.486   2.444  0.00  0.00    -0.005 A 
ATOM      4  C3  UNL d   1      -0.489  -0.737   3.773  0.00  0.00     0.006 A 
ATOM      5  C4  UNL d   1       0.489  -1.133   4.686  0.00  0.00    -0.005 A 
ATOM      6  C5  UNL d   1       1.817  -1.283   4.275  0.00  0.00    -0.074 A 
ATOM      7  C6  UNL d   1       2.879  -1.718   5.241  0.00  0.00     0.077 C 
ATOM      8  C7  UNL d   1       2.150  -1.036   2.936  0.00  0.00    -0.001 A 
ENDROOT
TORSDOF 0
ENDMDL
