MODEL 1
REMARK minimizedAffinity -2.73807335
REMARK minimizedRMSD -1
REMARK  0 active torsions:
REMARK  status: ('A' for Active; 'I' for Inactive)
ROOT
ATOM      1  C   UNL d   1      -0.773   3.652  -0.853  0.00  0.00     0.124 A 
ATOM      2  C1  UNL d   1      -1.461   3.346   0.314  0.00  0.00     0.062 A 
ATOM      3  C2  UNL d   1      -1.250   2.127   0.951  0.00  0.00     0.162 A 
ATOM      4  C3  UNL d   1      -0.347   1.204   0.424  0.00  0.00    -0.034 A 
ATOM      5  C4  UNL d   1       0.340   1.518  -0.750  0.00  0.00     0.162 A 
ATOM      6  C5  UNL d   1       0.126   2.738  -1.383  0.00  0.00     0.062 A 
ATOM      7  F   UNL d   1       0.792   3.032  -2.510  0.00  0.00    -0.097 F 
ATOM      8  F1  UNL d   1       1.216   0.654  -1.284  0.00  0.00    -0.096 F 
ATOM      9  I   UNL d   1      -0.029  -0.620   1.374  0.00  0.00    -0.060 I 
ATOM     10  F2  UNL d   1      -1.928   1.858   2.076  0.00  0.00    -0.096 F 
ATOM     11  F3  UNL d   1      -2.331   4.227   0.828  0.00  0.00    -0.097 F 
ATOM     12  F4  UNL d   1      -0.978   4.826  -1.464  0.00  0.00    -0.092 F 
ENDROOT
TORSDOF 0
ENDMDL
