MODEL 1
REMARK minimizedAffinity -4.84845972
REMARK minimizedRMSD -1
REMARK  0 active torsions:
REMARK  status: ('A' for Active; 'I' for Inactive)
ROOT
ATOM      1  C   UNL d   1      -1.596   2.901   0.970  0.00  0.00     0.124 A 
ATOM      2  C1  UNL d   1      -1.815   1.632   1.489  0.00  0.00     0.062 A 
ATOM      3  C2  UNL d   1      -1.130   0.537   0.971  0.00  0.00     0.162 A 
ATOM      4  C3  UNL d   1      -0.220   0.704  -0.072  0.00  0.00    -0.034 A 
ATOM      5  C4  UNL d   1      -0.007   1.983  -0.590  0.00  0.00     0.162 A 
ATOM      6  C5  UNL d   1      -0.693   3.075  -0.069  0.00  0.00     0.062 A 
ATOM      7  F   UNL d   1      -0.481   4.300  -0.572  0.00  0.00    -0.097 F 
ATOM      8  F1  UNL d   1       0.862   2.180  -1.593  0.00  0.00    -0.096 F 
ATOM      9  I   UNL d   1       0.805  -0.932  -0.849  0.00  0.00    -0.060 I 
ATOM     10  F2  UNL d   1      -1.361  -0.678   1.493  0.00  0.00    -0.096 F 
ATOM     11  F3  UNL d   1      -2.688   1.461   2.492  0.00  0.00    -0.097 F 
ATOM     12  F4  UNL d   1      -2.257   3.953   1.469  0.00  0.00    -0.092 F 
ENDROOT
TORSDOF 0
ENDMDL
