MODEL 1
REMARK minimizedAffinity -2.70640111
REMARK minimizedRMSD -1
REMARK  0 active torsions:
REMARK  status: ('A' for Active; 'I' for Inactive)
ROOT
ATOM      1  C   UNL d   1      -0.595   2.121   0.495  0.00  0.00     0.124 A 
ATOM      2  C1  UNL d   1      -0.075   1.883  -0.770  0.00  0.00     0.062 A 
ATOM      3  C2  UNL d   1       0.414   0.623  -1.101  0.00  0.00     0.162 A 
ATOM      4  C3  UNL d   1       0.386  -0.411  -0.164  0.00  0.00    -0.034 A 
ATOM      5  C4  UNL d   1      -0.138  -0.164   1.106  0.00  0.00     0.162 A 
ATOM      6  C5  UNL d   1      -0.626   1.097   1.432  0.00  0.00     0.062 A 
ATOM      7  F   UNL d   1      -1.127   1.325   2.654  0.00  0.00    -0.097 F 
ATOM      8  F1  UNL d   1      -0.180  -1.135   2.030  0.00  0.00    -0.096 F 
ATOM      9  I   UNL d   1       1.117  -2.297  -0.655  0.00  0.00    -0.060 I 
ATOM     10  F2  UNL d   1       0.911   0.422  -2.330  0.00  0.00    -0.096 F 
ATOM     11  F3  UNL d   1      -0.044   2.871  -1.676  0.00  0.00    -0.097 F 
ATOM     12  F4  UNL d   1      -1.064   3.335   0.811  0.00  0.00    -0.092 F 
ENDROOT
TORSDOF 0
ENDMDL
