MODEL 1
REMARK minimizedAffinity -3.91821718
REMARK minimizedRMSD -1
REMARK  0 active torsions:
REMARK  status: ('A' for Active; 'I' for Inactive)
ROOT
ATOM      1  C   UNL d   1      -1.636   3.194   0.617  0.00  0.00     0.124 A 
ATOM      2  C1  UNL d   1      -0.577   3.266  -0.278  0.00  0.00     0.062 A 
ATOM      3  C2  UNL d   1       0.138   2.119  -0.609  0.00  0.00     0.162 A 
ATOM      4  C3  UNL d   1      -0.203   0.889  -0.047  0.00  0.00    -0.034 A 
ATOM      5  C4  UNL d   1      -1.269   0.824   0.853  0.00  0.00     0.162 A 
ATOM      6  C5  UNL d   1      -1.981   1.973   1.182  0.00  0.00     0.062 A 
ATOM      7  F   UNL d   1      -3.003   1.902   2.046  0.00  0.00    -0.097 F 
ATOM      8  F1  UNL d   1      -1.624  -0.342   1.413  0.00  0.00    -0.096 F 
ATOM      9  I   UNL d   1       0.864  -0.828  -0.540  0.00  0.00    -0.060 I 
ATOM     10  F2  UNL d   1       1.156   2.218  -1.477  0.00  0.00    -0.096 F 
ATOM     11  F3  UNL d   1      -0.242   4.443  -0.824  0.00  0.00    -0.097 F 
ATOM     12  F4  UNL d   1      -2.322   4.299   0.935  0.00  0.00    -0.092 F 
ENDROOT
TORSDOF 0
ENDMDL
