MODEL 1
REMARK minimizedAffinity -3.42311645
REMARK minimizedRMSD -1
REMARK  0 active torsions:
REMARK  status: ('A' for Active; 'I' for Inactive)
ROOT
ATOM      1  C   UNL d   1      -1.440   2.859   0.816  0.00  0.00     0.124 A 
ATOM      2  C1  UNL d   1      -1.777   1.639   1.384  0.00  0.00     0.062 A 
ATOM      3  C2  UNL d   1      -1.092   0.483   1.018  0.00  0.00     0.162 A 
ATOM      4  C3  UNL d   1      -0.063   0.543   0.078  0.00  0.00    -0.034 A 
ATOM      5  C4  UNL d   1       0.269   1.774  -0.490  0.00  0.00     0.162 A 
ATOM      6  C5  UNL d   1      -0.418   2.926  -0.121  0.00  0.00     0.062 A 
ATOM      7  F   UNL d   1      -0.091   4.104  -0.671  0.00  0.00    -0.097 F 
ATOM      8  F1  UNL d   1       1.253   1.867  -1.397  0.00  0.00    -0.096 F 
ATOM      9  I   UNL d   1       0.962  -1.182  -0.472  0.00  0.00    -0.060 I 
ATOM     10  F2  UNL d   1      -1.439  -0.682   1.584  0.00  0.00    -0.096 F 
ATOM     11  F3  UNL d   1      -2.764   1.572   2.289  0.00  0.00    -0.097 F 
ATOM     12  F4  UNL d   1      -2.101   3.969   1.169  0.00  0.00    -0.092 F 
ENDROOT
TORSDOF 0
ENDMDL
