MODEL 1
REMARK minimizedAffinity -0.465986997
REMARK minimizedRMSD -1
REMARK  0 active torsions:
REMARK  status: ('A' for Active; 'I' for Inactive)
ROOT
ATOM      1  C   UNL d   1      -0.979   2.920   1.020  0.00  0.00     0.124 A 
ATOM      2  C1  UNL d   1      -1.292   1.717   1.638  0.00  0.00     0.062 A 
ATOM      3  C2  UNL d   1      -0.792   0.520   1.134  0.00  0.00     0.162 A 
ATOM      4  C3  UNL d   1       0.028   0.520   0.005  0.00  0.00    -0.034 A 
ATOM      5  C4  UNL d   1       0.338   1.734  -0.612  0.00  0.00     0.162 A 
ATOM      6  C5  UNL d   1      -0.165   2.928  -0.104  0.00  0.00     0.062 A 
ATOM      7  F   UNL d   1       0.138   4.089  -0.702  0.00  0.00    -0.097 F 
ATOM      8  F1  UNL d   1       1.123   1.770  -1.698  0.00  0.00    -0.096 F 
ATOM      9  I   UNL d   1       0.779  -1.267  -0.752  0.00  0.00    -0.060 I 
ATOM     10  F2  UNL d   1      -1.110  -0.627   1.751  0.00  0.00    -0.096 F 
ATOM     11  F3  UNL d   1      -2.079   1.708   2.723  0.00  0.00    -0.097 F 
ATOM     12  F4  UNL d   1      -1.463   4.070   1.507  0.00  0.00    -0.092 F 
ENDROOT
TORSDOF 0
ENDMDL
