MODEL 1
REMARK minimizedAffinity -2.98700881
REMARK minimizedRMSD -1
REMARK  0 active torsions:
REMARK  status: ('A' for Active; 'I' for Inactive)
ROOT
ATOM      1  C   UNL d   1      -0.425   2.173   0.678  0.00  0.00     0.124 A 
ATOM      2  C1  UNL d   1      -0.892   0.965   1.176  0.00  0.00     0.062 A 
ATOM      3  C2  UNL d   1      -0.428  -0.236   0.648  0.00  0.00     0.162 A 
ATOM      4  C3  UNL d   1       0.510  -0.236  -0.384  0.00  0.00    -0.034 A 
ATOM      5  C4  UNL d   1       0.975   0.983  -0.881  0.00  0.00     0.162 A 
ATOM      6  C5  UNL d   1       0.508   2.181  -0.350  0.00  0.00     0.062 A 
ATOM      7  F   UNL d   1       0.961   3.348  -0.832  0.00  0.00    -0.097 F 
ATOM      8  F1  UNL d   1       1.877   1.020  -1.872  0.00  0.00    -0.096 F 
ATOM      9  I   UNL d   1       1.206  -2.030  -1.176  0.00  0.00    -0.060 I 
ATOM     10  F2  UNL d   1      -0.898  -1.389   1.149  0.00  0.00    -0.096 F 
ATOM     11  F3  UNL d   1      -1.794   0.955   2.168  0.00  0.00    -0.097 F 
ATOM     12  F4  UNL d   1      -0.874   3.328   1.187  0.00  0.00    -0.092 F 
ENDROOT
TORSDOF 0
ENDMDL
