MODEL 1
REMARK minimizedAffinity 7.60647821
REMARK minimizedRMSD -1
REMARK  0 active torsions:
REMARK  status: ('A' for Active; 'I' for Inactive)
ROOT
ATOM      1  C   UNL d   1       0.970  -2.443  -2.505  0.00  0.00     0.124 A 
ATOM      2  C1  UNL d   1       1.354  -1.121  -2.330  0.00  0.00     0.062 A 
ATOM      3  C2  UNL d   1       1.019  -0.444  -1.160  0.00  0.00     0.162 A 
ATOM      4  C3  UNL d   1       0.297  -1.088  -0.156  0.00  0.00    -0.034 A 
ATOM      5  C4  UNL d   1      -0.086  -2.418  -0.340  0.00  0.00     0.162 A 
ATOM      6  C5  UNL d   1       0.251  -3.090  -1.510  0.00  0.00     0.062 A 
ATOM      7  F   UNL d   1      -0.121  -4.368  -1.677  0.00  0.00    -0.097 F 
ATOM      8  F1  UNL d   1      -0.781  -3.068   0.606  0.00  0.00    -0.096 F 
ATOM      9  I   UNL d   1      -0.204  -0.079   1.594  0.00  0.00    -0.060 I 
ATOM     10  F2  UNL d   1       1.404   0.834  -1.018  0.00  0.00    -0.096 F 
ATOM     11  F3  UNL d   1       2.048  -0.493  -3.290  0.00  0.00    -0.097 F 
ATOM     12  F4  UNL d   1       1.292  -3.092  -3.631  0.00  0.00    -0.092 F 
ENDROOT
TORSDOF 0
ENDMDL
