MODEL 1
REMARK minimizedAffinity 0.0146425469
REMARK minimizedRMSD -1
REMARK  0 active torsions:
REMARK  status: ('A' for Active; 'I' for Inactive)
ROOT
ATOM      1  C   UNL d   1       1.064   1.660   2.680  0.00  0.00     0.124 A 
ATOM      2  C1  UNL d   1       1.620   0.419   2.957  0.00  0.00     0.062 A 
ATOM      3  C2  UNL d   1       1.513  -0.618   2.035  0.00  0.00     0.162 A 
ATOM      4  C3  UNL d   1       0.846  -0.419   0.826  0.00  0.00    -0.034 A 
ATOM      5  C4  UNL d   1       0.288   0.832   0.555  0.00  0.00     0.162 A 
ATOM      6  C5  UNL d   1       0.398   1.865   1.480  0.00  0.00     0.062 A 
ATOM      7  F   UNL d   1      -0.140   3.063   1.210  0.00  0.00    -0.097 F 
ATOM      8  F1  UNL d   1      -0.360   1.058  -0.597  0.00  0.00    -0.096 F 
ATOM      9  I   UNL d   1       0.682  -1.967  -0.555  0.00  0.00    -0.060 I 
ATOM     10  F2  UNL d   1       2.060  -1.807   2.329  0.00  0.00    -0.096 F 
ATOM     11  F3  UNL d   1       2.263   0.218   4.116  0.00  0.00    -0.097 F 
ATOM     12  F4  UNL d   1       1.168   2.656   3.569  0.00  0.00    -0.092 F 
ENDROOT
TORSDOF 0
ENDMDL
