MODEL 1
REMARK minimizedAffinity -5.95880938
REMARK minimizedRMSD -1
REMARK  0 active torsions:
REMARK  status: ('A' for Active; 'I' for Inactive)
ROOT
ATOM      1  C   UNL d   1      -1.858   3.325   0.343  0.00  0.00     0.124 A 
ATOM      2  C1  UNL d   1      -2.164   2.088   0.893  0.00  0.00     0.062 A 
ATOM      3  C2  UNL d   1      -1.369   0.981   0.612  0.00  0.00     0.162 A 
ATOM      4  C3  UNL d   1      -0.259   1.106  -0.224  0.00  0.00    -0.034 A 
ATOM      5  C4  UNL d   1       0.042   2.353  -0.774  0.00  0.00     0.162 A 
ATOM      6  C5  UNL d   1      -0.756   3.456  -0.490  0.00  0.00     0.062 A 
ATOM      7  F   UNL d   1      -0.459   4.650  -1.023  0.00  0.00    -0.097 F 
ATOM      8  F1  UNL d   1       1.101   2.508  -1.582  0.00  0.00    -0.096 F 
ATOM      9  I   UNL d   1       0.932  -0.548  -0.647  0.00  0.00    -0.060 I 
ATOM     10  F2  UNL d   1      -1.688  -0.202   1.158  0.00  0.00    -0.096 F 
ATOM     11  F3  UNL d   1      -3.229   1.958   1.698  0.00  0.00    -0.097 F 
ATOM     12  F4  UNL d   1      -2.626   4.388   0.614  0.00  0.00    -0.092 F 
ENDROOT
TORSDOF 0
ENDMDL
