MODEL 1
REMARK minimizedAffinity 0.367187381
REMARK minimizedRMSD -1
REMARK  0 active torsions:
REMARK  status: ('A' for Active; 'I' for Inactive)
ROOT
ATOM      1  C   UNL d   1      -0.521   2.868   1.095  0.00  0.00     0.124 A 
ATOM      2  C1  UNL d   1       0.105   2.942  -0.141  0.00  0.00     0.062 A 
ATOM      3  C2  UNL d   1       0.493   1.779  -0.800  0.00  0.00     0.162 A 
ATOM      4  C3  UNL d   1       0.255   0.531  -0.223  0.00  0.00    -0.034 A 
ATOM      5  C4  UNL d   1      -0.374   0.465   1.021  0.00  0.00     0.162 A 
ATOM      6  C5  UNL d   1      -0.760   1.630   1.675  0.00  0.00     0.062 A 
ATOM      7  F   UNL d   1      -1.364   1.557   2.870  0.00  0.00    -0.097 F 
ATOM      8  F1  UNL d   1      -0.618  -0.718   1.604  0.00  0.00    -0.096 F 
ATOM      9  I   UNL d   1       0.833  -1.211  -1.205  0.00  0.00    -0.060 I 
ATOM     10  F2  UNL d   1       1.095   1.880  -1.994  0.00  0.00    -0.096 F 
ATOM     11  F3  UNL d   1       0.338   4.137  -0.703  0.00  0.00    -0.097 F 
ATOM     12  F4  UNL d   1      -0.892   3.989   1.727  0.00  0.00    -0.092 F 
ENDROOT
TORSDOF 0
ENDMDL
