MODEL 1
REMARK minimizedAffinity -3.20611238
REMARK minimizedRMSD -1
REMARK  0 active torsions:
REMARK  status: ('A' for Active; 'I' for Inactive)
ROOT
ATOM      1  C   UNL d   1      -1.837   2.809   0.086  0.00  0.00     0.124 A 
ATOM      2  C1  UNL d   1      -0.830   2.998  -0.850  0.00  0.00     0.062 A 
ATOM      3  C2  UNL d   1       0.107   1.995  -1.083  0.00  0.00     0.162 A 
ATOM      4  C3  UNL d   1       0.041   0.793  -0.378  0.00  0.00    -0.034 A 
ATOM      5  C4  UNL d   1      -0.974   0.611   0.563  0.00  0.00     0.162 A 
ATOM      6  C5  UNL d   1      -1.908   1.616   0.792  0.00  0.00     0.062 A 
ATOM      7  F   UNL d   1      -2.880   1.432   1.697  0.00  0.00    -0.097 F 
ATOM      8  F1  UNL d   1      -1.067  -0.533   1.258  0.00  0.00    -0.096 F 
ATOM      9  I   UNL d   1       1.440  -0.709  -0.723  0.00  0.00    -0.060 I 
ATOM     10  F2  UNL d   1       1.069   2.205  -1.993  0.00  0.00    -0.096 F 
ATOM     11  F3  UNL d   1      -0.758   4.150  -1.532  0.00  0.00    -0.097 F 
ATOM     12  F4  UNL d   1      -2.736   3.776   0.309  0.00  0.00    -0.092 F 
ENDROOT
TORSDOF 0
ENDMDL
