MODEL 1
REMARK minimizedAffinity -1.62907255
REMARK minimizedRMSD -1
REMARK  0 active torsions:
REMARK  status: ('A' for Active; 'I' for Inactive)
ROOT
ATOM      1  C   UNL d   1      -1.056   3.017   1.535  0.00  0.00     0.124 A 
ATOM      2  C1  UNL d   1      -1.222   2.964   0.158  0.00  0.00     0.062 A 
ATOM      3  C2  UNL d   1      -0.836   1.829  -0.550  0.00  0.00     0.162 A 
ATOM      4  C3  UNL d   1      -0.282   0.737   0.118  0.00  0.00    -0.034 A 
ATOM      5  C4  UNL d   1      -0.118   0.799   1.503  0.00  0.00     0.162 A 
ATOM      6  C5  UNL d   1      -0.505   1.935   2.206  0.00  0.00     0.062 A 
ATOM      7  F   UNL d   1      -0.344   1.985   3.537  0.00  0.00    -0.097 F 
ATOM      8  F1  UNL d   1       0.411  -0.233   2.177  0.00  0.00    -0.096 F 
ATOM      9  I   UNL d   1       0.295  -0.961  -0.937  0.00  0.00    -0.060 I 
ATOM     10  F2  UNL d   1      -1.008   1.805  -1.880  0.00  0.00    -0.096 F 
ATOM     11  F3  UNL d   1      -1.754   4.009  -0.493  0.00  0.00    -0.097 F 
ATOM     12  F4  UNL d   1      -1.427   4.111   2.214  0.00  0.00    -0.092 F 
ENDROOT
TORSDOF 0
ENDMDL
