MODEL 1
REMARK minimizedAffinity -5.50931358
REMARK minimizedRMSD -1
REMARK  0 active torsions:
REMARK  status: ('A' for Active; 'I' for Inactive)
ROOT
ATOM      1  C   UNL d   1      -1.606   3.294   0.229  0.00  0.00     0.124 A 
ATOM      2  C1  UNL d   1      -1.967   2.038   0.697  0.00  0.00     0.062 A 
ATOM      3  C2  UNL d   1      -1.160   0.935   0.435  0.00  0.00     0.162 A 
ATOM      4  C3  UNL d   1       0.018   1.082  -0.297  0.00  0.00    -0.034 A 
ATOM      5  C4  UNL d   1       0.374   2.348  -0.765  0.00  0.00     0.162 A 
ATOM      6  C5  UNL d   1      -0.436   3.448  -0.501  0.00  0.00     0.062 A 
ATOM      7  F   UNL d   1      -0.085   4.661  -0.953  0.00  0.00    -0.097 F 
ATOM      8  F1  UNL d   1       1.500   2.526  -1.472  0.00  0.00    -0.096 F 
ATOM      9  I   UNL d   1       1.227  -0.565  -0.691  0.00  0.00    -0.060 I 
ATOM     10  F2  UNL d   1      -1.534  -0.267   0.899  0.00  0.00    -0.096 F 
ATOM     11  F3  UNL d   1      -3.098   1.887   1.402  0.00  0.00    -0.097 F 
ATOM     12  F4  UNL d   1      -2.385   4.354   0.482  0.00  0.00    -0.092 F 
ENDROOT
TORSDOF 0
ENDMDL
