MODEL 1
REMARK minimizedAffinity -4.59821987
REMARK minimizedRMSD -1
REMARK  0 active torsions:
REMARK  status: ('A' for Active; 'I' for Inactive)
ROOT
ATOM      1  C   UNL d   1      -1.492   3.184   0.541  0.00  0.00     0.124 A 
ATOM      2  C1  UNL d   1      -0.293   3.264  -0.153  0.00  0.00     0.062 A 
ATOM      3  C2  UNL d   1       0.396   2.105  -0.496  0.00  0.00     0.162 A 
ATOM      4  C3  UNL d   1      -0.112   0.854  -0.145  0.00  0.00    -0.034 A 
ATOM      5  C4  UNL d   1      -1.318   0.781   0.554  0.00  0.00     0.162 A 
ATOM      6  C5  UNL d   1      -2.003   1.943   0.895  0.00  0.00     0.062 A 
ATOM      7  F   UNL d   1      -3.161   1.864   1.566  0.00  0.00    -0.097 F 
ATOM      8  F1  UNL d   1      -1.835  -0.405   0.907  0.00  0.00    -0.096 F 
ATOM      9  I   UNL d   1       0.916  -0.882  -0.656  0.00  0.00    -0.060 I 
ATOM     10  F2  UNL d   1       1.553   2.212  -1.168  0.00  0.00    -0.096 F 
ATOM     11  F3  UNL d   1       0.203   4.462  -0.495  0.00  0.00    -0.097 F 
ATOM     12  F4  UNL d   1      -2.153   4.301   0.871  0.00  0.00    -0.092 F 
ENDROOT
TORSDOF 0
ENDMDL
