MODEL 1
REMARK minimizedAffinity -5.29122877
REMARK minimizedRMSD -1
REMARK  0 active torsions:
REMARK  status: ('A' for Active; 'I' for Inactive)
ROOT
ATOM      1  C   UNL d   1      -1.332   3.299   0.756  0.00  0.00     0.124 A 
ATOM      2  C1  UNL d   1      -1.881   2.074   1.108  0.00  0.00     0.062 A 
ATOM      3  C2  UNL d   1      -1.270   0.891   0.703  0.00  0.00     0.162 A 
ATOM      4  C3  UNL d   1      -0.101   0.926  -0.058  0.00  0.00    -0.034 A 
ATOM      5  C4  UNL d   1       0.444   2.162  -0.409  0.00  0.00     0.162 A 
ATOM      6  C5  UNL d   1      -0.170   3.342  -0.002  0.00  0.00     0.062 A 
ATOM      7  F   UNL d   1       0.362   4.525  -0.344  0.00  0.00    -0.097 F 
ATOM      8  F1  UNL d   1       1.567   2.233  -1.140  0.00  0.00    -0.096 F 
ATOM      9  I   UNL d   1       0.815  -0.841  -0.665  0.00  0.00    -0.060 I 
ATOM     10  F2  UNL d   1      -1.823  -0.279   1.058  0.00  0.00    -0.096 F 
ATOM     11  F3  UNL d   1      -3.004   2.030   1.839  0.00  0.00    -0.097 F 
ATOM     12  F4  UNL d   1      -1.922   4.436   1.145  0.00  0.00    -0.092 F 
ENDROOT
TORSDOF 0
ENDMDL
