MODEL 1
REMARK minimizedAffinity 6.30947542
REMARK minimizedRMSD -1
REMARK  1 active torsions:
REMARK  status: ('A' for Active; 'I' for Inactive)
REMARK    1  A    between atoms: C1_2  and  C2_3 
ROOT
ATOM      1  C2  UNL d   1       2.420  -2.581  -1.178  0.00  0.00    -0.076 A 
ATOM      2  C3  UNL d   1       3.775  -2.309  -0.921  0.00  0.00     0.004 A 
ATOM      3  C4  UNL d   1       4.192  -1.033  -0.547  0.00  0.00    -0.003 A 
ATOM      4  C5  UNL d   1       3.262  -0.007  -0.424  0.00  0.00     0.000 A 
ATOM      5  C6  UNL d   1       1.911  -0.263  -0.658  0.00  0.00     0.000 A 
ATOM      6  C7  UNL d   1       1.471  -1.548  -1.019  0.00  0.00    -0.073 A 
ATOM      7  C8  UNL d   1       0.003  -1.765  -1.266  0.00  0.00     0.078 C 
ENDROOT
BRANCH   1   8
ATOM      8  C1  UNL d   1       2.029  -3.977  -1.606  0.00  0.00     0.053 C 
ATOM      9  C   UNL d   1       3.136  -4.682  -2.375  0.00  0.00     0.018 C 
ENDBRANCH   1   8
TORSDOF 1
ENDMDL
