MODEL 1
REMARK minimizedAffinity 21.7691364
REMARK minimizedRMSD -1
REMARK  1 active torsions:
REMARK  status: ('A' for Active; 'I' for Inactive)
REMARK    1  A    between atoms: C1_2  and  C2_3 
ROOT
ATOM      1  C2  UNL d   1       2.793  -0.514  -0.212  0.00  0.00    -0.076 A 
ATOM      2  C3  UNL d   1       2.860  -1.902  -0.427  0.00  0.00     0.004 A 
ATOM      3  C4  UNL d   1       1.743  -2.617  -0.854  0.00  0.00    -0.003 A 
ATOM      4  C5  UNL d   1       0.539  -1.956  -1.075  0.00  0.00     0.000 A 
ATOM      5  C6  UNL d   1       0.459  -0.577  -0.883  0.00  0.00     0.000 A 
ATOM      6  C7  UNL d   1       1.581   0.162  -0.468  0.00  0.00    -0.073 A 
ATOM      7  C8  UNL d   1       1.435   1.646  -0.271  0.00  0.00     0.078 C 
ENDROOT
BRANCH   1   8
ATOM      8  C1  UNL d   1       4.030   0.204   0.278  0.00  0.00     0.053 C 
ATOM      9  C   UNL d   1       4.564   1.203  -0.736  0.00  0.00     0.018 C 
ENDBRANCH   1   8
TORSDOF 1
ENDMDL
