MODEL 1
REMARK minimizedAffinity 8.84281731
REMARK minimizedRMSD -1
REMARK  1 active torsions:
REMARK  status: ('A' for Active; 'I' for Inactive)
REMARK    1  A    between atoms: C1_2  and  C2_3 
ROOT
ATOM      1  C2  UNL d   1      -1.572  -3.786   0.880  0.00  0.00    -0.076 A 
ATOM      2  C3  UNL d   1      -2.374  -4.295  -0.155  0.00  0.00     0.004 A 
ATOM      3  C4  UNL d   1      -2.074  -4.032  -1.491  0.00  0.00    -0.003 A 
ATOM      4  C5  UNL d   1      -0.966  -3.256  -1.813  0.00  0.00     0.000 A 
ATOM      5  C6  UNL d   1      -0.148  -2.758  -0.799  0.00  0.00     0.000 A 
ATOM      6  C7  UNL d   1      -0.428  -3.027   0.552  0.00  0.00    -0.073 A 
ATOM      7  C8  UNL d   1       0.484  -2.460   1.605  0.00  0.00     0.078 C 
ENDROOT
BRANCH   1   8
ATOM      8  C1  UNL d   1      -1.962  -4.081   2.311  0.00  0.00     0.053 C 
ATOM      9  C   UNL d   1      -2.867  -3.011   2.901  0.00  0.00     0.018 C 
ENDBRANCH   1   8
TORSDOF 1
ENDMDL
