MODEL 1
REMARK minimizedAffinity 9.38596821
REMARK minimizedRMSD -1
REMARK  1 active torsions:
REMARK  status: ('A' for Active; 'I' for Inactive)
REMARK    1  A    between atoms: C1_2  and  C2_3 
ROOT
ATOM      1  C2  UNL d   1       1.747  -2.900  -1.599  0.00  0.00    -0.076 A 
ATOM      2  C3  UNL d   1       1.920  -1.740  -0.824  0.00  0.00     0.004 A 
ATOM      3  C4  UNL d   1       1.216  -0.572  -1.113  0.00  0.00    -0.003 A 
ATOM      4  C5  UNL d   1       0.327  -0.545  -2.182  0.00  0.00     0.000 A 
ATOM      5  C6  UNL d   1       0.130  -1.692  -2.951  0.00  0.00     0.000 A 
ATOM      6  C7  UNL d   1       0.819  -2.882  -2.663  0.00  0.00    -0.073 A 
ATOM      7  C8  UNL d   1       0.573  -4.087  -3.529  0.00  0.00     0.078 C 
ENDROOT
BRANCH   1   8
ATOM      8  C1  UNL d   1       2.558  -4.128  -1.255  0.00  0.00     0.053 C 
ATOM      9  C   UNL d   1       3.452  -4.576  -2.401  0.00  0.00     0.018 C 
ENDBRANCH   1   8
TORSDOF 1
ENDMDL
