MODEL 1
REMARK minimizedAffinity 10.2394457
REMARK minimizedRMSD -1
REMARK  1 active torsions:
REMARK  status: ('A' for Active; 'I' for Inactive)
REMARK    1  A    between atoms: C1_2  and  C2_3 
ROOT
ATOM      1  C2  UNL d   1       0.597  -1.483  -2.145  0.00  0.00    -0.076 A 
ATOM      2  C3  UNL d   1       1.398  -1.601  -0.996  0.00  0.00     0.004 A 
ATOM      3  C4  UNL d   1       1.803  -0.473  -0.284  0.00  0.00    -0.003 A 
ATOM      4  C5  UNL d   1       1.411   0.792  -0.710  0.00  0.00     0.000 A 
ATOM      5  C6  UNL d   1       0.602   0.926  -1.837  0.00  0.00     0.000 A 
ATOM      6  C7  UNL d   1       0.172  -0.202  -2.556  0.00  0.00    -0.073 A 
ATOM      7  C8  UNL d   1      -0.695   0.002  -3.768  0.00  0.00     0.078 C 
ENDROOT
BRANCH   1   8
ATOM      8  C1  UNL d   1       0.212  -2.741  -2.891  0.00  0.00     0.053 C 
ATOM      9  C   UNL d   1       1.389  -3.682  -3.092  0.00  0.00     0.018 C 
ENDBRANCH   1   8
TORSDOF 1
ENDMDL
