MODEL 1
REMARK minimizedAffinity 4.05882788
REMARK minimizedRMSD -1
REMARK  1 active torsions:
REMARK  status: ('A' for Active; 'I' for Inactive)
REMARK    1  A    between atoms: C1_2  and  C2_3 
ROOT
ATOM      1  C2  UNL d   1       1.071   0.172  -2.488  0.00  0.00    -0.076 A 
ATOM      2  C3  UNL d   1       0.847  -1.216  -2.481  0.00  0.00     0.004 A 
ATOM      3  C4  UNL d   1       1.110  -1.979  -1.345  0.00  0.00    -0.003 A 
ATOM      4  C5  UNL d   1       1.601  -1.367  -0.197  0.00  0.00     0.000 A 
ATOM      5  C6  UNL d   1       1.812   0.011  -0.180  0.00  0.00     0.000 A 
ATOM      6  C7  UNL d   1       1.536   0.798  -1.312  0.00  0.00    -0.073 A 
ATOM      7  C8  UNL d   1       1.788   2.279  -1.240  0.00  0.00     0.078 C 
ENDROOT
BRANCH   1   8
ATOM      8  C1  UNL d   1       0.792   0.944  -3.758  0.00  0.00     0.053 C 
ATOM      9  C   UNL d   1      -0.696   1.105  -4.027  0.00  0.00     0.018 C 
ENDBRANCH   1   8
TORSDOF 1
ENDMDL
