MODEL 1
REMARK minimizedAffinity 6.71501637
REMARK minimizedRMSD -1
REMARK  1 active torsions:
REMARK  status: ('A' for Active; 'I' for Inactive)
REMARK    1  A    between atoms: C1_2  and  C2_3 
ROOT
ATOM      1  C2  UNL d   1      -1.997   3.069   1.962  0.00  0.00    -0.076 A 
ATOM      2  C3  UNL d   1      -2.231   2.614   3.271  0.00  0.00     0.004 A 
ATOM      3  C4  UNL d   1      -3.499   2.192   3.668  0.00  0.00    -0.003 A 
ATOM      4  C5  UNL d   1      -4.553   2.215   2.762  0.00  0.00     0.000 A 
ATOM      5  C6  UNL d   1      -4.335   2.646   1.454  0.00  0.00     0.000 A 
ATOM      6  C7  UNL d   1      -3.060   3.061   1.033  0.00  0.00    -0.073 A 
ATOM      7  C8  UNL d   1      -2.883   3.521  -0.388  0.00  0.00     0.078 C 
ENDROOT
BRANCH   1   8
ATOM      8  C1  UNL d   1      -0.608   3.541   1.596  0.00  0.00     0.053 C 
ATOM      9  C   UNL d   1       0.273   2.414   1.079  0.00  0.00     0.018 C 
ENDBRANCH   1   8
TORSDOF 1
ENDMDL
