MODEL 1
REMARK minimizedAffinity 1.66866481
REMARK minimizedRMSD -1
REMARK  1 active torsions:
REMARK  status: ('A' for Active; 'I' for Inactive)
REMARK    1  A    between atoms: C1_2  and  C2_3 
ROOT
ATOM      1  C2  UNL d   1       1.451   0.155  -1.040  0.00  0.00    -0.076 A 
ATOM      2  C3  UNL d   1       1.754  -0.595   0.110  0.00  0.00     0.004 A 
ATOM      3  C4  UNL d   1       1.395  -1.938   0.206  0.00  0.00    -0.003 A 
ATOM      4  C5  UNL d   1       0.726  -2.553  -0.847  0.00  0.00     0.000 A 
ATOM      5  C6  UNL d   1       0.432  -1.829  -2.002  0.00  0.00     0.000 A 
ATOM      6  C7  UNL d   1       0.802  -0.479  -2.121  0.00  0.00    -0.073 A 
ATOM      7  C8  UNL d   1       0.455   0.256  -3.387  0.00  0.00     0.078 C 
ENDROOT
BRANCH   1   8
ATOM      8  C1  UNL d   1       1.841   1.615  -1.076  0.00  0.00     0.053 C 
ATOM      9  C   UNL d   1       0.758   2.523  -0.513  0.00  0.00     0.018 C 
ENDBRANCH   1   8
TORSDOF 1
ENDMDL
