MODEL 1
REMARK minimizedAffinity 4.43826532
REMARK minimizedRMSD -1
REMARK  1 active torsions:
REMARK  status: ('A' for Active; 'I' for Inactive)
REMARK    1  A    between atoms: C1_2  and  C2_3 
ROOT
ATOM      1  C2  UNL d   1      -3.903   0.341  -4.845  0.00  0.00    -0.076 A 
ATOM      2  C3  UNL d   1      -2.875   0.155  -3.906  0.00  0.00     0.004 A 
ATOM      3  C4  UNL d   1      -2.366   1.228  -3.176  0.00  0.00    -0.003 A 
ATOM      4  C5  UNL d   1      -2.878   2.505  -3.374  0.00  0.00     0.000 A 
ATOM      5  C6  UNL d   1      -3.911   2.706  -4.289  0.00  0.00     0.000 A 
ATOM      6  C7  UNL d   1      -4.446   1.632  -5.021  0.00  0.00    -0.073 A 
ATOM      7  C8  UNL d   1      -5.555   1.907  -5.999  0.00  0.00     0.078 C 
ENDROOT
BRANCH   1   8
ATOM      8  C1  UNL d   1      -4.396  -0.855  -5.627  0.00  0.00     0.053 C 
ATOM      9  C   UNL d   1      -3.608  -2.118  -5.317  0.00  0.00     0.018 C 
ENDBRANCH   1   8
TORSDOF 1
ENDMDL
