MODEL 1
REMARK minimizedAffinity 11.3148375
REMARK minimizedRMSD -1
REMARK  1 active torsions:
REMARK  status: ('A' for Active; 'I' for Inactive)
REMARK    1  A    between atoms: C1_2  and  C2_3 
ROOT
ATOM      1  C2  UNL d   1       1.365  -1.446  -1.020  0.00  0.00    -0.076 A 
ATOM      2  C3  UNL d   1       2.564  -1.226  -0.319  0.00  0.00     0.004 A 
ATOM      3  C4  UNL d   1       3.136   0.043  -0.256  0.00  0.00    -0.003 A 
ATOM      4  C5  UNL d   1       2.518   1.114  -0.892  0.00  0.00     0.000 A 
ATOM      5  C6  UNL d   1       1.319   0.918  -1.576  0.00  0.00     0.000 A 
ATOM      6  C7  UNL d   1       0.720  -0.352  -1.636  0.00  0.00    -0.073 A 
ATOM      7  C8  UNL d   1      -0.570  -0.508  -2.394  0.00  0.00     0.078 C 
ENDROOT
BRANCH   1   8
ATOM      8  C1  UNL d   1       0.806  -2.850  -1.077  0.00  0.00     0.053 C 
ATOM      9  C   UNL d   1       1.880  -3.895  -1.336  0.00  0.00     0.018 C 
ENDBRANCH   1   8
TORSDOF 1
ENDMDL
