MODEL 1
REMARK minimizedAffinity 5.7132144
REMARK minimizedRMSD -1
REMARK  1 active torsions:
REMARK  status: ('A' for Active; 'I' for Inactive)
REMARK    1  A    between atoms: C1_2  and  C2_3 
ROOT
ATOM      1  C2  UNL d   1       0.405   1.466   1.844  0.00  0.00    -0.076 A 
ATOM      2  C3  UNL d   1      -0.033   0.153   1.599  0.00  0.00     0.004 A 
ATOM      3  C4  UNL d   1       0.343  -0.525   0.441  0.00  0.00    -0.003 A 
ATOM      4  C5  UNL d   1       1.165   0.099  -0.491  0.00  0.00     0.000 A 
ATOM      5  C6  UNL d   1       1.623   1.394  -0.257  0.00  0.00     0.000 A 
ATOM      6  C7  UNL d   1       1.267   2.086   0.914  0.00  0.00    -0.073 A 
ATOM      7  C8  UNL d   1       1.785   3.484   1.112  0.00  0.00     0.078 C 
ENDROOT
BRANCH   1   8
ATOM      8  C1  UNL d   1      -0.058   2.161   3.104  0.00  0.00     0.053 C 
ATOM      9  C   UNL d   1      -1.555   2.020   3.331  0.00  0.00     0.018 C 
ENDBRANCH   1   8
TORSDOF 1
ENDMDL
