MODEL 1
REMARK minimizedAffinity 0.260647535
REMARK minimizedRMSD -1
REMARK  1 active torsions:
REMARK  status: ('A' for Active; 'I' for Inactive)
REMARK    1  A    between atoms: C1_2  and  C2_3 
ROOT
ATOM      1  C2  UNL d   1       1.423   0.937  -0.083  0.00  0.00    -0.076 A 
ATOM      2  C3  UNL d   1       1.045  -0.214  -0.796  0.00  0.00     0.004 A 
ATOM      3  C4  UNL d   1       0.241  -1.190  -0.209  0.00  0.00    -0.003 A 
ATOM      4  C5  UNL d   1      -0.199  -1.029   1.101  0.00  0.00     0.000 A 
ATOM      5  C6  UNL d   1       0.152   0.115   1.817  0.00  0.00     0.000 A 
ATOM      6  C7  UNL d   1       0.949   1.115   1.234  0.00  0.00    -0.073 A 
ATOM      7  C8  UNL d   1       1.302   2.326   2.054  0.00  0.00     0.078 C 
ENDROOT
BRANCH   1   8
ATOM      8  C1  UNL d   1       2.319   1.948  -0.763  0.00  0.00     0.053 C 
ATOM      9  C   UNL d   1       2.153   1.949  -2.275  0.00  0.00     0.018 C 
ENDBRANCH   1   8
TORSDOF 1
ENDMDL
