MODEL 1
REMARK minimizedAffinity 10.1228695
REMARK minimizedRMSD -1
REMARK  1 active torsions:
REMARK  status: ('A' for Active; 'I' for Inactive)
REMARK    1  A    between atoms: C1_2  and  C2_3 
ROOT
ATOM      1  C2  UNL d   1       0.772  -4.353  -2.758  0.00  0.00    -0.076 A 
ATOM      2  C3  UNL d   1       1.830  -5.278  -2.740  0.00  0.00     0.004 A 
ATOM      3  C4  UNL d   1       2.852  -5.181  -1.796  0.00  0.00    -0.003 A 
ATOM      4  C5  UNL d   1       2.831  -4.157  -0.855  0.00  0.00     0.000 A 
ATOM      5  C6  UNL d   1       1.779  -3.241  -0.847  0.00  0.00     0.000 A 
ATOM      6  C7  UNL d   1       0.733  -3.335  -1.781  0.00  0.00    -0.073 A 
ATOM      7  C8  UNL d   1      -0.373  -2.317  -1.730  0.00  0.00     0.078 C 
ENDROOT
BRANCH   1   8
ATOM      8  C1  UNL d   1      -0.294  -4.493  -3.821  0.00  0.00     0.053 C 
ATOM      9  C   UNL d   1      -0.353  -5.896  -4.406  0.00  0.00     0.018 C 
ENDBRANCH   1   8
TORSDOF 1
ENDMDL
