MODEL 1
REMARK minimizedAffinity 3.63781524
REMARK minimizedRMSD -1
REMARK  1 active torsions:
REMARK  status: ('A' for Active; 'I' for Inactive)
REMARK    1  A    between atoms: C1_2  and  C2_3 
ROOT
ATOM      1  C2  UNL d   1       1.146   0.871  -1.500  0.00  0.00    -0.076 A 
ATOM      2  C3  UNL d   1       1.368   0.106  -0.341  0.00  0.00     0.004 A 
ATOM      3  C4  UNL d   1       1.111  -1.264  -0.327  0.00  0.00    -0.003 A 
ATOM      4  C5  UNL d   1       0.629  -1.891  -1.470  0.00  0.00     0.000 A 
ATOM      5  C6  UNL d   1       0.420  -1.151  -2.633  0.00  0.00     0.000 A 
ATOM      6  C7  UNL d   1       0.689   0.228  -2.670  0.00  0.00    -0.073 A 
ATOM      7  C8  UNL d   1       0.439   0.978  -3.949  0.00  0.00     0.078 C 
ENDROOT
BRANCH   1   8
ATOM      8  C1  UNL d   1       1.416   2.358  -1.448  0.00  0.00     0.053 C 
ATOM      9  C   UNL d   1       2.787   2.681  -0.874  0.00  0.00     0.018 C 
ENDBRANCH   1   8
TORSDOF 1
ENDMDL
