MODEL 1
REMARK minimizedAffinity -7.3053546
REMARK minimizedRMSD -1
REMARK  3 active torsions:
REMARK  status: ('A' for Active; 'I' for Inactive)
REMARK    1  A    between atoms: C3'_2  and  C2'_3 
REMARK    2  A    between atoms: C2'_3  and  C1'_4 
REMARK    3  A    between atoms: C1'_4  and  C1_5 
ROOT
ATOM      1  C1  N4B d   1       0.330  -0.402   0.724  0.00  0.00    -0.075 A 
ATOM      2  C2  N4B d   1       0.222  -0.411   2.132  0.00  0.00     0.002 A 
ATOM      3  C3  N4B d   1       1.119  -1.129   2.885  0.00  0.00     0.002 A 
ATOM      4  C4  N4B d   1       2.116  -1.858   2.253  0.00  0.00    -0.004 A 
ATOM      5  C5  N4B d   1       2.228  -1.823   0.894  0.00  0.00     0.002 A 
ATOM      6  C6  N4B d   1       1.337  -1.102   0.125  0.00  0.00     0.002 A 
ENDROOT
BRANCH   1   7
ATOM      7  C1' N4B d   1      -0.678   0.299  -0.145  0.00  0.00     0.057 C 
BRANCH   7   8
ATOM      8  C2' N4B d   1      -0.051   0.592  -1.504  0.00  0.00     0.009 C 
BRANCH   8   9
ATOM      9  C3' N4B d   1      -0.844   1.624  -2.286  0.00  0.00     0.004 C 
ATOM     10  C4' N4B d   1      -0.126   2.934  -2.415  0.00  0.00     0.003 C 
ENDBRANCH   8   9
ENDBRANCH   7   8
ENDBRANCH   1   7
TORSDOF 3
ENDMDL
