MODEL 1
REMARK minimizedAffinity -4.40701389
REMARK minimizedRMSD -1
REMARK  3 active torsions:
REMARK  status: ('A' for Active; 'I' for Inactive)
REMARK    1  A    between atoms: C3'_2  and  C2'_3 
REMARK    2  A    between atoms: C2'_3  and  C1'_4 
REMARK    3  A    between atoms: C1'_4  and  C1_5 
ROOT
ATOM      1  C1  N4B d   1       0.170  -0.276   0.071  0.00  0.00    -0.075 A 
ATOM      2  C2  N4B d   1      -0.998  -0.316   0.863  0.00  0.00     0.002 A 
ATOM      3  C3  N4B d   1      -0.930  -0.751   2.164  0.00  0.00     0.002 A 
ATOM      4  C4  N4B d   1       0.285  -1.168   2.686  0.00  0.00    -0.004 A 
ATOM      5  C5  N4B d   1       1.413  -1.102   1.921  0.00  0.00     0.002 A 
ATOM      6  C6  N4B d   1       1.361  -0.663   0.614  0.00  0.00     0.002 A 
ENDROOT
BRANCH   1   7
ATOM      7  C1' N4B d   1       0.131   0.111  -1.382  0.00  0.00     0.057 C 
BRANCH   7   8
ATOM      8  C2' N4B d   1      -0.986   1.127  -1.600  0.00  0.00     0.009 C 
BRANCH   8   9
ATOM      9  C3' N4B d   1      -0.527   2.305  -2.442  0.00  0.00     0.004 C 
ATOM     10  C4' N4B d   1      -1.280   3.566  -2.136  0.00  0.00     0.003 C 
ENDBRANCH   8   9
ENDBRANCH   7   8
ENDBRANCH   1   7
TORSDOF 3
ENDMDL
