MODEL 1
REMARK minimizedAffinity -5.14866018
REMARK minimizedRMSD -1
REMARK  3 active torsions:
REMARK  status: ('A' for Active; 'I' for Inactive)
REMARK    1  A    between atoms: C3'_2  and  C2'_3 
REMARK    2  A    between atoms: C2'_3  and  C1'_4 
REMARK    3  A    between atoms: C1'_4  and  C1_5 
ROOT
ATOM      1  C1  N4B d   1       0.736  -0.558  -0.076  0.00  0.00    -0.075 A 
ATOM      2  C2  N4B d   1      -0.060  -0.218   1.040  0.00  0.00     0.002 A 
ATOM      3  C3  N4B d   1       0.233  -0.739   2.276  0.00  0.00     0.002 A 
ATOM      4  C4  N4B d   1       1.302  -1.612   2.417  0.00  0.00    -0.004 A 
ATOM      5  C5  N4B d   1       2.081  -1.915   1.339  0.00  0.00     0.002 A 
ATOM      6  C6  N4B d   1       1.800  -1.396   0.091  0.00  0.00     0.002 A 
ENDROOT
BRANCH   1   7
ATOM      7  C1' N4B d   1       0.402  -0.081  -1.464  0.00  0.00     0.057 C 
BRANCH   7   8
ATOM      8  C2' N4B d   1      -1.035   0.430  -1.485  0.00  0.00     0.009 C 
BRANCH   8   9
ATOM      9  C3' N4B d   1      -1.170   1.710  -2.292  0.00  0.00     0.004 C 
ATOM     10  C4' N4B d   1       0.153   2.342  -2.605  0.00  0.00     0.003 C 
ENDBRANCH   8   9
ENDBRANCH   7   8
ENDBRANCH   1   7
TORSDOF 3
ENDMDL
