MODEL 1
REMARK minimizedAffinity 0.203965247
REMARK minimizedRMSD -1
REMARK  0 active torsions:
REMARK  status: ('A' for Active; 'I' for Inactive)
ROOT
ATOM      1  C   UNL d   1       2.675  -1.874   0.001  0.00  0.00     0.078 C 
ATOM      2  C1  UNL d   1       3.694  -2.679  -0.749  0.00  0.00    -0.077 A 
ATOM      3  C2  UNL d   1       3.325  -3.826  -1.462  0.00  0.00    -0.001 A 
ATOM      4  C3  UNL d   1       4.286  -4.570  -2.148  0.00  0.00     0.003 A 
ATOM      5  C4  UNL d   1       5.623  -4.177  -2.126  0.00  0.00    -0.005 A 
ATOM      6  C5  UNL d   1       6.000  -3.038  -1.417  0.00  0.00     0.003 A 
ATOM      7  C6  UNL d   1       5.040  -2.292  -0.731  0.00  0.00    -0.001 A 
ENDROOT
TORSDOF 0
ENDMDL
