MODEL 1
REMARK minimizedAffinity 3.92953253
REMARK minimizedRMSD -1
REMARK  0 active torsions:
REMARK  status: ('A' for Active; 'I' for Inactive)
ROOT
ATOM      1  C   UNL d   1       0.364   5.635  -1.775  0.00  0.00     0.078 C 
ATOM      2  C1  UNL d   1      -0.008   5.159  -0.403  0.00  0.00    -0.077 A 
ATOM      3  C2  UNL d   1      -0.680   5.999   0.494  0.00  0.00    -0.001 A 
ATOM      4  C3  UNL d   1      -1.011   5.546   1.772  0.00  0.00     0.003 A 
ATOM      5  C4  UNL d   1      -0.674   4.252   2.165  0.00  0.00    -0.005 A 
ATOM      6  C5  UNL d   1      -0.004   3.410   1.281  0.00  0.00     0.003 A 
ATOM      7  C6  UNL d   1       0.329   3.861   0.002  0.00  0.00    -0.001 A 
ENDROOT
TORSDOF 0
ENDMDL
