MODEL 1
REMARK minimizedAffinity 8.08476448
REMARK minimizedRMSD -1
REMARK  0 active torsions:
REMARK  status: ('A' for Active; 'I' for Inactive)
ROOT
ATOM      1  C   UNL d   1       2.960  -0.611   0.021  0.00  0.00     0.078 C 
ATOM      2  C1  UNL d   1       3.968  -1.668  -0.317  0.00  0.00    -0.077 A 
ATOM      3  C2  UNL d   1       5.058  -1.384  -1.149  0.00  0.00    -0.001 A 
ATOM      4  C3  UNL d   1       5.985  -2.380  -1.463  0.00  0.00     0.003 A 
ATOM      5  C4  UNL d   1       5.829  -3.667  -0.950  0.00  0.00    -0.005 A 
ATOM      6  C5  UNL d   1       4.747  -3.959  -0.123  0.00  0.00     0.003 A 
ATOM      7  C6  UNL d   1       3.820  -2.964   0.192  0.00  0.00    -0.001 A 
ENDROOT
TORSDOF 0
ENDMDL
