MODEL 1
REMARK minimizedAffinity 4.31694651
REMARK minimizedRMSD -1
REMARK  0 active torsions:
REMARK  status: ('A' for Active; 'I' for Inactive)
ROOT
ATOM      1  C   UNL d   1       2.824  -3.352   2.293  0.00  0.00     0.078 C 
ATOM      2  C1  UNL d   1       3.784  -3.096   1.171  0.00  0.00    -0.077 A 
ATOM      3  C2  UNL d   1       4.030  -1.795   0.714  0.00  0.00    -0.001 A 
ATOM      4  C3  UNL d   1       4.919  -1.573  -0.338  0.00  0.00     0.003 A 
ATOM      5  C4  UNL d   1       5.569  -2.647  -0.944  0.00  0.00    -0.005 A 
ATOM      6  C5  UNL d   1       5.329  -3.945  -0.498  0.00  0.00     0.003 A 
ATOM      7  C6  UNL d   1       4.440  -4.169   0.554  0.00  0.00    -0.001 A 
ENDROOT
TORSDOF 0
ENDMDL
