MODEL 1
REMARK minimizedAffinity 1.76191497
REMARK minimizedRMSD -1
REMARK  0 active torsions:
REMARK  status: ('A' for Active; 'I' for Inactive)
ROOT
ATOM      1  C   UNL d   1       4.115  -4.181  -3.085  0.00  0.00     0.078 C 
ATOM      2  C1  UNL d   1       4.499  -3.388  -1.872  0.00  0.00    -0.077 A 
ATOM      3  C2  UNL d   1       3.754  -2.271  -1.475  0.00  0.00    -0.001 A 
ATOM      4  C3  UNL d   1       4.129  -1.536  -0.349  0.00  0.00     0.003 A 
ATOM      5  C4  UNL d   1       5.251  -1.910   0.389  0.00  0.00    -0.005 A 
ATOM      6  C5  UNL d   1       6.000  -3.018   0.000  0.00  0.00     0.003 A 
ATOM      7  C6  UNL d   1       5.626  -3.754  -1.125  0.00  0.00    -0.001 A 
ENDROOT
TORSDOF 0
ENDMDL
