MODEL 1
REMARK minimizedAffinity 7.60262251
REMARK minimizedRMSD -1
REMARK  0 active torsions:
REMARK  status: ('A' for Active; 'I' for Inactive)
ROOT
ATOM      1  C   UNL d   1       0.250   5.636  -2.799  0.00  0.00     0.078 C 
ATOM      2  C1  UNL d   1       0.285   5.073  -1.410  0.00  0.00    -0.077 A 
ATOM      3  C2  UNL d   1       0.862   5.791  -0.355  0.00  0.00    -0.001 A 
ATOM      4  C3  UNL d   1       0.896   5.251   0.931  0.00  0.00     0.003 A 
ATOM      5  C4  UNL d   1       0.356   3.990   1.175  0.00  0.00    -0.005 A 
ATOM      6  C5  UNL d   1      -0.219   3.267   0.132  0.00  0.00     0.003 A 
ATOM      7  C6  UNL d   1      -0.254   3.806  -1.155  0.00  0.00    -0.001 A 
ENDROOT
TORSDOF 0
ENDMDL
