MODEL 1
REMARK minimizedAffinity -3.89320564
REMARK minimizedRMSD -1
REMARK  0 active torsions:
REMARK  status: ('A' for Active; 'I' for Inactive)
ROOT
ATOM      1  C   UNL d   1       1.666  -1.329  -2.122  0.00  0.00     0.077 C 
ATOM      2  C1  UNL d   1       0.681  -0.903  -1.075  0.00  0.00    -0.074 A 
ATOM      3  C2  UNL d   1       0.507   0.448  -0.759  0.00  0.00    -0.005 A 
ATOM      4  C3  UNL d   1      -0.421   0.830   0.210  0.00  0.00     0.006 A 
ATOM      5  C4  UNL d   1      -1.182  -0.133   0.872  0.00  0.00    -0.005 A 
ATOM      6  C5  UNL d   1      -1.023  -1.489   0.569  0.00  0.00    -0.074 A 
ATOM      7  C6  UNL d   1      -1.840  -2.537   1.264  0.00  0.00     0.077 C 
ATOM      8  C7  UNL d   1      -0.094  -1.864  -0.411  0.00  0.00    -0.001 A 
ENDROOT
TORSDOF 0
ENDMDL
