MODEL 1
REMARK minimizedAffinity -3.95385432
REMARK minimizedRMSD -1
REMARK  0 active torsions:
REMARK  status: ('A' for Active; 'I' for Inactive)
ROOT
ATOM      1  C   UNL d   1       0.210   1.587  -1.592  0.00  0.00     0.077 C 
ATOM      2  C1  UNL d   1       0.105   0.409  -0.669  0.00  0.00    -0.074 A 
ATOM      3  C2  UNL d   1      -1.138  -0.148  -0.353  0.00  0.00    -0.005 A 
ATOM      4  C3  UNL d   1      -1.219  -1.248   0.500  0.00  0.00     0.006 A 
ATOM      5  C4  UNL d   1      -0.060  -1.803   1.044  0.00  0.00    -0.005 A 
ATOM      6  C5  UNL d   1       1.192  -1.260   0.739  0.00  0.00    -0.074 A 
ATOM      7  C6  UNL d   1       2.449  -1.849   1.308  0.00  0.00     0.077 C 
ATOM      8  C7  UNL d   1       1.266  -0.158  -0.124  0.00  0.00    -0.001 A 
ENDROOT
TORSDOF 0
ENDMDL
