MODEL 1
REMARK minimizedAffinity -4.95193863
REMARK minimizedRMSD -1
REMARK  0 active torsions:
REMARK  status: ('A' for Active; 'I' for Inactive)
ROOT
ATOM      1  C   UNL d   1       4.054   1.377  -3.756  0.00  0.00     0.077 C 
ATOM      2  C1  UNL d   1       2.624   1.504  -3.323  0.00  0.00    -0.074 A 
ATOM      3  C2  UNL d   1       1.638   1.936  -4.215  0.00  0.00    -0.005 A 
ATOM      4  C3  UNL d   1       0.311   2.041  -3.800  0.00  0.00     0.006 A 
ATOM      5  C4  UNL d   1      -0.044   1.715  -2.491  0.00  0.00    -0.005 A 
ATOM      6  C5  UNL d   1       0.928   1.281  -1.584  0.00  0.00    -0.074 A 
ATOM      7  C6  UNL d   1       0.563   0.917  -0.176  0.00  0.00     0.077 C 
ATOM      8  C7  UNL d   1       2.259   1.171  -2.011  0.00  0.00    -0.001 A 
ENDROOT
TORSDOF 0
ENDMDL
