MODEL 1
REMARK minimizedAffinity -4.34130144
REMARK minimizedRMSD -1
REMARK  0 active torsions:
REMARK  status: ('A' for Active; 'I' for Inactive)
ROOT
ATOM      1  C   UNL d   1      -2.300  -1.163   1.108  0.00  0.00     0.077 C 
ATOM      2  C1  UNL d   1      -0.905  -0.784   0.709  0.00  0.00    -0.074 A 
ATOM      3  C2  UNL d   1       0.178  -1.622   0.995  0.00  0.00    -0.005 A 
ATOM      4  C3  UNL d   1       1.469  -1.261   0.610  0.00  0.00     0.006 A 
ATOM      5  C4  UNL d   1       1.690  -0.059  -0.064  0.00  0.00    -0.005 A 
ATOM      6  C5  UNL d   1       0.620   0.792  -0.360  0.00  0.00    -0.074 A 
ATOM      7  C6  UNL d   1       0.840   2.082  -1.092  0.00  0.00     0.077 C 
ATOM      8  C7  UNL d   1      -0.675   0.418   0.025  0.00  0.00    -0.001 A 
ENDROOT
TORSDOF 0
ENDMDL
