MODEL 1
REMARK minimizedAffinity -4.66013193
REMARK minimizedRMSD -1
REMARK  0 active torsions:
REMARK  status: ('A' for Active; 'I' for Inactive)
ROOT
ATOM      1  C   UNL d   1       1.417   2.201  -2.467  0.00  0.00     0.077 C 
ATOM      2  C1  UNL d   1       0.949   1.299  -1.364  0.00  0.00    -0.074 A 
ATOM      3  C2  UNL d   1       0.178   1.795  -0.308  0.00  0.00    -0.005 A 
ATOM      4  C3  UNL d   1      -0.258   0.941   0.706  0.00  0.00     0.006 A 
ATOM      5  C4  UNL d   1       0.072  -0.414   0.674  0.00  0.00    -0.005 A 
ATOM      6  C5  UNL d   1       0.842  -0.928  -0.375  0.00  0.00    -0.074 A 
ATOM      7  C6  UNL d   1       1.197  -2.384  -0.430  0.00  0.00     0.077 C 
ATOM      8  C7  UNL d   1       1.270  -0.066  -1.394  0.00  0.00    -0.001 A 
ENDROOT
TORSDOF 0
ENDMDL
