MODEL 1
REMARK minimizedAffinity -4.72392893
REMARK minimizedRMSD -1
REMARK  0 active torsions:
REMARK  status: ('A' for Active; 'I' for Inactive)
ROOT
ATOM      1  C   UNL d   1       4.055   1.464  -3.393  0.00  0.00     0.077 C 
ATOM      2  C1  UNL d   1       2.648   1.773  -2.977  0.00  0.00    -0.074 A 
ATOM      3  C2  UNL d   1       1.710   2.240  -3.903  0.00  0.00    -0.005 A 
ATOM      4  C3  UNL d   1       0.402   2.514  -3.503  0.00  0.00     0.006 A 
ATOM      5  C4  UNL d   1       0.020   2.324  -2.175  0.00  0.00    -0.005 A 
ATOM      6  C5  UNL d   1       0.943   1.856  -1.234  0.00  0.00    -0.074 A 
ATOM      7  C6  UNL d   1       0.546   1.637   0.195  0.00  0.00     0.077 C 
ATOM      8  C7  UNL d   1       2.253   1.577  -1.646  0.00  0.00    -0.001 A 
ENDROOT
TORSDOF 0
ENDMDL
