MODEL 1
REMARK minimizedAffinity -3.46954727
REMARK minimizedRMSD -1
REMARK  0 active torsions:
REMARK  status: ('A' for Active; 'I' for Inactive)
ROOT
ATOM      1  C   UNL d   1      -0.539   1.806   0.342  0.00  0.00     0.077 C 
ATOM      2  C1  UNL d   1      -0.109   0.371   0.272  0.00  0.00    -0.074 A 
ATOM      3  C2  UNL d   1       1.155   0.022  -0.215  0.00  0.00    -0.005 A 
ATOM      4  C3  UNL d   1       1.544  -1.316  -0.266  0.00  0.00     0.006 A 
ATOM      5  C4  UNL d   1       0.676  -2.318   0.170  0.00  0.00    -0.005 A 
ATOM      6  C5  UNL d   1      -0.591  -1.988   0.661  0.00  0.00    -0.074 A 
ATOM      7  C6  UNL d   1      -1.533  -3.052   1.142  0.00  0.00     0.077 C 
ATOM      8  C7  UNL d   1      -0.973  -0.641   0.715  0.00  0.00    -0.001 A 
ENDROOT
TORSDOF 0
ENDMDL
