MODEL 1
REMARK minimizedAffinity -2.79270482
REMARK minimizedRMSD -1
REMARK  0 active torsions:
REMARK  status: ('A' for Active; 'I' for Inactive)
ROOT
ATOM      1  C   UNL d   1       1.707   1.214   0.046  0.00  0.00     0.077 C 
ATOM      2  C1  UNL d   1       0.239   0.946   0.200  0.00  0.00    -0.074 A 
ATOM      3  C2  UNL d   1      -0.652   1.979   0.509  0.00  0.00    -0.005 A 
ATOM      4  C3  UNL d   1      -2.015   1.716   0.639  0.00  0.00     0.006 A 
ATOM      5  C4  UNL d   1      -2.501   0.420   0.463  0.00  0.00    -0.005 A 
ATOM      6  C5  UNL d   1      -1.625  -0.626   0.153  0.00  0.00    -0.074 A 
ATOM      7  C6  UNL d   1      -2.132  -2.023  -0.050  0.00  0.00     0.077 C 
ATOM      8  C7  UNL d   1      -0.257  -0.352   0.016  0.00  0.00    -0.001 A 
ENDROOT
TORSDOF 0
ENDMDL
