MODEL 1
REMARK minimizedAffinity -3.80156875
REMARK minimizedRMSD -1
REMARK  0 active torsions:
REMARK  status: ('A' for Active; 'I' for Inactive)
ROOT
ATOM      1  C   UNL d   1       0.676   0.869  -0.810  0.00  0.00     0.077 C 
ATOM      2  C1  UNL d   1       0.126  -0.321  -0.083  0.00  0.00    -0.074 A 
ATOM      3  C2  UNL d   1       0.725  -1.579  -0.206  0.00  0.00    -0.005 A 
ATOM      4  C3  UNL d   1       0.208  -2.675   0.485  0.00  0.00     0.006 A 
ATOM      5  C4  UNL d   1      -0.912  -2.525   1.304  0.00  0.00    -0.005 A 
ATOM      6  C5  UNL d   1      -1.523  -1.274   1.440  0.00  0.00    -0.074 A 
ATOM      7  C6  UNL d   1      -2.721  -1.093   2.325  0.00  0.00     0.077 C 
ATOM      8  C7  UNL d   1      -0.993  -0.176   0.749  0.00  0.00    -0.001 A 
ENDROOT
TORSDOF 0
ENDMDL
