MODEL 1
REMARK minimizedAffinity -2.85524511
REMARK minimizedRMSD -1
REMARK  0 active torsions:
REMARK  status: ('A' for Active; 'I' for Inactive)
ROOT
ATOM      1  C   UNL d   1       1.217   1.568  -0.912  0.00  0.00     0.077 C 
ATOM      2  C1  UNL d   1       0.259   0.858  -0.001  0.00  0.00    -0.074 A 
ATOM      3  C2  UNL d   1      -0.753   1.557   0.664  0.00  0.00    -0.005 A 
ATOM      4  C3  UNL d   1      -1.641   0.882   1.500  0.00  0.00     0.006 A 
ATOM      5  C4  UNL d   1      -1.528  -0.497   1.680  0.00  0.00    -0.005 A 
ATOM      6  C5  UNL d   1      -0.523  -1.213   1.022  0.00  0.00    -0.074 A 
ATOM      7  C6  UNL d   1      -0.392  -2.697   1.196  0.00  0.00     0.077 C 
ATOM      8  C7  UNL d   1       0.362  -0.529   0.178  0.00  0.00    -0.001 A 
ENDROOT
TORSDOF 0
ENDMDL
