MODEL 1
REMARK minimizedAffinity -4.47545767
REMARK minimizedRMSD -1
REMARK  0 active torsions:
REMARK  status: ('A' for Active; 'I' for Inactive)
ROOT
ATOM      1  C   UNL d   1       1.372   2.010  -2.219  0.00  0.00     0.077 C 
ATOM      2  C1  UNL d   1       0.686   1.380  -1.043  0.00  0.00    -0.074 A 
ATOM      3  C2  UNL d   1      -0.132   2.137  -0.199  0.00  0.00    -0.005 A 
ATOM      4  C3  UNL d   1      -0.771   1.535   0.885  0.00  0.00     0.006 A 
ATOM      5  C4  UNL d   1      -0.598   0.173   1.135  0.00  0.00    -0.005 A 
ATOM      6  C5  UNL d   1       0.216  -0.600   0.301  0.00  0.00    -0.074 A 
ATOM      7  C6  UNL d   1       0.405  -2.067   0.550  0.00  0.00     0.077 C 
ATOM      8  C7  UNL d   1       0.849   0.011  -0.790  0.00  0.00    -0.001 A 
ENDROOT
TORSDOF 0
ENDMDL
