MODEL 1
REMARK minimizedAffinity -3.59893966
REMARK minimizedRMSD -1
REMARK  0 active torsions:
REMARK  status: ('A' for Active; 'I' for Inactive)
ROOT
ATOM      1  C   UNL d   1      -1.841   2.176   1.119  0.00  0.00     0.077 C 
ATOM      2  C1  UNL d   1      -1.028   0.955   0.808  0.00  0.00    -0.074 A 
ATOM      3  C2  UNL d   1       0.268   1.065   0.294  0.00  0.00    -0.005 A 
ATOM      4  C3  UNL d   1       1.015  -0.080   0.018  0.00  0.00     0.006 A 
ATOM      5  C4  UNL d   1       0.474  -1.345   0.253  0.00  0.00    -0.005 A 
ATOM      6  C5  UNL d   1      -0.820  -1.475   0.767  0.00  0.00    -0.074 A 
ATOM      7  C6  UNL d   1      -1.412  -2.827   1.035  0.00  0.00     0.077 C 
ATOM      8  C7  UNL d   1      -1.561  -0.319   1.049  0.00  0.00    -0.001 A 
ENDROOT
TORSDOF 0
ENDMDL
