MODEL 1
REMARK minimizedAffinity -5.14295769
REMARK minimizedRMSD -1
REMARK  0 active torsions:
REMARK  status: ('A' for Active; 'I' for Inactive)
ROOT
ATOM      1  C   UNL d   1       1.418   0.366  -0.427  0.00  0.00     0.077 C 
ATOM      2  C1  UNL d   1       0.247  -0.346   0.183  0.00  0.00    -0.074 A 
ATOM      3  C2  UNL d   1       0.263  -1.733   0.362  0.00  0.00    -0.005 A 
ATOM      4  C3  UNL d   1      -0.829  -2.380   0.940  0.00  0.00     0.006 A 
ATOM      5  C4  UNL d   1      -1.947  -1.648   1.343  0.00  0.00    -0.005 A 
ATOM      6  C5  UNL d   1      -1.980  -0.260   1.172  0.00  0.00    -0.074 A 
ATOM      7  C6  UNL d   1      -3.170   0.543   1.609  0.00  0.00     0.077 C 
ATOM      8  C7  UNL d   1      -0.876   0.384   0.598  0.00  0.00    -0.001 A 
ENDROOT
TORSDOF 0
ENDMDL
