MODEL 1
REMARK minimizedAffinity -5.291255
REMARK minimizedRMSD -1
REMARK  0 active torsions:
REMARK  status: ('A' for Active; 'I' for Inactive)
ROOT
ATOM      1  C   UNL d   1       0.274   1.403  -0.536  0.00  0.00     0.077 C 
ATOM      2  C1  UNL d   1       0.019   0.044   0.045  0.00  0.00    -0.074 A 
ATOM      3  C2  UNL d   1       0.951  -0.988  -0.104  0.00  0.00    -0.005 A 
ATOM      4  C3  UNL d   1       0.705  -2.244   0.450  0.00  0.00     0.006 A 
ATOM      5  C4  UNL d   1      -0.474  -2.481   1.157  0.00  0.00    -0.005 A 
ATOM      6  C5  UNL d   1      -1.418  -1.461   1.317  0.00  0.00    -0.074 A 
ATOM      7  C6  UNL d   1      -2.686  -1.696   2.082  0.00  0.00     0.077 C 
ATOM      8  C7  UNL d   1      -1.160  -0.200   0.764  0.00  0.00    -0.001 A 
ENDROOT
TORSDOF 0
ENDMDL
