MODEL 1
REMARK minimizedAffinity -4.85249567
REMARK minimizedRMSD -1
REMARK  0 active torsions:
REMARK  status: ('A' for Active; 'I' for Inactive)
ROOT
ATOM      1  C   UNL d   1      -2.175  -2.847   0.591  0.00  0.00     0.077 C 
ATOM      2  C1  UNL d   1      -1.285  -1.656   0.394  0.00  0.00    -0.074 A 
ATOM      3  C2  UNL d   1      -1.824  -0.378   0.211  0.00  0.00    -0.005 A 
ATOM      4  C3  UNL d   1      -0.984   0.722   0.038  0.00  0.00     0.006 A 
ATOM      5  C4  UNL d   1       0.402   0.555   0.047  0.00  0.00    -0.005 A 
ATOM      6  C5  UNL d   1       0.959  -0.714   0.229  0.00  0.00    -0.074 A 
ATOM      7  C6  UNL d   1       2.446  -0.909   0.250  0.00  0.00     0.077 C 
ATOM      8  C7  UNL d   1       0.108  -1.813   0.409  0.00  0.00    -0.001 A 
ENDROOT
TORSDOF 0
ENDMDL
