MODEL 1
REMARK minimizedAffinity 7.34180355
REMARK minimizedRMSD -1
REMARK  0 active torsions:
REMARK  status: ('A' for Active; 'I' for Inactive)
ROOT
ATOM      1  N1  IND d   1       0.705   3.395  -0.730  0.00  0.00    -0.196 N 
ATOM      2  C2  IND d   1      -0.094   3.088   0.336  0.00  0.00     0.054 A 
ATOM      3  C3  IND d   1      -1.274   3.740   0.243  0.00  0.00    -0.031 A 
ATOM      4  C4  IND d   1      -2.147   5.282  -1.625  0.00  0.00     0.051 A 
ATOM      5  C5  IND d   1      -1.763   5.889  -2.788  0.00  0.00    -0.031 A 
ATOM      6  C6  IND d   1      -0.513   5.690  -3.337  0.00  0.00     0.015 A 
ATOM      7  C7  IND d   1       0.400   4.863  -2.746  0.00  0.00    -0.016 A 
ATOM      8  C8  IND d   1       0.017   4.250  -1.562  0.00  0.00    -0.047 A 
ATOM      9  C9  IND d   1      -1.235   4.482  -0.978  0.00  0.00    -0.096 A 
ATOM     10  HN1 IND d   1       1.504   3.103  -0.859  0.00  0.00     0.298 HD
ENDROOT
TORSDOF 0
ENDMDL
