MODEL 1
REMARK minimizedAffinity 10.2205391
REMARK minimizedRMSD -1
REMARK  0 active torsions:
REMARK  status: ('A' for Active; 'I' for Inactive)
ROOT
ATOM      1  N1  IND d   1       0.694   2.572  -0.071  0.00  0.00    -0.196 N 
ATOM      2  C2  IND d   1       0.045   2.491   1.129  0.00  0.00     0.054 A 
ATOM      3  C3  IND d   1      -0.970   3.383   1.176  0.00  0.00    -0.031 A 
ATOM      4  C4  IND d   1      -1.809   5.003  -0.640  0.00  0.00     0.051 A 
ATOM      5  C5  IND d   1      -1.513   5.464  -1.892  0.00  0.00    -0.031 A 
ATOM      6  C6  IND d   1      -0.446   4.973  -2.617  0.00  0.00     0.015 A 
ATOM      7  C7  IND d   1       0.361   3.990  -2.119  0.00  0.00    -0.016 A 
ATOM      8  C8  IND d   1       0.068   3.524  -0.845  0.00  0.00    -0.047 A 
ATOM      9  C9  IND d   1      -0.988   4.049  -0.088  0.00  0.00    -0.096 A 
ATOM     10  HN1 IND d   1       1.379   2.107  -0.304  0.00  0.00     0.298 HD
ENDROOT
TORSDOF 0
ENDMDL
