MODEL 1
REMARK minimizedAffinity 13.7213564
REMARK minimizedRMSD -1
REMARK  0 active torsions:
REMARK  status: ('A' for Active; 'I' for Inactive)
ROOT
ATOM      1  N1  IND d   1      -0.986  -4.331  -3.835  0.00  0.00    -0.196 N 
ATOM      2  C2  IND d   1      -1.644  -3.215  -4.270  0.00  0.00     0.054 A 
ATOM      3  C3  IND d   1      -1.466  -2.195  -3.401  0.00  0.00    -0.031 A 
ATOM      4  C4  IND d   1      -0.050  -2.105  -1.253  0.00  0.00     0.051 A 
ATOM      5  C5  IND d   1       0.705  -2.889  -0.427  0.00  0.00    -0.031 A 
ATOM      6  C6  IND d   1       0.943  -4.220  -0.702  0.00  0.00     0.015 A 
ATOM      7  C7  IND d   1       0.441  -4.816  -1.824  0.00  0.00    -0.016 A 
ATOM      8  C8  IND d   1      -0.333  -4.025  -2.661  0.00  0.00    -0.047 A 
ATOM      9  C9  IND d   1      -0.612  -2.684  -2.365  0.00  0.00    -0.096 A 
ATOM     10  HN1 IND d   1      -0.980  -5.095  -4.228  0.00  0.00     0.298 HD
ENDROOT
TORSDOF 0
ENDMDL
