MODEL 1
REMARK minimizedAffinity 14.2185307
REMARK minimizedRMSD -1
REMARK  0 active torsions:
REMARK  status: ('A' for Active; 'I' for Inactive)
ROOT
ATOM      1  N1  IND d   1       1.131   3.987  -0.702  0.00  0.00    -0.196 N 
ATOM      2  C2  IND d   1       0.484   3.302   0.288  0.00  0.00     0.054 A 
ATOM      3  C3  IND d   1      -0.853   3.346   0.094  0.00  0.00    -0.031 A 
ATOM      4  C4  IND d   1      -2.192   4.398  -1.837  0.00  0.00     0.051 A 
ATOM      5  C5  IND d   1      -2.043   5.164  -2.959  0.00  0.00    -0.031 A 
ATOM      6  C6  IND d   1      -0.803   5.583  -3.396  0.00  0.00     0.015 A 
ATOM      7  C7  IND d   1       0.340   5.240  -2.732  0.00  0.00    -0.016 A 
ATOM      8  C8  IND d   1       0.192   4.469  -1.588  0.00  0.00    -0.047 A 
ATOM      9  C9  IND d   1      -1.067   4.076  -1.115  0.00  0.00    -0.096 A 
ATOM     10  HN1 IND d   1       1.982   4.098  -0.762  0.00  0.00     0.298 HD
ENDROOT
TORSDOF 0
ENDMDL
