MODEL 1
REMARK minimizedAffinity 11.6261654
REMARK minimizedRMSD -1
REMARK  0 active torsions:
REMARK  status: ('A' for Active; 'I' for Inactive)
ROOT
ATOM      1  N1  IND d   1       3.334  -1.466  -0.365  0.00  0.00    -0.196 N 
ATOM      2  C2  IND d   1       2.094  -1.912  -0.001  0.00  0.00     0.054 A 
ATOM      3  C3  IND d   1       2.061  -3.263   0.000  0.00  0.00    -0.031 A 
ATOM      4  C4  IND d   1       3.954  -4.945  -0.463  0.00  0.00     0.051 A 
ATOM      5  C5  IND d   1       5.256  -5.016  -0.871  0.00  0.00    -0.031 A 
ATOM      6  C6  IND d   1       6.000  -3.884  -1.134  0.00  0.00     0.015 A 
ATOM      7  C7  IND d   1       5.470  -2.633  -0.987  0.00  0.00    -0.016 A 
ATOM      8  C8  IND d   1       4.146  -2.558  -0.579  0.00  0.00    -0.047 A 
ATOM      9  C9  IND d   1       3.373  -3.704  -0.352  0.00  0.00    -0.096 A 
ATOM     10  HN1 IND d   1       3.567  -0.643  -0.446  0.00  0.00     0.298 HD
ENDROOT
TORSDOF 0
ENDMDL
