MODEL 1
REMARK minimizedAffinity 15.6499119
REMARK minimizedRMSD -1
REMARK  0 active torsions:
REMARK  status: ('A' for Active; 'I' for Inactive)
ROOT
ATOM      1  N1  IND d   1       0.745  -1.329  -0.736  0.00  0.00    -0.196 N 
ATOM      2  C2  IND d   1       1.744  -1.519   0.177  0.00  0.00     0.054 A 
ATOM      3  C3  IND d   1       2.048  -2.833   0.275  0.00  0.00    -0.031 A 
ATOM      4  C4  IND d   1       1.105  -4.832  -1.045  0.00  0.00     0.051 A 
ATOM      5  C5  IND d   1       0.148  -5.162  -1.963  0.00  0.00    -0.031 A 
ATOM      6  C6  IND d   1      -0.673  -4.211  -2.533  0.00  0.00     0.015 A 
ATOM      7  C7  IND d   1      -0.561  -2.888  -2.213  0.00  0.00    -0.016 A 
ATOM      8  C8  IND d   1       0.405  -2.550  -1.275  0.00  0.00    -0.047 A 
ATOM      9  C9  IND d   1       1.213  -3.516  -0.662  0.00  0.00    -0.096 A 
ATOM     10  HN1 IND d   1       0.388  -0.573  -0.940  0.00  0.00     0.298 HD
ENDROOT
TORSDOF 0
ENDMDL
