MODEL 1
REMARK minimizedAffinity 8.01117897
REMARK minimizedRMSD -1
REMARK  0 active torsions:
REMARK  status: ('A' for Active; 'I' for Inactive)
ROOT
ATOM      1  N1  IND d   1       1.127   3.739  -0.394  0.00  0.00    -0.196 N 
ATOM      2  C2  IND d   1      -0.133   3.924  -0.891  0.00  0.00     0.054 A 
ATOM      3  C3  IND d   1      -1.058   3.505   0.002  0.00  0.00    -0.031 A 
ATOM      4  C4  IND d   1      -0.731   2.578   2.381  0.00  0.00     0.051 A 
ATOM      5  C5  IND d   1       0.239   2.191   3.263  0.00  0.00    -0.031 A 
ATOM      6  C6  IND d   1       1.582   2.306   2.966  0.00  0.00     0.015 A 
ATOM      7  C7  IND d   1       2.006   2.824   1.775  0.00  0.00    -0.016 A 
ATOM      8  C8  IND d   1       1.024   3.211   0.874  0.00  0.00    -0.047 A 
ATOM      9  C9  IND d   1      -0.340   3.057   1.153  0.00  0.00    -0.096 A 
ATOM     10  HN1 IND d   1       1.860   3.921  -0.804  0.00  0.00     0.298 HD
ENDROOT
TORSDOF 0
ENDMDL
