MODEL 1
REMARK minimizedAffinity 1.97026801
REMARK minimizedRMSD -1
REMARK  0 active torsions:
REMARK  status: ('A' for Active; 'I' for Inactive)
ROOT
ATOM      1  N1  IND d   1       1.937   4.238   0.867  0.00  0.00    -0.196 N 
ATOM      2  C2  IND d   1       0.896   4.202  -0.019  0.00  0.00     0.054 A 
ATOM      3  C3  IND d   1      -0.055   3.342   0.408  0.00  0.00    -0.031 A 
ATOM      4  C4  IND d   1      -0.159   1.965   2.581  0.00  0.00     0.051 A 
ATOM      5  C5  IND d   1       0.576   1.639   3.686  0.00  0.00    -0.031 A 
ATOM      6  C6  IND d   1       1.826   2.176   3.914  0.00  0.00     0.015 A 
ATOM      7  C7  IND d   1       2.386   3.072   3.047  0.00  0.00    -0.016 A 
ATOM      8  C8  IND d   1       1.645   3.399   1.920  0.00  0.00    -0.047 A 
ATOM      9  C9  IND d   1       0.394   2.825   1.662  0.00  0.00    -0.096 A 
ATOM     10  HN1 IND d   1       2.653   4.706   0.781  0.00  0.00     0.298 HD
ENDROOT
TORSDOF 0
ENDMDL
