MODEL 1
REMARK minimizedAffinity 2.70409417
REMARK minimizedRMSD -1
REMARK  0 active torsions:
REMARK  status: ('A' for Active; 'I' for Inactive)
ROOT
ATOM      1  N1  IND d   1      -5.270   2.778  -5.370  0.00  0.00    -0.196 N 
ATOM      2  C2  IND d   1      -5.687   1.480  -5.276  0.00  0.00     0.054 A 
ATOM      3  C3  IND d   1      -6.000   1.178  -3.996  0.00  0.00    -0.031 A 
ATOM      4  C4  IND d   1      -6.000   2.690  -1.912  0.00  0.00     0.051 A 
ATOM      5  C5  IND d   1      -5.661   3.945  -1.492  0.00  0.00    -0.031 A 
ATOM      6  C6  IND d   1      -5.167   4.896  -2.362  0.00  0.00     0.015 A 
ATOM      7  C7  IND d   1      -5.003   4.629  -3.691  0.00  0.00    -0.016 A 
ATOM      8  C8  IND d   1      -5.340   3.353  -4.120  0.00  0.00    -0.047 A 
ATOM      9  C9  IND d   1      -5.802   2.370  -3.235  0.00  0.00    -0.096 A 
ATOM     10  HN1 IND d   1      -5.008   3.170  -6.089  0.00  0.00     0.298 HD
ENDROOT
TORSDOF 0
ENDMDL
