MODEL 1
REMARK minimizedAffinity 14.0976791
REMARK minimizedRMSD -1
REMARK  0 active torsions:
REMARK  status: ('A' for Active; 'I' for Inactive)
ROOT
ATOM      1  N1  IND d   1      -0.876  -3.166  -1.199  0.00  0.00    -0.196 N 
ATOM      2  C2  IND d   1      -0.919  -4.510  -1.444  0.00  0.00     0.054 A 
ATOM      3  C3  IND d   1       0.287  -5.071  -1.204  0.00  0.00    -0.031 A 
ATOM      4  C4  IND d   1       2.444  -3.991  -0.305  0.00  0.00     0.051 A 
ATOM      5  C5  IND d   1       2.983  -2.781   0.032  0.00  0.00    -0.031 A 
ATOM      6  C6  IND d   1       2.247  -1.614  -0.022  0.00  0.00     0.015 A 
ATOM      7  C7  IND d   1       0.937  -1.616  -0.406  0.00  0.00    -0.016 A 
ATOM      8  C8  IND d   1       0.388  -2.842  -0.757  0.00  0.00    -0.047 A 
ATOM      9  C9  IND d   1       1.142  -4.023  -0.744  0.00  0.00    -0.096 A 
ATOM     10  HN1 IND d   1      -1.528  -2.616  -1.303  0.00  0.00     0.298 HD
ENDROOT
TORSDOF 0
ENDMDL
