MODEL 1
REMARK minimizedAffinity -2.56748414
REMARK minimizedRMSD -1
REMARK  0 active torsions:
REMARK  status: ('A' for Active; 'I' for Inactive)
ROOT
ATOM      1  N1  IND d   1      -0.512   0.718  -0.073  0.00  0.00    -0.196 N 
ATOM      2  C2  IND d   1      -1.050   0.162  -1.200  0.00  0.00     0.054 A 
ATOM      3  C3  IND d   1      -1.128   1.082  -2.187  0.00  0.00    -0.031 A 
ATOM      4  C4  IND d   1      -0.338   3.532  -2.206  0.00  0.00     0.051 A 
ATOM      5  C5  IND d   1       0.184   4.502  -1.396  0.00  0.00    -0.031 A 
ATOM      6  C6  IND d   1       0.509   4.254  -0.078  0.00  0.00     0.015 A 
ATOM      7  C7  IND d   1       0.335   3.019   0.478  0.00  0.00    -0.016 A 
ATOM      8  C8  IND d   1      -0.201   2.034  -0.339  0.00  0.00    -0.047 A 
ATOM      9  C9  IND d   1      -0.573   2.290  -1.665  0.00  0.00    -0.096 A 
ATOM     10  HN1 IND d   1      -0.388   0.314   0.676  0.00  0.00     0.298 HD
ENDROOT
TORSDOF 0
ENDMDL
