MODEL 1
REMARK minimizedAffinity -4.74736738
REMARK minimizedRMSD -1
REMARK  0 active torsions:
REMARK  status: ('A' for Active; 'I' for Inactive)
ROOT
ATOM      1  C   UNL d   1      -2.888  -0.524  -1.175  0.00  0.00     0.078 C 
ATOM      2  C1  UNL d   1      -1.482  -0.585  -0.657  0.00  0.00    -0.077 A 
ATOM      3  C2  UNL d   1      -0.461   0.166  -1.252  0.00  0.00    -0.001 A 
ATOM      4  C3  UNL d   1       0.845   0.092  -0.766  0.00  0.00     0.003 A 
ATOM      5  C4  UNL d   1       1.143  -0.733   0.317  0.00  0.00    -0.005 A 
ATOM      6  C5  UNL d   1       0.134  -1.486   0.914  0.00  0.00     0.003 A 
ATOM      7  C6  UNL d   1      -1.173  -1.413   0.429  0.00  0.00    -0.001 A 
ENDROOT
TORSDOF 0
ENDMDL
