MODEL 1
REMARK minimizedAffinity -6.12806892
REMARK minimizedRMSD -1
REMARK  0 active torsions:
REMARK  status: ('A' for Active; 'I' for Inactive)
ROOT
ATOM      1  C   UNL d   1       0.694  -0.047   0.171  0.00  0.00     0.078 C 
ATOM      2  C1  UNL d   1      -0.639  -0.718   0.020  0.00  0.00    -0.077 A 
ATOM      3  C2  UNL d   1      -1.104  -1.622   0.983  0.00  0.00    -0.001 A 
ATOM      4  C3  UNL d   1      -2.343  -2.246   0.825  0.00  0.00     0.003 A 
ATOM      5  C4  UNL d   1      -3.126  -1.973  -0.295  0.00  0.00    -0.005 A 
ATOM      6  C5  UNL d   1      -2.670  -1.076  -1.259  0.00  0.00     0.003 A 
ATOM      7  C6  UNL d   1      -1.432  -0.451  -1.103  0.00  0.00    -0.001 A 
ENDROOT
TORSDOF 0
ENDMDL
