MODEL 1
REMARK minimizedAffinity -5.40331984
REMARK minimizedRMSD -1
REMARK  0 active torsions:
REMARK  status: ('A' for Active; 'I' for Inactive)
ROOT
ATOM      1  C   UNL d   1      -3.534  -1.257  -0.402  0.00  0.00     0.078 C 
ATOM      2  C1  UNL d   1      -2.122  -0.839  -0.119  0.00  0.00    -0.077 A 
ATOM      3  C2  UNL d   1      -1.422  -0.013  -1.007  0.00  0.00    -0.001 A 
ATOM      4  C3  UNL d   1      -0.104   0.359  -0.735  0.00  0.00     0.003 A 
ATOM      5  C4  UNL d   1       0.525  -0.090   0.425  0.00  0.00    -0.005 A 
ATOM      6  C5  UNL d   1      -0.163  -0.914   1.313  0.00  0.00     0.003 A 
ATOM      7  C6  UNL d   1      -1.480  -1.288   1.043  0.00  0.00    -0.001 A 
ENDROOT
TORSDOF 0
ENDMDL
