MODEL 1
REMARK minimizedAffinity -5.04172134
REMARK minimizedRMSD -1
REMARK  0 active torsions:
REMARK  status: ('A' for Active; 'I' for Inactive)
ROOT
ATOM      1  C   UNL d   1       1.306   0.186   0.102  0.00  0.00     0.078 C 
ATOM      2  C1  UNL d   1      -0.143  -0.183  -0.005  0.00  0.00    -0.077 A 
ATOM      3  C2  UNL d   1      -0.925   0.265  -1.076  0.00  0.00    -0.001 A 
ATOM      4  C3  UNL d   1      -2.275  -0.079  -1.158  0.00  0.00     0.003 A 
ATOM      5  C4  UNL d   1      -2.856  -0.872  -0.170  0.00  0.00    -0.005 A 
ATOM      6  C5  UNL d   1      -2.086  -1.322   0.901  0.00  0.00     0.003 A 
ATOM      7  C6  UNL d   1      -0.736  -0.978   0.984  0.00  0.00    -0.001 A 
ENDROOT
TORSDOF 0
ENDMDL
