MODEL 1
REMARK minimizedAffinity -5.63911104
REMARK minimizedRMSD -1
REMARK  0 active torsions:
REMARK  status: ('A' for Active; 'I' for Inactive)
ROOT
ATOM      1  C   UNL d   1       1.402  -0.079  -0.040  0.00  0.00     0.078 C 
ATOM      2  C1  UNL d   1      -0.084  -0.131  -0.236  0.00  0.00    -0.077 A 
ATOM      3  C2  UNL d   1      -0.931  -0.567   0.789  0.00  0.00    -0.001 A 
ATOM      4  C3  UNL d   1      -2.312  -0.620   0.590  0.00  0.00     0.003 A 
ATOM      5  C4  UNL d   1      -2.857  -0.239  -0.634  0.00  0.00    -0.005 A 
ATOM      6  C5  UNL d   1      -2.021   0.195  -1.662  0.00  0.00     0.003 A 
ATOM      7  C6  UNL d   1      -0.640   0.248  -1.464  0.00  0.00    -0.001 A 
ENDROOT
TORSDOF 0
ENDMDL
