MODEL 1
REMARK minimizedAffinity -5.80630398
REMARK minimizedRMSD -1
REMARK  0 active torsions:
REMARK  status: ('A' for Active; 'I' for Inactive)
ROOT
ATOM      1  C   UNL d   1       0.519  -0.012   0.333  0.00  0.00     0.078 C 
ATOM      2  C1  UNL d   1      -0.795  -0.719   0.181  0.00  0.00    -0.077 A 
ATOM      3  C2  UNL d   1      -1.072  -1.889   0.899  0.00  0.00    -0.001 A 
ATOM      4  C3  UNL d   1      -2.295  -2.542   0.740  0.00  0.00     0.003 A 
ATOM      5  C4  UNL d   1      -3.251  -2.033  -0.137  0.00  0.00    -0.005 A 
ATOM      6  C5  UNL d   1      -2.984  -0.870  -0.857  0.00  0.00     0.003 A 
ATOM      7  C6  UNL d   1      -1.761  -0.216  -0.700  0.00  0.00    -0.001 A 
ENDROOT
TORSDOF 0
ENDMDL
