MODEL 1
REMARK minimizedAffinity -4.0792532
REMARK minimizedRMSD -1
REMARK  0 active torsions:
REMARK  status: ('A' for Active; 'I' for Inactive)
ROOT
ATOM      1  C   UNL d   1      -3.320  -0.615  -0.086  0.00  0.00     0.078 C 
ATOM      2  C1  UNL d   1      -1.854  -0.404  -0.321  0.00  0.00    -0.077 A 
ATOM      3  C2  UNL d   1      -1.374  -0.007  -1.575  0.00  0.00    -0.001 A 
ATOM      4  C3  UNL d   1      -0.006   0.177  -1.781  0.00  0.00     0.003 A 
ATOM      5  C4  UNL d   1       0.894  -0.035  -0.739  0.00  0.00    -0.005 A 
ATOM      6  C5  UNL d   1       0.426  -0.432   0.512  0.00  0.00     0.003 A 
ATOM      7  C6  UNL d   1      -0.942  -0.616   0.721  0.00  0.00    -0.001 A 
ENDROOT
TORSDOF 0
ENDMDL
