MODEL 1
REMARK minimizedAffinity -4.48882961
REMARK minimizedRMSD -1
REMARK  0 active torsions:
REMARK  status: ('A' for Active; 'I' for Inactive)
ROOT
ATOM      1  C   UNL d   1      -3.220  -0.809  -0.266  0.00  0.00     0.078 C 
ATOM      2  C1  UNL d   1      -1.752  -0.503  -0.259  0.00  0.00    -0.077 A 
ATOM      3  C2  UNL d   1      -0.976  -0.720   0.887  0.00  0.00    -0.001 A 
ATOM      4  C3  UNL d   1       0.387  -0.422   0.882  0.00  0.00     0.003 A 
ATOM      5  C4  UNL d   1       0.987   0.095  -0.264  0.00  0.00    -0.005 A 
ATOM      6  C5  UNL d   1       0.222   0.316  -1.408  0.00  0.00     0.003 A 
ATOM      7  C6  UNL d   1      -1.141   0.019  -1.406  0.00  0.00    -0.001 A 
ENDROOT
TORSDOF 0
ENDMDL
