MODEL 1
REMARK minimizedAffinity -3.90512037
REMARK minimizedRMSD -1
REMARK  0 active torsions:
REMARK  status: ('A' for Active; 'I' for Inactive)
ROOT
ATOM      1  C   UNL d   1       1.564  -0.012   0.132  0.00  0.00     0.078 C 
ATOM      2  C1  UNL d   1       2.029   1.408   0.266  0.00  0.00    -0.077 A 
ATOM      3  C2  UNL d   1       1.647   2.192   1.361  0.00  0.00    -0.001 A 
ATOM      4  C3  UNL d   1       2.079   3.514   1.468  0.00  0.00     0.003 A 
ATOM      5  C4  UNL d   1       2.895   4.065   0.482  0.00  0.00    -0.005 A 
ATOM      6  C5  UNL d   1       3.279   3.294  -0.613  0.00  0.00     0.003 A 
ATOM      7  C6  UNL d   1       2.848   1.971  -0.721  0.00  0.00    -0.001 A 
ENDROOT
TORSDOF 0
ENDMDL
