MODEL 1
REMARK minimizedAffinity -4.71291685
REMARK minimizedRMSD -1
REMARK  0 active torsions:
REMARK  status: ('A' for Active; 'I' for Inactive)
ROOT
ATOM      1  C   UNL d   1       0.891   0.385  -0.091  0.00  0.00     0.078 C 
ATOM      2  C1  UNL d   1      -0.486  -0.209  -0.093  0.00  0.00    -0.077 A 
ATOM      3  C2  UNL d   1      -0.975  -0.901   1.022  0.00  0.00    -0.001 A 
ATOM      4  C3  UNL d   1      -2.254  -1.458   1.002  0.00  0.00     0.003 A 
ATOM      5  C4  UNL d   1      -3.056  -1.330  -0.131  0.00  0.00    -0.005 A 
ATOM      6  C5  UNL d   1      -2.577  -0.645  -1.246  0.00  0.00     0.003 A 
ATOM      7  C6  UNL d   1      -1.298  -0.087  -1.228  0.00  0.00    -0.001 A 
ENDROOT
TORSDOF 0
ENDMDL
