MODEL 1
REMARK minimizedAffinity -5.58194113
REMARK minimizedRMSD -1
REMARK  0 active torsions:
REMARK  status: ('A' for Active; 'I' for Inactive)
ROOT
ATOM      1  C   UNL d   1      -2.716  -1.040   1.823  0.00  0.00     0.020 A 
ATOM      2  C1  UNL d   1      -2.157  -2.300   1.613  0.00  0.00     0.020 A 
ATOM      3  C2  UNL d   1      -0.913  -2.417   0.990  0.00  0.00     0.034 A 
ATOM      4  C3  UNL d   1      -0.222  -1.272   0.576  0.00  0.00     0.017 A 
ATOM      5  C4  UNL d   1      -0.784  -0.007   0.788  0.00  0.00     0.017 A 
ATOM      6  C5  UNL d   1      -2.030   0.104   1.412  0.00  0.00     0.034 A 
ATOM      7 Cl   UNL d   1       0.008   1.451   0.305  0.00  0.00    -0.070 Cl
ATOM      8 Cl1  UNL d   1       1.312  -1.491  -0.187  0.00  0.00    -0.070 Cl
ENDROOT
TORSDOF 0
ENDMDL
