MODEL 1
REMARK minimizedAffinity -4.08460712
REMARK minimizedRMSD -1
REMARK  0 active torsions:
REMARK  status: ('A' for Active; 'I' for Inactive)
ROOT
ATOM      1  C   UNL d   1      -2.018  -2.394   1.471  0.00  0.00     0.020 A 
ATOM      2  C1  UNL d   1      -2.567  -1.113   1.506  0.00  0.00     0.020 A 
ATOM      3  C2  UNL d   1      -1.839  -0.027   1.016  0.00  0.00     0.034 A 
ATOM      4  C3  UNL d   1      -0.556  -0.220   0.490  0.00  0.00     0.017 A 
ATOM      5  C4  UNL d   1      -0.005  -1.506   0.456  0.00  0.00     0.017 A 
ATOM      6  C5  UNL d   1      -0.740  -2.590   0.947  0.00  0.00     0.034 A 
ATOM      7 Cl   UNL d   1       1.571  -1.823  -0.178  0.00  0.00    -0.070 Cl
ATOM      8 Cl1  UNL d   1       0.288   1.168  -0.098  0.00  0.00    -0.070 Cl
ENDROOT
TORSDOF 0
ENDMDL
