MODEL 1
REMARK minimizedAffinity -1.13720012
REMARK minimizedRMSD -1
REMARK  0 active torsions:
REMARK  status: ('A' for Active; 'I' for Inactive)
ROOT
ATOM      1  C   UNL d   1       0.377  -2.386  -0.056  0.00  0.00     0.020 A 
ATOM      2  C1  UNL d   1      -0.226  -2.073   1.161  0.00  0.00     0.020 A 
ATOM      3  C2  UNL d   1      -0.674  -0.773   1.404  0.00  0.00     0.034 A 
ATOM      4  C3  UNL d   1      -0.520   0.219   0.428  0.00  0.00     0.017 A 
ATOM      5  C4  UNL d   1       0.085  -0.097  -0.794  0.00  0.00     0.017 A 
ATOM      6  C5  UNL d   1       0.532  -1.400  -1.031  0.00  0.00     0.034 A 
ATOM      7 Cl   UNL d   1       0.309   1.073  -2.046  0.00  0.00    -0.070 Cl
ATOM      8 Cl1  UNL d   1      -1.099   1.805   0.796  0.00  0.00    -0.070 Cl
ENDROOT
TORSDOF 0
ENDMDL
