MODEL 1
REMARK minimizedAffinity -4.68397141
REMARK minimizedRMSD -1
REMARK  0 active torsions:
REMARK  status: ('A' for Active; 'I' for Inactive)
ROOT
ATOM      1  C   UNL d   1      -1.713  -2.163   1.643  0.00  0.00     0.020 A 
ATOM      2  C1  UNL d   1      -2.496  -1.320   0.856  0.00  0.00     0.020 A 
ATOM      3  C2  UNL d   1      -1.892  -0.481  -0.083  0.00  0.00     0.034 A 
ATOM      4  C3  UNL d   1      -0.501  -0.484  -0.237  0.00  0.00     0.017 A 
ATOM      5  C4  UNL d   1       0.284  -1.331   0.553  0.00  0.00     0.017 A 
ATOM      6  C5  UNL d   1      -0.326  -2.169   1.492  0.00  0.00     0.034 A 
ATOM      7 Cl   UNL d   1       2.006  -1.391   0.419  0.00  0.00    -0.070 Cl
ATOM      8 Cl1  UNL d   1       0.178   0.579  -1.418  0.00  0.00    -0.070 Cl
ENDROOT
TORSDOF 0
ENDMDL
