MODEL 1
REMARK minimizedAffinity -5.70000887
REMARK minimizedRMSD -1
REMARK  0 active torsions:
REMARK  status: ('A' for Active; 'I' for Inactive)
ROOT
ATOM      1  C   UNL d   1      -0.370  -2.534   0.326  0.00  0.00     0.020 A 
ATOM      2  C1  UNL d   1      -1.530  -2.836   1.037  0.00  0.00     0.020 A 
ATOM      3  C2  UNL d   1      -2.291  -1.809   1.601  0.00  0.00     0.034 A 
ATOM      4  C3  UNL d   1      -1.892  -0.475   1.453  0.00  0.00     0.017 A 
ATOM      5  C4  UNL d   1      -0.727  -0.173   0.739  0.00  0.00     0.017 A 
ATOM      6  C5  UNL d   1       0.031  -1.205   0.177  0.00  0.00     0.034 A 
ATOM      7 Cl   UNL d   1      -0.172   1.448   0.515  0.00  0.00    -0.070 Cl
ATOM      8 Cl1  UNL d   1      -2.881   0.743   2.176  0.00  0.00    -0.070 Cl
ENDROOT
TORSDOF 0
ENDMDL
