MODEL 1
REMARK minimizedAffinity -4.66090393
REMARK minimizedRMSD -1
REMARK  0 active torsions:
REMARK  status: ('A' for Active; 'I' for Inactive)
ROOT
ATOM      1  C   UNL d   1      -2.808  -1.085   1.654  0.00  0.00     0.020 A 
ATOM      2  C1  UNL d   1      -2.099  -2.285   1.698  0.00  0.00     0.020 A 
ATOM      3  C2  UNL d   1      -0.823  -2.363   1.135  0.00  0.00     0.034 A 
ATOM      4  C3  UNL d   1      -0.252  -1.240   0.526  0.00  0.00     0.017 A 
ATOM      5  C4  UNL d   1      -0.965  -0.036   0.483  0.00  0.00     0.017 A 
ATOM      6  C5  UNL d   1      -2.241   0.037   1.048  0.00  0.00     0.034 A 
ATOM      7 Cl   UNL d   1      -0.326   1.393  -0.251  0.00  0.00    -0.070 Cl
ATOM      8 Cl1  UNL d   1       1.329  -1.409  -0.149  0.00  0.00    -0.070 Cl
ENDROOT
TORSDOF 0
ENDMDL
