MODEL 1
REMARK minimizedAffinity -3.109231
REMARK minimizedRMSD -1
REMARK  0 active torsions:
REMARK  status: ('A' for Active; 'I' for Inactive)
ROOT
ATOM      1  C   UNL d   1      -2.050  -1.758   0.176  0.00  0.00     0.020 A 
ATOM      2  C1  UNL d   1      -1.247  -2.583   0.962  0.00  0.00     0.020 A 
ATOM      3  C2  UNL d   1       0.067  -2.209   1.250  0.00  0.00     0.034 A 
ATOM      4  C3  UNL d   1       0.582  -1.006   0.753  0.00  0.00     0.017 A 
ATOM      5  C4  UNL d   1      -0.226  -0.178  -0.035  0.00  0.00     0.017 A 
ATOM      6  C5  UNL d   1      -1.541  -0.558  -0.321  0.00  0.00     0.034 A 
ATOM      7 Cl   UNL d   1       0.339   1.321  -0.684  0.00  0.00    -0.070 Cl
ATOM      8 Cl1  UNL d   1       2.215  -0.605   1.150  0.00  0.00    -0.070 Cl
ENDROOT
TORSDOF 0
ENDMDL
