MODEL 1
REMARK minimizedAffinity -5.39719868
REMARK minimizedRMSD -1
REMARK  0 active torsions:
REMARK  status: ('A' for Active; 'I' for Inactive)
ROOT
ATOM      1  C   UNL d   1      -2.852  -0.921   1.528  0.00  0.00     0.020 A 
ATOM      2  C1  UNL d   1      -2.278  -2.191   1.493  0.00  0.00     0.020 A 
ATOM      3  C2  UNL d   1      -0.988  -2.361   0.984  0.00  0.00     0.034 A 
ATOM      4  C3  UNL d   1      -0.268  -1.259   0.509  0.00  0.00     0.017 A 
ATOM      5  C4  UNL d   1      -0.845   0.015   0.545  0.00  0.00     0.017 A 
ATOM      6  C5  UNL d   1      -2.137   0.180   1.055  0.00  0.00     0.034 A 
ATOM      7 Cl   UNL d   1      -0.019   1.423  -0.024  0.00  0.00    -0.070 Cl
ATOM      8 Cl1  UNL d   1       1.321  -1.543  -0.106  0.00  0.00    -0.070 Cl
ENDROOT
TORSDOF 0
ENDMDL
