MODEL 1
REMARK minimizedAffinity -6.01017523
REMARK minimizedRMSD -1
REMARK  0 active torsions:
REMARK  status: ('A' for Active; 'I' for Inactive)
ROOT
ATOM      1  C   UNL d   1      -2.600  -1.654   2.054  0.00  0.00     0.020 A 
ATOM      2  C1  UNL d   1      -2.881  -0.327   1.733  0.00  0.00     0.020 A 
ATOM      3  C2  UNL d   1      -2.059   0.366   0.842  0.00  0.00     0.034 A 
ATOM      4  C3  UNL d   1      -0.950  -0.269   0.269  0.00  0.00     0.017 A 
ATOM      5  C4  UNL d   1      -0.669  -1.601   0.592  0.00  0.00     0.017 A 
ATOM      6  C5  UNL d   1      -1.496  -2.290   1.484  0.00  0.00     0.034 A 
ATOM      7 Cl   UNL d   1       0.681  -2.451  -0.075  0.00  0.00    -0.070 Cl
ATOM      8 Cl1  UNL d   1       0.024   0.648  -0.825  0.00  0.00    -0.070 Cl
ENDROOT
TORSDOF 0
ENDMDL
