MODEL 1
REMARK minimizedAffinity -5.2058773
REMARK minimizedRMSD -1
REMARK  0 active torsions:
REMARK  status: ('A' for Active; 'I' for Inactive)
ROOT
ATOM      1  C   UNL d   1      -2.073  -2.495   1.516  0.00  0.00     0.020 A 
ATOM      2  C1  UNL d   1      -2.764  -1.289   1.620  0.00  0.00     0.020 A 
ATOM      3  C2  UNL d   1      -2.136  -0.091   1.271  0.00  0.00     0.034 A 
ATOM      4  C3  UNL d   1      -0.812  -0.098   0.817  0.00  0.00     0.017 A 
ATOM      5  C4  UNL d   1      -0.119  -1.310   0.712  0.00  0.00     0.017 A 
ATOM      6  C5  UNL d   1      -0.753  -2.505   1.063  0.00  0.00     0.034 A 
ATOM      7 Cl   UNL d   1       1.516  -1.398   0.160  0.00  0.00    -0.070 Cl
ATOM      8 Cl1  UNL d   1      -0.097   1.419   0.402  0.00  0.00    -0.070 Cl
ENDROOT
TORSDOF 0
ENDMDL
