MODEL 1
REMARK minimizedAffinity -4.21122789
REMARK minimizedRMSD -1
REMARK  0 active torsions:
REMARK  status: ('A' for Active; 'I' for Inactive)
ROOT
ATOM      1  C   UNL d   1      -2.170  -2.176   1.932  0.00  0.00     0.020 A 
ATOM      2  C1  UNL d   1      -1.099  -2.659   1.181  0.00  0.00     0.020 A 
ATOM      3  C2  UNL d   1      -0.358  -1.787   0.381  0.00  0.00     0.034 A 
ATOM      4  C3  UNL d   1      -0.688  -0.427   0.328  0.00  0.00     0.017 A 
ATOM      5  C4  UNL d   1      -1.764   0.056   1.082  0.00  0.00     0.017 A 
ATOM      6  C5  UNL d   1      -2.502  -0.821   1.882  0.00  0.00     0.034 A 
ATOM      7 Cl   UNL d   1      -2.231   1.720   1.069  0.00  0.00    -0.070 Cl
ATOM      8 Cl1  UNL d   1       0.271   0.594  -0.683  0.00  0.00    -0.070 Cl
ENDROOT
TORSDOF 0
ENDMDL
