MODEL 1
REMARK minimizedAffinity -5.04096127
REMARK minimizedRMSD -1
REMARK  0 active torsions:
REMARK  status: ('A' for Active; 'I' for Inactive)
ROOT
ATOM      1  C   UNL d   1       1.158  -0.320   0.119  0.00  0.00     0.020 A 
ATOM      2  C1  UNL d   1       0.433   0.867   0.213  0.00  0.00     0.020 A 
ATOM      3  C2  UNL d   1      -0.890   0.844   0.659  0.00  0.00     0.034 A 
ATOM      4  C3  UNL d   1      -1.492  -0.368   1.014  0.00  0.00     0.017 A 
ATOM      5  C4  UNL d   1      -0.764  -1.560   0.920  0.00  0.00     0.017 A 
ATOM      6  C5  UNL d   1       0.561  -1.531   0.472  0.00  0.00     0.034 A 
ATOM      7 Cl   UNL d   1      -1.438  -3.094   1.340  0.00  0.00    -0.070 Cl
ATOM      8 Cl1  UNL d   1      -3.131  -0.323   1.559  0.00  0.00    -0.070 Cl
ENDROOT
TORSDOF 0
ENDMDL
