MODEL 1
REMARK minimizedAffinity -4.09092522
REMARK minimizedRMSD -1
REMARK  0 active torsions:
REMARK  status: ('A' for Active; 'I' for Inactive)
ROOT
ATOM      1  C   UNL d   1      -2.098  -2.356   1.777  0.00  0.00     0.020 A 
ATOM      2  C1  UNL d   1      -2.888  -1.226   1.984  0.00  0.00     0.020 A 
ATOM      3  C2  UNL d   1      -2.452   0.022   1.534  0.00  0.00     0.034 A 
ATOM      4  C3  UNL d   1      -1.223   0.142   0.875  0.00  0.00     0.017 A 
ATOM      5  C4  UNL d   1      -0.431  -0.993   0.668  0.00  0.00     0.017 A 
ATOM      6  C5  UNL d   1      -0.873  -2.240   1.120  0.00  0.00     0.034 A 
ATOM      7 Cl   UNL d   1       1.097  -0.923  -0.138  0.00  0.00    -0.070 Cl
ATOM      8 Cl1  UNL d   1      -0.746   1.717   0.345  0.00  0.00    -0.070 Cl
ENDROOT
TORSDOF 0
ENDMDL
