MODEL 1
REMARK minimizedAffinity -0.400161922
REMARK minimizedRMSD -1
REMARK  0 active torsions:
REMARK  status: ('A' for Active; 'I' for Inactive)
ROOT
ATOM      1  C   UNL d   1       3.300   1.640  -2.927  0.00  0.00     0.020 A 
ATOM      2  C1  UNL d   1       2.693   1.854  -4.164  0.00  0.00     0.020 A 
ATOM      3  C2  UNL d   1       1.338   2.189  -4.228  0.00  0.00     0.034 A 
ATOM      4  C3  UNL d   1       0.587   2.311  -3.054  0.00  0.00     0.017 A 
ATOM      5  C4  UNL d   1       1.197   2.096  -1.813  0.00  0.00     0.017 A 
ATOM      6  C5  UNL d   1       2.553   1.760  -1.754  0.00  0.00     0.034 A 
ATOM      7 Cl   UNL d   1       0.335   2.228  -0.321  0.00  0.00    -0.070 Cl
ATOM      8 Cl1  UNL d   1      -1.083   2.728  -3.208  0.00  0.00    -0.070 Cl
ENDROOT
TORSDOF 0
ENDMDL
