MODEL 1
REMARK minimizedAffinity -3.73530936
REMARK minimizedRMSD -1
REMARK  0 active torsions:
REMARK  status: ('A' for Active; 'I' for Inactive)
ROOT
ATOM      1  C   UNL d   1       0.587  -0.136  -0.090  0.00  0.00     0.020 A 
ATOM      2  C1  UNL d   1      -0.026   1.089   0.169  0.00  0.00     0.020 A 
ATOM      3  C2  UNL d   1      -1.284   1.126   0.775  0.00  0.00     0.034 A 
ATOM      4  C3  UNL d   1      -1.932  -0.065   1.123  0.00  0.00     0.017 A 
ATOM      5  C4  UNL d   1      -1.315  -1.294   0.863  0.00  0.00     0.017 A 
ATOM      6  C5  UNL d   1      -0.056  -1.325   0.257  0.00  0.00     0.034 A 
ATOM      7 Cl   UNL d   1      -2.053  -2.805   1.265  0.00  0.00    -0.070 Cl
ATOM      8 Cl1  UNL d   1      -3.486   0.055   1.869  0.00  0.00    -0.070 Cl
ENDROOT
TORSDOF 0
ENDMDL
