MODEL 1
REMARK minimizedAffinity 5.05476761
REMARK minimizedRMSD -1
REMARK  0 active torsions:
REMARK  status: ('A' for Active; 'I' for Inactive)
ROOT
ATOM      1  O1  BZF d   1       2.492   0.811  -1.452  0.00  0.00    -0.204 OA
ATOM      2  C2  BZF d   1       3.700   0.727  -0.786  0.00  0.00     0.174 A 
ATOM      3  C3  BZF d   1       3.540   0.981   0.528  0.00  0.00    -0.012 A 
ATOM      4  C3A BZF d   1       2.131   1.150   0.711  0.00  0.00    -0.107 A 
ATOM      5  C4  BZF d   1       1.350   1.408   1.801  0.00  0.00     0.055 A 
ATOM      6  C5  BZF d   1       0.014   1.587   1.628  0.00  0.00    -0.016 A 
ATOM      7  C6  BZF d   1      -0.573   1.520   0.381  0.00  0.00     0.022 A 
ATOM      8  C7  BZF d   1       0.161   1.261  -0.729  0.00  0.00     0.029 A 
ATOM      9  C7A BZF d   1       1.506   1.047  -0.553  0.00  0.00     0.058 A 
ENDROOT
TORSDOF 0
ENDMDL
