MODEL 1
REMARK minimizedAffinity 15.2300053
REMARK minimizedRMSD -1
REMARK  0 active torsions:
REMARK  status: ('A' for Active; 'I' for Inactive)
ROOT
ATOM      1  O1  BZF d   1      -4.449   1.504  -5.565  0.00  0.00    -0.204 OA
ATOM      2  C2  BZF d   1      -5.299   0.420  -5.461  0.00  0.00     0.174 A 
ATOM      3  C3  BZF d   1      -6.000   0.470  -4.310  0.00  0.00    -0.012 A 
ATOM      4  C3A BZF d   1      -5.628   1.708  -3.697  0.00  0.00    -0.107 A 
ATOM      5  C4  BZF d   1      -6.000   2.332  -2.540  0.00  0.00     0.055 A 
ATOM      6  C5  BZF d   1      -5.395   3.498  -2.195  0.00  0.00    -0.016 A 
ATOM      7  C6  BZF d   1      -4.412   4.066  -2.979  0.00  0.00     0.022 A 
ATOM      8  C7  BZF d   1      -4.013   3.487  -4.138  0.00  0.00     0.029 A 
ATOM      9  C7A BZF d   1      -4.646   2.325  -4.506  0.00  0.00     0.058 A 
ENDROOT
TORSDOF 0
ENDMDL
