MODEL 1
REMARK minimizedAffinity 6.39069891
REMARK minimizedRMSD -1
REMARK  0 active torsions:
REMARK  status: ('A' for Active; 'I' for Inactive)
ROOT
ATOM      1  O1  BZF d   1       0.412  -2.712   4.809  0.00  0.00    -0.204 OA
ATOM      2  C2  BZF d   1       1.376  -3.202   3.950  0.00  0.00     0.174 A 
ATOM      3  C3  BZF d   1       1.177  -4.514   3.706  0.00  0.00    -0.012 A 
ATOM      4  C3A BZF d   1      -0.037  -4.843   4.388  0.00  0.00    -0.107 A 
ATOM      5  C4  BZF d   1      -0.763  -5.994   4.508  0.00  0.00     0.055 A 
ATOM      6  C5  BZF d   1      -1.864  -5.999   5.305  0.00  0.00    -0.016 A 
ATOM      7  C6  BZF d   1      -2.263  -4.876   6.000  0.00  0.00     0.022 A 
ATOM      8  C7  BZF d   1      -1.578  -3.710   5.908  0.00  0.00     0.029 A 
ATOM      9  C7A BZF d   1      -0.484  -3.692   5.077  0.00  0.00     0.058 A 
ENDROOT
TORSDOF 0
ENDMDL
