MODEL 1
REMARK minimizedAffinity 6.69308233
REMARK minimizedRMSD -1
REMARK  0 active torsions:
REMARK  status: ('A' for Active; 'I' for Inactive)
ROOT
ATOM      1  O1  BZF d   1      -3.402   0.432  -4.214  0.00  0.00    -0.204 OA
ATOM      2  C2  BZF d   1      -2.621   0.794  -5.294  0.00  0.00     0.174 A 
ATOM      3  C3  BZF d   1      -3.002   1.993  -5.780  0.00  0.00    -0.012 A 
ATOM      4  C3A BZF d   1      -4.029   2.448  -4.893  0.00  0.00    -0.107 A 
ATOM      5  C4  BZF d   1      -4.789   3.582  -4.841  0.00  0.00     0.055 A 
ATOM      6  C5  BZF d   1      -5.755   3.686  -3.891  0.00  0.00    -0.016 A 
ATOM      7  C6  BZF d   1      -5.991   2.675  -2.982  0.00  0.00     0.022 A 
ATOM      8  C7  BZF d   1      -5.260   1.534  -2.992  0.00  0.00     0.029 A 
ATOM      9  C7A BZF d   1      -4.261   1.440  -3.930  0.00  0.00     0.058 A 
ENDROOT
TORSDOF 0
ENDMDL
