MODEL 1
REMARK minimizedAffinity 5.37591505
REMARK minimizedRMSD -1
REMARK  0 active torsions:
REMARK  status: ('A' for Active; 'I' for Inactive)
ROOT
ATOM      1  O1  BZF d   1       4.291   0.739  -2.079  0.00  0.00    -0.204 OA
ATOM      2  C2  BZF d   1       3.911  -0.355  -1.326  0.00  0.00     0.174 A 
ATOM      3  C3  BZF d   1       4.301  -0.212  -0.043  0.00  0.00    -0.012 A 
ATOM      4  C3A BZF d   1       4.886   1.092   0.030  0.00  0.00    -0.107 A 
ATOM      5  C4  BZF d   1       5.444   1.815   1.045  0.00  0.00     0.055 A 
ATOM      6  C5  BZF d   1       5.990   3.029   0.768  0.00  0.00    -0.016 A 
ATOM      7  C6  BZF d   1       6.000   3.546  -0.511  0.00  0.00     0.022 A 
ATOM      8  C7  BZF d   1       5.454   2.867  -1.549  0.00  0.00     0.029 A 
ATOM      9  C7A BZF d   1       4.872   1.655  -1.267  0.00  0.00     0.058 A 
ENDROOT
TORSDOF 0
ENDMDL
