MODEL 1
REMARK minimizedAffinity 6.36146975
REMARK minimizedRMSD -1
REMARK  0 active torsions:
REMARK  status: ('A' for Active; 'I' for Inactive)
ROOT
ATOM      1  O1  BZF d   1      -4.135   1.474   1.055  0.00  0.00    -0.204 OA
ATOM      2  C2  BZF d   1      -4.926   0.862   0.102  0.00  0.00     0.174 A 
ATOM      3  C3  BZF d   1      -4.189   0.490  -0.964  0.00  0.00    -0.012 A 
ATOM      4  C3A BZF d   1      -2.838   0.811  -0.618  0.00  0.00    -0.107 A 
ATOM      5  C4  BZF d   1      -1.643   0.665  -1.263  0.00  0.00     0.055 A 
ATOM      6  C5  BZF d   1      -0.515   1.149  -0.682  0.00  0.00    -0.016 A 
ATOM      7  C6  BZF d   1      -0.545   1.789   0.540  0.00  0.00     0.022 A 
ATOM      8  C7  BZF d   1      -1.705   1.954   1.220  0.00  0.00     0.029 A 
ATOM      9  C7A BZF d   1      -2.843   1.436   0.650  0.00  0.00     0.058 A 
ENDROOT
TORSDOF 0
ENDMDL
