MODEL 1
REMARK minimizedAffinity 5.52059221
REMARK minimizedRMSD -1
REMARK  0 active torsions:
REMARK  status: ('A' for Active; 'I' for Inactive)
ROOT
ATOM      1  O1  BZF d   1       4.470  -0.376  -2.432  0.00  0.00    -0.204 OA
ATOM      2  C2  BZF d   1       4.388   0.339  -1.253  0.00  0.00     0.174 A 
ATOM      3  C3  BZF d   1       3.572  -0.278  -0.375  0.00  0.00    -0.012 A 
ATOM      4  C3A BZF d   1       3.188  -1.500  -1.013  0.00  0.00    -0.107 A 
ATOM      5  C4  BZF d   1       2.398  -2.548  -0.636  0.00  0.00     0.055 A 
ATOM      6  C5  BZF d   1       2.167  -3.553  -1.521  0.00  0.00    -0.016 A 
ATOM      7  C6  BZF d   1       2.705  -3.540  -2.791  0.00  0.00     0.022 A 
ATOM      8  C7  BZF d   1       3.499  -2.524  -3.209  0.00  0.00     0.029 A 
ATOM      9  C7A BZF d   1       3.761  -1.523  -2.306  0.00  0.00     0.058 A 
ENDROOT
TORSDOF 0
ENDMDL
