MODEL 1
REMARK minimizedAffinity 2.20725632
REMARK minimizedRMSD -1
REMARK  0 active torsions:
REMARK  status: ('A' for Active; 'I' for Inactive)
ROOT
ATOM      1  C2' OXE d   1       2.475  -1.412  -0.487  0.00  0.00     0.078 C 
ATOM      2  C1' OXE d   1       1.270   0.789   0.772  0.00  0.00     0.078 C 
ATOM      3  C1  OXE d   1       2.686   0.950   0.278  0.00  0.00    -0.078 A 
ATOM      4  C2  OXE d   1       3.284  -0.147  -0.294  0.00  0.00    -0.078 A 
ATOM      5  C3  OXE d   1       4.570  -0.038  -0.816  0.00  0.00     0.003 A 
ATOM      6  C4  OXE d   1       5.315   1.132  -0.624  0.00  0.00    -0.002 A 
ATOM      7  C5  OXE d   1       4.739   2.248  -0.008  0.00  0.00    -0.002 A 
ATOM      8  C6  OXE d   1       3.414   2.187   0.410  0.00  0.00     0.003 A 
ENDROOT
TORSDOF 0
ENDMDL
