MODEL 1
REMARK minimizedAffinity 7.68509817
REMARK minimizedRMSD -1
REMARK  0 active torsions:
REMARK  status: ('A' for Active; 'I' for Inactive)
ROOT
ATOM      1  C2' OXE d   1       0.294  -0.751   3.222  0.00  0.00     0.078 C 
ATOM      2  C1' OXE d   1       1.604   1.318   4.594  0.00  0.00     0.078 C 
ATOM      3  C1  OXE d   1       0.519   1.698   3.617  0.00  0.00    -0.078 A 
ATOM      4  C2  OXE d   1      -0.084   0.682   2.916  0.00  0.00    -0.078 A 
ATOM      5  C3  OXE d   1      -1.128   0.973   2.042  0.00  0.00     0.003 A 
ATOM      6  C4  OXE d   1      -1.465   2.302   1.757  0.00  0.00    -0.002 A 
ATOM      7  C5  OXE d   1      -0.835   3.354   2.431  0.00  0.00    -0.002 A 
ATOM      8  C6  OXE d   1       0.127   3.068   3.393  0.00  0.00     0.003 A 
ENDROOT
TORSDOF 0
ENDMDL
