MODEL 1
REMARK minimizedAffinity 7.33886576
REMARK minimizedRMSD -1
REMARK  0 active torsions:
REMARK  status: ('A' for Active; 'I' for Inactive)
ROOT
ATOM      1  C2' OXE d   1       1.410  -3.258  -0.884  0.00  0.00     0.078 C 
ATOM      2  C1' OXE d   1       3.131  -2.717  -3.035  0.00  0.00     0.078 C 
ATOM      3  C1  OXE d   1       3.071  -1.712  -1.912  0.00  0.00    -0.078 A 
ATOM      4  C2  OXE d   1       2.191  -1.962  -0.886  0.00  0.00    -0.078 A 
ATOM      5  C3  OXE d   1       2.136  -1.095   0.202  0.00  0.00     0.003 A 
ATOM      6  C4  OXE d   1       2.855   0.106   0.187  0.00  0.00    -0.002 A 
ATOM      7  C5  OXE d   1       3.726   0.400  -0.867  0.00  0.00    -0.002 A 
ATOM      8  C6  OXE d   1       3.878  -0.517  -1.901  0.00  0.00     0.003 A 
ENDROOT
TORSDOF 0
ENDMDL
