MODEL 1
REMARK minimizedAffinity 7.37404728
REMARK minimizedRMSD -1
REMARK  0 active torsions:
REMARK  status: ('A' for Active; 'I' for Inactive)
ROOT
ATOM      1  C2' OXE d   1       2.359  -2.399   1.331  0.00  0.00     0.078 C 
ATOM      2  C1' OXE d   1       2.813  -0.673  -0.836  0.00  0.00     0.078 C 
ATOM      3  C1  OXE d   1       1.696  -1.679  -0.959  0.00  0.00    -0.078 A 
ATOM      4  C2  OXE d   1       1.511  -2.550   0.087  0.00  0.00    -0.078 A 
ATOM      5  C3  OXE d   1       0.459  -3.462   0.048  0.00  0.00     0.003 A 
ATOM      6  C4  OXE d   1      -0.314  -3.602  -1.111  0.00  0.00    -0.002 A 
ATOM      7  C5  OXE d   1      -0.116  -2.751  -2.204  0.00  0.00    -0.002 A 
ATOM      8  C6  OXE d   1       0.854  -1.758  -2.128  0.00  0.00     0.003 A 
ENDROOT
TORSDOF 0
ENDMDL
