MODEL 1
REMARK minimizedAffinity 10.0291719
REMARK minimizedRMSD -1
REMARK  0 active torsions:
REMARK  status: ('A' for Active; 'I' for Inactive)
ROOT
ATOM      1  C2' OXE d   1       2.972  -0.947  -0.837  0.00  0.00     0.078 C 
ATOM      2  C1' OXE d   1       1.433   1.219   0.069  0.00  0.00     0.078 C 
ATOM      3  C1  OXE d   1       2.931   1.389   0.028  0.00  0.00    -0.078 A 
ATOM      4  C2  OXE d   1       3.679   0.308  -0.373  0.00  0.00    -0.078 A 
ATOM      5  C3  OXE d   1       5.061   0.429  -0.482  0.00  0.00     0.003 A 
ATOM      6  C4  OXE d   1       5.709   1.590  -0.041  0.00  0.00    -0.002 A 
ATOM      7  C5  OXE d   1       4.968   2.689   0.408  0.00  0.00    -0.002 A 
ATOM      8  C6  OXE d   1       3.579   2.620   0.408  0.00  0.00     0.003 A 
ENDROOT
TORSDOF 0
ENDMDL
