MODEL 1
REMARK minimizedAffinity 7.83963394
REMARK minimizedRMSD -1
REMARK  0 active torsions:
REMARK  status: ('A' for Active; 'I' for Inactive)
ROOT
ATOM      1  C2' OXE d   1       1.716  -0.007  -0.757  0.00  0.00     0.078 C 
ATOM      2  C1' OXE d   1       3.172  -2.152   0.323  0.00  0.00     0.078 C 
ATOM      3  C1  OXE d   1       3.930  -0.901  -0.045  0.00  0.00    -0.078 A 
ATOM      4  C2  OXE d   1       3.217   0.126  -0.616  0.00  0.00    -0.078 A 
ATOM      5  C3  OXE d   1       3.859   1.323  -0.923  0.00  0.00     0.003 A 
ATOM      6  C4  OXE d   1       5.249   1.434  -0.798  0.00  0.00    -0.002 A 
ATOM      7  C5  OXE d   1       5.999   0.386  -0.256  0.00  0.00    -0.002 A 
ATOM      8  C6  OXE d   1       5.351  -0.770   0.164  0.00  0.00     0.003 A 
ENDROOT
TORSDOF 0
ENDMDL
