MODEL 1
REMARK minimizedAffinity 5.21206379
REMARK minimizedRMSD -1
REMARK  0 active torsions:
REMARK  status: ('A' for Active; 'I' for Inactive)
ROOT
ATOM      1  C2' OXE d   1       1.929   0.005  -1.103  0.00  0.00     0.078 C 
ATOM      2  C1' OXE d   1       2.785  -2.041   0.617  0.00  0.00     0.078 C 
ATOM      3  C1  OXE d   1       3.775  -0.960   0.263  0.00  0.00    -0.078 A 
ATOM      4  C2  OXE d   1       3.362   0.012  -0.616  0.00  0.00    -0.078 A 
ATOM      5  C3  OXE d   1       4.218   1.063  -0.934  0.00  0.00     0.003 A 
ATOM      6  C4  OXE d   1       5.545   1.056  -0.488  0.00  0.00    -0.002 A 
ATOM      7  C5  OXE d   1       5.998   0.054   0.377  0.00  0.00    -0.002 A 
ATOM      8  C6  OXE d   1       5.115  -0.936   0.795  0.00  0.00     0.003 A 
ENDROOT
TORSDOF 0
ENDMDL
