MODEL 1
REMARK minimizedAffinity 9.11114788
REMARK minimizedRMSD -1
REMARK  0 active torsions:
REMARK  status: ('A' for Active; 'I' for Inactive)
ROOT
ATOM      1  C2' OXE d   1      -5.566   4.896  -1.337  0.00  0.00     0.078 C 
ATOM      2  C1' OXE d   1      -5.539   4.485  -4.114  0.00  0.00     0.078 C 
ATOM      3  C1  OXE d   1      -5.719   3.279  -3.226  0.00  0.00    -0.078 A 
ATOM      4  C2  OXE d   1      -5.685   3.483  -1.867  0.00  0.00    -0.078 A 
ATOM      5  C3  OXE d   1      -5.901   2.414  -1.003  0.00  0.00     0.003 A 
ATOM      6  C4  OXE d   1      -6.000   1.109  -1.502  0.00  0.00    -0.002 A 
ATOM      7  C5  OXE d   1      -5.998   0.874  -2.881  0.00  0.00    -0.002 A 
ATOM      8  C6  OXE d   1      -5.902   1.950  -3.756  0.00  0.00     0.003 A 
ENDROOT
TORSDOF 0
ENDMDL
