MODEL 1
REMARK minimizedAffinity 2.6265645
REMARK minimizedRMSD -1
REMARK  0 active torsions:
REMARK  status: ('A' for Active; 'I' for Inactive)
ROOT
ATOM      1  C2' OXE d   1       2.388  -1.878   1.416  0.00  0.00     0.078 C 
ATOM      2  C1' OXE d   1       1.716  -2.869  -1.123  0.00  0.00     0.078 C 
ATOM      3  C1  OXE d   1       2.750  -1.773  -1.047  0.00  0.00    -0.078 A 
ATOM      4  C2  OXE d   1       3.038  -1.262   0.196  0.00  0.00    -0.078 A 
ATOM      5  C3  OXE d   1       4.023  -0.287   0.329  0.00  0.00     0.003 A 
ATOM      6  C4  OXE d   1       4.612   0.284  -0.805  0.00  0.00    -0.002 A 
ATOM      7  C5  OXE d   1       4.304  -0.194  -2.083  0.00  0.00    -0.002 A 
ATOM      8  C6  OXE d   1       3.408  -1.249  -2.218  0.00  0.00     0.003 A 
ENDROOT
TORSDOF 0
ENDMDL
