MODEL 1
REMARK minimizedAffinity 4.67554808
REMARK minimizedRMSD -1
REMARK  0 active torsions:
REMARK  status: ('A' for Active; 'I' for Inactive)
ROOT
ATOM      1  C2' OXE d   1      -2.390   1.020  -2.634  0.00  0.00     0.078 C 
ATOM      2  C1' OXE d   1      -4.761   0.192  -1.378  0.00  0.00     0.078 C 
ATOM      3  C1  OXE d   1      -4.797   1.471  -2.176  0.00  0.00    -0.078 A 
ATOM      4  C2  OXE d   1      -3.621   1.893  -2.748  0.00  0.00    -0.078 A 
ATOM      5  C3  OXE d   1      -3.611   3.038  -3.540  0.00  0.00     0.003 A 
ATOM      6  C4  OXE d   1      -4.751   3.845  -3.633  0.00  0.00    -0.002 A 
ATOM      7  C5  OXE d   1      -5.949   3.455  -3.025  0.00  0.00    -0.002 A 
ATOM      8  C6  OXE d   1      -6.000   2.252  -2.330  0.00  0.00     0.003 A 
ENDROOT
TORSDOF 0
ENDMDL
