MODEL 1
REMARK minimizedAffinity 7.52131891
REMARK minimizedRMSD -1
REMARK  0 active torsions:
REMARK  status: ('A' for Active; 'I' for Inactive)
ROOT
ATOM      1  C2' OXE d   1       1.801  -2.761  -0.528  0.00  0.00     0.078 C 
ATOM      2  C1' OXE d   1       3.556  -2.780  -2.719  0.00  0.00     0.078 C 
ATOM      3  C1  OXE d   1       3.464  -1.515  -1.902  0.00  0.00    -0.078 A 
ATOM      4  C2  OXE d   1       2.569  -1.499  -0.860  0.00  0.00    -0.078 A 
ATOM      5  C3  OXE d   1       2.484  -0.377  -0.040  0.00  0.00     0.003 A 
ATOM      6  C4  OXE d   1       3.190   0.789  -0.360  0.00  0.00    -0.002 A 
ATOM      7  C5  OXE d   1       4.078   0.807  -1.441  0.00  0.00    -0.002 A 
ATOM      8  C6  OXE d   1       4.258  -0.348  -2.194  0.00  0.00     0.003 A 
ENDROOT
TORSDOF 0
ENDMDL
