MODEL 1
REMARK minimizedAffinity 1.03269744
REMARK minimizedRMSD -1
REMARK  0 active torsions:
REMARK  status: ('A' for Active; 'I' for Inactive)
ROOT
ATOM      1  N1  IND d   1      -0.814  -1.498  -0.243  0.00  0.00    -0.196 N 
ATOM      2  C2  IND d   1       0.184  -0.717   0.270  0.00  0.00     0.054 A 
ATOM      3  C3  IND d   1      -0.261   0.543   0.473  0.00  0.00    -0.031 A 
ATOM      4  C4  IND d   1      -2.618   1.520   0.129  0.00  0.00     0.051 A 
ATOM      5  C5  IND d   1      -3.856   1.202  -0.356  0.00  0.00    -0.031 A 
ATOM      6  C6  IND d   1      -4.149  -0.058  -0.835  0.00  0.00     0.015 A 
ATOM      7  C7  IND d   1      -3.215  -1.055  -0.837  0.00  0.00    -0.016 A 
ATOM      8  C8  IND d   1      -1.955  -0.734  -0.352  0.00  0.00    -0.047 A 
ATOM      9  C9  IND d   1      -1.639   0.555   0.097  0.00  0.00    -0.096 A 
ATOM     10  HN1 IND d   1      -0.741  -2.326  -0.461  0.00  0.00     0.298 HD
ENDROOT
TORSDOF 0
ENDMDL
