MODEL 1
REMARK minimizedAffinity -5.19977331
REMARK minimizedRMSD -1
REMARK  0 active torsions:
REMARK  status: ('A' for Active; 'I' for Inactive)
ROOT
ATOM      1  N1  IND d   1       1.606  -0.871   0.141  0.00  0.00    -0.196 N 
ATOM      2  C2  IND d   1       2.375  -0.963   1.267  0.00  0.00     0.054 A 
ATOM      3  C3  IND d   1       1.680  -0.543   2.348  0.00  0.00    -0.031 A 
ATOM      4  C4  IND d   1      -0.766   0.240   2.515  0.00  0.00     0.051 A 
ATOM      5  C5  IND d   1      -1.860   0.528   1.748  0.00  0.00    -0.031 A 
ATOM      6  C6  IND d   1      -1.855   0.358   0.379  0.00  0.00     0.015 A 
ATOM      7  C7  IND d   1      -0.755  -0.119  -0.276  0.00  0.00    -0.016 A 
ATOM      8  C8  IND d   1       0.360  -0.406   0.499  0.00  0.00    -0.047 A 
ATOM      9  C9  IND d   1       0.375  -0.195   1.884  0.00  0.00    -0.096 A 
ATOM     10  HN1 IND d   1       1.858  -1.071  -0.656  0.00  0.00     0.298 HD
ENDROOT
TORSDOF 0
ENDMDL
