MODEL 1
REMARK minimizedAffinity -3.40021348
REMARK minimizedRMSD -1
REMARK  0 active torsions:
REMARK  status: ('A' for Active; 'I' for Inactive)
ROOT
ATOM      1  N1  IND d   1       1.218  -0.314  -0.804  0.00  0.00    -0.196 N 
ATOM      2  C2  IND d   1       0.133  -0.604  -1.585  0.00  0.00     0.054 A 
ATOM      3  C3  IND d   1      -1.011  -0.313  -0.926  0.00  0.00    -0.031 A 
ATOM      4  C4  IND d   1      -1.337   0.742   1.400  0.00  0.00     0.051 A 
ATOM      5  C5  IND d   1      -0.643   1.147   2.505  0.00  0.00    -0.031 A 
ATOM      6  C6  IND d   1       0.734   1.088   2.564  0.00  0.00     0.015 A 
ATOM      7  C7  IND d   1       1.473   0.629   1.511  0.00  0.00    -0.016 A 
ATOM      8  C8  IND d   1       0.772   0.210   0.389  0.00  0.00    -0.047 A 
ATOM      9  C9  IND d   1      -0.628   0.228   0.340  0.00  0.00    -0.096 A 
ATOM     10  HN1 IND d   1       2.040  -0.438  -1.023  0.00  0.00     0.298 HD
ENDROOT
TORSDOF 0
ENDMDL
