MODEL 1
REMARK minimizedAffinity -3.97155046
REMARK minimizedRMSD -1
REMARK  0 active torsions:
REMARK  status: ('A' for Active; 'I' for Inactive)
ROOT
ATOM      1  N1  IND d   1       0.682  -0.766  -0.471  0.00  0.00    -0.196 N 
ATOM      2  C2  IND d   1       0.256  -0.721  -1.769  0.00  0.00     0.054 A 
ATOM      3  C3  IND d   1      -0.933  -0.082  -1.852  0.00  0.00    -0.031 A 
ATOM      4  C4  IND d   1      -2.308   1.060   0.001  0.00  0.00     0.051 A 
ATOM      5  C5  IND d   1      -2.344   1.251   1.353  0.00  0.00    -0.031 A 
ATOM      6  C6  IND d   1      -1.351   0.772   2.184  0.00  0.00     0.015 A 
ATOM      7  C7  IND d   1      -0.275   0.091   1.689  0.00  0.00    -0.016 A 
ATOM      8  C8  IND d   1      -0.239  -0.111   0.316  0.00  0.00    -0.047 A 
ATOM      9  C9  IND d   1      -1.265   0.336  -0.527  0.00  0.00    -0.096 A 
ATOM     10  HN1 IND d   1       1.404  -1.141  -0.193  0.00  0.00     0.298 HD
ENDROOT
TORSDOF 0
ENDMDL
