MODEL 1
REMARK minimizedAffinity -3.93307185
REMARK minimizedRMSD -1
REMARK  0 active torsions:
REMARK  status: ('A' for Active; 'I' for Inactive)
ROOT
ATOM      1  N1  IND d   1      -0.233  -0.400  -0.935  0.00  0.00    -0.196 N 
ATOM      2  C2  IND d   1       1.102  -0.387  -1.229  0.00  0.00     0.054 A 
ATOM      3  C3  IND d   1       1.799   0.191  -0.226  0.00  0.00    -0.031 A 
ATOM      4  C4  IND d   1       0.964   1.096   2.035  0.00  0.00     0.051 A 
ATOM      5  C5  IND d   1      -0.179   1.337   2.744  0.00  0.00    -0.031 A 
ATOM      6  C6  IND d   1      -1.425   1.001   2.253  0.00  0.00     0.015 A 
ATOM      7  C7  IND d   1      -1.572   0.399   1.035  0.00  0.00    -0.016 A 
ATOM      8  C8  IND d   1      -0.413   0.161   0.310  0.00  0.00    -0.047 A 
ATOM      9  C9  IND d   1       0.850   0.538   0.784  0.00  0.00    -0.096 A 
ATOM     10  HN1 IND d   1      -0.856  -0.706  -1.443  0.00  0.00     0.298 HD
ENDROOT
TORSDOF 0
ENDMDL
