MODEL 1
REMARK minimizedAffinity -5.49506664
REMARK minimizedRMSD -1
REMARK  0 active torsions:
REMARK  status: ('A' for Active; 'I' for Inactive)
ROOT
ATOM      1  N1  IND d   1       2.179  -0.944   0.477  0.00  0.00    -0.196 N 
ATOM      2  C2  IND d   1       2.902  -0.632   1.595  0.00  0.00     0.054 A 
ATOM      3  C3  IND d   1       2.133   0.042   2.479  0.00  0.00    -0.031 A 
ATOM      4  C4  IND d   1      -0.364   0.654   2.341  0.00  0.00     0.051 A 
ATOM      5  C5  IND d   1      -1.439   0.613   1.497  0.00  0.00    -0.031 A 
ATOM      6  C6  IND d   1      -1.361   0.037   0.246  0.00  0.00     0.015 A 
ATOM      7  C7  IND d   1      -0.204  -0.533  -0.206  0.00  0.00    -0.016 A 
ATOM      8  C8  IND d   1       0.891  -0.486   0.646  0.00  0.00    -0.047 A 
ATOM      9  C9  IND d   1       0.830   0.135   1.900  0.00  0.00    -0.096 A 
ATOM     10  HN1 IND d   1       2.479  -1.356  -0.216  0.00  0.00     0.298 HD
ENDROOT
TORSDOF 0
ENDMDL
