MODEL 1
REMARK minimizedAffinity -4.20205355
REMARK minimizedRMSD -1
REMARK  0 active torsions:
REMARK  status: ('A' for Active; 'I' for Inactive)
ROOT
ATOM      1  N1  IND d   1       2.035  -1.166  -0.166  0.00  0.00    -0.196 N 
ATOM      2  C2  IND d   1       2.861  -0.943   0.900  0.00  0.00     0.054 A 
ATOM      3  C3  IND d   1       2.266  -0.118   1.791  0.00  0.00    -0.031 A 
ATOM      4  C4  IND d   1      -0.097   0.901   1.752  0.00  0.00     0.051 A 
ATOM      5  C5  IND d   1      -1.209   1.013   0.966  0.00  0.00    -0.031 A 
ATOM      6  C6  IND d   1      -1.300   0.389  -0.262  0.00  0.00     0.015 A 
ATOM      7  C7  IND d   1      -0.281  -0.382  -0.745  0.00  0.00    -0.016 A 
ATOM      8  C8  IND d   1       0.852  -0.492   0.048  0.00  0.00    -0.047 A 
ATOM      9  C9  IND d   1       0.967   0.173   1.275  0.00  0.00    -0.096 A 
ATOM     10  HN1 IND d   1       2.222  -1.647  -0.853  0.00  0.00     0.298 HD
ENDROOT
TORSDOF 0
ENDMDL
