MODEL 1
REMARK minimizedAffinity -4.7992382
REMARK minimizedRMSD -1
REMARK  2 active torsions:
REMARK  status: ('A' for Active; 'I' for Inactive)
REMARK    1  A    between atoms: C1_2  and  C2_3 
REMARK    2  A    between atoms: C2_3  and  C3_4 
ROOT
ATOM      1  C3  UNL d   1       0.160  -0.102  -0.358  0.00  0.00    -0.075 A 
ATOM      2  C4  UNL d   1      -0.623  -0.961   0.428  0.00  0.00     0.002 A 
ATOM      3  C5  UNL d   1      -0.618  -2.336   0.193  0.00  0.00     0.002 A 
ATOM      4  C6  UNL d   1       0.158  -2.868  -0.834  0.00  0.00    -0.004 A 
ATOM      5  C7  UNL d   1       0.926  -2.023  -1.632  0.00  0.00     0.002 A 
ATOM      6  C8  UNL d   1       0.928  -0.647  -1.396  0.00  0.00     0.002 A 
ENDROOT
BRANCH   1   7
ATOM      7  C2  UNL d   1       0.182   1.384  -0.090  0.00  0.00     0.056 C 
BRANCH   7   8
ATOM      8  C1  UNL d   1       1.580   2.009  -0.160  0.00  0.00     0.007 C 
ATOM      9  C   UNL d   1       1.789   3.127   0.852  0.00  0.00     0.009 C 
ENDBRANCH   7   8
ENDBRANCH   1   7
TORSDOF 2
ENDMDL
