MODEL 1
REMARK minimizedAffinity -4.1211772
REMARK minimizedRMSD -1
REMARK  2 active torsions:
REMARK  status: ('A' for Active; 'I' for Inactive)
REMARK    1  A    between atoms: C1_2  and  C2_3 
REMARK    2  A    between atoms: C2_3  and  C3_4 
ROOT
ATOM      1  C3  UNL d   1       0.189   0.620   0.044  0.00  0.00    -0.075 A 
ATOM      2  C4  UNL d   1      -0.765   0.177   0.971  0.00  0.00     0.002 A 
ATOM      3  C5  UNL d   1      -0.991  -1.187   1.159  0.00  0.00     0.002 A 
ATOM      4  C6  UNL d   1      -0.275  -2.123   0.417  0.00  0.00    -0.004 A 
ATOM      5  C7  UNL d   1       0.664  -1.694  -0.519  0.00  0.00     0.002 A 
ATOM      6  C8  UNL d   1       0.895  -0.330  -0.706  0.00  0.00     0.002 A 
ENDROOT
BRANCH   1   7
ATOM      7  C2  UNL d   1       0.459   2.094  -0.143  0.00  0.00     0.056 C 
BRANCH   7   8
ATOM      8  C1  UNL d   1       1.658   2.614   0.657  0.00  0.00     0.007 C 
ATOM      9  C   UNL d   1       1.478   4.045   1.146  0.00  0.00     0.009 C 
ENDBRANCH   7   8
ENDBRANCH   1   7
TORSDOF 2
ENDMDL
