MODEL 1
REMARK minimizedAffinity -5.19760799
REMARK minimizedRMSD -1
REMARK  2 active torsions:
REMARK  status: ('A' for Active; 'I' for Inactive)
REMARK    1  A    between atoms: C1_2  and  C2_3 
REMARK    2  A    between atoms: C2_3  and  C3_4 
ROOT
ATOM      1  C3  UNL d   1      -0.151   0.057  -0.274  0.00  0.00    -0.075 A 
ATOM      2  C4  UNL d   1      -1.099  -0.200   0.727  0.00  0.00     0.002 A 
ATOM      3  C5  UNL d   1      -1.203  -1.470   1.295  0.00  0.00     0.002 A 
ATOM      4  C6  UNL d   1      -0.370  -2.500   0.863  0.00  0.00    -0.004 A 
ATOM      5  C7  UNL d   1       0.565  -2.260  -0.142  0.00  0.00     0.002 A 
ATOM      6  C8  UNL d   1       0.674  -0.989  -0.709  0.00  0.00     0.002 A 
ENDROOT
BRANCH   1   7
ATOM      7  C2  UNL d   1      -0.013   1.437  -0.872  0.00  0.00     0.056 C 
BRANCH   7   8
ATOM      8  C1  UNL d   1       1.120   2.269  -0.264  0.00  0.00     0.007 C 
ATOM      9  C   UNL d   1       0.634   3.548   0.405  0.00  0.00     0.009 C 
ENDBRANCH   7   8
ENDBRANCH   1   7
TORSDOF 2
ENDMDL
