MODEL 1
REMARK minimizedAffinity -3.76945472
REMARK minimizedRMSD -1
REMARK  2 active torsions:
REMARK  status: ('A' for Active; 'I' for Inactive)
REMARK    1  A    between atoms: C1_2  and  C2_3 
REMARK    2  A    between atoms: C2_3  and  C3_4 
ROOT
ATOM      1  C3  UNL d   1      -0.083   0.560  -0.258  0.00  0.00    -0.075 A 
ATOM      2  C4  UNL d   1      -0.577  -0.351   0.687  0.00  0.00     0.002 A 
ATOM      3  C5  UNL d   1      -0.723  -1.700   0.363  0.00  0.00     0.002 A 
ATOM      4  C6  UNL d   1      -0.388  -2.153  -0.911  0.00  0.00    -0.004 A 
ATOM      5  C7  UNL d   1       0.089  -1.255  -1.863  0.00  0.00     0.002 A 
ATOM      6  C8  UNL d   1       0.240   0.095  -1.540  0.00  0.00     0.002 A 
ENDROOT
BRANCH   1   7
ATOM      7  C2  UNL d   1       0.105   2.016   0.096  0.00  0.00     0.056 C 
BRANCH   7   8
ATOM      8  C1  UNL d   1       1.538   2.523  -0.092  0.00  0.00     0.007 C 
ATOM      9  C   UNL d   1       1.952   3.553   0.951  0.00  0.00     0.009 C 
ENDBRANCH   7   8
ENDBRANCH   1   7
TORSDOF 2
ENDMDL
