MODEL 1
REMARK minimizedAffinity -4.85883141
REMARK minimizedRMSD -1
REMARK  2 active torsions:
REMARK  status: ('A' for Active; 'I' for Inactive)
REMARK    1  A    between atoms: C1_2  and  C2_3 
REMARK    2  A    between atoms: C2_3  and  C3_4 
ROOT
ATOM      1  C3  UNL d   1       0.101  -1.482   0.545  0.00  0.00    -0.075 A 
ATOM      2  C4  UNL d   1      -0.738  -0.808   1.445  0.00  0.00     0.002 A 
ATOM      3  C5  UNL d   1      -0.950   0.565   1.323  0.00  0.00     0.002 A 
ATOM      4  C6  UNL d   1      -0.321   1.283   0.308  0.00  0.00    -0.004 A 
ATOM      5  C7  UNL d   1       0.528   0.627  -0.581  0.00  0.00     0.002 A 
ATOM      6  C8  UNL d   1       0.739  -0.748  -0.464  0.00  0.00     0.002 A 
ENDROOT
BRANCH   1   7
ATOM      7  C2  UNL d   1       0.311  -2.973   0.655  0.00  0.00     0.056 C 
BRANCH   7   8
ATOM      8  C1  UNL d   1      -0.060  -3.750  -0.613  0.00  0.00     0.007 C 
ATOM      9  C   UNL d   1      -1.546  -3.687  -0.942  0.00  0.00     0.009 C 
ENDBRANCH   7   8
ENDBRANCH   1   7
TORSDOF 2
ENDMDL
