MODEL 1
REMARK minimizedAffinity -3.01751637
REMARK minimizedRMSD -1
REMARK  2 active torsions:
REMARK  status: ('A' for Active; 'I' for Inactive)
REMARK    1  A    between atoms: C1_2  and  C2_3 
REMARK    2  A    between atoms: C2_3  and  C3_4 
ROOT
ATOM      1  C3  UNL d   1      -0.171  -0.894  -0.356  0.00  0.00    -0.075 A 
ATOM      2  C4  UNL d   1       0.297  -1.058  -1.668  0.00  0.00     0.002 A 
ATOM      3  C5  UNL d   1       0.377  -2.329  -2.238  0.00  0.00     0.002 A 
ATOM      4  C6  UNL d   1       0.000  -3.451  -1.502  0.00  0.00    -0.004 A 
ATOM      5  C7  UNL d   1      -0.451  -3.301  -0.193  0.00  0.00     0.002 A 
ATOM      6  C8  UNL d   1      -0.536  -2.030   0.379  0.00  0.00     0.002 A 
ENDROOT
BRANCH   1   7
ATOM      7  C2  UNL d   1      -0.288   0.481   0.256  0.00  0.00     0.056 C 
BRANCH   7   8
ATOM      8  C1  UNL d   1       0.215   1.611  -0.649  0.00  0.00     0.007 C 
ATOM      9  C   UNL d   1       0.900   2.735   0.118  0.00  0.00     0.009 C 
ENDBRANCH   7   8
ENDBRANCH   1   7
TORSDOF 2
ENDMDL
