MODEL 1
REMARK minimizedAffinity -6.45078945
REMARK minimizedRMSD -1
REMARK  2 active torsions:
REMARK  status: ('A' for Active; 'I' for Inactive)
REMARK    1  A    between atoms: C1_2  and  C2_3 
REMARK    2  A    between atoms: C2_3  and  C3_4 
ROOT
ATOM      1  C3  UNL d   1      -0.185  -1.688   0.195  0.00  0.00    -0.075 A 
ATOM      2  C4  UNL d   1      -0.507  -2.157   1.477  0.00  0.00     0.002 A 
ATOM      3  C5  UNL d   1      -1.053  -1.296   2.429  0.00  0.00     0.002 A 
ATOM      4  C6  UNL d   1      -1.273   0.043   2.117  0.00  0.00    -0.004 A 
ATOM      5  C7  UNL d   1      -0.941   0.524   0.852  0.00  0.00     0.002 A 
ATOM      6  C8  UNL d   1      -0.399  -0.336  -0.104  0.00  0.00     0.002 A 
ENDROOT
BRANCH   1   7
ATOM      7  C2  UNL d   1       0.379  -2.622  -0.850  0.00  0.00     0.056 C 
BRANCH   7   8
ATOM      8  C1  UNL d   1       0.549  -1.981  -2.231  0.00  0.00     0.007 C 
ATOM      9  C   UNL d   1      -0.098  -2.787  -3.350  0.00  0.00     0.009 C 
ENDBRANCH   7   8
ENDBRANCH   1   7
TORSDOF 2
ENDMDL
