MODEL 1
REMARK minimizedAffinity -6.310431
REMARK minimizedRMSD -1
REMARK  2 active torsions:
REMARK  status: ('A' for Active; 'I' for Inactive)
REMARK    1  A    between atoms: C1_2  and  C2_3 
REMARK    2  A    between atoms: C2_3  and  C3_4 
ROOT
ATOM      1  C3  UNL d   1      -0.362  -0.350  -0.274  0.00  0.00    -0.075 A 
ATOM      2  C4  UNL d   1      -0.520  -1.109   0.894  0.00  0.00     0.002 A 
ATOM      3  C5  UNL d   1      -0.342  -2.493   0.869  0.00  0.00     0.002 A 
ATOM      4  C6  UNL d   1      -0.013  -3.134  -0.323  0.00  0.00    -0.004 A 
ATOM      5  C7  UNL d   1       0.130  -2.391  -1.493  0.00  0.00     0.002 A 
ATOM      6  C8  UNL d   1      -0.044  -1.006  -1.470  0.00  0.00     0.002 A 
ENDROOT
BRANCH   1   7
ATOM      7  C2  UNL d   1      -0.525   1.151  -0.248  0.00  0.00     0.056 C 
BRANCH   7   8
ATOM      8  C1  UNL d   1       0.769   1.914   0.052  0.00  0.00     0.007 C 
ATOM      9  C   UNL d   1       0.557   3.413   0.224  0.00  0.00     0.009 C 
ENDBRANCH   7   8
ENDBRANCH   1   7
TORSDOF 2
ENDMDL
