MODEL 1
REMARK minimizedAffinity -5.86681509
REMARK minimizedRMSD -1
REMARK  2 active torsions:
REMARK  status: ('A' for Active; 'I' for Inactive)
REMARK    1  A    between atoms: C1_2  and  C2_3 
REMARK    2  A    between atoms: C2_3  and  C3_4 
ROOT
ATOM      1  C3  UNL d   1      -0.068  -1.312  -0.261  0.00  0.00    -0.075 A 
ATOM      2  C4  UNL d   1       0.479  -1.346  -1.552  0.00  0.00     0.002 A 
ATOM      3  C5  UNL d   1       0.608  -2.555  -2.235  0.00  0.00     0.002 A 
ATOM      4  C6  UNL d   1       0.203  -3.745  -1.634  0.00  0.00    -0.004 A 
ATOM      5  C7  UNL d   1      -0.327  -3.725  -0.346  0.00  0.00     0.002 A 
ATOM      6  C8  UNL d   1      -0.462  -2.516   0.338  0.00  0.00     0.002 A 
ENDROOT
BRANCH   1   7
ATOM      7  C2  UNL d   1      -0.238  -0.002   0.472  0.00  0.00     0.056 C 
BRANCH   7   8
ATOM      8  C1  UNL d   1      -0.182   1.232  -0.435  0.00  0.00     0.007 C 
ATOM      9  C   UNL d   1       0.913   2.215  -0.043  0.00  0.00     0.009 C 
ENDBRANCH   7   8
ENDBRANCH   1   7
TORSDOF 2
ENDMDL
