MODEL 1
REMARK minimizedAffinity -5.51342487
REMARK minimizedRMSD -1
REMARK  2 active torsions:
REMARK  status: ('A' for Active; 'I' for Inactive)
REMARK    1  A    between atoms: C1_2  and  C2_3 
REMARK    2  A    between atoms: C2_3  and  C3_4 
ROOT
ATOM      1  C3  UNL d   1      -0.298  -1.261  -0.352  0.00  0.00    -0.075 A 
ATOM      2  C4  UNL d   1       0.089  -1.451  -1.687  0.00  0.00     0.002 A 
ATOM      3  C5  UNL d   1       0.457  -2.717  -2.143  0.00  0.00     0.002 A 
ATOM      4  C6  UNL d   1       0.453  -3.804  -1.271  0.00  0.00    -0.004 A 
ATOM      5  C7  UNL d   1       0.086  -3.623   0.060  0.00  0.00     0.002 A 
ATOM      6  C8  UNL d   1      -0.287  -2.358   0.519  0.00  0.00     0.002 A 
ENDROOT
BRANCH   1   7
ATOM      7  C2  UNL d   1      -0.726   0.101   0.141  0.00  0.00     0.056 C 
BRANCH   7   8
ATOM      8  C1  UNL d   1      -1.074   0.143   1.632  0.00  0.00     0.007 C 
ATOM      9  C   UNL d   1      -2.559   0.354   1.896  0.00  0.00     0.009 C 
ENDBRANCH   7   8
ENDBRANCH   1   7
TORSDOF 2
ENDMDL
