MODEL 1
REMARK minimizedAffinity -4.98080492
REMARK minimizedRMSD -1
REMARK  2 active torsions:
REMARK  status: ('A' for Active; 'I' for Inactive)
REMARK    1  A    between atoms: C1_2  and  C2_3 
REMARK    2  A    between atoms: C2_3  and  C3_4 
ROOT
ATOM      1  C3  UNL d   1       0.356  -0.930  -0.809  0.00  0.00    -0.075 A 
ATOM      2  C4  UNL d   1       0.739  -1.874  -1.772  0.00  0.00     0.002 A 
ATOM      3  C5  UNL d   1       0.550  -3.237  -1.542  0.00  0.00     0.002 A 
ATOM      4  C6  UNL d   1      -0.014  -3.673  -0.345  0.00  0.00    -0.004 A 
ATOM      5  C7  UNL d   1      -0.383  -2.745   0.626  0.00  0.00     0.002 A 
ATOM      6  C8  UNL d   1      -0.199  -1.380   0.397  0.00  0.00     0.002 A 
ENDROOT
BRANCH   1   7
ATOM      7  C2  UNL d   1       0.530   0.548  -1.063  0.00  0.00     0.056 C 
BRANCH   7   8
ATOM      8  C1  UNL d   1      -0.097   1.445   0.009  0.00  0.00     0.007 C 
ATOM      9  C   UNL d   1       0.683   2.730   0.249  0.00  0.00     0.009 C 
ENDBRANCH   7   8
ENDBRANCH   1   7
TORSDOF 2
ENDMDL
