MODEL 1
REMARK minimizedAffinity 1.2408967
REMARK minimizedRMSD -1
REMARK  0 active torsions:
REMARK  status: ('A' for Active; 'I' for Inactive)
ROOT
ATOM      1  C2' OXE d   1       0.359   1.296  -0.380  0.00  0.00     0.078 C 
ATOM      2  C1' OXE d   1      -1.888   1.159   1.297  0.00  0.00     0.078 C 
ATOM      3  C1  OXE d   1      -0.953  -0.024   1.277  0.00  0.00    -0.078 A 
ATOM      4  C2  OXE d   1       0.118   0.032   0.418  0.00  0.00    -0.078 A 
ATOM      5  C3  OXE d   1       1.042  -1.009   0.400  0.00  0.00     0.003 A 
ATOM      6  C4  OXE d   1       0.807  -2.178   1.134  0.00  0.00    -0.002 A 
ATOM      7  C5  OXE d   1      -0.299  -2.272   1.984  0.00  0.00    -0.002 A 
ATOM      8  C6  OXE d   1      -1.164  -1.190   2.099  0.00  0.00     0.003 A 
ENDROOT
TORSDOF 0
ENDMDL
