MODEL 1
REMARK minimizedAffinity -3.77007604
REMARK minimizedRMSD -1
REMARK  0 active torsions:
REMARK  status: ('A' for Active; 'I' for Inactive)
ROOT
ATOM      1  C2' OXE d   1       0.467   0.940  -0.021  0.00  0.00     0.078 C 
ATOM      2  C1' OXE d   1       1.347  -1.688   0.422  0.00  0.00     0.078 C 
ATOM      3  C1  OXE d   1       0.109  -1.229   1.151  0.00  0.00    -0.078 A 
ATOM      4  C2  OXE d   1      -0.288   0.074   0.964  0.00  0.00    -0.078 A 
ATOM      5  C3  OXE d   1      -1.454   0.533   1.570  0.00  0.00     0.003 A 
ATOM      6  C4  OXE d   1      -2.140  -0.272   2.487  0.00  0.00    -0.002 A 
ATOM      7  C5  OXE d   1      -1.731  -1.589   2.722  0.00  0.00    -0.002 A 
ATOM      8  C6  OXE d   1      -0.635  -2.095   2.031  0.00  0.00     0.003 A 
ENDROOT
TORSDOF 0
ENDMDL
