MODEL 1
REMARK minimizedAffinity -4.50960493
REMARK minimizedRMSD -1
REMARK  0 active torsions:
REMARK  status: ('A' for Active; 'I' for Inactive)
ROOT
ATOM      1  C2' OXE d   1       4.116   1.804  -1.909  0.00  0.00     0.078 C 
ATOM      2  C1' OXE d   1       1.751   1.112  -0.564  0.00  0.00     0.078 C 
ATOM      3  C1  OXE d   1       1.626   1.732  -1.934  0.00  0.00    -0.078 A 
ATOM      4  C2  OXE d   1       2.787   2.110  -2.564  0.00  0.00    -0.078 A 
ATOM      5  C3  OXE d   1       2.731   2.637  -3.852  0.00  0.00     0.003 A 
ATOM      6  C4  OXE d   1       1.497   2.927  -4.447  0.00  0.00    -0.002 A 
ATOM      7  C5  OXE d   1       0.302   2.585  -3.805  0.00  0.00    -0.002 A 
ATOM      8  C6  OXE d   1       0.350   1.950  -2.569  0.00  0.00     0.003 A 
ENDROOT
TORSDOF 0
ENDMDL
