MODEL 1
REMARK minimizedAffinity -5.77705193
REMARK minimizedRMSD -1
REMARK  0 active torsions:
REMARK  status: ('A' for Active; 'I' for Inactive)
ROOT
ATOM      1  C2' OXE d   1      -0.024   1.124   0.611  0.00  0.00     0.078 C 
ATOM      2  C1' OXE d   1       0.947   0.172  -1.845  0.00  0.00     0.078 C 
ATOM      3  C1  OXE d   1       0.354  -0.831  -0.886  0.00  0.00    -0.078 A 
ATOM      4  C2  OXE d   1      -0.076  -0.363   0.332  0.00  0.00    -0.078 A 
ATOM      5  C3  OXE d   1      -0.681  -1.236   1.231  0.00  0.00     0.003 A 
ATOM      6  C4  OXE d   1      -0.716  -2.611   0.969  0.00  0.00    -0.002 A 
ATOM      7  C5  OXE d   1      -0.247  -3.114  -0.249  0.00  0.00    -0.002 A 
ATOM      8  C6  OXE d   1       0.251  -2.234  -1.203  0.00  0.00     0.003 A 
ENDROOT
TORSDOF 0
ENDMDL
