MODEL 1
REMARK minimizedAffinity -2.68562675
REMARK minimizedRMSD -1
REMARK  0 active torsions:
REMARK  status: ('A' for Active; 'I' for Inactive)
ROOT
ATOM      1  C2' OXE d   1       0.696  -2.289   2.851  0.00  0.00     0.078 C 
ATOM      2  C1' OXE d   1       1.672  -0.362   1.058  0.00  0.00     0.078 C 
ATOM      3  C1  OXE d   1       0.266  -0.868   0.850  0.00  0.00    -0.078 A 
ATOM      4  C2  OXE d   1      -0.187  -1.845   1.704  0.00  0.00    -0.078 A 
ATOM      5  C3  OXE d   1      -1.494  -2.308   1.590  0.00  0.00     0.003 A 
ATOM      6  C4  OXE d   1      -2.301  -1.899   0.521  0.00  0.00    -0.002 A 
ATOM      7  C5  OXE d   1      -1.845  -0.935  -0.384  0.00  0.00    -0.002 A 
ATOM      8  C6  OXE d   1      -0.582  -0.379  -0.208  0.00  0.00     0.003 A 
ENDROOT
TORSDOF 0
ENDMDL
