MODEL 1
REMARK minimizedAffinity -4.74470711
REMARK minimizedRMSD -1
REMARK  0 active torsions:
REMARK  status: ('A' for Active; 'I' for Inactive)
ROOT
ATOM      1  C2' OXE d   1       0.475   1.181  -0.245  0.00  0.00     0.078 C 
ATOM      2  C1' OXE d   1      -1.802   2.063   1.140  0.00  0.00     0.078 C 
ATOM      3  C1  OXE d   1      -1.412   0.613   1.278  0.00  0.00    -0.078 A 
ATOM      4  C2  OXE d   1      -0.324   0.179   0.560  0.00  0.00    -0.078 A 
ATOM      5  C3  OXE d   1       0.111  -1.136   0.694  0.00  0.00     0.003 A 
ATOM      6  C4  OXE d   1      -0.639  -2.059   1.433  0.00  0.00    -0.002 A 
ATOM      7  C5  OXE d   1      -1.774  -1.647   2.141  0.00  0.00    -0.002 A 
ATOM      8  C6  OXE d   1      -2.148  -0.308   2.108  0.00  0.00     0.003 A 
ENDROOT
TORSDOF 0
ENDMDL
