MODEL 1
REMARK minimizedAffinity -4.77982378
REMARK minimizedRMSD -1
REMARK  0 active torsions:
REMARK  status: ('A' for Active; 'I' for Inactive)
ROOT
ATOM      1  C2' OXE d   1       0.680  -2.698   1.479  0.00  0.00     0.078 C 
ATOM      2  C1' OXE d   1      -2.068  -3.013   1.003  0.00  0.00     0.078 C 
ATOM      3  C1  OXE d   1      -1.486  -1.628   0.873  0.00  0.00    -0.078 A 
ATOM      4  C2  OXE d   1      -0.149  -1.475   1.153  0.00  0.00    -0.078 A 
ATOM      5  C3  OXE d   1       0.450  -0.229   0.996  0.00  0.00     0.003 A 
ATOM      6  C4  OXE d   1      -0.326   0.899   0.704  0.00  0.00    -0.002 A 
ATOM      7  C5  OXE d   1      -1.697   0.773   0.453  0.00  0.00    -0.002 A 
ATOM      8  C6  OXE d   1      -2.283  -0.488   0.492  0.00  0.00     0.003 A 
ENDROOT
TORSDOF 0
ENDMDL
