MODEL 1
REMARK minimizedAffinity -4.02648401
REMARK minimizedRMSD -1
REMARK  0 active torsions:
REMARK  status: ('A' for Active; 'I' for Inactive)
ROOT
ATOM      1  C2' OXE d   1       0.778   0.688  -0.414  0.00  0.00     0.078 C 
ATOM      2  C1' OXE d   1       2.335  -1.586   0.121  0.00  0.00     0.078 C 
ATOM      3  C1  OXE d   1       0.911  -1.577   0.616  0.00  0.00    -0.078 A 
ATOM      4  C2  OXE d   1       0.171  -0.441   0.391  0.00  0.00    -0.078 A 
ATOM      5  C3  OXE d   1      -1.166  -0.401   0.778  0.00  0.00     0.003 A 
ATOM      6  C4  OXE d   1      -1.717  -1.446   1.530  0.00  0.00    -0.002 A 
ATOM      7  C5  OXE d   1      -0.969  -2.595   1.805  0.00  0.00    -0.002 A 
ATOM      8  C6  OXE d   1       0.331  -2.694   1.320  0.00  0.00     0.003 A 
ENDROOT
TORSDOF 0
ENDMDL
