MODEL 1
REMARK minimizedAffinity -5.07489729
REMARK minimizedRMSD -1
REMARK  0 active torsions:
REMARK  status: ('A' for Active; 'I' for Inactive)
ROOT
ATOM      1  C2' OXE d   1      -1.663  -2.791   0.942  0.00  0.00     0.078 C 
ATOM      2  C1' OXE d   1      -2.365  -0.100   0.561  0.00  0.00     0.078 C 
ATOM      3  C1  OXE d   1      -0.903  -0.463   0.481  0.00  0.00    -0.078 A 
ATOM      4  C2  OXE d   1      -0.564  -1.774   0.715  0.00  0.00    -0.078 A 
ATOM      5  C3  OXE d   1       0.764  -2.174   0.600  0.00  0.00     0.003 A 
ATOM      6  C4  OXE d   1       1.775  -1.226   0.400  0.00  0.00    -0.002 A 
ATOM      7  C5  OXE d   1       1.455   0.121   0.198  0.00  0.00    -0.002 A 
ATOM      8  C6  OXE d   1       0.120   0.511   0.194  0.00  0.00     0.003 A 
ENDROOT
TORSDOF 0
ENDMDL
