MODEL 1
REMARK minimizedAffinity -4.2513237
REMARK minimizedRMSD -1
REMARK  0 active torsions:
REMARK  status: ('A' for Active; 'I' for Inactive)
ROOT
ATOM      1  C2' OXE d   1       0.928   3.119  -3.220  0.00  0.00     0.078 C 
ATOM      2  C1' OXE d   1      -0.028   0.596  -3.995  0.00  0.00     0.078 C 
ATOM      3  C1  OXE d   1       0.239   0.827  -2.528  0.00  0.00    -0.078 A 
ATOM      4  C2  OXE d   1       0.751   2.049  -2.164  0.00  0.00    -0.078 A 
ATOM      5  C3  OXE d   1       0.964   2.334  -0.818  0.00  0.00     0.003 A 
ATOM      6  C4  OXE d   1       0.807   1.336   0.151  0.00  0.00    -0.002 A 
ATOM      7  C5  OXE d   1       0.324   0.072  -0.204  0.00  0.00    -0.002 A 
ATOM      8  C6  OXE d   1      -0.004  -0.185  -1.531  0.00  0.00     0.003 A 
ENDROOT
TORSDOF 0
ENDMDL
