MODEL 1
REMARK minimizedAffinity -2.74795818
REMARK minimizedRMSD -1
REMARK  0 active torsions:
REMARK  status: ('A' for Active; 'I' for Inactive)
ROOT
ATOM      1  C2' OXE d   1       0.471  -2.659   0.869  0.00  0.00     0.078 C 
ATOM      2  C1' OXE d   1       2.644  -0.949   1.354  0.00  0.00     0.078 C 
ATOM      3  C1  OXE d   1       1.526  -0.436   0.481  0.00  0.00    -0.078 A 
ATOM      4  C2  OXE d   1       0.490  -1.296   0.210  0.00  0.00    -0.078 A 
ATOM      5  C3  OXE d   1      -0.593  -0.855  -0.545  0.00  0.00     0.003 A 
ATOM      6  C4  OXE d   1      -0.563   0.403  -1.159  0.00  0.00    -0.002 A 
ATOM      7  C5  OXE d   1       0.502   1.280  -0.929  0.00  0.00    -0.002 A 
ATOM      8  C6  OXE d   1       1.532   0.893  -0.079  0.00  0.00     0.003 A 
ENDROOT
TORSDOF 0
ENDMDL
