MODEL 1
REMARK minimizedAffinity -4.38221169
REMARK minimizedRMSD -1
REMARK  0 active torsions:
REMARK  status: ('A' for Active; 'I' for Inactive)
ROOT
ATOM      1  C2' OXE d   1      -0.112  -2.728   1.226  0.00  0.00     0.078 C 
ATOM      2  C1' OXE d   1       2.075  -1.953  -0.354  0.00  0.00     0.078 C 
ATOM      3  C1  OXE d   1       0.970  -0.949  -0.140  0.00  0.00    -0.078 A 
ATOM      4  C2  OXE d   1      -0.118  -1.352   0.595  0.00  0.00    -0.078 A 
ATOM      5  C3  OXE d   1      -1.140  -0.448   0.868  0.00  0.00     0.003 A 
ATOM      6  C4  OXE d   1      -1.143   0.820   0.273  0.00  0.00    -0.002 A 
ATOM      7  C5  OXE d   1      -0.063   1.237  -0.513  0.00  0.00    -0.002 A 
ATOM      8  C6  OXE d   1       1.019   0.382  -0.694  0.00  0.00     0.003 A 
ENDROOT
TORSDOF 0
ENDMDL
