MODEL 1
REMARK minimizedAffinity -2.42128825
REMARK minimizedRMSD -1
REMARK  0 active torsions:
REMARK  status: ('A' for Active; 'I' for Inactive)
ROOT
ATOM      1  C2' OXE d   1       1.863   2.566  -1.422  0.00  0.00     0.078 C 
ATOM      2  C1' OXE d   1       1.463   0.606  -3.392  0.00  0.00     0.078 C 
ATOM      3  C1  OXE d   1       1.107   0.256  -1.968  0.00  0.00    -0.078 A 
ATOM      4  C2  OXE d   1       1.350   1.205  -1.004  0.00  0.00    -0.078 A 
ATOM      5  C3  OXE d   1       0.989   0.954   0.316  0.00  0.00     0.003 A 
ATOM      6  C4  OXE d   1       0.525  -0.311   0.696  0.00  0.00    -0.002 A 
ATOM      7  C5  OXE d   1       0.308  -1.305  -0.264  0.00  0.00    -0.002 A 
ATOM      8  C6  OXE d   1       0.554  -1.024  -1.603  0.00  0.00     0.003 A 
ENDROOT
TORSDOF 0
ENDMDL
