MODEL 1
REMARK minimizedAffinity -1.98591888
REMARK minimizedRMSD -1
REMARK  0 active torsions:
REMARK  status: ('A' for Active; 'I' for Inactive)
ROOT
ATOM      1  C2' OXE d   1       0.396  -1.135   0.630  0.00  0.00     0.078 C 
ATOM      2  C1' OXE d   1       0.397  -1.903  -2.070  0.00  0.00     0.078 C 
ATOM      3  C1  OXE d   1       0.507  -0.431  -1.757  0.00  0.00    -0.078 A 
ATOM      4  C2  OXE d   1       0.458  -0.061  -0.435  0.00  0.00    -0.078 A 
ATOM      5  C3  OXE d   1       0.610   1.279  -0.088  0.00  0.00     0.003 A 
ATOM      6  C4  OXE d   1       0.657   2.266  -1.079  0.00  0.00    -0.002 A 
ATOM      7  C5  OXE d   1       0.667   1.914  -2.433  0.00  0.00    -0.002 A 
ATOM      8  C6  OXE d   1       0.636   0.569  -2.787  0.00  0.00     0.003 A 
ENDROOT
TORSDOF 0
ENDMDL
