MODEL 1
REMARK minimizedAffinity -1.44368446
REMARK minimizedRMSD -1
REMARK  0 active torsions:
REMARK  status: ('A' for Active; 'I' for Inactive)
ROOT
ATOM      1  C2' OXE d   1       1.556   2.454  -1.458  0.00  0.00     0.078 C 
ATOM      2  C1' OXE d   1       1.931   0.428  -3.365  0.00  0.00     0.078 C 
ATOM      3  C1  OXE d   1       1.378   0.033  -2.018  0.00  0.00    -0.078 A 
ATOM      4  C2  OXE d   1       1.242   1.023  -1.075  0.00  0.00    -0.078 A 
ATOM      5  C3  OXE d   1       0.686   0.722   0.165  0.00  0.00     0.003 A 
ATOM      6  C4  OXE d   1       0.408  -0.605   0.514  0.00  0.00    -0.002 A 
ATOM      7  C5  OXE d   1       0.577  -1.634  -0.418  0.00  0.00    -0.002 A 
ATOM      8  C6  OXE d   1       1.020  -1.327  -1.700  0.00  0.00     0.003 A 
ENDROOT
TORSDOF 0
ENDMDL
