MODEL 1
REMARK minimizedAffinity 10.6532173
REMARK minimizedRMSD -1
REMARK  1 active torsions:
REMARK  status: ('A' for Active; 'I' for Inactive)
REMARK    1  A    between atoms: C1_2  and  C2_3 
ROOT
ATOM      1  C2  UNL d   1       4.984   4.865   3.566  0.00  0.00    -0.081 A 
ATOM      2  C3  UNL d   1       4.064   4.247   2.710  0.00  0.00     0.006 A 
ATOM      3  C4  UNL d   1       4.109   4.482   1.334  0.00  0.00     0.002 A 
ATOM      4  C5  UNL d   1       5.078   5.331   0.790  0.00  0.00    -0.080 A 
ATOM      5  C6  UNL d   1       5.157   5.568  -0.689  0.00  0.00     0.076 C 
ATOM      6  C7  UNL d   1       5.987   5.962   1.646  0.00  0.00     0.002 A 
ATOM      7  C8  UNL d   1       5.942   5.729   3.023  0.00  0.00     0.006 A 
ENDROOT
BRANCH   1   8
ATOM      8  C1  UNL d   1       4.979   4.564   5.043  0.00  0.00     0.054 C 
ATOM      9  C   UNL d   1       5.974   3.465   5.387  0.00  0.00     0.018 C 
ENDBRANCH   1   8
TORSDOF 1
ENDMDL
