MODEL 1
REMARK minimizedAffinity 10.4850254
REMARK minimizedRMSD -1
REMARK  1 active torsions:
REMARK  status: ('A' for Active; 'I' for Inactive)
REMARK    1  A    between atoms: C1_2  and  C2_3 
ROOT
ATOM      1  C2  UNL d   1      -3.217   2.695   2.621  0.00  0.00    -0.081 A 
ATOM      2  C3  UNL d   1      -3.002   3.804   3.448  0.00  0.00     0.006 A 
ATOM      3  C4  UNL d   1      -3.893   4.880   3.435  0.00  0.00     0.002 A 
ATOM      4  C5  UNL d   1      -5.016   4.861   2.602  0.00  0.00    -0.080 A 
ATOM      5  C6  UNL d   1      -5.996   5.997   2.601  0.00  0.00     0.076 C 
ATOM      6  C7  UNL d   1      -5.221   3.761   1.762  0.00  0.00     0.002 A 
ATOM      7  C8  UNL d   1      -4.331   2.685   1.774  0.00  0.00     0.006 A 
ENDROOT
BRANCH   1   8
ATOM      8  C1  UNL d   1      -2.294   1.504   2.679  0.00  0.00     0.054 C 
ATOM      9  C   UNL d   1      -3.073   0.198   2.651  0.00  0.00     0.018 C 
ENDBRANCH   1   8
TORSDOF 1
ENDMDL
