MODEL 1
REMARK minimizedAffinity 14.4203634
REMARK minimizedRMSD -1
REMARK  1 active torsions:
REMARK  status: ('A' for Active; 'I' for Inactive)
REMARK    1  A    between atoms: C1_2  and  C2_3 
ROOT
ATOM      1  C2  UNL d   1      -3.361  -1.667   1.251  0.00  0.00    -0.081 A 
ATOM      2  C3  UNL d   1      -3.847  -1.454   2.547  0.00  0.00     0.006 A 
ATOM      3  C4  UNL d   1      -3.643  -0.229   3.187  0.00  0.00     0.002 A 
ATOM      4  C5  UNL d   1      -2.959   0.805   2.540  0.00  0.00    -0.080 A 
ATOM      5  C6  UNL d   1      -2.760   2.135   3.204  0.00  0.00     0.076 C 
ATOM      6  C7  UNL d   1      -2.458   0.587   1.252  0.00  0.00     0.002 A 
ATOM      7  C8  UNL d   1      -2.661  -0.638   0.611  0.00  0.00     0.006 A 
ENDROOT
BRANCH   1   8
ATOM      8  C1  UNL d   1      -3.635  -2.964   0.533  0.00  0.00     0.054 C 
ATOM      9  C   UNL d   1      -4.459  -2.736  -0.726  0.00  0.00     0.018 C 
ENDBRANCH   1   8
TORSDOF 1
ENDMDL
