MODEL 1
REMARK minimizedAffinity 11.9386616
REMARK minimizedRMSD -1
REMARK  1 active torsions:
REMARK  status: ('A' for Active; 'I' for Inactive)
REMARK    1  A    between atoms: C1_2  and  C2_3 
ROOT
ATOM      1  C2  UNL d   1      -3.238   4.297   3.741  0.00  0.00    -0.081 A 
ATOM      2  C3  UNL d   1      -4.149   3.780   2.812  0.00  0.00     0.006 A 
ATOM      3  C4  UNL d   1      -3.949   2.515   2.253  0.00  0.00     0.002 A 
ATOM      4  C5  UNL d   1      -2.840   1.745   2.619  0.00  0.00    -0.080 A 
ATOM      5  C6  UNL d   1      -2.630   0.373   2.049  0.00  0.00     0.076 C 
ATOM      6  C7  UNL d   1      -1.921   2.269   3.534  0.00  0.00     0.002 A 
ATOM      7  C8  UNL d   1      -2.119   3.533   4.093  0.00  0.00     0.006 A 
ENDROOT
BRANCH   1   8
ATOM      8  C1  UNL d   1      -3.485   5.633   4.395  0.00  0.00     0.054 C 
ATOM      9  C   UNL d   1      -2.357   5.999   5.349  0.00  0.00     0.018 C 
ENDBRANCH   1   8
TORSDOF 1
ENDMDL
