MODEL 1
REMARK minimizedAffinity -4.08302641
REMARK minimizedRMSD -1
REMARK  1 active torsions:
REMARK  status: ('A' for Active; 'I' for Inactive)
REMARK    1  A    between atoms: C1_2  and  C2_3 
ROOT
ATOM      1  C2  UNL d   1       5.066  -1.878   4.754  0.00  0.00    -0.081 A 
ATOM      2  C3  UNL d   1       3.915  -2.560   4.341  0.00  0.00     0.006 A 
ATOM      3  C4  UNL d   1       3.698  -3.884   4.731  0.00  0.00     0.002 A 
ATOM      4  C5  UNL d   1       4.623  -4.544   5.547  0.00  0.00    -0.080 A 
ATOM      5  C6  UNL d   1       4.387  -5.955   5.999  0.00  0.00     0.076 C 
ATOM      6  C7  UNL d   1       5.781  -3.868   5.946  0.00  0.00     0.002 A 
ATOM      7  C8  UNL d   1       5.999  -2.545   5.555  0.00  0.00     0.006 A 
ENDROOT
BRANCH   1   8
ATOM      8  C1  UNL d   1       5.272  -0.430   4.387  0.00  0.00     0.054 C 
ATOM      9  C   UNL d   1       5.999   0.322   5.492  0.00  0.00     0.018 C 
ENDBRANCH   1   8
TORSDOF 1
ENDMDL
