MODEL 1
REMARK minimizedAffinity 5.07203245
REMARK minimizedRMSD -1
REMARK  1 active torsions:
REMARK  status: ('A' for Active; 'I' for Inactive)
REMARK    1  A    between atoms: C1_2  and  C2_3 
ROOT
ATOM      1  C2  UNL d   1      -4.647   4.680   2.663  0.00  0.00    -0.081 A 
ATOM      2  C3  UNL d   1      -5.166   5.581   3.601  0.00  0.00     0.006 A 
ATOM      3  C4  UNL d   1      -4.391   6.000   4.685  0.00  0.00     0.002 A 
ATOM      4  C5  UNL d   1      -3.083   5.532   4.844  0.00  0.00    -0.080 A 
ATOM      5  C6  UNL d   1      -2.229   5.997   5.987  0.00  0.00     0.076 C 
ATOM      6  C7  UNL d   1      -2.570   4.618   3.917  0.00  0.00     0.002 A 
ATOM      7  C8  UNL d   1      -3.345   4.198   2.833  0.00  0.00     0.006 A 
ENDROOT
BRANCH   1   8
ATOM      8  C1  UNL d   1      -5.458   4.276   1.457  0.00  0.00     0.054 C 
ATOM      9  C   UNL d   1      -5.916   5.493   0.666  0.00  0.00     0.018 C 
ENDBRANCH   1   8
TORSDOF 1
ENDMDL
