MODEL 1
REMARK minimizedAffinity 14.3947878
REMARK minimizedRMSD -1
REMARK  1 active torsions:
REMARK  status: ('A' for Active; 'I' for Inactive)
REMARK    1  A    between atoms: C1_2  and  C2_3 
ROOT
ATOM      1  C2  UNL d   1       5.244  -2.024   4.775  0.00  0.00    -0.081 A 
ATOM      2  C3  UNL d   1       4.025  -2.470   4.249  0.00  0.00     0.006 A 
ATOM      3  C4  UNL d   1       3.565  -3.759   4.525  0.00  0.00     0.002 A 
ATOM      4  C5  UNL d   1       4.311  -4.621   5.336  0.00  0.00    -0.080 A 
ATOM      5  C6  UNL d   1       3.813  -5.998   5.664  0.00  0.00     0.076 C 
ATOM      6  C7  UNL d   1       5.537  -4.182   5.847  0.00  0.00     0.002 A 
ATOM      7  C8  UNL d   1       5.998  -2.893   5.571  0.00  0.00     0.006 A 
ENDROOT
BRANCH   1   8
ATOM      8  C1  UNL d   1       5.713  -0.612   4.533  0.00  0.00     0.054 C 
ATOM      9  C   UNL d   1       5.610  -0.240   3.061  0.00  0.00     0.018 C 
ENDBRANCH   1   8
TORSDOF 1
ENDMDL
