MODEL 1
REMARK minimizedAffinity 1.36980736
REMARK minimizedRMSD -1
REMARK  1 active torsions:
REMARK  status: ('A' for Active; 'I' for Inactive)
REMARK    1  A    between atoms: C1_2  and  C2_3 
ROOT
ATOM      1  C2  UNL d   1       4.502  -5.682   4.523  0.00  0.00    -0.081 A 
ATOM      2  C3  UNL d   1       4.942  -5.995   3.231  0.00  0.00     0.006 A 
ATOM      3  C4  UNL d   1       4.061  -5.936   2.149  0.00  0.00     0.002 A 
ATOM      4  C5  UNL d   1       2.728  -5.556   2.339  0.00  0.00    -0.080 A 
ATOM      5  C6  UNL d   1       1.779  -5.459   1.181  0.00  0.00     0.076 C 
ATOM      6  C7  UNL d   1       2.284  -5.260   3.632  0.00  0.00     0.002 A 
ATOM      7  C8  UNL d   1       3.164  -5.320   4.714  0.00  0.00     0.006 A 
ENDROOT
BRANCH   1   8
ATOM      8  C1  UNL d   1       5.466  -5.683   5.682  0.00  0.00     0.054 C 
ATOM      9  C   UNL d   1       6.000  -4.284   5.958  0.00  0.00     0.018 C 
ENDBRANCH   1   8
TORSDOF 1
ENDMDL
