MODEL 1
REMARK minimizedAffinity 11.2361279
REMARK minimizedRMSD -1
REMARK  1 active torsions:
REMARK  status: ('A' for Active; 'I' for Inactive)
REMARK    1  A    between atoms: C1_2  and  C2_3 
ROOT
ATOM      1  C2  UNL d   1      -3.154   5.170   4.850  0.00  0.00    -0.081 A 
ATOM      2  C3  UNL d   1      -2.462   4.044   4.387  0.00  0.00     0.006 A 
ATOM      3  C4  UNL d   1      -2.934   3.327   3.285  0.00  0.00     0.002 A 
ATOM      4  C5  UNL d   1      -4.100   3.727   2.623  0.00  0.00    -0.080 A 
ATOM      5  C6  UNL d   1      -4.600   2.984   1.421  0.00  0.00     0.076 C 
ATOM      6  C7  UNL d   1      -4.800   4.842   3.097  0.00  0.00     0.002 A 
ATOM      7  C8  UNL d   1      -4.330   5.559   4.199  0.00  0.00     0.006 A 
ENDROOT
BRANCH   1   8
ATOM      8  C1  UNL d   1      -2.613   5.983   5.998  0.00  0.00     0.054 C 
ATOM      9  C   UNL d   1      -1.091   5.993   6.000  0.00  0.00     0.018 C 
ENDBRANCH   1   8
TORSDOF 1
ENDMDL
