MODEL 1
REMARK minimizedAffinity 11.6859255
REMARK minimizedRMSD -1
REMARK  1 active torsions:
REMARK  status: ('A' for Active; 'I' for Inactive)
REMARK    1  A    between atoms: C1_2  and  C2_3 
ROOT
ATOM      1  C2  UNL d   1       1.726   1.970  -2.783  0.00  0.00    -0.081 A 
ATOM      2  C3  UNL d   1       0.777   1.452  -3.673  0.00  0.00     0.006 A 
ATOM      3  C4  UNL d   1       0.306   0.145  -3.523  0.00  0.00     0.002 A 
ATOM      4  C5  UNL d   1       0.770  -0.661  -2.479  0.00  0.00    -0.080 A 
ATOM      5  C6  UNL d   1       0.250  -2.055  -2.289  0.00  0.00     0.076 C 
ATOM      6  C7  UNL d   1       1.731  -0.150  -1.600  0.00  0.00     0.002 A 
ATOM      7  C8  UNL d   1       2.203   1.156  -1.750  0.00  0.00     0.006 A 
ENDROOT
BRANCH   1   8
ATOM      8  C1  UNL d   1       2.188   3.400  -2.903  0.00  0.00     0.054 C 
ATOM      9  C   UNL d   1       2.841   3.880  -1.615  0.00  0.00     0.018 C 
ENDBRANCH   1   8
TORSDOF 1
ENDMDL
