MODEL 1
REMARK minimizedAffinity 10.8486195
REMARK minimizedRMSD -1
REMARK  1 active torsions:
REMARK  status: ('A' for Active; 'I' for Inactive)
REMARK    1  A    between atoms: C1_2  and  C2_3 
ROOT
ATOM      1  C2  UNL d   1       2.014  -0.535  -2.168  0.00  0.00    -0.081 A 
ATOM      2  C3  UNL d   1       1.498  -1.140  -3.320  0.00  0.00     0.006 A 
ATOM      3  C4  UNL d   1       1.203  -0.375  -4.451  0.00  0.00     0.002 A 
ATOM      4  C5  UNL d   1       1.426   1.006  -4.451  0.00  0.00    -0.080 A 
ATOM      5  C6  UNL d   1       1.142   1.834  -5.669  0.00  0.00     0.076 C 
ATOM      6  C7  UNL d   1       1.926   1.614  -3.294  0.00  0.00     0.002 A 
ATOM      7  C8  UNL d   1       2.220   0.849  -2.163  0.00  0.00     0.006 A 
ENDROOT
BRANCH   1   8
ATOM      8  C1  UNL d   1       2.394  -1.367  -0.969  0.00  0.00     0.054 C 
ATOM      9  C   UNL d   1       1.873  -2.791  -1.097  0.00  0.00     0.018 C 
ENDBRANCH   1   8
TORSDOF 1
ENDMDL
