MODEL 1
REMARK minimizedAffinity 16.1962261
REMARK minimizedRMSD -1
REMARK  1 active torsions:
REMARK  status: ('A' for Active; 'I' for Inactive)
REMARK    1  A    between atoms: C1_2  and  C2_3 
ROOT
ATOM      1  C2  UNL d   1      -4.840  -0.304   3.693  0.00  0.00    -0.081 A 
ATOM      2  C3  UNL d   1      -5.999  -0.749   3.046  0.00  0.00     0.006 A 
ATOM      3  C4  UNL d   1      -5.924  -1.327   1.776  0.00  0.00     0.002 A 
ATOM      4  C5  UNL d   1      -4.689  -1.475   1.136  0.00  0.00    -0.080 A 
ATOM      5  C6  UNL d   1      -4.591  -2.121  -0.214  0.00  0.00     0.076 C 
ATOM      6  C7  UNL d   1      -3.533  -1.014   1.775  0.00  0.00     0.002 A 
ATOM      7  C8  UNL d   1      -3.607  -0.436   3.044  0.00  0.00     0.006 A 
ENDROOT
BRANCH   1   8
ATOM      8  C1  UNL d   1      -4.910   0.260   5.089  0.00  0.00     0.054 C 
ATOM      9  C   UNL d   1      -5.846  -0.555   5.969  0.00  0.00     0.018 C 
ENDBRANCH   1   8
TORSDOF 1
ENDMDL
