MODEL 1
REMARK minimizedAffinity 7.72724104
REMARK minimizedRMSD -1
REMARK  1 active torsions:
REMARK  status: ('A' for Active; 'I' for Inactive)
REMARK    1  A    between atoms: C1_2  and  C2_3 
ROOT
ATOM      1  C2  UNL d   1       1.890  -1.895  -2.709  0.00  0.00    -0.081 A 
ATOM      2  C3  UNL d   1       2.598  -1.297  -1.660  0.00  0.00     0.006 A 
ATOM      3  C4  UNL d   1       2.631   0.094  -1.529  0.00  0.00     0.002 A 
ATOM      4  C5  UNL d   1       1.950   0.908  -2.441  0.00  0.00    -0.080 A 
ATOM      5  C6  UNL d   1       1.953   2.401  -2.294  0.00  0.00     0.076 C 
ATOM      6  C7  UNL d   1       1.258   0.312  -3.500  0.00  0.00     0.002 A 
ATOM      7  C8  UNL d   1       1.225  -1.078  -3.631  0.00  0.00     0.006 A 
ENDROOT
BRANCH   1   8
ATOM      8  C1  UNL d   1       1.799  -3.396  -2.816  0.00  0.00     0.054 C 
ATOM      9  C   UNL d   1       1.395  -3.828  -4.218  0.00  0.00     0.018 C 
ENDBRANCH   1   8
TORSDOF 1
ENDMDL
