MODEL 1
REMARK minimizedAffinity 4.90495491
REMARK minimizedRMSD -1
REMARK  1 active torsions:
REMARK  status: ('A' for Active; 'I' for Inactive)
REMARK    1  A    between atoms: C1_2  and  C2_3 
ROOT
ATOM      1  C2  UNL d   1       2.508   3.322  -3.852  0.00  0.00    -0.081 A 
ATOM      2  C3  UNL d   1       1.976   2.183  -4.470  0.00  0.00     0.006 A 
ATOM      3  C4  UNL d   1       1.478   1.128  -3.702  0.00  0.00     0.002 A 
ATOM      4  C5  UNL d   1       1.498   1.196  -2.305  0.00  0.00    -0.080 A 
ATOM      5  C6  UNL d   1       0.939   0.083  -1.469  0.00  0.00     0.076 C 
ATOM      6  C7  UNL d   1       2.045   2.326  -1.688  0.00  0.00     0.002 A 
ATOM      7  C8  UNL d   1       2.543   3.381  -2.455  0.00  0.00     0.006 A 
ENDROOT
BRANCH   1   8
ATOM      8  C1  UNL d   1       2.985   4.489  -4.678  0.00  0.00     0.054 C 
ATOM      9  C   UNL d   1       2.235   4.576  -5.999  0.00  0.00     0.018 C 
ENDBRANCH   1   8
TORSDOF 1
ENDMDL
