MODEL 1
REMARK minimizedAffinity 3.3271513
REMARK minimizedRMSD -1
REMARK  1 active torsions:
REMARK  status: ('A' for Active; 'I' for Inactive)
REMARK    1  A    between atoms: C1_2  and  C2_3 
ROOT
ATOM      1  C2  UNL d   1      -4.506   3.394   4.539  0.00  0.00    -0.081 A 
ATOM      2  C3  UNL d   1      -5.450   2.380   4.338  0.00  0.00     0.006 A 
ATOM      3  C4  UNL d   1      -5.077   1.171   3.747  0.00  0.00     0.002 A 
ATOM      4  C5  UNL d   1      -3.752   0.953   3.354  0.00  0.00    -0.080 A 
ATOM      5  C6  UNL d   1      -3.331  -0.352   2.746  0.00  0.00     0.076 C 
ATOM      6  C7  UNL d   1      -2.812   1.972   3.538  0.00  0.00     0.002 A 
ATOM      7  C8  UNL d   1      -3.185   3.181   4.129  0.00  0.00     0.006 A 
ENDROOT
BRANCH   1   8
ATOM      8  C1  UNL d   1      -4.891   4.674   5.235  0.00  0.00     0.054 C 
ATOM      9  C   UNL d   1      -3.686   5.331   5.893  0.00  0.00     0.018 C 
ENDBRANCH   1   8
TORSDOF 1
ENDMDL
