MODEL 1
REMARK minimizedAffinity 22.6503468
REMARK minimizedRMSD -1
REMARK  0 active torsions:
REMARK  status: ('A' for Active; 'I' for Inactive)
ROOT
ATOM      1  C   UNL d   1       3.027  -2.635  -0.530  0.00  0.00     0.124 A 
ATOM      2  C1  UNL d   1       2.046  -1.888  -1.167  0.00  0.00     0.062 A 
ATOM      3  C2  UNL d   1       1.042  -2.524  -1.892  0.00  0.00     0.162 A 
ATOM      4  C3  UNL d   1       1.014  -3.916  -1.983  0.00  0.00    -0.034 A 
ATOM      5  C4  UNL d   1       2.004  -4.660  -1.340  0.00  0.00     0.162 A 
ATOM      6  C5  UNL d   1       3.005  -4.020  -0.617  0.00  0.00     0.062 A 
ATOM      7  F   UNL d   1       3.953  -4.743  -0.002  0.00  0.00    -0.097 F 
ATOM      8  F1  UNL d   1       2.007  -6.000  -1.407  0.00  0.00    -0.096 F 
ATOM      9  I   UNL d   1      -0.485  -4.871  -3.066  0.00  0.00    -0.060 I 
ATOM     10  F2  UNL d   1       0.107  -1.778  -2.498  0.00  0.00    -0.096 F 
ATOM     11  F3  UNL d   1       2.065  -0.550  -1.086  0.00  0.00    -0.097 F 
ATOM     12  F4  UNL d   1       3.992  -2.020   0.166  0.00  0.00    -0.092 F 
ENDROOT
TORSDOF 0
ENDMDL
