MODEL 1
REMARK minimizedAffinity 20.1766357
REMARK minimizedRMSD -1
REMARK  0 active torsions:
REMARK  status: ('A' for Active; 'I' for Inactive)
ROOT
ATOM      1  C   UNL d   1       2.883  -2.606  -0.893  0.00  0.00     0.124 A 
ATOM      2  C1  UNL d   1       3.167  -3.949  -1.098  0.00  0.00     0.062 A 
ATOM      3  C2  UNL d   1       2.433  -4.687  -2.022  0.00  0.00     0.162 A 
ATOM      4  C3  UNL d   1       1.406  -4.083  -2.748  0.00  0.00    -0.034 A 
ATOM      5  C4  UNL d   1       1.125  -2.732  -2.536  0.00  0.00     0.162 A 
ATOM      6  C5  UNL d   1       1.863  -1.999  -1.611  0.00  0.00     0.062 A 
ATOM      7  F   UNL d   1       1.586  -0.702  -1.414  0.00  0.00    -0.097 F 
ATOM      8  F1  UNL d   1       0.145  -2.120  -3.217  0.00  0.00    -0.096 F 
ATOM      9  I   UNL d   1       0.305  -5.183  -4.130  0.00  0.00    -0.060 I 
ATOM     10  F2  UNL d   1       2.729  -5.983  -2.200  0.00  0.00    -0.096 F 
ATOM     11  F3  UNL d   1       4.152  -4.538  -0.405  0.00  0.00    -0.097 F 
ATOM     12  F4  UNL d   1       3.591  -1.899  -0.003  0.00  0.00    -0.092 F 
ENDROOT
TORSDOF 0
ENDMDL
