MODEL 1
REMARK minimizedAffinity 30.019598
REMARK minimizedRMSD -1
REMARK  0 active torsions:
REMARK  status: ('A' for Active; 'I' for Inactive)
ROOT
ATOM      1  C   UNL d   1       1.573   3.312   1.207  0.00  0.00     0.124 A 
ATOM      2  C1  UNL d   1       0.418   4.081   1.212  0.00  0.00     0.062 A 
ATOM      3  C2  UNL d   1      -0.757   3.575   1.762  0.00  0.00     0.162 A 
ATOM      4  C3  UNL d   1      -0.782   2.293   2.311  0.00  0.00    -0.034 A 
ATOM      5  C4  UNL d   1       0.384   1.526   2.302  0.00  0.00     0.162 A 
ATOM      6  C5  UNL d   1       1.556   2.036   1.752  0.00  0.00     0.062 A 
ATOM      7  F   UNL d   1       2.671   1.292   1.748  0.00  0.00    -0.097 F 
ATOM      8  F1  UNL d   1       0.395   0.290   2.822  0.00  0.00    -0.096 F 
ATOM      9  I   UNL d   1      -2.536   1.533   3.133  0.00  0.00    -0.060 I 
ATOM     10  F2  UNL d   1      -1.859   4.340   1.753  0.00  0.00    -0.096 F 
ATOM     11  F3  UNL d   1       0.432   5.314   0.686  0.00  0.00    -0.097 F 
ATOM     12  F4  UNL d   1       2.702   3.801   0.677  0.00  0.00    -0.092 F 
ENDROOT
TORSDOF 0
ENDMDL
