MODEL 1
REMARK minimizedAffinity 30.3870926
REMARK minimizedRMSD -1
REMARK  0 active torsions:
REMARK  status: ('A' for Active; 'I' for Inactive)
ROOT
ATOM      1  C   UNL d   1       0.575   4.097   0.990  0.00  0.00     0.124 A 
ATOM      2  C1  UNL d   1       1.399   4.090  -0.128  0.00  0.00     0.062 A 
ATOM      3  C2  UNL d   1       2.375   3.109  -0.272  0.00  0.00     0.162 A 
ATOM      4  C3  UNL d   1       2.533   2.124   0.704  0.00  0.00    -0.034 A 
ATOM      5  C4  UNL d   1       1.702   2.138   1.825  0.00  0.00     0.162 A 
ATOM      6  C5  UNL d   1       0.728   3.122   1.965  0.00  0.00     0.062 A 
ATOM      7  F   UNL d   1      -0.067   3.127   3.045  0.00  0.00    -0.097 F 
ATOM      8  F1  UNL d   1       1.826   1.207   2.782  0.00  0.00    -0.096 F 
ATOM      9  I   UNL d   1       3.991   0.655   0.491  0.00  0.00    -0.060 I 
ATOM     10  F2  UNL d   1       3.156   3.126  -1.362  0.00  0.00    -0.096 F 
ATOM     11  F3  UNL d   1       1.254   5.032  -1.071  0.00  0.00    -0.097 F 
ATOM     12  F4  UNL d   1      -0.362   5.043   1.126  0.00  0.00    -0.092 F 
ENDROOT
TORSDOF 0
ENDMDL
