MODEL 1
REMARK minimizedAffinity 15.2448301
REMARK minimizedRMSD -1
REMARK  0 active torsions:
REMARK  status: ('A' for Active; 'I' for Inactive)
ROOT
ATOM      1  C   UNL d   1       2.955  -2.722  -0.489  0.00  0.00     0.124 A 
ATOM      2  C1  UNL d   1       3.860  -1.815   0.047  0.00  0.00     0.062 A 
ATOM      3  C2  UNL d   1       3.745  -0.458  -0.242  0.00  0.00     0.162 A 
ATOM      4  C3  UNL d   1       2.721   0.001  -1.070  0.00  0.00    -0.034 A 
ATOM      5  C4  UNL d   1       1.816  -0.917  -1.606  0.00  0.00     0.162 A 
ATOM      6  C5  UNL d   1       1.935  -2.272  -1.315  0.00  0.00     0.062 A 
ATOM      7  F   UNL d   1       1.060  -3.147  -1.833  0.00  0.00    -0.097 F 
ATOM      8  F1  UNL d   1       0.819  -0.510  -2.406  0.00  0.00    -0.096 F 
ATOM      9  I   UNL d   1       2.546   2.029  -1.505  0.00  0.00    -0.060 I 
ATOM     10  F2  UNL d   1       4.632   0.395   0.290  0.00  0.00    -0.096 F 
ATOM     11  F3  UNL d   1       4.847  -2.247   0.844  0.00  0.00    -0.097 F 
ATOM     12  F4  UNL d   1       3.069  -4.027  -0.210  0.00  0.00    -0.092 F 
ENDROOT
TORSDOF 0
ENDMDL
