MODEL 1
REMARK minimizedAffinity 21.7410412
REMARK minimizedRMSD -1
REMARK  0 active torsions:
REMARK  status: ('A' for Active; 'I' for Inactive)
ROOT
ATOM      1  C   UNL d   1      -3.562  -4.359  -4.783  0.00  0.00     0.124 A 
ATOM      2  C1  UNL d   1      -2.437  -4.259  -3.977  0.00  0.00     0.062 A 
ATOM      3  C2  UNL d   1      -1.951  -3.009  -3.604  0.00  0.00     0.162 A 
ATOM      4  C3  UNL d   1      -2.592  -1.848  -4.037  0.00  0.00    -0.034 A 
ATOM      5  C4  UNL d   1      -3.722  -1.956  -4.849  0.00  0.00     0.162 A 
ATOM      6  C5  UNL d   1      -4.203  -3.208  -5.218  0.00  0.00     0.062 A 
ATOM      7  F   UNL d   1      -5.291  -3.302  -5.998  0.00  0.00    -0.097 F 
ATOM      8  F1  UNL d   1      -4.362  -0.860  -5.282  0.00  0.00    -0.096 F 
ATOM      9  I   UNL d   1      -1.869   0.023  -3.482  0.00  0.00    -0.060 I 
ATOM     10  F2  UNL d   1      -0.862  -2.943  -2.824  0.00  0.00    -0.096 F 
ATOM     11  F3  UNL d   1      -1.815  -5.370  -3.556  0.00  0.00    -0.097 F 
ATOM     12  F4  UNL d   1      -4.026  -5.563  -5.141  0.00  0.00    -0.092 F 
ENDROOT
TORSDOF 0
ENDMDL
