MODEL 1
REMARK minimizedAffinity 20.9644718
REMARK minimizedRMSD -1
REMARK  0 active torsions:
REMARK  status: ('A' for Active; 'I' for Inactive)
ROOT
ATOM      1  C   UNL d   1       3.559  -0.612  -0.023  0.00  0.00     0.124 A 
ATOM      2  C1  UNL d   1       3.978   0.624  -0.498  0.00  0.00     0.062 A 
ATOM      3  C2  UNL d   1       3.301   1.237  -1.548  0.00  0.00     0.162 A 
ATOM      4  C3  UNL d   1       2.196   0.616  -2.131  0.00  0.00    -0.034 A 
ATOM      5  C4  UNL d   1       1.781  -0.627  -1.649  0.00  0.00     0.162 A 
ATOM      6  C5  UNL d   1       2.461  -1.235  -0.599  0.00  0.00     0.062 A 
ATOM      7  F   UNL d   1       2.054  -2.429  -0.142  0.00  0.00    -0.097 F 
ATOM      8  F1  UNL d   1       0.723  -1.251  -2.186  0.00  0.00    -0.096 F 
ATOM      9  I   UNL d   1       1.181   1.529  -3.702  0.00  0.00    -0.060 I 
ATOM     10  F2  UNL d   1       3.729   2.430  -1.986  0.00  0.00    -0.096 F 
ATOM     11  F3  UNL d   1       5.039   1.228   0.056  0.00  0.00    -0.097 F 
ATOM     12  F4  UNL d   1       4.213  -1.200   0.987  0.00  0.00    -0.092 F 
ENDROOT
TORSDOF 0
ENDMDL
