MODEL 1
REMARK minimizedAffinity 14.5476723
REMARK minimizedRMSD -1
REMARK  0 active torsions:
REMARK  status: ('A' for Active; 'I' for Inactive)
ROOT
ATOM      1  C   UNL d   1       1.362  -2.098  -2.364  0.00  0.00     0.124 A 
ATOM      2  C1  UNL d   1       2.124  -1.973  -1.211  0.00  0.00     0.062 A 
ATOM      3  C2  UNL d   1       2.760  -3.085  -0.667  0.00  0.00     0.162 A 
ATOM      4  C3  UNL d   1       2.637  -4.334  -1.277  0.00  0.00    -0.034 A 
ATOM      5  C4  UNL d   1       1.868  -4.453  -2.436  0.00  0.00     0.162 A 
ATOM      6  C5  UNL d   1       1.234  -3.338  -2.975  0.00  0.00     0.062 A 
ATOM      7  F   UNL d   1       0.498  -3.461  -4.089  0.00  0.00    -0.097 F 
ATOM      8  F1  UNL d   1       1.728  -5.638  -3.047  0.00  0.00    -0.096 F 
ATOM      9  I   UNL d   1       3.586  -6.000  -0.467  0.00  0.00    -0.060 I 
ATOM     10  F2  UNL d   1       3.491  -2.935   0.448  0.00  0.00    -0.096 F 
ATOM     11  F3  UNL d   1       2.248  -0.777  -0.618  0.00  0.00    -0.097 F 
ATOM     12  F4  UNL d   1       0.751  -1.026  -2.884  0.00  0.00    -0.092 F 
ENDROOT
TORSDOF 0
ENDMDL
