MODEL 1
REMARK minimizedAffinity 4.09650183
REMARK minimizedRMSD -1
REMARK  0 active torsions:
REMARK  status: ('A' for Active; 'I' for Inactive)
ROOT
ATOM      1  C   UNL d   1       3.693  -0.627  -0.234  0.00  0.00     0.124 A 
ATOM      2  C1  UNL d   1       2.772  -0.198  -1.179  0.00  0.00     0.062 A 
ATOM      3  C2  UNL d   1       2.095  -1.124  -1.968  0.00  0.00     0.162 A 
ATOM      4  C3  UNL d   1       2.336  -2.489  -1.814  0.00  0.00    -0.034 A 
ATOM      5  C4  UNL d   1       3.265  -2.913  -0.862  0.00  0.00     0.162 A 
ATOM      6  C5  UNL d   1       3.939  -1.984  -0.077  0.00  0.00     0.062 A 
ATOM      7  F   UNL d   1       4.829  -2.401   0.836  0.00  0.00    -0.097 F 
ATOM      8  F1  UNL d   1       3.521  -4.218  -0.688  0.00  0.00    -0.096 F 
ATOM      9  I   UNL d   1       1.326  -3.877  -2.991  0.00  0.00    -0.060 I 
ATOM     10  F2  UNL d   1       1.210  -0.681  -2.873  0.00  0.00    -0.096 F 
ATOM     11  F3  UNL d   1       2.533   1.112  -1.334  0.00  0.00    -0.097 F 
ATOM     12  F4  UNL d   1       4.344   0.266   0.522  0.00  0.00    -0.092 F 
ENDROOT
TORSDOF 0
ENDMDL
