MODEL 1
REMARK minimizedAffinity 25.7768269
REMARK minimizedRMSD -1
REMARK  0 active torsions:
REMARK  status: ('A' for Active; 'I' for Inactive)
ROOT
ATOM      1  C   UNL d   1       1.489  -2.236  -2.143  0.00  0.00     0.124 A 
ATOM      2  C1  UNL d   1       1.231  -3.532  -2.566  0.00  0.00     0.062 A 
ATOM      3  C2  UNL d   1       1.860  -4.609  -1.947  0.00  0.00     0.162 A 
ATOM      4  C3  UNL d   1       2.753  -4.393  -0.897  0.00  0.00    -0.034 A 
ATOM      5  C4  UNL d   1       3.008  -3.086  -0.478  0.00  0.00     0.162 A 
ATOM      6  C5  UNL d   1       2.377  -2.014  -1.100  0.00  0.00     0.062 A 
ATOM      7  F   UNL d   1       2.627  -0.762  -0.690  0.00  0.00    -0.097 F 
ATOM      8  F1  UNL d   1       3.861  -2.843   0.528  0.00  0.00    -0.096 F 
ATOM      9  I   UNL d   1       3.696  -6.000   0.030  0.00  0.00    -0.060 I 
ATOM     10  F2  UNL d   1       1.592  -5.851  -2.377  0.00  0.00    -0.096 F 
ATOM     11  F3  UNL d   1       0.374  -3.749  -3.574  0.00  0.00    -0.097 F 
ATOM     12  F4  UNL d   1       0.883  -1.202  -2.741  0.00  0.00    -0.092 F 
ENDROOT
TORSDOF 0
ENDMDL
