MODEL 1
REMARK minimizedAffinity 29.0951309
REMARK minimizedRMSD -1
REMARK  0 active torsions:
REMARK  status: ('A' for Active; 'I' for Inactive)
ROOT
ATOM      1  C   UNL d   1       2.581  -5.614   0.778  0.00  0.00     0.124 A 
ATOM      2  C1  UNL d   1       1.259  -5.417   1.153  0.00  0.00     0.062 A 
ATOM      3  C2  UNL d   1       0.252  -5.414   0.193  0.00  0.00     0.162 A 
ATOM      4  C3  UNL d   1       0.562  -5.611  -1.153  0.00  0.00    -0.034 A 
ATOM      5  C4  UNL d   1       1.894  -5.808  -1.523  0.00  0.00     0.162 A 
ATOM      6  C5  UNL d   1       2.897  -5.809  -0.559  0.00  0.00     0.062 A 
ATOM      7  F   UNL d   1       4.173  -6.000  -0.924  0.00  0.00    -0.097 F 
ATOM      8  F1  UNL d   1       2.227  -6.000  -2.808  0.00  0.00    -0.096 F 
ATOM      9  I   UNL d   1      -0.942  -5.608  -2.592  0.00  0.00    -0.060 I 
ATOM     10  F2  UNL d   1      -1.017  -5.222   0.584  0.00  0.00    -0.096 F 
ATOM     11  F3  UNL d   1       0.951  -5.227   2.444  0.00  0.00    -0.097 F 
ATOM     12  F4  UNL d   1       3.548  -5.615   1.704  0.00  0.00    -0.092 F 
ENDROOT
TORSDOF 0
ENDMDL
