MODEL 1
REMARK minimizedAffinity 16.8751431
REMARK minimizedRMSD -1
REMARK  0 active torsions:
REMARK  status: ('A' for Active; 'I' for Inactive)
ROOT
ATOM      1  C   UNL d   1       1.472   3.154  -2.888  0.00  0.00     0.124 A 
ATOM      2  C1  UNL d   1       0.741   4.282  -2.543  0.00  0.00     0.062 A 
ATOM      3  C2  UNL d   1      -0.438   4.586  -3.219  0.00  0.00     0.162 A 
ATOM      4  C3  UNL d   1      -0.893   3.760  -4.246  0.00  0.00    -0.034 A 
ATOM      5  C4  UNL d   1      -0.152   2.627  -4.588  0.00  0.00     0.162 A 
ATOM      6  C5  UNL d   1       1.025   2.328  -3.909  0.00  0.00     0.062 A 
ATOM      7  F   UNL d   1       1.730   1.237  -4.244  0.00  0.00    -0.097 F 
ATOM      8  F1  UNL d   1      -0.561   1.811  -5.570  0.00  0.00    -0.096 F 
ATOM      9  I   UNL d   1      -2.655   4.211  -5.259  0.00  0.00    -0.060 I 
ATOM     10  F2  UNL d   1      -1.124   5.683  -2.865  0.00  0.00    -0.096 F 
ATOM     11  F3  UNL d   1       1.171   5.083  -1.557  0.00  0.00    -0.097 F 
ATOM     12  F4  UNL d   1       2.606   2.864  -2.237  0.00  0.00    -0.092 F 
ENDROOT
TORSDOF 0
ENDMDL
