MODEL 1
REMARK minimizedAffinity 19.9374065
REMARK minimizedRMSD -1
REMARK  0 active torsions:
REMARK  status: ('A' for Active; 'I' for Inactive)
ROOT
ATOM      1  C   UNL d   1       2.025  -4.378  -1.672  0.00  0.00     0.124 A 
ATOM      2  C1  UNL d   1       1.318  -3.391  -2.344  0.00  0.00     0.062 A 
ATOM      3  C2  UNL d   1       1.457  -2.056  -1.976  0.00  0.00     0.162 A 
ATOM      4  C3  UNL d   1       2.309  -1.699  -0.931  0.00  0.00    -0.034 A 
ATOM      5  C4  UNL d   1       3.017  -2.698  -0.258  0.00  0.00     0.162 A 
ATOM      6  C5  UNL d   1       2.874  -4.031  -0.630  0.00  0.00     0.062 A 
ATOM      7  F   UNL d   1       3.558  -4.983   0.021  0.00  0.00    -0.097 F 
ATOM      8  F1  UNL d   1       3.844  -2.390   0.751  0.00  0.00    -0.096 F 
ATOM      9  I   UNL d   1       2.520   0.296  -0.378  0.00  0.00    -0.060 I 
ATOM     10  F2  UNL d   1       0.762  -1.124  -2.644  0.00  0.00    -0.096 F 
ATOM     11  F3  UNL d   1       0.497  -3.725  -3.350  0.00  0.00    -0.097 F 
ATOM     12  F4  UNL d   1       1.889  -5.662  -2.027  0.00  0.00    -0.092 F 
ENDROOT
TORSDOF 0
ENDMDL
