MODEL 1
REMARK minimizedAffinity 13.9697351
REMARK minimizedRMSD -1
REMARK  0 active torsions:
REMARK  status: ('A' for Active; 'I' for Inactive)
ROOT
ATOM      1  C   UNL d   1       3.400   3.662  -0.400  0.00  0.00     0.124 A 
ATOM      2  C1  UNL d   1       3.924   2.699   0.451  0.00  0.00     0.062 A 
ATOM      3  C2  UNL d   1       3.197   2.273   1.559  0.00  0.00     0.162 A 
ATOM      4  C3  UNL d   1       1.937   2.810   1.822  0.00  0.00    -0.034 A 
ATOM      5  C4  UNL d   1       1.416   3.779   0.962  0.00  0.00     0.162 A 
ATOM      6  C5  UNL d   1       2.147   4.201  -0.144  0.00  0.00     0.062 A 
ATOM      7  F   UNL d   1       1.639   5.132  -0.965  0.00  0.00    -0.097 F 
ATOM      8  F1  UNL d   1       0.208   4.316   1.186  0.00  0.00    -0.096 F 
ATOM      9  I   UNL d   1       0.846   2.176   3.477  0.00  0.00    -0.060 I 
ATOM     10  F2  UNL d   1       3.728   1.341   2.364  0.00  0.00    -0.096 F 
ATOM     11  F3  UNL d   1       5.135   2.177   0.206  0.00  0.00    -0.097 F 
ATOM     12  F4  UNL d   1       4.102   4.071  -1.465  0.00  0.00    -0.092 F 
ENDROOT
TORSDOF 0
ENDMDL
