MODEL 1
REMARK minimizedAffinity 32.7728195
REMARK minimizedRMSD -1
REMARK  0 active torsions:
REMARK  status: ('A' for Active; 'I' for Inactive)
ROOT
ATOM      1  C   UNL d   1      -4.226  -1.011   2.246  0.00  0.00     0.124 A 
ATOM      2  C1  UNL d   1      -3.475   0.122   1.965  0.00  0.00     0.062 A 
ATOM      3  C2  UNL d   1      -2.972   0.903   3.002  0.00  0.00     0.162 A 
ATOM      4  C3  UNL d   1      -3.216   0.553   4.330  0.00  0.00    -0.034 A 
ATOM      5  C4  UNL d   1      -3.973  -0.588   4.604  0.00  0.00     0.162 A 
ATOM      6  C5  UNL d   1      -4.474  -1.365   3.565  0.00  0.00     0.062 A 
ATOM      7  F   UNL d   1      -5.200  -2.459   3.838  0.00  0.00    -0.097 F 
ATOM      8  F1  UNL d   1      -4.227  -0.954   5.869  0.00  0.00    -0.096 F 
ATOM      9  I   UNL d   1      -2.465   1.717   5.882  0.00  0.00    -0.060 I 
ATOM     10  F2  UNL d   1      -2.249   1.992   2.701  0.00  0.00    -0.096 F 
ATOM     11  F3  UNL d   1      -3.235   0.467   0.692  0.00  0.00    -0.097 F 
ATOM     12  F4  UNL d   1      -4.710  -1.759   1.247  0.00  0.00    -0.092 F 
ENDROOT
TORSDOF 0
ENDMDL
