MODEL 1
REMARK minimizedAffinity 24.3191261
REMARK minimizedRMSD -1
REMARK  0 active torsions:
REMARK  status: ('A' for Active; 'I' for Inactive)
ROOT
ATOM      1  C   UNL d   1      -3.141  -2.206   3.769  0.00  0.00    -0.002 A 
ATOM      2  C1  UNL d   1      -1.967  -1.549   4.110  0.00  0.00     0.010 A 
ATOM      3  C2  UNL d   1      -2.008  -0.337   4.803  0.00  0.00     0.041 A 
ATOM      4  C3  UNL d   1      -3.259   0.208   5.151  0.00  0.00    -0.075 A 
ATOM      5  S   UNL d   1      -3.553   1.679   6.000  0.00  0.00     0.015 SA
ATOM      6  C4  UNL d   1      -5.243   1.469   5.930  0.00  0.00     0.022 A 
ATOM      7  C5  UNL d   1      -5.592   0.311   5.279  0.00  0.00     0.026 A 
ATOM      8  C6  UNL d   1      -4.455  -0.436   4.819  0.00  0.00    -0.082 A 
ATOM      9  C7  UNL d   1      -4.380  -1.663   4.116  0.00  0.00     0.045 A 
ENDROOT
TORSDOF 0
ENDMDL
