MODEL 1
REMARK minimizedAffinity 16.839674
REMARK minimizedRMSD -1
REMARK  0 active torsions:
REMARK  status: ('A' for Active; 'I' for Inactive)
ROOT
ATOM      1  C   UNL d   1      -1.124  -1.571  -1.881  0.00  0.00    -0.002 A 
ATOM      2  C1  UNL d   1      -1.490  -2.386  -2.943  0.00  0.00     0.010 A 
ATOM      3  C2  UNL d   1      -1.333  -3.771  -2.861  0.00  0.00     0.041 A 
ATOM      4  C3  UNL d   1      -0.799  -4.329  -1.683  0.00  0.00    -0.075 A 
ATOM      5  S   UNL d   1      -0.517  -5.998  -1.357  0.00  0.00     0.015 SA
ATOM      6  C4  UNL d   1       0.095  -5.669   0.199  0.00  0.00     0.022 A 
ATOM      7  C5  UNL d   1       0.092  -4.323   0.479  0.00  0.00     0.026 A 
ATOM      8  C6  UNL d   1      -0.424  -3.528  -0.600  0.00  0.00    -0.082 A 
ATOM      9  C7  UNL d   1      -0.594  -2.128  -0.714  0.00  0.00     0.045 A 
ENDROOT
TORSDOF 0
ENDMDL
