MODEL 1
REMARK minimizedAffinity 22.2940559
REMARK minimizedRMSD -1
REMARK  0 active torsions:
REMARK  status: ('A' for Active; 'I' for Inactive)
ROOT
ATOM      1  C   UNL d   1      -0.049  -3.805   0.653  0.00  0.00    -0.002 A 
ATOM      2  C1  UNL d   1      -0.007  -4.843  -0.267  0.00  0.00     0.010 A 
ATOM      3  C2  UNL d   1      -0.473  -4.657  -1.570  0.00  0.00     0.041 A 
ATOM      4  C3  UNL d   1      -0.986  -3.397  -1.937  0.00  0.00    -0.075 A 
ATOM      5  S   UNL d   1      -1.612  -2.938  -3.476  0.00  0.00     0.015 SA
ATOM      6  C4  UNL d   1      -1.949  -1.352  -2.949  0.00  0.00     0.022 A 
ATOM      7  C5  UNL d   1      -1.599  -1.161  -1.634  0.00  0.00     0.026 A 
ATOM      8  C6  UNL d   1      -1.038  -2.336  -1.029  0.00  0.00    -0.082 A 
ATOM      9  C7  UNL d   1      -0.558  -2.557   0.285  0.00  0.00     0.045 A 
ENDROOT
TORSDOF 0
ENDMDL
