MODEL 1
REMARK minimizedAffinity 19.036871
REMARK minimizedRMSD -1
REMARK  0 active torsions:
REMARK  status: ('A' for Active; 'I' for Inactive)
ROOT
ATOM      1  C   UNL d   1      -1.413  -3.766   2.343  0.00  0.00    -0.002 A 
ATOM      2  C1  UNL d   1      -0.528  -4.433   1.508  0.00  0.00     0.010 A 
ATOM      3  C2  UNL d   1      -0.265  -3.953   0.223  0.00  0.00     0.041 A 
ATOM      4  C3  UNL d   1      -0.911  -2.778  -0.210  0.00  0.00    -0.075 A 
ATOM      5  S   UNL d   1      -0.743  -2.004  -1.742  0.00  0.00     0.015 SA
ATOM      6  C4  UNL d   1      -1.840  -0.769  -1.322  0.00  0.00     0.022 A 
ATOM      7  C5  UNL d   1      -2.332  -0.928  -0.049  0.00  0.00     0.026 A 
ATOM      8  C6  UNL d   1      -1.805  -2.088   0.613  0.00  0.00    -0.082 A 
ATOM      9  C7  UNL d   1      -2.051  -2.601   1.910  0.00  0.00     0.045 A 
ENDROOT
TORSDOF 0
ENDMDL
