MODEL 1
REMARK minimizedAffinity 24.654129
REMARK minimizedRMSD -1
REMARK  0 active torsions:
REMARK  status: ('A' for Active; 'I' for Inactive)
ROOT
ATOM      1  C   UNL d   1      -4.108   3.725  -4.957  0.00  0.00    -0.002 A 
ATOM      2  C1  UNL d   1      -4.252   2.521  -5.632  0.00  0.00     0.010 A 
ATOM      3  C2  UNL d   1      -3.131   1.770  -5.990  0.00  0.00     0.041 A 
ATOM      4  C3  UNL d   1      -1.851   2.252  -5.654  0.00  0.00    -0.075 A 
ATOM      5  S   UNL d   1      -0.336   1.501  -5.989  0.00  0.00     0.015 SA
ATOM      6  C4  UNL d   1       0.538   2.761  -5.244  0.00  0.00     0.022 A 
ATOM      7  C5  UNL d   1      -0.290   3.739  -4.746  0.00  0.00     0.026 A 
ATOM      8  C6  UNL d   1      -1.681   3.462  -4.974  0.00  0.00    -0.082 A 
ATOM      9  C7  UNL d   1      -2.837   4.201  -4.625  0.00  0.00     0.045 A 
ENDROOT
TORSDOF 0
ENDMDL
