MODEL 1
REMARK minimizedAffinity 15.0726748
REMARK minimizedRMSD -1
REMARK  0 active torsions:
REMARK  status: ('A' for Active; 'I' for Inactive)
ROOT
ATOM      1  C   UNL d   1      -2.090  -1.506  -1.578  0.00  0.00    -0.002 A 
ATOM      2  C1  UNL d   1      -3.135  -1.171  -0.729  0.00  0.00     0.010 A 
ATOM      3  C2  UNL d   1      -3.288  -1.819   0.499  0.00  0.00     0.041 A 
ATOM      4  C3  UNL d   1      -2.363  -2.818   0.862  0.00  0.00    -0.075 A 
ATOM      5  S   UNL d   1      -2.352  -3.744   2.316  0.00  0.00     0.015 SA
ATOM      6  C4  UNL d   1      -0.960  -4.606   1.845  0.00  0.00     0.022 A 
ATOM      7  C5  UNL d   1      -0.501  -4.210   0.610  0.00  0.00     0.026 A 
ATOM      8  C6  UNL d   1      -1.302  -3.172   0.024  0.00  0.00    -0.082 A 
ATOM      9  C7  UNL d   1      -1.175  -2.498  -1.214  0.00  0.00     0.045 A 
ENDROOT
TORSDOF 0
ENDMDL
