MODEL 1
REMARK minimizedAffinity 22.9139194
REMARK minimizedRMSD -1
REMARK  0 active torsions:
REMARK  status: ('A' for Active; 'I' for Inactive)
ROOT
ATOM      1  C   UNL d   1      -0.718  -3.659   0.837  0.00  0.00    -0.002 A 
ATOM      2  C1  UNL d   1      -0.341  -4.545  -0.162  0.00  0.00     0.010 A 
ATOM      3  C2  UNL d   1      -0.561  -4.236  -1.506  0.00  0.00     0.041 A 
ATOM      4  C3  UNL d   1      -1.171  -3.009  -1.832  0.00  0.00    -0.075 A 
ATOM      5  S   UNL d   1      -1.539  -2.418  -3.409  0.00  0.00     0.015 SA
ATOM      6  C4  UNL d   1      -2.205  -0.974  -2.794  0.00  0.00     0.022 A 
ATOM      7  C5  UNL d   1      -2.157  -0.928  -1.421  0.00  0.00     0.026 A 
ATOM      8  C6  UNL d   1      -1.559  -2.100  -0.844  0.00  0.00    -0.082 A 
ATOM      9  C7  UNL d   1      -1.323  -2.442   0.510  0.00  0.00     0.045 A 
ENDROOT
TORSDOF 0
ENDMDL
