MODEL 1
REMARK minimizedAffinity 17.9397106
REMARK minimizedRMSD -1
REMARK  0 active torsions:
REMARK  status: ('A' for Active; 'I' for Inactive)
ROOT
ATOM      1  C   UNL d   1      -3.496   5.409  -2.967  0.00  0.00    -0.002 A 
ATOM      2  C1  UNL d   1      -4.753   5.996  -2.978  0.00  0.00     0.010 A 
ATOM      3  C2  UNL d   1      -5.547   5.998  -1.830  0.00  0.00     0.041 A 
ATOM      4  C3  UNL d   1      -5.050   5.395  -0.657  0.00  0.00    -0.075 A 
ATOM      5  S   UNL d   1      -5.845   5.278   0.868  0.00  0.00     0.015 SA
ATOM      6  C4  UNL d   1      -4.534   4.446   1.572  0.00  0.00     0.022 A 
ATOM      7  C5  UNL d   1      -3.507   4.254   0.679  0.00  0.00     0.026 A 
ATOM      8  C6  UNL d   1      -3.787   4.798  -0.621  0.00  0.00    -0.082 A 
ATOM      9  C7  UNL d   1      -3.006   4.812  -1.802  0.00  0.00     0.045 A 
ENDROOT
TORSDOF 0
ENDMDL
