MODEL 1
REMARK minimizedAffinity 20.7973633
REMARK minimizedRMSD -1
REMARK  0 active torsions:
REMARK  status: ('A' for Active; 'I' for Inactive)
ROOT
ATOM      1  C   UNL d   1      -5.989   1.758   5.322  0.00  0.00    -0.002 A 
ATOM      2  C1  UNL d   1      -5.024   2.490   5.999  0.00  0.00     0.010 A 
ATOM      3  C2  UNL d   1      -3.690   2.078   6.000  0.00  0.00     0.041 A 
ATOM      4  C3  UNL d   1      -3.338   0.907   5.300  0.00  0.00    -0.075 A 
ATOM      5  S   UNL d   1      -1.767   0.211   5.161  0.00  0.00     0.015 SA
ATOM      6  C4  UNL d   1      -2.339  -1.073   4.198  0.00  0.00     0.022 A 
ATOM      7  C5  UNL d   1      -3.694  -0.989   3.979  0.00  0.00     0.026 A 
ATOM      8  C6  UNL d   1      -4.292   0.154   4.609  0.00  0.00    -0.082 A 
ATOM      9  C7  UNL d   1      -5.636   0.597   4.629  0.00  0.00     0.045 A 
ENDROOT
TORSDOF 0
ENDMDL
