MODEL 1
REMARK minimizedAffinity 26.3057404
REMARK minimizedRMSD -1
REMARK  0 active torsions:
REMARK  status: ('A' for Active; 'I' for Inactive)
ROOT
ATOM      1  C   UNL d   1       5.816  -0.536  -4.265  0.00  0.00    -0.002 A 
ATOM      2  C1  UNL d   1       5.999   0.833  -4.131  0.00  0.00     0.010 A 
ATOM      3  C2  UNL d   1       5.026   1.622  -3.515  0.00  0.00     0.041 A 
ATOM      4  C3  UNL d   1       3.856   1.006  -3.029  0.00  0.00    -0.075 A 
ATOM      5  S   UNL d   1       2.529   1.773  -2.238  0.00  0.00     0.015 SA
ATOM      6  C4  UNL d   1       1.689   0.300  -2.058  0.00  0.00     0.022 A 
ATOM      7  C5  UNL d   1       2.389  -0.760  -2.583  0.00  0.00     0.026 A 
ATOM      8  C6  UNL d   1       3.650  -0.371  -3.151  0.00  0.00    -0.082 A 
ATOM      9  C7  UNL d   1       4.654  -1.144  -3.781  0.00  0.00     0.045 A 
ENDROOT
TORSDOF 0
ENDMDL
