MODEL 1
REMARK minimizedAffinity 20.6247063
REMARK minimizedRMSD -1
REMARK  0 active torsions:
REMARK  status: ('A' for Active; 'I' for Inactive)
ROOT
ATOM      1  C   UNL d   1      -0.340  -3.894   0.632  0.00  0.00    -0.002 A 
ATOM      2  C1  UNL d   1      -0.189  -4.923  -0.287  0.00  0.00     0.010 A 
ATOM      3  C2  UNL d   1      -0.508  -4.727  -1.632  0.00  0.00     0.041 A 
ATOM      4  C3  UNL d   1      -0.983  -3.466  -2.043  0.00  0.00    -0.075 A 
ATOM      5  S   UNL d   1      -1.435  -2.995  -3.639  0.00  0.00     0.015 SA
ATOM      6  C4  UNL d   1      -1.838  -1.416  -3.139  0.00  0.00     0.022 A 
ATOM      7  C5  UNL d   1      -1.639  -1.235  -1.790  0.00  0.00     0.026 A 
ATOM      8  C6  UNL d   1      -1.142  -2.414  -1.137  0.00  0.00    -0.082 A 
ATOM      9  C7  UNL d   1      -0.812  -2.645   0.220  0.00  0.00     0.045 A 
ENDROOT
TORSDOF 0
ENDMDL
