MODEL 1
REMARK minimizedAffinity 18.1442909
REMARK minimizedRMSD -1
REMARK  0 active torsions:
REMARK  status: ('A' for Active; 'I' for Inactive)
ROOT
ATOM      1  C   UNL d   1       2.938   1.996  -0.060  0.00  0.00    -0.002 A 
ATOM      2  C1  UNL d   1       3.805   3.066  -0.232  0.00  0.00     0.010 A 
ATOM      3  C2  UNL d   1       4.519   3.583   0.851  0.00  0.00     0.041 A 
ATOM      4  C3  UNL d   1       4.347   3.000   2.122  0.00  0.00    -0.075 A 
ATOM      5  S   UNL d   1       5.117   3.465   3.592  0.00  0.00     0.015 SA
ATOM      6  C4  UNL d   1       4.314   2.255   4.483  0.00  0.00     0.022 A 
ATOM      7  C5  UNL d   1       3.475   1.504   3.694  0.00  0.00     0.026 A 
ATOM      8  C6  UNL d   1       3.480   1.921   2.320  0.00  0.00    -0.082 A 
ATOM      9  C7  UNL d   1       2.770   1.420   1.202  0.00  0.00     0.045 A 
ENDROOT
TORSDOF 0
ENDMDL
