MODEL 1
REMARK minimizedAffinity 11.8568802
REMARK minimizedRMSD -1
REMARK  0 active torsions:
REMARK  status: ('A' for Active; 'I' for Inactive)
ROOT
ATOM      1  C   UNL d   1      -1.883  -1.807  -2.034  0.00  0.00    -0.002 A 
ATOM      2  C1  UNL d   1      -1.983  -1.218  -0.782  0.00  0.00     0.010 A 
ATOM      3  C2  UNL d   1      -1.010  -0.320  -0.339  0.00  0.00     0.041 A 
ATOM      4  C3  UNL d   1       0.074  -0.018  -1.187  0.00  0.00    -0.075 A 
ATOM      5  S   UNL d   1       1.384   1.054  -0.857  0.00  0.00     0.015 SA
ATOM      6  C4  UNL d   1       2.106   0.757  -2.372  0.00  0.00     0.022 A 
ATOM      7  C5  UNL d   1       1.380  -0.136  -3.123  0.00  0.00     0.026 A 
ATOM      8  C6  UNL d   1       0.196  -0.597  -2.453  0.00  0.00    -0.082 A 
ATOM      9  C7  UNL d   1      -0.806  -1.505  -2.872  0.00  0.00     0.045 A 
ENDROOT
TORSDOF 0
ENDMDL
