MODEL 1
REMARK minimizedAffinity -2.24102616
REMARK minimizedRMSD -1
REMARK  2 active torsions:
REMARK  status: ('A' for Active; 'I' for Inactive)
REMARK    1  A    between atoms: C1_2  and  C2_3 
REMARK    2  A    between atoms: C2_3  and  C3_4 
ROOT
ATOM      1  C3  UNL d   1       3.634  -0.654  -1.842  0.00  0.00    -0.075 A 
ATOM      2  C4  UNL d   1       4.792   0.135  -1.793  0.00  0.00     0.002 A 
ATOM      3  C5  UNL d   1       5.964  -0.361  -1.221  0.00  0.00     0.002 A 
ATOM      4  C6  UNL d   1       5.990  -1.645  -0.682  0.00  0.00    -0.004 A 
ATOM      5  C7  UNL d   1       4.841  -2.432  -0.710  0.00  0.00     0.002 A 
ATOM      6  C8  UNL d   1       3.668  -1.940  -1.286  0.00  0.00     0.002 A 
ENDROOT
BRANCH   1   7
ATOM      7  C2  UNL d   1       2.371  -0.134  -2.486  0.00  0.00     0.056 C 
BRANCH   7   8
ATOM      8  C1  UNL d   1       1.137  -0.196  -1.579  0.00  0.00     0.007 C 
ATOM      9  C   UNL d   1       1.302   0.593  -0.287  0.00  0.00     0.009 C 
ENDBRANCH   7   8
ENDBRANCH   1   7
TORSDOF 2
ENDMDL
