MODEL 1
REMARK minimizedAffinity 5.95776701
REMARK minimizedRMSD -1
REMARK  2 active torsions:
REMARK  status: ('A' for Active; 'I' for Inactive)
REMARK    1  A    between atoms: C1_2  and  C2_3 
REMARK    2  A    between atoms: C2_3  and  C3_4 
ROOT
ATOM      1  C3  UNL d   1       2.175   1.644  -1.246  0.00  0.00    -0.075 A 
ATOM      2  C4  UNL d   1       2.231   1.538   0.151  0.00  0.00     0.002 A 
ATOM      3  C5  UNL d   1       1.864   2.616   0.958  0.00  0.00     0.002 A 
ATOM      4  C6  UNL d   1       1.447   3.813   0.380  0.00  0.00    -0.004 A 
ATOM      5  C7  UNL d   1       1.404   3.934  -1.008  0.00  0.00     0.002 A 
ATOM      6  C8  UNL d   1       1.766   2.856  -1.817  0.00  0.00     0.002 A 
ENDROOT
BRANCH   1   7
ATOM      7  C2  UNL d   1       2.543   0.472  -2.125  0.00  0.00     0.056 C 
BRANCH   7   8
ATOM      8  C1  UNL d   1       1.341  -0.225  -2.771  0.00  0.00     0.007 C 
ATOM      9  C   UNL d   1       1.151   0.142  -4.237  0.00  0.00     0.009 C 
ENDBRANCH   7   8
ENDBRANCH   1   7
TORSDOF 2
ENDMDL
