MODEL 1
REMARK minimizedAffinity 12.0607376
REMARK minimizedRMSD -1
REMARK  2 active torsions:
REMARK  status: ('A' for Active; 'I' for Inactive)
REMARK    1  A    between atoms: C1_2  and  C2_3 
REMARK    2  A    between atoms: C2_3  and  C3_4 
ROOT
ATOM      1  C3  UNL d   1      -4.024  -0.115   4.621  0.00  0.00    -0.075 A 
ATOM      2  C4  UNL d   1      -3.741   0.429   5.882  0.00  0.00     0.002 A 
ATOM      3  C5  UNL d   1      -3.242   1.727   5.998  0.00  0.00     0.002 A 
ATOM      4  C6  UNL d   1      -3.010   2.492   4.857  0.00  0.00    -0.004 A 
ATOM      5  C7  UNL d   1      -3.273   1.956   3.598  0.00  0.00     0.002 A 
ATOM      6  C8  UNL d   1      -3.777   0.659   3.480  0.00  0.00     0.002 A 
ENDROOT
BRANCH   1   7
ATOM      7  C2  UNL d   1      -4.592  -1.508   4.490  0.00  0.00     0.056 C 
BRANCH   7   8
ATOM      8  C1  UNL d   1      -5.999  -1.553   3.885  0.00  0.00     0.007 C 
ATOM      9  C   UNL d   1      -6.000  -1.838   2.389  0.00  0.00     0.009 C 
ENDBRANCH   7   8
ENDBRANCH   1   7
TORSDOF 2
ENDMDL
