MODEL 1
REMARK minimizedAffinity 13.2199383
REMARK minimizedRMSD -1
REMARK  2 active torsions:
REMARK  status: ('A' for Active; 'I' for Inactive)
REMARK    1  A    between atoms: C1_2  and  C2_3 
REMARK    2  A    between atoms: C2_3  and  C3_4 
ROOT
ATOM      1  C3  UNL d   1       0.291  -2.566  -1.549  0.00  0.00    -0.075 A 
ATOM      2  C4  UNL d   1       1.126  -1.983  -2.514  0.00  0.00     0.002 A 
ATOM      3  C5  UNL d   1       1.826  -0.810  -2.228  0.00  0.00     0.002 A 
ATOM      4  C6  UNL d   1       1.693  -0.202  -0.982  0.00  0.00    -0.004 A 
ATOM      5  C7  UNL d   1       0.853  -0.764  -0.022  0.00  0.00     0.002 A 
ATOM      6  C8  UNL d   1       0.155  -1.939  -0.304  0.00  0.00     0.002 A 
ENDROOT
BRANCH   1   7
ATOM      7  C2  UNL d   1      -0.446  -3.851  -1.842  0.00  0.00     0.056 C 
BRANCH   7   8
ATOM      8  C1  UNL d   1      -0.791  -4.050  -3.321  0.00  0.00     0.007 C 
ATOM      9  C   UNL d   1      -0.884  -5.516  -3.725  0.00  0.00     0.009 C 
ENDBRANCH   7   8
ENDBRANCH   1   7
TORSDOF 2
ENDMDL
