MODEL 1
REMARK minimizedAffinity 18.2303467
REMARK minimizedRMSD -1
REMARK  2 active torsions:
REMARK  status: ('A' for Active; 'I' for Inactive)
REMARK    1  A    between atoms: C1_2  and  C2_3 
REMARK    2  A    between atoms: C2_3  and  C3_4 
ROOT
ATOM      1  C3  UNL d   1      -4.188   0.639   3.778  0.00  0.00    -0.075 A 
ATOM      2  C4  UNL d   1      -5.248   0.212   2.965  0.00  0.00     0.002 A 
ATOM      3  C5  UNL d   1      -6.000  -0.911   3.313  0.00  0.00     0.002 A 
ATOM      4  C6  UNL d   1      -5.695  -1.625   4.469  0.00  0.00    -0.004 A 
ATOM      5  C7  UNL d   1      -4.634  -1.220   5.275  0.00  0.00     0.002 A 
ATOM      6  C8  UNL d   1      -3.883  -0.094   4.932  0.00  0.00     0.002 A 
ENDROOT
BRANCH   1   7
ATOM      7  C2  UNL d   1      -3.389   1.870   3.422  0.00  0.00     0.056 C 
BRANCH   7   8
ATOM      8  C1  UNL d   1      -3.405   2.957   4.502  0.00  0.00     0.007 C 
ATOM      9  C   UNL d   1      -4.730   3.702   4.585  0.00  0.00     0.009 C 
ENDBRANCH   7   8
ENDBRANCH   1   7
TORSDOF 2
ENDMDL
