MODEL 1
REMARK minimizedAffinity 9.3974762
REMARK minimizedRMSD -1
REMARK  2 active torsions:
REMARK  status: ('A' for Active; 'I' for Inactive)
REMARK    1  A    between atoms: C1_2  and  C2_3 
REMARK    2  A    between atoms: C2_3  and  C3_4 
ROOT
ATOM      1  C3  UNL d   1       1.122   1.523   3.571  0.00  0.00    -0.075 A 
ATOM      2  C4  UNL d   1       1.630   1.059   4.794  0.00  0.00     0.002 A 
ATOM      3  C5  UNL d   1       1.129   1.549   6.000  0.00  0.00     0.002 A 
ATOM      4  C6  UNL d   1       0.123   2.513   6.000  0.00  0.00    -0.004 A 
ATOM      5  C7  UNL d   1      -0.377   2.993   4.791  0.00  0.00     0.002 A 
ATOM      6  C8  UNL d   1       0.119   2.501   3.583  0.00  0.00     0.002 A 
ENDROOT
BRANCH   1   7
ATOM      7  C2  UNL d   1       1.640   0.975   2.262  0.00  0.00     0.056 C 
BRANCH   7   8
ATOM      8  C1  UNL d   1       2.858   1.723   1.712  0.00  0.00     0.007 C 
ATOM      9  C   UNL d   1       3.392   1.129   0.415  0.00  0.00     0.009 C 
ENDBRANCH   7   8
ENDBRANCH   1   7
TORSDOF 2
ENDMDL
