MODEL 1
REMARK minimizedAffinity 14.4705763
REMARK minimizedRMSD -1
REMARK  2 active torsions:
REMARK  status: ('A' for Active; 'I' for Inactive)
REMARK    1  A    between atoms: C1_2  and  C2_3 
REMARK    2  A    between atoms: C2_3  and  C3_4 
ROOT
ATOM      1  C3  UNL d   1       2.024   1.934  -1.637  0.00  0.00    -0.075 A 
ATOM      2  C4  UNL d   1       1.336   1.170  -2.591  0.00  0.00     0.002 A 
ATOM      3  C5  UNL d   1       1.544  -0.207  -2.680  0.00  0.00     0.002 A 
ATOM      4  C6  UNL d   1       2.448  -0.835  -1.826  0.00  0.00    -0.004 A 
ATOM      5  C7  UNL d   1       3.150  -0.083  -0.886  0.00  0.00     0.002 A 
ATOM      6  C8  UNL d   1       2.941   1.294  -0.792  0.00  0.00     0.002 A 
ENDROOT
BRANCH   1   7
ATOM      7  C2  UNL d   1       1.782   3.419  -1.516  0.00  0.00     0.056 C 
BRANCH   7   8
ATOM      8  C1  UNL d   1       1.786   3.936  -0.074  0.00  0.00     0.007 C 
ATOM      9  C   UNL d   1       0.970   5.209   0.111  0.00  0.00     0.009 C 
ENDBRANCH   7   8
ENDBRANCH   1   7
TORSDOF 2
ENDMDL
