MODEL 1
REMARK minimizedAffinity 21.4878616
REMARK minimizedRMSD -1
REMARK  2 active torsions:
REMARK  status: ('A' for Active; 'I' for Inactive)
REMARK    1  A    between atoms: C1_2  and  C2_3 
REMARK    2  A    between atoms: C2_3  and  C3_4 
ROOT
ATOM      1  C3  UNL d   1      -1.568   1.377   3.591  0.00  0.00    -0.075 A 
ATOM      2  C4  UNL d   1      -0.889   1.481   4.814  0.00  0.00     0.002 A 
ATOM      3  C5  UNL d   1      -1.592   1.709   5.997  0.00  0.00     0.002 A 
ATOM      4  C6  UNL d   1      -2.978   1.845   5.972  0.00  0.00    -0.004 A 
ATOM      5  C7  UNL d   1      -3.661   1.761   4.761  0.00  0.00     0.002 A 
ATOM      6  C8  UNL d   1      -2.961   1.528   3.576  0.00  0.00     0.002 A 
ENDROOT
BRANCH   1   7
ATOM      7  C2  UNL d   1      -0.816   1.101   2.311  0.00  0.00     0.056 C 
BRANCH   7   8
ATOM      8  C1  UNL d   1       0.266   0.024   2.443  0.00  0.00     0.007 C 
ATOM      9  C   UNL d   1      -0.274  -1.391   2.291  0.00  0.00     0.009 C 
ENDBRANCH   7   8
ENDBRANCH   1   7
TORSDOF 2
ENDMDL
