MODEL 1
REMARK minimizedAffinity 17.7554111
REMARK minimizedRMSD -1
REMARK  2 active torsions:
REMARK  status: ('A' for Active; 'I' for Inactive)
REMARK    1  A    between atoms: C1_2  and  C2_3 
REMARK    2  A    between atoms: C2_3  and  C3_4 
ROOT
ATOM      1  C3  UNL d   1       1.183  -0.537  -1.145  0.00  0.00    -0.075 A 
ATOM      2  C4  UNL d   1       2.389  -0.649  -0.438  0.00  0.00     0.002 A 
ATOM      3  C5  UNL d   1       3.426   0.257  -0.659  0.00  0.00     0.002 A 
ATOM      4  C6  UNL d   1       3.276   1.279  -1.594  0.00  0.00    -0.004 A 
ATOM      5  C7  UNL d   1       2.088   1.390  -2.314  0.00  0.00     0.002 A 
ATOM      6  C8  UNL d   1       1.047   0.487  -2.092  0.00  0.00     0.002 A 
ENDROOT
BRANCH   1   7
ATOM      7  C2  UNL d   1       0.045  -1.497  -0.890  0.00  0.00     0.056 C 
BRANCH   7   8
ATOM      8  C1  UNL d   1       0.171  -2.278   0.422  0.00  0.00     0.007 C 
ATOM      9  C   UNL d   1      -0.459  -1.561   1.609  0.00  0.00     0.009 C 
ENDBRANCH   7   8
ENDBRANCH   1   7
TORSDOF 2
ENDMDL
