MODEL 1
REMARK minimizedAffinity 3.09484172
REMARK minimizedRMSD -1
REMARK  2 active torsions:
REMARK  status: ('A' for Active; 'I' for Inactive)
REMARK    1  A    between atoms: C1_2  and  C2_3 
REMARK    2  A    between atoms: C2_3  and  C3_4 
ROOT
ATOM      1  C3  UNL d   1      -1.070  -2.885  -0.923  0.00  0.00    -0.075 A 
ATOM      2  C4  UNL d   1      -1.569  -3.636   0.151  0.00  0.00     0.002 A 
ATOM      3  C5  UNL d   1      -1.232  -3.305   1.464  0.00  0.00     0.002 A 
ATOM      4  C6  UNL d   1      -0.386  -2.228   1.719  0.00  0.00    -0.004 A 
ATOM      5  C7  UNL d   1       0.128  -1.485   0.659  0.00  0.00     0.002 A 
ATOM      6  C8  UNL d   1      -0.210  -1.811  -0.656  0.00  0.00     0.002 A 
ENDROOT
BRANCH   1   7
ATOM      7  C2  UNL d   1      -1.454  -3.219  -2.345  0.00  0.00     0.056 C 
BRANCH   7   8
ATOM      8  C1  UNL d   1      -0.495  -4.193  -3.037  0.00  0.00     0.007 C 
ATOM      9  C   UNL d   1      -0.971  -5.639  -2.991  0.00  0.00     0.009 C 
ENDBRANCH   7   8
ENDBRANCH   1   7
TORSDOF 2
ENDMDL
