MODEL 1
REMARK minimizedAffinity -4.10680389
REMARK minimizedRMSD -1
REMARK  2 active torsions:
REMARK  status: ('A' for Active; 'I' for Inactive)
REMARK    1  A    between atoms: C1_2  and  C2_3 
REMARK    2  A    between atoms: C2_3  and  C3_4 
ROOT
ATOM      1  C3  UNL d   1       1.446   0.726  -1.358  0.00  0.00    -0.075 A 
ATOM      2  C4  UNL d   1       0.691   0.106  -0.352  0.00  0.00     0.002 A 
ATOM      3  C5  UNL d   1       0.048  -1.108  -0.595  0.00  0.00     0.002 A 
ATOM      4  C6  UNL d   1       0.143  -1.712  -1.847  0.00  0.00    -0.004 A 
ATOM      5  C7  UNL d   1       0.877  -1.097  -2.859  0.00  0.00     0.002 A 
ATOM      6  C8  UNL d   1       1.525   0.116  -2.617  0.00  0.00     0.002 A 
ENDROOT
BRANCH   1   7
ATOM      7  C2  UNL d   1       2.168   2.025  -1.093  0.00  0.00     0.056 C 
BRANCH   7   8
ATOM      8  C1  UNL d   1       3.659   1.993  -1.443  0.00  0.00     0.007 C 
ATOM      9  C   UNL d   1       4.388   0.793  -0.854  0.00  0.00     0.009 C 
ENDBRANCH   7   8
ENDBRANCH   1   7
TORSDOF 2
ENDMDL
