MODEL 1
REMARK minimizedAffinity 0.737912238
REMARK minimizedRMSD -1
REMARK  2 active torsions:
REMARK  status: ('A' for Active; 'I' for Inactive)
REMARK    1  A    between atoms: C1_2  and  C2_3 
REMARK    2  A    between atoms: C2_3  and  C3_4 
ROOT
ATOM      1  C3  UNL d   1      -5.268   2.368  -5.811  0.00  0.00    -0.075 A 
ATOM      2  C4  UNL d   1      -3.881   2.448  -5.999  0.00  0.00     0.002 A 
ATOM      3  C5  UNL d   1      -3.207   3.653  -5.797  0.00  0.00     0.002 A 
ATOM      4  C6  UNL d   1      -3.912   4.793  -5.416  0.00  0.00    -0.004 A 
ATOM      5  C7  UNL d   1      -5.292   4.729  -5.243  0.00  0.00     0.002 A 
ATOM      6  C8  UNL d   1      -5.968   3.523  -5.440  0.00  0.00     0.002 A 
ENDROOT
BRANCH   1   7
ATOM      7  C2  UNL d   1      -5.999   1.060  -6.000  0.00  0.00     0.056 C 
BRANCH   7   8
ATOM      8  C1  UNL d   1      -5.874   0.099  -4.812  0.00  0.00     0.007 C 
ATOM      9  C   UNL d   1      -5.225  -1.228  -5.180  0.00  0.00     0.009 C 
ENDBRANCH   7   8
ENDBRANCH   1   7
TORSDOF 2
ENDMDL
