MODEL 1
REMARK minimizedAffinity -1.39499462
REMARK minimizedRMSD -1
REMARK  2 active torsions:
REMARK  status: ('A' for Active; 'I' for Inactive)
REMARK    1  A    between atoms: C1_2  and  C2_3 
REMARK    2  A    between atoms: C2_3  and  C3_4 
ROOT
ATOM      1  C3  UNL d   1       1.367  -2.225  -2.081  0.00  0.00    -0.075 A 
ATOM      2  C4  UNL d   1       2.688  -2.341  -2.538  0.00  0.00     0.002 A 
ATOM      3  C5  UNL d   1       3.162  -1.508  -3.552  0.00  0.00     0.002 A 
ATOM      4  C6  UNL d   1       2.321  -0.558  -4.128  0.00  0.00    -0.004 A 
ATOM      5  C7  UNL d   1       1.002  -0.445  -3.693  0.00  0.00     0.002 A 
ATOM      6  C8  UNL d   1       0.526  -1.275  -2.675  0.00  0.00     0.002 A 
ENDROOT
BRANCH   1   7
ATOM      7  C2  UNL d   1       0.856  -3.104  -0.964  0.00  0.00     0.056 C 
BRANCH   7   8
ATOM      8  C1  UNL d   1       0.084  -2.347   0.122  0.00  0.00     0.007 C 
ATOM      9  C   UNL d   1       0.623  -0.945   0.374  0.00  0.00     0.009 C 
ENDBRANCH   7   8
ENDBRANCH   1   7
TORSDOF 2
ENDMDL
