MODEL 1
REMARK minimizedAffinity 18.4990177
REMARK minimizedRMSD -1
REMARK  0 active torsions:
REMARK  status: ('A' for Active; 'I' for Inactive)
ROOT
ATOM      1  C   UNL d   1       1.513  -1.563   4.589  0.00  0.00     0.124 A 
ATOM      2  C1  UNL d   1       0.331  -0.839   4.661  0.00  0.00     0.062 A 
ATOM      3  C2  UNL d   1       0.148   0.284   3.859  0.00  0.00     0.162 A 
ATOM      4  C3  UNL d   1       1.150   0.690   2.977  0.00  0.00    -0.034 A 
ATOM      5  C4  UNL d   1       2.336  -0.043   2.911  0.00  0.00     0.162 A 
ATOM      6  C5  UNL d   1       2.514  -1.165   3.714  0.00  0.00     0.062 A 
ATOM      7  F   UNL d   1       3.657  -1.863   3.644  0.00  0.00    -0.097 F 
ATOM      8  F1  UNL d   1       3.320   0.319   2.074  0.00  0.00    -0.096 F 
ATOM      9  I   UNL d   1       0.881   2.368   1.776  0.00  0.00    -0.060 I 
ATOM     10  F2  UNL d   1      -1.004   0.965   3.949  0.00  0.00    -0.096 F 
ATOM     11  F3  UNL d   1      -0.638  -1.221   5.505  0.00  0.00    -0.097 F 
ATOM     12  F4  UNL d   1       1.686  -2.642   5.362  0.00  0.00    -0.092 F 
ENDROOT
TORSDOF 0
ENDMDL
