MODEL 1
REMARK minimizedAffinity 22.4335728
REMARK minimizedRMSD -1
REMARK  0 active torsions:
REMARK  status: ('A' for Active; 'I' for Inactive)
ROOT
ATOM      1  C   UNL d   1       0.814   1.888   3.479  0.00  0.00     0.124 A 
ATOM      2  C1  UNL d   1      -0.251   1.601   2.636  0.00  0.00     0.062 A 
ATOM      3  C2  UNL d   1      -0.447   2.346   1.477  0.00  0.00     0.162 A 
ATOM      4  C3  UNL d   1       0.425   3.384   1.152  0.00  0.00    -0.034 A 
ATOM      5  C4  UNL d   1       1.494   3.668   2.004  0.00  0.00     0.162 A 
ATOM      6  C5  UNL d   1       1.685   2.921   3.162  0.00  0.00     0.062 A 
ATOM      7  F   UNL d   1       2.715   3.199   3.974  0.00  0.00    -0.097 F 
ATOM      8  F1  UNL d   1       2.352   4.659   1.722  0.00  0.00    -0.096 F 
ATOM      9  I   UNL d   1       0.136   4.500  -0.582  0.00  0.00    -0.060 I 
ATOM     10  F2  UNL d   1      -1.485   2.046   0.681  0.00  0.00    -0.096 F 
ATOM     11  F3  UNL d   1      -1.095   0.605   2.941  0.00  0.00    -0.097 F 
ATOM     12  F4  UNL d   1       0.999   1.171   4.594  0.00  0.00    -0.092 F 
ENDROOT
TORSDOF 0
ENDMDL
