MODEL 1
REMARK minimizedAffinity 28.0906868
REMARK minimizedRMSD -1
REMARK  0 active torsions:
REMARK  status: ('A' for Active; 'I' for Inactive)
ROOT
ATOM      1  C   UNL d   1      -0.396   0.671  -0.542  0.00  0.00     0.124 A 
ATOM      2  C1  UNL d   1      -1.528   1.372  -0.937  0.00  0.00     0.062 A 
ATOM      3  C2  UNL d   1      -1.595   2.751  -0.760  0.00  0.00     0.162 A 
ATOM      4  C3  UNL d   1      -0.526   3.439  -0.185  0.00  0.00    -0.034 A 
ATOM      5  C4  UNL d   1       0.608   2.728   0.211  0.00  0.00     0.162 A 
ATOM      6  C5  UNL d   1       0.670   1.350   0.032  0.00  0.00     0.062 A 
ATOM      7  F   UNL d   1       1.764   0.675   0.414  0.00  0.00    -0.097 F 
ATOM      8  F1  UNL d   1       1.653   3.358   0.767  0.00  0.00    -0.096 F 
ATOM      9  I   UNL d   1      -0.622   5.501   0.082  0.00  0.00    -0.060 I 
ATOM     10  F2  UNL d   1      -2.700   3.402  -1.151  0.00  0.00    -0.096 F 
ATOM     11  F3  UNL d   1      -2.560   0.719  -1.490  0.00  0.00    -0.097 F 
ATOM     12  F4  UNL d   1      -0.335  -0.655  -0.713  0.00  0.00    -0.092 F 
ENDROOT
TORSDOF 0
ENDMDL
