MODEL 1
REMARK minimizedAffinity 21.1973248
REMARK minimizedRMSD -1
REMARK  0 active torsions:
REMARK  status: ('A' for Active; 'I' for Inactive)
ROOT
ATOM      1  C   UNL d   1       1.135   3.115   2.222  0.00  0.00     0.124 A 
ATOM      2  C1  UNL d   1       2.098   4.067   1.915  0.00  0.00     0.062 A 
ATOM      3  C2  UNL d   1       1.939   4.891   0.805  0.00  0.00     0.162 A 
ATOM      4  C3  UNL d   1       0.811   4.768  -0.007  0.00  0.00    -0.034 A 
ATOM      5  C4  UNL d   1      -0.153   3.808   0.307  0.00  0.00     0.162 A 
ATOM      6  C5  UNL d   1       0.011   2.987   1.418  0.00  0.00     0.062 A 
ATOM      7  F   UNL d   1      -0.920   2.068   1.713  0.00  0.00    -0.097 F 
ATOM      8  F1  UNL d   1      -1.249   3.663  -0.452  0.00  0.00    -0.096 F 
ATOM      9  I   UNL d   1       0.570   5.998  -1.668  0.00  0.00    -0.060 I 
ATOM     10  F2  UNL d   1       2.885   5.802   0.532  0.00  0.00    -0.096 F 
ATOM     11  F3  UNL d   1       3.185   4.192   2.690  0.00  0.00    -0.097 F 
ATOM     12  F4  UNL d   1       1.291   2.323   3.290  0.00  0.00    -0.092 F 
ENDROOT
TORSDOF 0
ENDMDL
