MODEL 1
REMARK minimizedAffinity 23.5967674
REMARK minimizedRMSD -1
REMARK  0 active torsions:
REMARK  status: ('A' for Active; 'I' for Inactive)
ROOT
ATOM      1  C   UNL d   1      -0.929  -0.587  -1.262  0.00  0.00     0.124 A 
ATOM      2  C1  UNL d   1       0.295  -0.250  -0.701  0.00  0.00     0.062 A 
ATOM      3  C2  UNL d   1       0.521   1.043  -0.238  0.00  0.00     0.162 A 
ATOM      4  C3  UNL d   1      -0.480   2.010  -0.334  0.00  0.00    -0.034 A 
ATOM      5  C4  UNL d   1      -1.708   1.664  -0.900  0.00  0.00     0.162 A 
ATOM      6  C5  UNL d   1      -1.929   0.370  -1.361  0.00  0.00     0.062 A 
ATOM      7  F   UNL d   1      -3.113   0.047  -1.903  0.00  0.00    -0.097 F 
ATOM      8  F1  UNL d   1      -2.692   2.569  -1.008  0.00  0.00    -0.096 F 
ATOM      9  I   UNL d   1      -0.146   3.944   0.357  0.00  0.00    -0.060 I 
ATOM     10  F2  UNL d   1       1.713   1.340   0.300  0.00  0.00    -0.096 F 
ATOM     11  F3  UNL d   1       1.263  -1.173  -0.604  0.00  0.00    -0.097 F 
ATOM     12  F4  UNL d   1      -1.144  -1.832  -1.707  0.00  0.00    -0.092 F 
ENDROOT
TORSDOF 0
ENDMDL
