MODEL 1
REMARK minimizedAffinity 23.9747849
REMARK minimizedRMSD -1
REMARK  0 active torsions:
REMARK  status: ('A' for Active; 'I' for Inactive)
ROOT
ATOM      1  C   UNL d   1       0.776   2.233   2.667  0.00  0.00     0.124 A 
ATOM      2  C1  UNL d   1       2.139   1.986   2.746  0.00  0.00     0.062 A 
ATOM      3  C2  UNL d   1       2.603   0.780   3.265  0.00  0.00     0.162 A 
ATOM      4  C3  UNL d   1       1.702  -0.188   3.709  0.00  0.00    -0.034 A 
ATOM      5  C4  UNL d   1       0.332   0.069   3.628  0.00  0.00     0.162 A 
ATOM      6  C5  UNL d   1      -0.126   1.275   3.108  0.00  0.00     0.062 A 
ATOM      7  F   UNL d   1      -1.444   1.513   3.032  0.00  0.00    -0.097 F 
ATOM      8  F1  UNL d   1      -0.562  -0.839   4.046  0.00  0.00    -0.096 F 
ATOM      9  I   UNL d   1       2.391  -1.991   4.487  0.00  0.00    -0.060 I 
ATOM     10  F2  UNL d   1       3.926   0.568   3.330  0.00  0.00    -0.096 F 
ATOM     11  F3  UNL d   1       3.013   2.910   2.322  0.00  0.00    -0.097 F 
ATOM     12  F4  UNL d   1       0.333   3.394   2.168  0.00  0.00    -0.092 F 
ENDROOT
TORSDOF 0
ENDMDL
