MODEL 1
REMARK minimizedAffinity 29.4904003
REMARK minimizedRMSD -1
REMARK  0 active torsions:
REMARK  status: ('A' for Active; 'I' for Inactive)
ROOT
ATOM      1  C   UNL d   1       0.617   4.893  -0.329  0.00  0.00     0.124 A 
ATOM      2  C1  UNL d   1       1.115   3.745   0.271  0.00  0.00     0.062 A 
ATOM      3  C2  UNL d   1       0.335   2.594   0.336  0.00  0.00     0.162 A 
ATOM      4  C3  UNL d   1      -0.952   2.585  -0.201  0.00  0.00    -0.034 A 
ATOM      5  C4  UNL d   1      -1.447   3.744  -0.802  0.00  0.00     0.162 A 
ATOM      6  C5  UNL d   1      -0.664   4.891  -0.865  0.00  0.00     0.062 A 
ATOM      7  F   UNL d   1      -1.147   6.000  -1.445  0.00  0.00    -0.097 F 
ATOM      8  F1  UNL d   1      -2.681   3.770  -1.328  0.00  0.00    -0.096 F 
ATOM      9  I   UNL d   1      -2.122   0.866  -0.105  0.00  0.00    -0.060 I 
ATOM     10  F2  UNL d   1       0.842   1.499   0.922  0.00  0.00    -0.096 F 
ATOM     11  F3  UNL d   1       2.351   3.744   0.790  0.00  0.00    -0.097 F 
ATOM     12  F4  UNL d   1       1.369   5.999  -0.390  0.00  0.00    -0.092 F 
ENDROOT
TORSDOF 0
ENDMDL
