MODEL 1
REMARK minimizedAffinity 24.7050247
REMARK minimizedRMSD -1
REMARK  0 active torsions:
REMARK  status: ('A' for Active; 'I' for Inactive)
ROOT
ATOM      1  C   UNL d   1      -1.393   1.828   1.284  0.00  0.00     0.124 A 
ATOM      2  C1  UNL d   1      -2.407   0.908   1.052  0.00  0.00     0.062 A 
ATOM      3  C2  UNL d   1      -2.335   0.047  -0.039  0.00  0.00     0.162 A 
ATOM      4  C3  UNL d   1      -1.244   0.101  -0.907  0.00  0.00    -0.034 A 
ATOM      5  C4  UNL d   1      -0.229   1.029  -0.668  0.00  0.00     0.162 A 
ATOM      6  C5  UNL d   1      -0.305   1.887   0.424  0.00  0.00     0.062 A 
ATOM      7  F   UNL d   1       0.675   2.775   0.647  0.00  0.00    -0.097 F 
ATOM      8  F1  UNL d   1       0.835   1.107  -1.482  0.00  0.00    -0.096 F 
ATOM      9  I   UNL d   1      -1.132  -1.185  -2.540  0.00  0.00    -0.060 I 
ATOM     10  F2  UNL d   1      -3.328  -0.831  -0.239  0.00  0.00    -0.096 F 
ATOM     11  F3  UNL d   1      -3.459   0.850   1.880  0.00  0.00    -0.097 F 
ATOM     12  F4  UNL d   1      -1.466   2.656   2.334  0.00  0.00    -0.092 F 
ENDROOT
TORSDOF 0
ENDMDL
