MODEL 1
REMARK minimizedAffinity 13.4864407
REMARK minimizedRMSD -1
REMARK  0 active torsions:
REMARK  status: ('A' for Active; 'I' for Inactive)
ROOT
ATOM      1  C   UNL d   1       2.316   4.272   2.614  0.00  0.00     0.124 A 
ATOM      2  C1  UNL d   1       1.224   3.415   2.621  0.00  0.00     0.062 A 
ATOM      3  C2  UNL d   1       0.353   3.383   1.536  0.00  0.00     0.162 A 
ATOM      4  C3  UNL d   1       0.570   4.210   0.434  0.00  0.00    -0.034 A 
ATOM      5  C4  UNL d   1       1.669   5.070   0.435  0.00  0.00     0.162 A 
ATOM      6  C5  UNL d   1       2.537   5.099   1.521  0.00  0.00     0.062 A 
ATOM      7  F   UNL d   1       3.591   5.928   1.512  0.00  0.00    -0.097 F 
ATOM      8  F1  UNL d   1       1.907   5.879  -0.609  0.00  0.00    -0.096 F 
ATOM      9  I   UNL d   1      -0.732   4.165  -1.190  0.00  0.00    -0.060 I 
ATOM     10  F2  UNL d   1      -0.694   2.545   1.570  0.00  0.00    -0.096 F 
ATOM     11  F3  UNL d   1       1.008   2.616   3.675  0.00  0.00    -0.097 F 
ATOM     12  F4  UNL d   1       3.153   4.302   3.659  0.00  0.00    -0.092 F 
ENDROOT
TORSDOF 0
ENDMDL
