MODEL 1
REMARK minimizedAffinity 12.3870354
REMARK minimizedRMSD -1
REMARK  1 active torsions:
REMARK  status: ('A' for Active; 'I' for Inactive)
REMARK    1  A    between atoms: C1_2  and  C2_3 
ROOT
ATOM      1  C2  UNL d   1       4.878  -4.243   2.784  0.00  0.00    -0.073 A 
ATOM      2  C3  UNL d   1       5.872  -4.419   1.815  0.00  0.00    -0.002 A 
ATOM      3  C4  UNL d   1       5.660  -3.993   0.503  0.00  0.00     0.004 A 
ATOM      4  C5  UNL d   1       4.458  -3.382   0.149  0.00  0.00    -0.004 A 
ATOM      5  C6  UNL d   1       3.457  -3.187   1.106  0.00  0.00    -0.075 A 
ATOM      6  C7  UNL d   1       2.156  -2.533   0.740  0.00  0.00     0.076 C 
ATOM      7  C8  UNL d   1       3.676  -3.619   2.421  0.00  0.00     0.001 A 
ENDROOT
BRANCH   1   8
ATOM      8  C1  UNL d   1       5.105  -4.695   4.204  0.00  0.00     0.053 C 
ATOM      9  C   UNL d   1       5.327  -3.523   5.147  0.00  0.00     0.018 C 
ENDBRANCH   1   8
TORSDOF 1
ENDMDL
