MODEL 1
REMARK minimizedAffinity 4.89116192
REMARK minimizedRMSD -1
REMARK  1 active torsions:
REMARK  status: ('A' for Active; 'I' for Inactive)
REMARK    1  A    between atoms: C1_2  and  C2_3 
ROOT
ATOM      1  C2  UNL d   1       1.882  -1.247   0.464  0.00  0.00    -0.073 A 
ATOM      2  C3  UNL d   1       2.784  -2.298   0.267  0.00  0.00    -0.002 A 
ATOM      3  C4  UNL d   1       2.491  -3.577   0.743  0.00  0.00     0.004 A 
ATOM      4  C5  UNL d   1       1.293  -3.818   1.414  0.00  0.00    -0.004 A 
ATOM      5  C6  UNL d   1       0.373  -2.783   1.611  0.00  0.00    -0.075 A 
ATOM      6  C7  UNL d   1      -0.920  -3.026   2.333  0.00  0.00     0.076 C 
ATOM      7  C8  UNL d   1       0.675  -1.501   1.132  0.00  0.00     0.001 A 
ENDROOT
BRANCH   1   8
ATOM      8  C1  UNL d   1       2.190   0.134  -0.054  0.00  0.00     0.053 C 
ATOM      9  C   UNL d   1       3.674   0.321  -0.330  0.00  0.00     0.018 C 
ENDBRANCH   1   8
TORSDOF 1
ENDMDL
