MODEL 1
REMARK minimizedAffinity 5.13289213
REMARK minimizedRMSD -1
REMARK  1 active torsions:
REMARK  status: ('A' for Active; 'I' for Inactive)
REMARK    1  A    between atoms: C1_2  and  C2_3 
ROOT
ATOM      1  C2  UNL d   1      -3.911   1.096  -5.017  0.00  0.00    -0.073 A 
ATOM      2  C3  UNL d   1      -3.068   0.451  -5.928  0.00  0.00    -0.002 A 
ATOM      3  C4  UNL d   1      -2.466  -0.764  -5.594  0.00  0.00     0.004 A 
ATOM      4  C5  UNL d   1      -2.707  -1.347  -4.350  0.00  0.00    -0.004 A 
ATOM      5  C6  UNL d   1      -3.556  -0.723  -3.431  0.00  0.00    -0.075 A 
ATOM      6  C7  UNL d   1      -3.824  -1.337  -2.088  0.00  0.00     0.076 C 
ATOM      7  C8  UNL d   1      -4.154   0.497  -3.773  0.00  0.00     0.001 A 
ENDROOT
BRANCH   1   8
ATOM      8  C1  UNL d   1      -4.568   2.404  -5.376  0.00  0.00     0.053 C 
ATOM      9  C   UNL d   1      -4.234   3.502  -4.379  0.00  0.00     0.018 C 
ENDBRANCH   1   8
TORSDOF 1
ENDMDL
