MODEL 1
REMARK minimizedAffinity 2.47787046
REMARK minimizedRMSD -1
REMARK  1 active torsions:
REMARK  status: ('A' for Active; 'I' for Inactive)
REMARK    1  A    between atoms: C1_2  and  C2_3 
ROOT
ATOM      1  C2  UNL d   1      -4.785   0.579  -4.847  0.00  0.00    -0.073 A 
ATOM      2  C3  UNL d   1      -3.960   0.376  -5.959  0.00  0.00    -0.002 A 
ATOM      3  C4  UNL d   1      -2.839  -0.451  -5.863  0.00  0.00     0.004 A 
ATOM      4  C5  UNL d   1      -2.537  -1.087  -4.659  0.00  0.00    -0.004 A 
ATOM      5  C6  UNL d   1      -3.357  -0.906  -3.540  0.00  0.00    -0.075 A 
ATOM      6  C7  UNL d   1      -3.045  -1.582  -2.237  0.00  0.00     0.076 C 
ATOM      7  C8  UNL d   1      -4.479  -0.073  -3.644  0.00  0.00     0.001 A 
ENDROOT
BRANCH   1   8
ATOM      8  C1  UNL d   1      -6.000   1.465  -4.948  0.00  0.00     0.053 C 
ATOM      9  C   UNL d   1      -5.625   2.922  -5.169  0.00  0.00     0.018 C 
ENDBRANCH   1   8
TORSDOF 1
ENDMDL
