MODEL 1
REMARK minimizedAffinity 9.69757271
REMARK minimizedRMSD -1
REMARK  1 active torsions:
REMARK  status: ('A' for Active; 'I' for Inactive)
REMARK    1  A    between atoms: C1_2  and  C2_3 
ROOT
ATOM      1  C2  UNL d   1      -3.637   0.574  -5.503  0.00  0.00    -0.073 A 
ATOM      2  C3  UNL d   1      -4.945   0.076  -5.462  0.00  0.00    -0.002 A 
ATOM      3  C4  UNL d   1      -6.000   0.899  -5.066  0.00  0.00     0.004 A 
ATOM      4  C5  UNL d   1      -5.761   2.227  -4.714  0.00  0.00    -0.004 A 
ATOM      5  C6  UNL d   1      -4.463   2.746  -4.761  0.00  0.00    -0.075 A 
ATOM      6  C7  UNL d   1      -4.189   4.173  -4.383  0.00  0.00     0.076 C 
ATOM      7  C8  UNL d   1      -3.408   1.913  -5.157  0.00  0.00     0.001 A 
ENDROOT
BRANCH   1   8
ATOM      8  C1  UNL d   1      -2.495  -0.308  -5.936  0.00  0.00     0.053 C 
ATOM      9  C   UNL d   1      -2.502  -1.646  -5.213  0.00  0.00     0.018 C 
ENDBRANCH   1   8
TORSDOF 1
ENDMDL
