MODEL 1
REMARK minimizedAffinity -1.82641232
REMARK minimizedRMSD -1
REMARK  1 active torsions:
REMARK  status: ('A' for Active; 'I' for Inactive)
REMARK    1  A    between atoms: C1_2  and  C2_3 
ROOT
ATOM      1  C2  UNL d   1       0.059  -0.166  -0.389  0.00  0.00    -0.076 A 
ATOM      2  C3  UNL d   1      -0.449  -0.913   0.687  0.00  0.00     0.004 A 
ATOM      3  C4  UNL d   1      -1.092  -0.289   1.755  0.00  0.00    -0.003 A 
ATOM      4  C5  UNL d   1      -1.238   1.094   1.762  0.00  0.00     0.000 A 
ATOM      5  C6  UNL d   1      -0.756   1.850   0.694  0.00  0.00     0.000 A 
ATOM      6  C7  UNL d   1      -0.119   1.234  -0.397  0.00  0.00    -0.073 A 
ATOM      7  C8  UNL d   1       0.387   2.099  -1.519  0.00  0.00     0.078 C 
ENDROOT
BRANCH   1   8
ATOM      8  C1  UNL d   1       0.772  -0.895  -1.506  0.00  0.00     0.053 C 
ATOM      9  C   UNL d   1       0.753  -2.405  -1.320  0.00  0.00     0.018 C 
ENDBRANCH   1   8
TORSDOF 1
ENDMDL
