MODEL 1
REMARK minimizedAffinity -3.83003354
REMARK minimizedRMSD -1
REMARK  1 active torsions:
REMARK  status: ('A' for Active; 'I' for Inactive)
REMARK    1  A    between atoms: C1_2  and  C2_3 
ROOT
ATOM      1  C2  UNL d   1       0.146   0.292   0.387  0.00  0.00    -0.076 A 
ATOM      2  C3  UNL d   1      -0.369  -0.083   1.640  0.00  0.00     0.004 A 
ATOM      3  C4  UNL d   1      -1.252   0.745   2.330  0.00  0.00    -0.003 A 
ATOM      4  C5  UNL d   1      -1.636   1.963   1.778  0.00  0.00     0.000 A 
ATOM      5  C6  UNL d   1      -1.148   2.343   0.528  0.00  0.00     0.000 A 
ATOM      6  C7  UNL d   1      -0.270   1.511  -0.189  0.00  0.00    -0.073 A 
ATOM      7  C8  UNL d   1       0.229   1.974  -1.530  0.00  0.00     0.078 C 
ENDROOT
BRANCH   1   8
ATOM      8  C1  UNL d   1       1.122  -0.635  -0.302  0.00  0.00     0.053 C 
ATOM      9  C   UNL d   1       0.426  -1.763  -1.049  0.00  0.00     0.018 C 
ENDBRANCH   1   8
TORSDOF 1
ENDMDL
