MODEL 1
REMARK minimizedAffinity -1.38747215
REMARK minimizedRMSD -1
REMARK  1 active torsions:
REMARK  status: ('A' for Active; 'I' for Inactive)
REMARK    1  A    between atoms: C1_2  and  C2_3 
ROOT
ATOM      1  C2  UNL d   1      -0.527   0.735  -0.235  0.00  0.00    -0.076 A 
ATOM      2  C3  UNL d   1      -0.074  -0.243  -1.137  0.00  0.00     0.004 A 
ATOM      3  C4  UNL d   1       0.597  -1.379  -0.686  0.00  0.00    -0.003 A 
ATOM      4  C5  UNL d   1       0.823  -1.556   0.675  0.00  0.00     0.000 A 
ATOM      5  C6  UNL d   1       0.364  -0.605   1.585  0.00  0.00     0.000 A 
ATOM      6  C7  UNL d   1      -0.327   0.538   1.149  0.00  0.00    -0.073 A 
ATOM      7  C8  UNL d   1      -0.795   1.535   2.174  0.00  0.00     0.078 C 
ENDROOT
BRANCH   1   8
ATOM      8  C1  UNL d   1      -1.224   1.959  -0.784  0.00  0.00     0.053 C 
ATOM      9  C   UNL d   1      -0.264   2.914  -1.477  0.00  0.00     0.018 C 
ENDBRANCH   1   8
TORSDOF 1
ENDMDL
