MODEL 1
REMARK minimizedAffinity -1.35568893
REMARK minimizedRMSD -1
REMARK  1 active torsions:
REMARK  status: ('A' for Active; 'I' for Inactive)
REMARK    1  A    between atoms: C1_2  and  C2_3 
ROOT
ATOM      1  C2  UNL d   1       0.295  -0.762  -0.841  0.00  0.00    -0.076 A 
ATOM      2  C3  UNL d   1      -0.708  -1.170   0.056  0.00  0.00     0.004 A 
ATOM      3  C4  UNL d   1      -1.168  -0.314   1.055  0.00  0.00    -0.003 A 
ATOM      4  C5  UNL d   1      -0.633   0.964   1.174  0.00  0.00     0.000 A 
ATOM      5  C6  UNL d   1       0.350   1.391   0.282  0.00  0.00     0.000 A 
ATOM      6  C7  UNL d   1       0.813   0.547  -0.741  0.00  0.00    -0.073 A 
ATOM      7  C8  UNL d   1       1.879   1.058  -1.672  0.00  0.00     0.078 C 
ENDROOT
BRANCH   1   8
ATOM      8  C1  UNL d   1       0.773  -1.743  -1.888  0.00  0.00     0.053 C 
ATOM      9  C   UNL d   1       1.579  -2.885  -1.290  0.00  0.00     0.018 C 
ENDBRANCH   1   8
TORSDOF 1
ENDMDL
