MODEL 1
REMARK minimizedAffinity -3.02939463
REMARK minimizedRMSD -1
REMARK  1 active torsions:
REMARK  status: ('A' for Active; 'I' for Inactive)
REMARK    1  A    between atoms: C1_2  and  C2_3 
ROOT
ATOM      1  C2  UNL d   1       0.269  -0.080   0.373  0.00  0.00    -0.076 A 
ATOM      2  C3  UNL d   1      -0.127  -0.753   1.542  0.00  0.00     0.004 A 
ATOM      3  C4  UNL d   1      -0.895  -0.113   2.513  0.00  0.00    -0.003 A 
ATOM      4  C5  UNL d   1      -1.281   1.210   2.331  0.00  0.00     0.000 A 
ATOM      5  C6  UNL d   1      -0.913   1.888   1.169  0.00  0.00     0.000 A 
ATOM      6  C7  UNL d   1      -0.152   1.252   0.173  0.00  0.00    -0.073 A 
ATOM      7  C8  UNL d   1       0.222   2.032  -1.058  0.00  0.00     0.078 C 
ENDROOT
BRANCH   1   8
ATOM      8  C1  UNL d   1       1.125  -0.817  -0.632  0.00  0.00     0.053 C 
ATOM      9  C   UNL d   1       0.373  -1.943  -1.323  0.00  0.00     0.018 C 
ENDBRANCH   1   8
TORSDOF 1
ENDMDL
