MODEL 1
REMARK minimizedAffinity -4.70898151
REMARK minimizedRMSD -1
REMARK  1 active torsions:
REMARK  status: ('A' for Active; 'I' for Inactive)
REMARK    1  A    between atoms: C1_2  and  C2_3 
ROOT
ATOM      1  C2  UNL d   1      -0.520   1.919  -0.035  0.00  0.00    -0.076 A 
ATOM      2  C3  UNL d   1      -1.352   2.830   0.638  0.00  0.00     0.004 A 
ATOM      3  C4  UNL d   1      -2.103   2.435   1.744  0.00  0.00    -0.003 A 
ATOM      4  C5  UNL d   1      -2.033   1.122   2.195  0.00  0.00     0.000 A 
ATOM      5  C6  UNL d   1      -1.199   0.209   1.551  0.00  0.00     0.000 A 
ATOM      6  C7  UNL d   1      -0.423   0.595   0.444  0.00  0.00    -0.073 A 
ATOM      7  C8  UNL d   1       0.454  -0.433  -0.217  0.00  0.00     0.078 C 
ENDROOT
BRANCH   1   8
ATOM      8  C1  UNL d   1       0.249   2.398  -1.246  0.00  0.00     0.053 C 
ATOM      9  C   UNL d   1      -0.052   3.848  -1.591  0.00  0.00     0.018 C 
ENDBRANCH   1   8
TORSDOF 1
ENDMDL
