MODEL 1
REMARK minimizedAffinity -4.80274773
REMARK minimizedRMSD -1
REMARK  1 active torsions:
REMARK  status: ('A' for Active; 'I' for Inactive)
REMARK    1  A    between atoms: C1_2  and  C2_3 
ROOT
ATOM      1  C2  UNL d   1      -0.241   1.182   0.065  0.00  0.00    -0.076 A 
ATOM      2  C3  UNL d   1      -0.973   0.691   1.161  0.00  0.00     0.004 A 
ATOM      3  C4  UNL d   1      -1.767   1.539   1.931  0.00  0.00    -0.003 A 
ATOM      4  C5  UNL d   1      -1.843   2.891   1.617  0.00  0.00     0.000 A 
ATOM      5  C6  UNL d   1      -1.138   3.393   0.524  0.00  0.00     0.000 A 
ATOM      6  C7  UNL d   1      -0.345   2.549  -0.273  0.00  0.00    -0.073 A 
ATOM      7  C8  UNL d   1       0.399   3.144  -1.437  0.00  0.00     0.078 C 
ENDROOT
BRANCH   1   8
ATOM      8  C1  UNL d   1       0.625   0.221  -0.717  0.00  0.00     0.053 C 
ATOM      9  C   UNL d   1      -0.010  -1.154  -0.857  0.00  0.00     0.018 C 
ENDBRANCH   1   8
TORSDOF 1
ENDMDL
