MODEL 1
REMARK minimizedAffinity -6.17230368
REMARK minimizedRMSD -1
REMARK  1 active torsions:
REMARK  status: ('A' for Active; 'I' for Inactive)
REMARK    1  A    between atoms: C1_2  and  C2_3 
ROOT
ATOM      1  C2  UNL d   1      -0.336  -0.279  -0.676  0.00  0.00    -0.076 A 
ATOM      2  C3  UNL d   1      -1.416  -1.158  -0.869  0.00  0.00     0.004 A 
ATOM      3  C4  UNL d   1      -1.882  -1.450  -2.150  0.00  0.00    -0.003 A 
ATOM      4  C5  UNL d   1      -1.276  -0.869  -3.258  0.00  0.00     0.000 A 
ATOM      5  C6  UNL d   1      -0.191  -0.009  -3.085  0.00  0.00     0.000 A 
ATOM      6  C7  UNL d   1       0.302   0.284  -1.802  0.00  0.00    -0.073 A 
ATOM      7  C8  UNL d   1       1.470   1.223  -1.674  0.00  0.00     0.078 C 
ENDROOT
BRANCH   1   8
ATOM      8  C1  UNL d   1       0.109   0.021   0.738  0.00  0.00     0.053 C 
ATOM      9  C   UNL d   1      -1.029  -0.082   1.741  0.00  0.00     0.018 C 
ENDBRANCH   1   8
TORSDOF 1
ENDMDL
