MODEL 1
REMARK minimizedAffinity -4.31891632
REMARK minimizedRMSD -1
REMARK  1 active torsions:
REMARK  status: ('A' for Active; 'I' for Inactive)
REMARK    1  A    between atoms: C1_2  and  C2_3 
ROOT
ATOM      1  C2  UNL d   1      -0.013  -0.959  -0.610  0.00  0.00    -0.076 A 
ATOM      2  C3  UNL d   1      -1.206  -1.241   0.079  0.00  0.00     0.004 A 
ATOM      3  C4  UNL d   1      -1.881  -0.245   0.782  0.00  0.00    -0.003 A 
ATOM      4  C5  UNL d   1      -1.376   1.050   0.807  0.00  0.00     0.000 A 
ATOM      5  C6  UNL d   1      -0.204   1.352   0.115  0.00  0.00     0.000 A 
ATOM      6  C7  UNL d   1       0.481   0.363  -0.612  0.00  0.00    -0.073 A 
ATOM      7  C8  UNL d   1       1.744   0.744  -1.335  0.00  0.00     0.078 C 
ENDROOT
BRANCH   1   8
ATOM      8  C1  UNL d   1       0.690  -2.085  -1.332  0.00  0.00     0.053 C 
ATOM      9  C   UNL d   1       0.156  -2.297  -2.741  0.00  0.00     0.018 C 
ENDBRANCH   1   8
TORSDOF 1
ENDMDL
