MODEL 1
REMARK minimizedAffinity -4.31698895
REMARK minimizedRMSD -1
REMARK  1 active torsions:
REMARK  status: ('A' for Active; 'I' for Inactive)
REMARK    1  A    between atoms: C1_2  and  C2_3 
ROOT
ATOM      1  C2  UNL d   1       0.957   0.108   1.908  0.00  0.00    -0.081 A 
ATOM      2  C3  UNL d   1       0.313  -0.522   0.835  0.00  0.00     0.006 A 
ATOM      3  C4  UNL d   1      -0.652   0.160   0.090  0.00  0.00     0.002 A 
ATOM      4  C5  UNL d   1      -0.983   1.484   0.398  0.00  0.00    -0.080 A 
ATOM      5  C6  UNL d   1      -1.994   2.237  -0.413  0.00  0.00     0.076 C 
ATOM      6  C7  UNL d   1      -0.353   2.107   1.481  0.00  0.00     0.002 A 
ATOM      7  C8  UNL d   1       0.611   1.426   2.227  0.00  0.00     0.006 A 
ENDROOT
BRANCH   1   8
ATOM      8  C1  UNL d   1       2.043  -0.603   2.673  0.00  0.00     0.054 C 
ATOM      9  C   UNL d   1       3.264  -0.851   1.799  0.00  0.00     0.018 C 
ENDBRANCH   1   8
TORSDOF 1
ENDMDL
