MODEL 1
REMARK minimizedAffinity -2.14248252
REMARK minimizedRMSD -1
REMARK  1 active torsions:
REMARK  status: ('A' for Active; 'I' for Inactive)
REMARK    1  A    between atoms: C1_2  and  C2_3 
ROOT
ATOM      1  C2  UNL d   1      -0.095  -0.097  -0.785  0.00  0.00    -0.081 A 
ATOM      2  C3  UNL d   1       0.420  -0.030   0.515  0.00  0.00     0.006 A 
ATOM      3  C4  UNL d   1       0.034   1.000   1.378  0.00  0.00     0.002 A 
ATOM      4  C5  UNL d   1      -0.877   1.974   0.957  0.00  0.00    -0.080 A 
ATOM      5  C6  UNL d   1      -1.322   3.067   1.882  0.00  0.00     0.076 C 
ATOM      6  C7  UNL d   1      -1.378   1.917  -0.348  0.00  0.00     0.002 A 
ATOM      7  C8  UNL d   1      -0.992   0.889  -1.211  0.00  0.00     0.006 A 
ENDROOT
BRANCH   1   8
ATOM      8  C1  UNL d   1       0.269  -1.242  -1.695  0.00  0.00     0.054 C 
ATOM      9  C   UNL d   1      -0.200  -2.572  -1.125  0.00  0.00     0.018 C 
ENDBRANCH   1   8
TORSDOF 1
ENDMDL
