MODEL 1
REMARK minimizedAffinity -3.53034639
REMARK minimizedRMSD -1
REMARK  1 active torsions:
REMARK  status: ('A' for Active; 'I' for Inactive)
REMARK    1  A    between atoms: C1_2  and  C2_3 
ROOT
ATOM      1  C2  UNL d   1      -0.022   0.144   0.244  0.00  0.00    -0.081 A 
ATOM      2  C3  UNL d   1      -0.248   0.746   1.488  0.00  0.00     0.006 A 
ATOM      3  C4  UNL d   1      -0.694   2.067   1.565  0.00  0.00     0.002 A 
ATOM      4  C5  UNL d   1      -0.930   2.806   0.400  0.00  0.00    -0.080 A 
ATOM      5  C6  UNL d   1      -1.438   4.215   0.468  0.00  0.00     0.076 C 
ATOM      6  C7  UNL d   1      -0.688   2.211  -0.843  0.00  0.00     0.002 A 
ATOM      7  C8  UNL d   1      -0.241   0.890  -0.920  0.00  0.00     0.006 A 
ENDROOT
BRANCH   1   8
ATOM      8  C1  UNL d   1       0.397  -1.301   0.156  0.00  0.00     0.054 C 
ATOM      9  C   UNL d   1      -0.296  -2.009  -0.999  0.00  0.00     0.018 C 
ENDBRANCH   1   8
TORSDOF 1
ENDMDL
