MODEL 1
REMARK minimizedAffinity -0.782684088
REMARK minimizedRMSD -1
REMARK  1 active torsions:
REMARK  status: ('A' for Active; 'I' for Inactive)
REMARK    1  A    between atoms: C1_2  and  C2_3 
ROOT
ATOM      1  C2  UNL d   1       0.153  -1.626  -1.282  0.00  0.00    -0.081 A 
ATOM      2  C3  UNL d   1      -0.153  -1.027  -0.053  0.00  0.00     0.006 A 
ATOM      3  C4  UNL d   1      -0.342   0.354   0.034  0.00  0.00     0.002 A 
ATOM      4  C5  UNL d   1      -0.237   1.158  -1.105  0.00  0.00    -0.080 A 
ATOM      5  C6  UNL d   1      -0.468   2.638  -1.031  0.00  0.00     0.076 C 
ATOM      6  C7  UNL d   1       0.086   0.563  -2.329  0.00  0.00     0.002 A 
ATOM      7  C8  UNL d   1       0.276  -0.818  -2.417  0.00  0.00     0.006 A 
ENDROOT
BRANCH   1   8
ATOM      8  C1  UNL d   1       0.294  -3.122  -1.391  0.00  0.00     0.054 C 
ATOM      9  C   UNL d   1      -1.000  -3.829  -1.013  0.00  0.00     0.018 C 
ENDBRANCH   1   8
TORSDOF 1
ENDMDL
