MODEL 1
REMARK minimizedAffinity -1.12581491
REMARK minimizedRMSD -1
REMARK  1 active torsions:
REMARK  status: ('A' for Active; 'I' for Inactive)
REMARK    1  A    between atoms: C1_2  and  C2_3 
ROOT
ATOM      1  C2  UNL d   1      -0.117   3.140   1.177  0.00  0.00    -0.081 A 
ATOM      2  C3  UNL d   1      -1.318   2.876   0.507  0.00  0.00     0.006 A 
ATOM      3  C4  UNL d   1      -1.493   1.675  -0.184  0.00  0.00     0.002 A 
ATOM      4  C5  UNL d   1      -0.475   0.716  -0.211  0.00  0.00    -0.080 A 
ATOM      5  C6  UNL d   1      -0.661  -0.590  -0.925  0.00  0.00     0.076 C 
ATOM      6  C7  UNL d   1       0.731   0.988   0.443  0.00  0.00     0.002 A 
ATOM      7  C8  UNL d   1       0.907   2.189   1.134  0.00  0.00     0.006 A 
ENDROOT
BRANCH   1   8
ATOM      8  C1  UNL d   1       0.051   4.406   1.978  0.00  0.00     0.054 C 
ATOM      9  C   UNL d   1       1.520   4.710   2.231  0.00  0.00     0.018 C 
ENDBRANCH   1   8
TORSDOF 1
ENDMDL
