MODEL 1
REMARK minimizedAffinity 1.84197903
REMARK minimizedRMSD -1
REMARK  1 active torsions:
REMARK  status: ('A' for Active; 'I' for Inactive)
REMARK    1  A    between atoms: C1_2  and  C2_3 
ROOT
ATOM      1  C2  UNL d   1      -0.788  -1.226  -0.734  0.00  0.00    -0.081 A 
ATOM      2  C3  UNL d   1      -1.582  -0.447   0.115  0.00  0.00     0.006 A 
ATOM      3  C4  UNL d   1      -1.645   0.939  -0.048  0.00  0.00     0.002 A 
ATOM      4  C5  UNL d   1      -0.922   1.567  -1.067  0.00  0.00    -0.080 A 
ATOM      5  C6  UNL d   1      -1.004   3.051  -1.273  0.00  0.00     0.076 C 
ATOM      6  C7  UNL d   1      -0.114   0.791  -1.905  0.00  0.00     0.002 A 
ATOM      7  C8  UNL d   1      -0.050  -0.595  -1.742  0.00  0.00     0.006 A 
ENDROOT
BRANCH   1   8
ATOM      8  C1  UNL d   1      -0.768  -2.728  -0.601  0.00  0.00     0.054 C 
ATOM      9  C   UNL d   1      -1.746  -3.381  -1.567  0.00  0.00     0.018 C 
ENDBRANCH   1   8
TORSDOF 1
ENDMDL
