MODEL 1
REMARK minimizedAffinity 4.47290421
REMARK minimizedRMSD -1
REMARK  1 active torsions:
REMARK  status: ('A' for Active; 'I' for Inactive)
REMARK    1  A    between atoms: C1_2  and  C2_3 
ROOT
ATOM      1  C2  UNL d   1       2.311  -0.449  -0.201  0.00  0.00    -0.081 A 
ATOM      2  C3  UNL d   1       1.460  -0.095  -1.254  0.00  0.00     0.006 A 
ATOM      3  C4  UNL d   1       0.232   0.520  -0.997  0.00  0.00     0.002 A 
ATOM      4  C5  UNL d   1      -0.161   0.798   0.316  0.00  0.00    -0.080 A 
ATOM      5  C6  UNL d   1      -1.463   1.485   0.605  0.00  0.00     0.076 C 
ATOM      6  C7  UNL d   1       0.682   0.429   1.370  0.00  0.00     0.002 A 
ATOM      7  C8  UNL d   1       1.909  -0.186   1.114  0.00  0.00     0.006 A 
ENDROOT
BRANCH   1   8
ATOM      8  C1  UNL d   1       3.664  -1.053  -0.478  0.00  0.00     0.054 C 
ATOM      9  C   UNL d   1       4.614  -0.844   0.692  0.00  0.00     0.018 C 
ENDBRANCH   1   8
TORSDOF 1
ENDMDL
