MODEL 1
REMARK minimizedAffinity 0.434370607
REMARK minimizedRMSD -1
REMARK  1 active torsions:
REMARK  status: ('A' for Active; 'I' for Inactive)
REMARK    1  A    between atoms: C1_2  and  C2_3 
ROOT
ATOM      1  C2  UNL d   1       1.083  -0.061   1.267  0.00  0.00    -0.081 A 
ATOM      2  C3  UNL d   1       0.664  -0.530   0.016  0.00  0.00     0.006 A 
ATOM      3  C4  UNL d   1      -0.242   0.207  -0.750  0.00  0.00     0.002 A 
ATOM      4  C5  UNL d   1      -0.738   1.429  -0.281  0.00  0.00    -0.080 A 
ATOM      5  C6  UNL d   1      -1.688   2.245  -1.107  0.00  0.00     0.076 C 
ATOM      6  C7  UNL d   1      -0.333   1.889   0.976  0.00  0.00     0.002 A 
ATOM      7  C8  UNL d   1       0.573   1.152   1.743  0.00  0.00     0.006 A 
ENDROOT
BRANCH   1   8
ATOM      8  C1  UNL d   1       2.110  -0.822   2.067  0.00  0.00     0.054 C 
ATOM      9  C   UNL d   1       3.403  -0.997   1.283  0.00  0.00     0.018 C 
ENDBRANCH   1   8
TORSDOF 1
ENDMDL
