MODEL 1
REMARK minimizedAffinity 6.93332863
REMARK minimizedRMSD -1
REMARK  2 active torsions:
REMARK  status: ('A' for Active; 'I' for Inactive)
REMARK    1  A    between atoms: C1_2  and  C2_3 
REMARK    2  A    between atoms: C2_3  and  C3_4 
ROOT
ATOM      1  C3  UNL d   1       1.512  -2.784   4.507  0.00  0.00    -0.075 A 
ATOM      2  C4  UNL d   1       2.211  -3.423   3.473  0.00  0.00     0.002 A 
ATOM      3  C5  UNL d   1       2.378  -2.796   2.238  0.00  0.00     0.002 A 
ATOM      4  C6  UNL d   1       1.839  -1.530   2.018  0.00  0.00    -0.004 A 
ATOM      5  C7  UNL d   1       1.128  -0.893   3.033  0.00  0.00     0.002 A 
ATOM      6  C8  UNL d   1       0.964  -1.516   4.271  0.00  0.00     0.002 A 
ENDROOT
BRANCH   1   7
ATOM      7  C2  UNL d   1       1.354  -3.446   5.856  0.00  0.00     0.056 C 
BRANCH   7   8
ATOM      8  C1  UNL d   1       0.070  -4.270   6.000  0.00  0.00     0.007 C 
ATOM      9  C   UNL d   1       0.318  -5.772   6.000  0.00  0.00     0.009 C 
ENDBRANCH   7   8
ENDBRANCH   1   7
TORSDOF 2
ENDMDL
