MODEL 1
REMARK minimizedAffinity 12.6799679
REMARK minimizedRMSD -1
REMARK  2 active torsions:
REMARK  status: ('A' for Active; 'I' for Inactive)
REMARK    1  A    between atoms: C1_2  and  C2_3 
REMARK    2  A    between atoms: C2_3  and  C3_4 
ROOT
ATOM      1  C3  UNL d   1       2.286  -3.616   3.137  0.00  0.00    -0.075 A 
ATOM      2  C4  UNL d   1       2.094  -3.351   4.501  0.00  0.00     0.002 A 
ATOM      3  C5  UNL d   1       1.697  -2.083   4.926  0.00  0.00     0.002 A 
ATOM      4  C6  UNL d   1       1.498  -1.064   3.998  0.00  0.00    -0.004 A 
ATOM      5  C7  UNL d   1       1.702  -1.312   2.642  0.00  0.00     0.002 A 
ATOM      6  C8  UNL d   1       2.095  -2.581   2.213  0.00  0.00     0.002 A 
ENDROOT
BRANCH   1   7
ATOM      7  C2  UNL d   1       2.687  -4.994   2.667  0.00  0.00     0.056 C 
BRANCH   7   8
ATOM      8  C1  UNL d   1       1.549  -5.787   2.015  0.00  0.00     0.007 C 
ATOM      9  C   UNL d   1       1.666  -5.867   0.498  0.00  0.00     0.009 C 
ENDBRANCH   7   8
ENDBRANCH   1   7
TORSDOF 2
ENDMDL
