MODEL 1
REMARK minimizedAffinity 1.133847
REMARK minimizedRMSD -1
REMARK  2 active torsions:
REMARK  status: ('A' for Active; 'I' for Inactive)
REMARK    1  A    between atoms: C1_2  and  C2_3 
REMARK    2  A    between atoms: C2_3  and  C3_4 
ROOT
ATOM      1  C3  UNL d   1       0.291  -0.611   1.767  0.00  0.00    -0.075 A 
ATOM      2  C4  UNL d   1       1.005  -1.750   1.369  0.00  0.00     0.002 A 
ATOM      3  C5  UNL d   1       1.831  -2.420   2.271  0.00  0.00     0.002 A 
ATOM      4  C6  UNL d   1       1.962  -1.955   3.578  0.00  0.00    -0.004 A 
ATOM      5  C7  UNL d   1       1.271  -0.814   3.980  0.00  0.00     0.002 A 
ATOM      6  C8  UNL d   1       0.440  -0.144   3.080  0.00  0.00     0.002 A 
ENDROOT
BRANCH   1   7
ATOM      7  C2  UNL d   1      -0.628   0.102   0.803  0.00  0.00     0.056 C 
BRANCH   7   8
ATOM      8  C1  UNL d   1      -2.086  -0.363   0.873  0.00  0.00     0.007 C 
ATOM      9  C   UNL d   1      -2.440  -1.391  -0.193  0.00  0.00     0.009 C 
ENDBRANCH   7   8
ENDBRANCH   1   7
TORSDOF 2
ENDMDL
