MODEL 1
REMARK minimizedAffinity 2.81725979
REMARK minimizedRMSD -1
REMARK  2 active torsions:
REMARK  status: ('A' for Active; 'I' for Inactive)
REMARK    1  A    between atoms: C1_2  and  C2_3 
REMARK    2  A    between atoms: C2_3  and  C3_4 
ROOT
ATOM      1  C3  UNL d   1       0.086  -2.473   0.227  0.00  0.00    -0.075 A 
ATOM      2  C4  UNL d   1       1.140  -2.418   1.150  0.00  0.00     0.002 A 
ATOM      3  C5  UNL d   1       2.447  -2.188   0.720  0.00  0.00     0.002 A 
ATOM      4  C6  UNL d   1       2.718  -2.020  -0.637  0.00  0.00    -0.004 A 
ATOM      5  C7  UNL d   1       1.681  -2.090  -1.564  0.00  0.00     0.002 A 
ATOM      6  C8  UNL d   1       0.371  -2.316  -1.136  0.00  0.00     0.002 A 
ENDROOT
BRANCH   1   7
ATOM      7  C2  UNL d   1      -1.335  -2.693   0.689  0.00  0.00     0.056 C 
BRANCH   7   8
ATOM      8  C1  UNL d   1      -2.039  -1.419   1.167  0.00  0.00     0.007 C 
ATOM      9  C   UNL d   1      -1.072  -0.320   1.587  0.00  0.00     0.009 C 
ENDBRANCH   7   8
ENDBRANCH   1   7
TORSDOF 2
ENDMDL
