MODEL 1
REMARK minimizedAffinity -0.645602167
REMARK minimizedRMSD -1
REMARK  2 active torsions:
REMARK  status: ('A' for Active; 'I' for Inactive)
REMARK    1  A    between atoms: C1_2  and  C2_3 
REMARK    2  A    between atoms: C2_3  and  C3_4 
ROOT
ATOM      1  C3  UNL d   1       5.216   3.339  -2.974  0.00  0.00    -0.075 A 
ATOM      2  C4  UNL d   1       6.000   4.437  -2.592  0.00  0.00     0.002 A 
ATOM      3  C5  UNL d   1       5.637   5.218  -1.494  0.00  0.00     0.002 A 
ATOM      4  C6  UNL d   1       4.484   4.919  -0.773  0.00  0.00    -0.004 A 
ATOM      5  C7  UNL d   1       3.689   3.840  -1.154  0.00  0.00     0.002 A 
ATOM      6  C8  UNL d   1       4.051   3.054  -2.249  0.00  0.00     0.002 A 
ENDROOT
BRANCH   1   7
ATOM      7  C2  UNL d   1       5.619   2.472  -4.143  0.00  0.00     0.056 C 
BRANCH   7   8
ATOM      8  C1  UNL d   1       6.000   1.039  -3.754  0.00  0.00     0.007 C 
ATOM      9  C   UNL d   1       5.772   0.032  -4.874  0.00  0.00     0.009 C 
ENDBRANCH   7   8
ENDBRANCH   1   7
TORSDOF 2
ENDMDL
