MODEL 1
REMARK minimizedAffinity 1.65952122
REMARK minimizedRMSD -1
REMARK  2 active torsions:
REMARK  status: ('A' for Active; 'I' for Inactive)
REMARK    1  A    between atoms: C1_2  and  C2_3 
REMARK    2  A    between atoms: C2_3  and  C3_4 
ROOT
ATOM      1  C3  UNL d   1       4.801   3.758  -2.122  0.00  0.00    -0.075 A 
ATOM      2  C4  UNL d   1       6.000   3.376  -2.742  0.00  0.00     0.002 A 
ATOM      3  C5  UNL d   1       5.992   2.848  -4.034  0.00  0.00     0.002 A 
ATOM      4  C6  UNL d   1       4.789   2.686  -4.717  0.00  0.00    -0.004 A 
ATOM      5  C7  UNL d   1       3.591   3.047  -4.104  0.00  0.00     0.002 A 
ATOM      6  C8  UNL d   1       3.596   3.580  -2.814  0.00  0.00     0.002 A 
ENDROOT
BRANCH   1   7
ATOM      7  C2  UNL d   1       4.805   4.357  -0.736  0.00  0.00     0.056 C 
BRANCH   7   8
ATOM      8  C1  UNL d   1       5.836   5.474  -0.542  0.00  0.00     0.007 C 
ATOM      9  C   UNL d   1       5.890   6.000   0.886  0.00  0.00     0.009 C 
ENDBRANCH   7   8
ENDBRANCH   1   7
TORSDOF 2
ENDMDL
