MODEL 1
REMARK minimizedAffinity -2.30093622
REMARK minimizedRMSD -1
REMARK  0 active torsions:
REMARK  status: ('A' for Active; 'I' for Inactive)
ROOT
ATOM      1  N1  IND d   1       1.650   3.027  -5.684  0.00  0.00    -0.196 N 
ATOM      2  C2  IND d   1       0.972   4.208  -5.568  0.00  0.00     0.054 A 
ATOM      3  C3  IND d   1       1.834   5.249  -5.578  0.00  0.00    -0.031 A 
ATOM      4  C4  IND d   1       4.391   5.251  -5.879  0.00  0.00     0.051 A 
ATOM      5  C5  IND d   1       5.464   4.411  -5.985  0.00  0.00    -0.031 A 
ATOM      6  C6  IND d   1       5.317   3.039  -5.999  0.00  0.00     0.015 A 
ATOM      7  C7  IND d   1       4.085   2.453  -5.919  0.00  0.00    -0.016 A 
ATOM      8  C8  IND d   1       2.994   3.303  -5.804  0.00  0.00    -0.047 A 
ATOM      9  C9  IND d   1       3.141   4.695  -5.746  0.00  0.00    -0.096 A 
ATOM     10  HN1 IND d   1       1.296   2.243  -5.682  0.00  0.00     0.298 HD
ENDROOT
TORSDOF 0
ENDMDL
