MODEL 1
REMARK minimizedAffinity -1.89181173
REMARK minimizedRMSD -1
REMARK  0 active torsions:
REMARK  status: ('A' for Active; 'I' for Inactive)
ROOT
ATOM      1  N1  IND d   1       1.452   3.202  -4.874  0.00  0.00    -0.196 N 
ATOM      2  C2  IND d   1       0.981   4.377  -5.390  0.00  0.00     0.054 A 
ATOM      3  C3  IND d   1       2.002   5.124  -5.866  0.00  0.00    -0.031 A 
ATOM      4  C4  IND d   1       4.513   4.570  -5.996  0.00  0.00     0.051 A 
ATOM      5  C5  IND d   1       5.429   3.628  -5.619  0.00  0.00    -0.031 A 
ATOM      6  C6  IND d   1       5.058   2.471  -4.964  0.00  0.00     0.015 A 
ATOM      7  C7  IND d   1       3.750   2.207  -4.670  0.00  0.00    -0.016 A 
ATOM      8  C8  IND d   1       2.818   3.165  -5.045  0.00  0.00    -0.047 A 
ATOM      9  C9  IND d   1       3.193   4.360  -5.672  0.00  0.00    -0.096 A 
ATOM     10  HN1 IND d   1       0.975   2.589  -4.505  0.00  0.00     0.298 HD
ENDROOT
TORSDOF 0
ENDMDL
