MODEL 1
REMARK minimizedAffinity 2.33102298
REMARK minimizedRMSD -1
REMARK  0 active torsions:
REMARK  status: ('A' for Active; 'I' for Inactive)
ROOT
ATOM      1  N1  IND d   1       2.342   2.674  -5.953  0.00  0.00    -0.196 N 
ATOM      2  C2  IND d   1       1.493   3.744  -5.909  0.00  0.00     0.054 A 
ATOM      3  C3  IND d   1       2.194   4.899  -5.876  0.00  0.00    -0.031 A 
ATOM      4  C4  IND d   1       4.739   5.272  -5.988  0.00  0.00     0.051 A 
ATOM      5  C5  IND d   1       5.927   4.597  -6.000  0.00  0.00    -0.031 A 
ATOM      6  C6  IND d   1       5.982   3.218  -5.999  0.00  0.00     0.015 A 
ATOM      7  C7  IND d   1       4.846   2.460  -5.998  0.00  0.00    -0.016 A 
ATOM      8  C8  IND d   1       3.637   3.142  -5.979  0.00  0.00    -0.047 A 
ATOM      9  C9  IND d   1       3.576   4.541  -5.937  0.00  0.00    -0.096 A 
ATOM     10  HN1 IND d   1       2.107   1.847  -5.963  0.00  0.00     0.298 HD
ENDROOT
TORSDOF 0
ENDMDL
