MODEL 1
REMARK minimizedAffinity -3.12451124
REMARK minimizedRMSD -1
REMARK  0 active torsions:
REMARK  status: ('A' for Active; 'I' for Inactive)
ROOT
ATOM      1  N1  IND d   1       0.869   3.879  -5.843  0.00  0.00    -0.196 N 
ATOM      2  C2  IND d   1       0.544   5.202  -5.960  0.00  0.00     0.054 A 
ATOM      3  C3  IND d   1       1.663   5.959  -6.000  0.00  0.00    -0.031 A 
ATOM      4  C4  IND d   1       4.132   5.231  -5.993  0.00  0.00     0.051 A 
ATOM      5  C5  IND d   1       4.929   4.129  -5.863  0.00  0.00    -0.031 A 
ATOM      6  C6  IND d   1       4.403   2.861  -5.720  0.00  0.00     0.015 A 
ATOM      7  C7  IND d   1       3.054   2.646  -5.713  0.00  0.00    -0.016 A 
ATOM      8  C8  IND d   1       2.241   3.764  -5.837  0.00  0.00    -0.047 A 
ATOM      9  C9  IND d   1       2.769   5.058  -5.940  0.00  0.00    -0.096 A 
ATOM     10  HN1 IND d   1       0.310   3.229  -5.784  0.00  0.00     0.298 HD
ENDROOT
TORSDOF 0
ENDMDL
