MODEL 1
REMARK minimizedAffinity -1.97016561
REMARK minimizedRMSD -1
REMARK  0 active torsions:
REMARK  status: ('A' for Active; 'I' for Inactive)
ROOT
ATOM      1  N1  IND d   1       0.896   3.762  -6.000  0.00  0.00    -0.196 N 
ATOM      2  C2  IND d   1       0.218   4.949  -5.979  0.00  0.00     0.054 A 
ATOM      3  C3  IND d   1       1.086   5.985  -5.933  0.00  0.00    -0.031 A 
ATOM      4  C4  IND d   1       3.659   5.966  -5.986  0.00  0.00     0.051 A 
ATOM      5  C5  IND d   1       4.731   5.119  -5.967  0.00  0.00    -0.031 A 
ATOM      6  C6  IND d   1       4.576   3.747  -5.961  0.00  0.00     0.015 A 
ATOM      7  C7  IND d   1       3.338   3.171  -5.985  0.00  0.00    -0.016 A 
ATOM      8  C8  IND d   1       2.247   4.028  -5.997  0.00  0.00    -0.047 A 
ATOM      9  C9  IND d   1       2.398   5.421  -5.961  0.00  0.00    -0.096 A 
ATOM     10  HN1 IND d   1       0.538   2.980  -6.013  0.00  0.00     0.298 HD
ENDROOT
TORSDOF 0
ENDMDL
