MODEL 1
REMARK minimizedAffinity -0.841325104
REMARK minimizedRMSD -1
REMARK  0 active torsions:
REMARK  status: ('A' for Active; 'I' for Inactive)
ROOT
ATOM      1  N1  IND d   1       3.967   3.374   1.522  0.00  0.00    -0.196 N 
ATOM      2  C2  IND d   1       5.177   3.894   1.890  0.00  0.00     0.054 A 
ATOM      3  C3  IND d   1       5.996   2.913   2.332  0.00  0.00    -0.031 A 
ATOM      4  C4  IND d   1       5.593   0.373   2.442  0.00  0.00     0.051 A 
ATOM      5  C5  IND d   1       4.626  -0.574   2.249  0.00  0.00    -0.031 A 
ATOM      6  C6  IND d   1       3.366  -0.247   1.793  0.00  0.00     0.015 A 
ATOM      7  C7  IND d   1       3.027   1.044   1.499  0.00  0.00    -0.016 A 
ATOM      8  C8  IND d   1       4.004   2.009   1.701  0.00  0.00    -0.047 A 
ATOM      9  C9  IND d   1       5.271   1.688   2.205  0.00  0.00    -0.096 A 
ATOM     10  HN1 IND d   1       3.296   3.825   1.229  0.00  0.00     0.298 HD
ENDROOT
TORSDOF 0
ENDMDL
