MODEL 1
REMARK minimizedAffinity -2.11263776
REMARK minimizedRMSD -1
REMARK  0 active torsions:
REMARK  status: ('A' for Active; 'I' for Inactive)
ROOT
ATOM      1  N1  IND d   1       1.234   3.847  -5.797  0.00  0.00    -0.196 N 
ATOM      2  C2  IND d   1       0.766   5.123  -5.949  0.00  0.00     0.054 A 
ATOM      3  C3  IND d   1       1.795   5.998  -6.000  0.00  0.00    -0.031 A 
ATOM      4  C4  IND d   1       4.330   5.547  -5.956  0.00  0.00     0.051 A 
ATOM      5  C5  IND d   1       5.242   4.543  -5.792  0.00  0.00    -0.031 A 
ATOM      6  C6  IND d   1       4.858   3.229  -5.621  0.00  0.00     0.015 A 
ATOM      7  C7  IND d   1       3.541   2.867  -5.619  0.00  0.00    -0.016 A 
ATOM      8  C8  IND d   1       2.611   3.884  -5.777  0.00  0.00    -0.047 A 
ATOM      9  C9  IND d   1       2.994   5.226  -5.909  0.00  0.00    -0.096 A 
ATOM     10  HN1 IND d   1       0.749   3.140  -5.726  0.00  0.00     0.298 HD
ENDROOT
TORSDOF 0
ENDMDL
