MODEL 1
REMARK minimizedAffinity 0.42478615
REMARK minimizedRMSD -1
REMARK  0 active torsions:
REMARK  status: ('A' for Active; 'I' for Inactive)
ROOT
ATOM      1  N1  IND d   1       1.189   3.642  -5.447  0.00  0.00    -0.196 N 
ATOM      2  C2  IND d   1       0.837   4.924  -5.767  0.00  0.00     0.054 A 
ATOM      3  C3  IND d   1       1.941   5.672  -5.992  0.00  0.00    -0.031 A 
ATOM      4  C4  IND d   1       4.419   4.973  -5.990  0.00  0.00     0.051 A 
ATOM      5  C5  IND d   1       5.239   3.914  -5.719  0.00  0.00    -0.031 A 
ATOM      6  C6  IND d   1       4.741   2.685  -5.338  0.00  0.00     0.015 A 
ATOM      7  C7  IND d   1       3.397   2.465  -5.225  0.00  0.00    -0.016 A 
ATOM      8  C8  IND d   1       2.562   3.540  -5.493  0.00  0.00    -0.047 A 
ATOM      9  C9  IND d   1       3.063   4.801  -5.838  0.00  0.00    -0.096 A 
ATOM     10  HN1 IND d   1       0.644   3.007  -5.250  0.00  0.00     0.298 HD
ENDROOT
TORSDOF 0
ENDMDL
