MODEL 1
REMARK minimizedAffinity -3.29813862
REMARK minimizedRMSD -1
REMARK  0 active torsions:
REMARK  status: ('A' for Active; 'I' for Inactive)
ROOT
ATOM      1  N1  IND d   1       1.893   6.000  -5.984  0.00  0.00    -0.196 N 
ATOM      2  C2  IND d   1       0.782   5.204  -5.984  0.00  0.00     0.054 A 
ATOM      3  C3  IND d   1       1.137   3.900  -6.000  0.00  0.00    -0.031 A 
ATOM      4  C4  IND d   1       3.483   2.843  -5.927  0.00  0.00     0.051 A 
ATOM      5  C5  IND d   1       4.811   3.165  -5.956  0.00  0.00    -0.031 A 
ATOM      6  C6  IND d   1       5.243   4.475  -5.994  0.00  0.00     0.015 A 
ATOM      7  C7  IND d   1       4.359   5.517  -5.993  0.00  0.00    -0.016 A 
ATOM      8  C8  IND d   1       3.010   5.194  -5.971  0.00  0.00    -0.047 A 
ATOM      9  C9  IND d   1       2.565   3.865  -5.975  0.00  0.00    -0.096 A 
ATOM     10  HN1 IND d   1       1.894   6.860  -5.992  0.00  0.00     0.298 HD
ENDROOT
TORSDOF 0
ENDMDL
