MODEL 1
REMARK minimizedAffinity -0.794956863
REMARK minimizedRMSD -1
REMARK  0 active torsions:
REMARK  status: ('A' for Active; 'I' for Inactive)
ROOT
ATOM      1  N1  IND d   1       1.416   3.202  -5.968  0.00  0.00    -0.196 N 
ATOM      2  C2  IND d   1       0.800   4.422  -5.934  0.00  0.00     0.054 A 
ATOM      3  C3  IND d   1       1.720   5.412  -5.901  0.00  0.00    -0.031 A 
ATOM      4  C4  IND d   1       4.288   5.263  -5.999  0.00  0.00     0.051 A 
ATOM      5  C5  IND d   1       5.315   4.362  -6.000  0.00  0.00    -0.031 A 
ATOM      6  C6  IND d   1       5.091   3.000  -5.993  0.00  0.00     0.015 A 
ATOM      7  C7  IND d   1       3.825   2.487  -5.997  0.00  0.00    -0.016 A 
ATOM      8  C8  IND d   1       2.779   3.399  -5.988  0.00  0.00    -0.047 A 
ATOM      9  C9  IND d   1       3.001   4.782  -5.952  0.00  0.00    -0.096 A 
ATOM     10  HN1 IND d   1       1.018   2.439  -5.976  0.00  0.00     0.298 HD
ENDROOT
TORSDOF 0
ENDMDL
