MODEL 1
REMARK minimizedAffinity 4.00002575
REMARK minimizedRMSD -1
REMARK  0 active torsions:
REMARK  status: ('A' for Active; 'I' for Inactive)
ROOT
ATOM      1  N1  IND d   1       2.248   0.350   1.982  0.00  0.00    -0.196 N 
ATOM      2  C2  IND d   1       2.542   0.746   0.707  0.00  0.00     0.054 A 
ATOM      3  C3  IND d   1       3.880   0.758   0.514  0.00  0.00    -0.031 A 
ATOM      4  C4  IND d   1       5.770   0.068   2.120  0.00  0.00     0.051 A 
ATOM      5  C5  IND d   1       5.998  -0.328   3.408  0.00  0.00    -0.031 A 
ATOM      6  C6  IND d   1       4.967  -0.525   4.304  0.00  0.00     0.015 A 
ATOM      7  C7  IND d   1       3.662  -0.344   3.940  0.00  0.00    -0.016 A 
ATOM      8  C8  IND d   1       3.428   0.066   2.635  0.00  0.00    -0.047 A 
ATOM      9  C9  IND d   1       4.472   0.309   1.734  0.00  0.00    -0.096 A 
ATOM     10  HN1 IND d   1       1.460   0.289   2.319  0.00  0.00     0.298 HD
ENDROOT
TORSDOF 0
ENDMDL
