MODEL 1
REMARK minimizedAffinity 3.43957615
REMARK minimizedRMSD -1
REMARK  0 active torsions:
REMARK  status: ('A' for Active; 'I' for Inactive)
ROOT
ATOM      1  N1  IND d   1       2.609  -0.093   2.253  0.00  0.00    -0.196 N 
ATOM      2  C2  IND d   1       3.661   0.310   1.478  0.00  0.00     0.054 A 
ATOM      3  C3  IND d   1       3.440   1.552   0.994  0.00  0.00    -0.031 A 
ATOM      4  C4  IND d   1       1.466   3.148   1.425  0.00  0.00     0.051 A 
ATOM      5  C5  IND d   1       0.246   3.211   2.037  0.00  0.00    -0.031 A 
ATOM      6  C6  IND d   1      -0.258   2.156   2.769  0.00  0.00     0.015 A 
ATOM      7  C7  IND d   1       0.448   0.997   2.927  0.00  0.00    -0.016 A 
ATOM      8  C8  IND d   1       1.684   0.926   2.301  0.00  0.00    -0.047 A 
ATOM      9  C9  IND d   1       2.182   1.979   1.522  0.00  0.00    -0.096 A 
ATOM     10  HN1 IND d   1       2.537  -0.856   2.644  0.00  0.00     0.298 HD
ENDROOT
TORSDOF 0
ENDMDL
