MODEL 1
REMARK minimizedAffinity 6.5307498
REMARK minimizedRMSD -1
REMARK  0 active torsions:
REMARK  status: ('A' for Active; 'I' for Inactive)
ROOT
ATOM      1  N1  IND d   1      -3.393   4.917  -0.054  0.00  0.00    -0.196 N 
ATOM      2  C2  IND d   1      -2.575   5.327  -1.070  0.00  0.00     0.054 A 
ATOM      3  C3  IND d   1      -1.291   4.997  -0.803  0.00  0.00    -0.031 A 
ATOM      4  C4  IND d   1      -0.320   3.692   1.193  0.00  0.00     0.051 A 
ATOM      5  C5  IND d   1      -0.671   3.142   2.393  0.00  0.00    -0.031 A 
ATOM      6  C6  IND d   1      -1.974   3.152   2.847  0.00  0.00     0.015 A 
ATOM      7  C7  IND d   1      -2.981   3.707   2.109  0.00  0.00    -0.016 A 
ATOM      8  C8  IND d   1      -2.627   4.273   0.893  0.00  0.00    -0.047 A 
ATOM      9  C9  IND d   1      -1.300   4.303   0.446  0.00  0.00    -0.096 A 
ATOM     10  HN1 IND d   1      -4.243   5.041  -0.014  0.00  0.00     0.298 HD
ENDROOT
TORSDOF 0
ENDMDL
