MODEL 1
REMARK minimizedAffinity 16.4940891
REMARK minimizedRMSD -1
REMARK  0 active torsions:
REMARK  status: ('A' for Active; 'I' for Inactive)
ROOT
ATOM      1  N1  IND d   1      -2.323  -0.803  -5.006  0.00  0.00    -0.196 N 
ATOM      2  C2  IND d   1      -1.740  -1.541  -5.998  0.00  0.00     0.054 A 
ATOM      3  C3  IND d   1      -1.074  -2.594  -5.471  0.00  0.00    -0.031 A 
ATOM      4  C4  IND d   1      -0.896  -3.355  -3.018  0.00  0.00     0.051 A 
ATOM      5  C5  IND d   1      -1.231  -2.980  -1.747  0.00  0.00    -0.031 A 
ATOM      6  C6  IND d   1      -1.965  -1.840  -1.493  0.00  0.00     0.015 A 
ATOM      7  C7  IND d   1      -2.402  -1.033  -2.505  0.00  0.00    -0.016 A 
ATOM      8  C8  IND d   1      -2.057  -1.406  -3.796  0.00  0.00    -0.047 A 
ATOM      9  C9  IND d   1      -1.277  -2.540  -4.058  0.00  0.00    -0.096 A 
ATOM     10  HN1 IND d   1      -2.780  -0.083  -5.119  0.00  0.00     0.298 HD
ENDROOT
TORSDOF 0
ENDMDL
