MODEL 1
REMARK minimizedAffinity 1.21740985
REMARK minimizedRMSD -1
REMARK  0 active torsions:
REMARK  status: ('A' for Active; 'I' for Inactive)
ROOT
ATOM      1  N1  IND d   1       2.781  -0.565   1.142  0.00  0.00    -0.196 N 
ATOM      2  C2  IND d   1       2.746   0.668   1.731  0.00  0.00     0.054 A 
ATOM      3  C3  IND d   1       1.467   1.057   1.932  0.00  0.00    -0.031 A 
ATOM      4  C4  IND d   1      -0.722  -0.214   1.464  0.00  0.00     0.051 A 
ATOM      5  C5  IND d   1      -1.202  -1.361   0.897  0.00  0.00    -0.031 A 
ATOM      6  C6  IND d   1      -0.361  -2.323   0.375  0.00  0.00     0.015 A 
ATOM      7  C7  IND d   1       0.997  -2.177   0.410  0.00  0.00    -0.016 A 
ATOM      8  C8  IND d   1       1.487  -1.010   0.979  0.00  0.00    -0.047 A 
ATOM      9  C9  IND d   1       0.637  -0.011   1.472  0.00  0.00    -0.096 A 
ATOM     10  HN1 IND d   1       3.491  -0.991   0.912  0.00  0.00     0.298 HD
ENDROOT
TORSDOF 0
ENDMDL
