MODEL 1
REMARK minimizedAffinity 7.98407888
REMARK minimizedRMSD -1
REMARK  0 active torsions:
REMARK  status: ('A' for Active; 'I' for Inactive)
ROOT
ATOM      1  N1  IND d   1       4.116  -0.755   2.067  0.00  0.00    -0.196 N 
ATOM      2  C2  IND d   1       5.216   0.018   2.311  0.00  0.00     0.054 A 
ATOM      3  C3  IND d   1       5.071   1.236   1.742  0.00  0.00    -0.031 A 
ATOM      4  C4  IND d   1       3.066   2.210   0.454  0.00  0.00     0.051 A 
ATOM      5  C5  IND d   1       1.844   1.870  -0.054  0.00  0.00    -0.031 A 
ATOM      6  C6  IND d   1       1.304   0.613   0.126  0.00  0.00     0.015 A 
ATOM      7  C7  IND d   1       1.965  -0.352   0.832  0.00  0.00    -0.016 A 
ATOM      8  C8  IND d   1       3.210  -0.012   1.343  0.00  0.00    -0.047 A 
ATOM      9  C9  IND d   1       3.781   1.248   1.128  0.00  0.00    -0.096 A 
ATOM     10  HN1 IND d   1       4.008  -1.569   2.323  0.00  0.00     0.298 HD
ENDROOT
TORSDOF 0
ENDMDL
