MODEL 1
REMARK minimizedAffinity 6.24610043
REMARK minimizedRMSD -1
REMARK  0 active torsions:
REMARK  status: ('A' for Active; 'I' for Inactive)
ROOT
ATOM      1  C   UNL d   1       1.900  -2.808  -0.761  0.00  0.00     0.020 A 
ATOM      2  C1  UNL d   1       0.774  -2.382  -0.059  0.00  0.00     0.020 A 
ATOM      3  C2  UNL d   1       0.629  -1.035   0.279  0.00  0.00     0.034 A 
ATOM      4  C3  UNL d   1       1.613  -0.109  -0.086  0.00  0.00     0.017 A 
ATOM      5  C4  UNL d   1       2.744  -0.537  -0.790  0.00  0.00     0.017 A 
ATOM      6  C5  UNL d   1       2.883  -1.887  -1.126  0.00  0.00     0.034 A 
ATOM      7 Cl   UNL d   1       4.000   0.547  -1.275  0.00  0.00    -0.070 Cl
ATOM      8 Cl1  UNL d   1       1.369   1.541   0.365  0.00  0.00    -0.070 Cl
ENDROOT
TORSDOF 0
ENDMDL
