MODEL 1
REMARK minimizedAffinity 6.44471216
REMARK minimizedRMSD -1
REMARK  0 active torsions:
REMARK  status: ('A' for Active; 'I' for Inactive)
ROOT
ATOM      1  C   UNL d   1      -5.954   3.949   4.621  0.00  0.00     0.020 A 
ATOM      2  C1  UNL d   1      -5.954   5.340   4.524  0.00  0.00     0.020 A 
ATOM      3  C2  UNL d   1      -5.968   5.952   3.268  0.00  0.00     0.034 A 
ATOM      4  C3  UNL d   1      -5.981   5.173   2.106  0.00  0.00     0.017 A 
ATOM      5  C4  UNL d   1      -5.981   3.777   2.205  0.00  0.00     0.017 A 
ATOM      6  C5  UNL d   1      -5.968   3.169   3.464  0.00  0.00     0.034 A 
ATOM      7 Cl   UNL d   1      -5.998   2.749   0.815  0.00  0.00    -0.070 Cl
ATOM      8 Cl1  UNL d   1      -5.998   5.997   0.587  0.00  0.00    -0.070 Cl
ENDROOT
TORSDOF 0
ENDMDL
