MODEL 1
REMARK minimizedAffinity 9.90102577
REMARK minimizedRMSD -1
REMARK  0 active torsions:
REMARK  status: ('A' for Active; 'I' for Inactive)
ROOT
ATOM      1  C   UNL d   1       3.882   2.657  -1.560  0.00  0.00     0.020 A 
ATOM      2  C1  UNL d   1       3.091   1.664  -0.984  0.00  0.00     0.020 A 
ATOM      3  C2  UNL d   1       3.012   0.402  -1.576  0.00  0.00     0.034 A 
ATOM      4  C3  UNL d   1       3.727   0.130  -2.749  0.00  0.00     0.017 A 
ATOM      5  C4  UNL d   1       4.521   1.127  -3.326  0.00  0.00     0.017 A 
ATOM      6  C5  UNL d   1       4.596   2.388  -2.728  0.00  0.00     0.034 A 
ATOM      7 Cl   UNL d   1       5.431   0.865  -4.772  0.00  0.00    -0.070 Cl
ATOM      8 Cl1  UNL d   1       3.583  -1.453  -3.427  0.00  0.00    -0.070 Cl
ENDROOT
TORSDOF 0
ENDMDL
