MODEL 1
REMARK minimizedAffinity -1.78961205
REMARK minimizedRMSD -1
REMARK  0 active torsions:
REMARK  status: ('A' for Active; 'I' for Inactive)
ROOT
ATOM      1  C   UNL d   1       0.283  -4.867   4.641  0.00  0.00     0.020 A 
ATOM      2  C1  UNL d   1      -0.112  -3.777   5.414  0.00  0.00     0.020 A 
ATOM      3  C2  UNL d   1       0.140  -2.477   4.970  0.00  0.00     0.034 A 
ATOM      4  C3  UNL d   1       0.790  -2.265   3.748  0.00  0.00     0.017 A 
ATOM      5  C4  UNL d   1       1.186  -3.360   2.972  0.00  0.00     0.017 A 
ATOM      6  C5  UNL d   1       0.931  -4.659   3.422  0.00  0.00     0.034 A 
ATOM      7 Cl   UNL d   1       1.992  -3.177   1.455  0.00  0.00    -0.070 Cl
ATOM      8 Cl1  UNL d   1       1.069  -0.631   3.261  0.00  0.00    -0.070 Cl
ENDROOT
TORSDOF 0
ENDMDL
