MODEL 1
REMARK minimizedAffinity 3.3278265
REMARK minimizedRMSD -1
REMARK  0 active torsions:
REMARK  status: ('A' for Active; 'I' for Inactive)
ROOT
ATOM      1  C   UNL d   1       3.188   0.989   1.027  0.00  0.00     0.020 A 
ATOM      2  C1  UNL d   1       3.167   0.877  -0.362  0.00  0.00     0.020 A 
ATOM      3  C2  UNL d   1       3.775   1.857  -1.150  0.00  0.00     0.034 A 
ATOM      4  C3  UNL d   1       4.407   2.951  -0.549  0.00  0.00     0.017 A 
ATOM      5  C4  UNL d   1       4.428   3.062   0.846  0.00  0.00     0.017 A 
ATOM      6  C5  UNL d   1       3.817   2.079   1.630  0.00  0.00     0.034 A 
ATOM      7 Cl   UNL d   1       5.188   4.384   1.660  0.00  0.00    -0.070 Cl
ATOM      8 Cl1  UNL d   1       5.139   4.125  -1.585  0.00  0.00    -0.070 Cl
ENDROOT
TORSDOF 0
ENDMDL
