MODEL 1
REMARK minimizedAffinity 6.80831432
REMARK minimizedRMSD -1
REMARK  0 active torsions:
REMARK  status: ('A' for Active; 'I' for Inactive)
ROOT
ATOM      1  C   UNL d   1      -2.108   0.097  -0.807  0.00  0.00     0.020 A 
ATOM      2  C1  UNL d   1      -2.068   0.379  -2.172  0.00  0.00     0.020 A 
ATOM      3  C2  UNL d   1      -3.245   0.701  -2.853  0.00  0.00     0.034 A 
ATOM      4  C3  UNL d   1      -4.465   0.741  -2.169  0.00  0.00     0.017 A 
ATOM      5  C4  UNL d   1      -4.504   0.458  -0.799  0.00  0.00     0.017 A 
ATOM      6  C5  UNL d   1      -3.323   0.137  -0.122  0.00  0.00     0.034 A 
ATOM      7 Cl   UNL d   1      -5.972   0.487   0.113  0.00  0.00    -0.070 Cl
ATOM      8 Cl1  UNL d   1      -5.880   1.146  -3.074  0.00  0.00    -0.070 Cl
ENDROOT
TORSDOF 0
ENDMDL
