MODEL 1
REMARK minimizedAffinity 5.44202185
REMARK minimizedRMSD -1
REMARK  0 active torsions:
REMARK  status: ('A' for Active; 'I' for Inactive)
ROOT
ATOM      1  C   UNL d   1       3.236   0.464  -1.459  0.00  0.00     0.020 A 
ATOM      2  C1  UNL d   1       3.096   0.157  -0.106  0.00  0.00     0.020 A 
ATOM      3  C2  UNL d   1       3.712   0.957   0.859  0.00  0.00     0.034 A 
ATOM      4  C3  UNL d   1       4.471   2.068   0.472  0.00  0.00     0.017 A 
ATOM      5  C4  UNL d   1       4.611   2.375  -0.886  0.00  0.00     0.017 A 
ATOM      6  C5  UNL d   1       3.992   1.570  -1.848  0.00  0.00     0.034 A 
ATOM      7 Cl   UNL d   1       5.531   3.729  -1.440  0.00  0.00    -0.070 Cl
ATOM      8 Cl1  UNL d   1       5.203   3.014   1.719  0.00  0.00    -0.070 Cl
ENDROOT
TORSDOF 0
ENDMDL
