MODEL 1
REMARK minimizedAffinity 12.2672157
REMARK minimizedRMSD -1
REMARK  0 active torsions:
REMARK  status: ('A' for Active; 'I' for Inactive)
ROOT
ATOM      1  C   UNL d   1       3.004  -0.144  -0.413  0.00  0.00     0.020 A 
ATOM      2  C1  UNL d   1       3.039   0.633  -1.570  0.00  0.00     0.020 A 
ATOM      3  C2  UNL d   1       3.608   1.908  -1.538  0.00  0.00     0.034 A 
ATOM      4  C3  UNL d   1       4.145   2.409  -0.347  0.00  0.00     0.017 A 
ATOM      5  C4  UNL d   1       4.109   1.628   0.814  0.00  0.00     0.017 A 
ATOM      6  C5  UNL d   1       3.538   0.353   0.776  0.00  0.00     0.034 A 
ATOM      7 Cl   UNL d   1       4.751   2.179   2.321  0.00  0.00    -0.070 Cl
ATOM      8 Cl1  UNL d   1       4.833   3.994  -0.380  0.00  0.00    -0.070 Cl
ENDROOT
TORSDOF 0
ENDMDL
