MODEL 1
REMARK minimizedAffinity 2.94054484
REMARK minimizedRMSD -1
REMARK  0 active torsions:
REMARK  status: ('A' for Active; 'I' for Inactive)
ROOT
ATOM      1  C4' PXY d   1       5.998   0.363  -0.305  0.00  0.00     0.077 C 
ATOM      2  C1' PXY d   1       0.605   1.966   1.024  0.00  0.00     0.077 C 
ATOM      3  C1  PXY d   1       2.015   1.534   0.671  0.00  0.00    -0.082 A 
ATOM      4  C2  PXY d   1       3.043   2.078   1.302  0.00  0.00     0.003 A 
ATOM      5  C3  PXY d   1       4.326   1.723   0.973  0.00  0.00     0.003 A 
ATOM      6  C4  PXY d   1       4.557   0.762   0.026  0.00  0.00    -0.082 A 
ATOM      7  C5  PXY d   1       3.513   0.194  -0.615  0.00  0.00     0.003 A 
ATOM      8  C6  PXY d   1       2.220   0.598  -0.295  0.00  0.00     0.003 A 
ENDROOT
TORSDOF 0
ENDMDL
