MODEL 1
REMARK minimizedAffinity 5.61288977
REMARK minimizedRMSD -1
REMARK  0 active torsions:
REMARK  status: ('A' for Active; 'I' for Inactive)
ROOT
ATOM      1  C4' PXY d   1       0.401  -4.558   5.961  0.00  0.00     0.077 C 
ATOM      2  C1' PXY d   1       0.716   0.282   2.816  0.00  0.00     0.077 C 
ATOM      3  C1  PXY d   1       0.622  -0.991   3.635  0.00  0.00    -0.082 A 
ATOM      4  C2  PXY d   1       1.255  -1.071   4.794  0.00  0.00     0.003 A 
ATOM      5  C3  PXY d   1       1.207  -2.225   5.532  0.00  0.00     0.003 A 
ATOM      6  C4  PXY d   1       0.460  -3.290   5.105  0.00  0.00    -0.082 A 
ATOM      7  C5  PXY d   1      -0.197  -3.213   3.928  0.00  0.00     0.003 A 
ATOM      8  C6  PXY d   1      -0.102  -2.047   3.174  0.00  0.00     0.003 A 
ENDROOT
TORSDOF 0
ENDMDL
