MODEL 1
REMARK minimizedAffinity 3.47569132
REMARK minimizedRMSD -1
REMARK  0 active torsions:
REMARK  status: ('A' for Active; 'I' for Inactive)
ROOT
ATOM      1  C4' PXY d   1       3.948  -3.609  -2.994  0.00  0.00     0.077 C 
ATOM      2  C1' PXY d   1       3.998   1.351  -0.025  0.00  0.00     0.077 C 
ATOM      3  C1  PXY d   1       3.983   0.044  -0.793  0.00  0.00    -0.082 A 
ATOM      4  C2  PXY d   1       4.582  -0.030  -1.970  0.00  0.00     0.003 A 
ATOM      5  C3  PXY d   1       4.551  -1.196  -2.692  0.00  0.00     0.003 A 
ATOM      6  C4  PXY d   1       3.946  -2.312  -2.180  0.00  0.00    -0.082 A 
ATOM      7  C5  PXY d   1       3.342  -2.248  -0.974  0.00  0.00     0.003 A 
ATOM      8  C6  PXY d   1       3.350  -1.044  -0.276  0.00  0.00     0.003 A 
ENDROOT
TORSDOF 0
ENDMDL
