MODEL 1
REMARK minimizedAffinity 11.3800011
REMARK minimizedRMSD -1
REMARK  0 active torsions:
REMARK  status: ('A' for Active; 'I' for Inactive)
ROOT
ATOM      1  C4' PXY d   1       3.769  -0.787  -0.061  0.00  0.00     0.077 C 
ATOM      2  C1' PXY d   1       0.421  -5.263  -1.536  0.00  0.00     0.077 C 
ATOM      3  C1  PXY d   1       1.294  -4.089  -1.137  0.00  0.00    -0.082 A 
ATOM      4  C2  PXY d   1       1.764  -3.277  -2.070  0.00  0.00     0.003 A 
ATOM      5  C3  PXY d   1       2.581  -2.230  -1.730  0.00  0.00     0.003 A 
ATOM      6  C4  PXY d   1       2.876  -1.979  -0.416  0.00  0.00    -0.082 A 
ATOM      7  C5  PXY d   1       2.391  -2.797   0.542  0.00  0.00     0.003 A 
ATOM      8  C6  PXY d   1       1.597  -3.879   0.173  0.00  0.00     0.003 A 
ENDROOT
TORSDOF 0
ENDMDL
