MODEL 1
REMARK minimizedAffinity 8.96881962
REMARK minimizedRMSD -1
REMARK  0 active torsions:
REMARK  status: ('A' for Active; 'I' for Inactive)
ROOT
ATOM      1  C4' PXY d   1       3.401  -2.534   0.826  0.00  0.00     0.077 C 
ATOM      2  C1' PXY d   1       5.347   2.340  -1.599  0.00  0.00     0.077 C 
ATOM      3  C1  PXY d   1       4.824   1.065  -0.966  0.00  0.00    -0.082 A 
ATOM      4  C2  PXY d   1       5.549   0.446  -0.049  0.00  0.00     0.003 A 
ATOM      5  C3  PXY d   1       5.106  -0.725   0.511  0.00  0.00     0.003 A 
ATOM      6  C4  PXY d   1       3.885  -1.239   0.167  0.00  0.00    -0.082 A 
ATOM      7  C5  PXY d   1       3.134  -0.607  -0.761  0.00  0.00     0.003 A 
ATOM      8  C6  PXY d   1       3.620   0.558  -1.347  0.00  0.00     0.003 A 
ENDROOT
TORSDOF 0
ENDMDL
