MODEL 1
REMARK minimizedAffinity 7.26433849
REMARK minimizedRMSD -1
REMARK  0 active torsions:
REMARK  status: ('A' for Active; 'I' for Inactive)
ROOT
ATOM      1  C4' PXY d   1       5.801   2.761  -1.683  0.00  0.00     0.077 C 
ATOM      2  C1' PXY d   1       3.461  -2.179   0.196  0.00  0.00     0.077 C 
ATOM      3  C1  PXY d   1       4.084  -0.885  -0.288  0.00  0.00    -0.082 A 
ATOM      4  C2  PXY d   1       3.326   0.027  -0.874  0.00  0.00     0.003 A 
ATOM      5  C3  PXY d   1       3.879   1.190  -1.346  0.00  0.00     0.003 A 
ATOM      6  C4  PXY d   1       5.213   1.444  -1.170  0.00  0.00    -0.082 A 
ATOM      7  C5  PXY d   1       5.991   0.523  -0.564  0.00  0.00     0.003 A 
ATOM      8  C6  PXY d   1       5.418  -0.669  -0.128  0.00  0.00     0.003 A 
ENDROOT
TORSDOF 0
ENDMDL
