MODEL 1
REMARK minimizedAffinity 8.9919157
REMARK minimizedRMSD -1
REMARK  0 active torsions:
REMARK  status: ('A' for Active; 'I' for Inactive)
ROOT
ATOM      1  C4' PXY d   1       2.980  -2.665  -1.155  0.00  0.00     0.077 C 
ATOM      2  C1' PXY d   1       5.741   2.308  -0.128  0.00  0.00     0.077 C 
ATOM      3  C1  PXY d   1       5.028   0.999  -0.403  0.00  0.00    -0.082 A 
ATOM      4  C2  PXY d   1       3.707   0.976  -0.472  0.00  0.00     0.003 A 
ATOM      5  C3  PXY d   1       3.044  -0.205  -0.689  0.00  0.00     0.003 A 
ATOM      6  C4  PXY d   1       3.743  -1.365  -0.889  0.00  0.00    -0.082 A 
ATOM      7  C5  PXY d   1       5.092  -1.347  -0.830  0.00  0.00     0.003 A 
ATOM      8  C6  PXY d   1       5.744  -0.146  -0.569  0.00  0.00     0.003 A 
ENDROOT
TORSDOF 0
ENDMDL
