MODEL 1
REMARK minimizedAffinity 0.437360555
REMARK minimizedRMSD -1
REMARK  0 active torsions:
REMARK  status: ('A' for Active; 'I' for Inactive)
ROOT
ATOM      1  C4' PXY d   1       3.064  -2.800  -1.290  0.00  0.00     0.077 C 
ATOM      2  C1' PXY d   1       5.369   2.500  -1.207  0.00  0.00     0.077 C 
ATOM      3  C1  PXY d   1       4.773   1.107  -1.239  0.00  0.00    -0.082 A 
ATOM      4  C2  PXY d   1       3.544   0.911  -0.788  0.00  0.00     0.003 A 
ATOM      5  C3  PXY d   1       3.001  -0.348  -0.780  0.00  0.00     0.003 A 
ATOM      6  C4  PXY d   1       3.703  -1.409  -1.287  0.00  0.00    -0.082 A 
ATOM      7  C5  PXY d   1       4.954  -1.215  -1.758  0.00  0.00     0.003 A 
ATOM      8  C6  PXY d   1       5.502   0.063  -1.719  0.00  0.00     0.003 A 
ENDROOT
TORSDOF 0
ENDMDL
