MODEL 1
REMARK minimizedAffinity 7.60329485
REMARK minimizedRMSD -1
REMARK  0 active torsions:
REMARK  status: ('A' for Active; 'I' for Inactive)
ROOT
ATOM      1  C4' PXY d   1       6.000   3.573  -1.216  0.00  0.00     0.077 C 
ATOM      2  C1' PXY d   1       3.251  -1.293   0.260  0.00  0.00     0.077 C 
ATOM      3  C1  PXY d   1       3.981  -0.019  -0.118  0.00  0.00    -0.082 A 
ATOM      4  C2  PXY d   1       3.321   0.960  -0.714  0.00  0.00     0.003 A 
ATOM      5  C3  PXY d   1       3.973   2.106  -1.092  0.00  0.00     0.003 A 
ATOM      6  C4  PXY d   1       5.302   2.273  -0.808  0.00  0.00    -0.082 A 
ATOM      7  C5  PXY d   1       5.979   1.282  -0.190  0.00  0.00     0.003 A 
ATOM      8  C6  PXY d   1       5.309   0.110   0.148  0.00  0.00     0.003 A 
ENDROOT
TORSDOF 0
ENDMDL
