MODEL 1
REMARK minimizedAffinity -1.90496635
REMARK minimizedRMSD -1
REMARK  0 active torsions:
REMARK  status: ('A' for Active; 'I' for Inactive)
ROOT
ATOM      1  C4' PXY d   1       5.619   4.848   5.634  0.00  0.00     0.077 C 
ATOM      2  C1' PXY d   1       5.999   4.887  -0.134  0.00  0.00     0.077 C 
ATOM      3  C1  PXY d   1       5.895   4.864   1.378  0.00  0.00    -0.082 A 
ATOM      4  C2  PXY d   1       5.729   5.998   2.039  0.00  0.00     0.003 A 
ATOM      5  C3  PXY d   1       5.666   6.000   3.409  0.00  0.00     0.003 A 
ATOM      6  C4  PXY d   1       5.719   4.822   4.106  0.00  0.00    -0.082 A 
ATOM      7  C5  PXY d   1       5.877   3.660   3.438  0.00  0.00     0.003 A 
ATOM      8  C6  PXY d   1       5.981   3.684   2.050  0.00  0.00     0.003 A 
ENDROOT
TORSDOF 0
ENDMDL
