MODEL 1
REMARK minimizedAffinity 15.9140282
REMARK minimizedRMSD -1
REMARK  0 active torsions:
REMARK  status: ('A' for Active; 'I' for Inactive)
ROOT
ATOM      1  C4' PXY d   1       2.696  -2.859  -3.726  0.00  0.00     0.077 C 
ATOM      2  C1' PXY d   1       3.971   0.949   0.432  0.00  0.00     0.077 C 
ATOM      3  C1  PXY d   1       3.634  -0.059  -0.649  0.00  0.00    -0.082 A 
ATOM      4  C2  PXY d   1       4.091   0.124  -1.878  0.00  0.00     0.003 A 
ATOM      5  C3  PXY d   1       3.770  -0.761  -2.875  0.00  0.00     0.003 A 
ATOM      6  C4  PXY d   1       3.018  -1.872  -2.601  0.00  0.00    -0.082 A 
ATOM      7  C5  PXY d   1       2.558  -2.071  -1.347  0.00  0.00     0.003 A 
ATOM      8  C6  PXY d   1       2.861  -1.140  -0.358  0.00  0.00     0.003 A 
ENDROOT
TORSDOF 0
ENDMDL
