MODEL 1
REMARK minimizedAffinity 4.62845469
REMARK minimizedRMSD -1
REMARK  2 active torsions:
REMARK  status: ('A' for Active; 'I' for Inactive)
REMARK    1  A    between atoms: C1_2  and  C2_3 
REMARK    2  A    between atoms: C2_3  and  C3_4 
ROOT
ATOM      1  C3  UNL d   1       1.526   1.009  -0.008  0.00  0.00    -0.075 A 
ATOM      2  C4  UNL d   1       1.494  -0.256   0.596  0.00  0.00     0.002 A 
ATOM      3  C5  UNL d   1       1.984  -1.376  -0.078  0.00  0.00     0.002 A 
ATOM      4  C6  UNL d   1       2.503  -1.246  -1.364  0.00  0.00    -0.004 A 
ATOM      5  C7  UNL d   1       2.525   0.003  -1.980  0.00  0.00     0.002 A 
ATOM      6  C8  UNL d   1       2.039   1.125  -1.307  0.00  0.00     0.002 A 
ENDROOT
BRANCH   1   7
ATOM      7  C2  UNL d   1       1.024   2.229   0.727  0.00  0.00     0.056 C 
BRANCH   7   8
ATOM      8  C1  UNL d   1      -0.492   2.240   0.954  0.00  0.00     0.007 C 
ATOM      9  C   UNL d   1      -1.276   2.730  -0.256  0.00  0.00     0.009 C 
ENDBRANCH   7   8
ENDBRANCH   1   7
TORSDOF 2
ENDMDL
