MODEL 1
REMARK minimizedAffinity -0.0889005214
REMARK minimizedRMSD -1
REMARK  2 active torsions:
REMARK  status: ('A' for Active; 'I' for Inactive)
REMARK    1  A    between atoms: C1_2  and  C2_3 
REMARK    2  A    between atoms: C2_3  and  C3_4 
ROOT
ATOM      1  C3  UNL d   1      -0.678   2.583  -4.887  0.00  0.00    -0.075 A 
ATOM      2  C4  UNL d   1      -0.411   3.284  -3.702  0.00  0.00     0.002 A 
ATOM      3  C5  UNL d   1      -0.694   4.646  -3.606  0.00  0.00     0.002 A 
ATOM      4  C6  UNL d   1      -1.238   5.326  -4.694  0.00  0.00    -0.004 A 
ATOM      5  C7  UNL d   1      -1.492   4.643  -5.881  0.00  0.00     0.002 A 
ATOM      6  C8  UNL d   1      -1.213   3.279  -5.979  0.00  0.00     0.002 A 
ENDROOT
BRANCH   1   7
ATOM      7  C2  UNL d   1      -0.400   1.102  -4.988  0.00  0.00     0.056 C 
BRANCH   7   8
ATOM      8  C1  UNL d   1       1.090   0.746  -5.006  0.00  0.00     0.007 C 
ATOM      9  C   UNL d   1       1.897   1.589  -5.985  0.00  0.00     0.009 C 
ENDBRANCH   7   8
ENDBRANCH   1   7
TORSDOF 2
ENDMDL
