MODEL 1
REMARK minimizedAffinity -5.22236776
REMARK minimizedRMSD -1
REMARK  2 active torsions:
REMARK  status: ('A' for Active; 'I' for Inactive)
REMARK    1  A    between atoms: C1_2  and  C2_3 
REMARK    2  A    between atoms: C2_3  and  C3_4 
ROOT
ATOM      1  C3  UNL d   1       0.478  -1.680  -0.310  0.00  0.00    -0.075 A 
ATOM      2  C4  UNL d   1       0.580  -0.524   0.478  0.00  0.00     0.002 A 
ATOM      3  C5  UNL d   1       1.498   0.475   0.155  0.00  0.00     0.002 A 
ATOM      4  C6  UNL d   1       2.332   0.328  -0.951  0.00  0.00    -0.004 A 
ATOM      5  C7  UNL d   1       2.252  -0.823  -1.731  0.00  0.00     0.002 A 
ATOM      6  C8  UNL d   1       1.331  -1.823  -1.413  0.00  0.00     0.002 A 
ENDROOT
BRANCH   1   7
ATOM      7  C2  UNL d   1      -0.534  -2.752   0.017  0.00  0.00     0.056 C 
BRANCH   7   8
ATOM      8  C1  UNL d   1      -0.764  -3.758  -1.115  0.00  0.00     0.007 C 
ATOM      9  C   UNL d   1      -1.983  -3.434  -1.968  0.00  0.00     0.009 C 
ENDBRANCH   7   8
ENDBRANCH   1   7
TORSDOF 2
ENDMDL
