MODEL 1
REMARK minimizedAffinity 0.116471551
REMARK minimizedRMSD -1
REMARK  2 active torsions:
REMARK  status: ('A' for Active; 'I' for Inactive)
REMARK    1  A    between atoms: C1_2  and  C2_3 
REMARK    2  A    between atoms: C2_3  and  C3_4 
ROOT
ATOM      1  C3  UNL d   1       2.247   2.633  -5.255  0.00  0.00    -0.075 A 
ATOM      2  C4  UNL d   1       2.582   2.260  -3.945  0.00  0.00     0.002 A 
ATOM      3  C5  UNL d   1       3.798   2.652  -3.385  0.00  0.00     0.002 A 
ATOM      4  C6  UNL d   1       4.697   3.413  -4.129  0.00  0.00    -0.004 A 
ATOM      5  C7  UNL d   1       4.382   3.776  -5.437  0.00  0.00     0.002 A 
ATOM      6  C8  UNL d   1       3.164   3.388  -5.998  0.00  0.00     0.002 A 
ENDROOT
BRANCH   1   7
ATOM      7  C2  UNL d   1       0.920   2.237  -5.856  0.00  0.00     0.056 C 
BRANCH   7   8
ATOM      8  C1  UNL d   1      -0.282   2.975  -5.257  0.00  0.00     0.007 C 
ATOM      9  C   UNL d   1      -1.584   2.704  -6.000  0.00  0.00     0.009 C 
ENDBRANCH   7   8
ENDBRANCH   1   7
TORSDOF 2
ENDMDL
