MODEL 1
REMARK minimizedAffinity 1.24527669
REMARK minimizedRMSD -1
REMARK  2 active torsions:
REMARK  status: ('A' for Active; 'I' for Inactive)
REMARK    1  A    between atoms: C1_2  and  C2_3 
REMARK    2  A    between atoms: C2_3  and  C3_4 
ROOT
ATOM      1  C3  UNL d   1      -0.729   1.483   1.021  0.00  0.00    -0.075 A 
ATOM      2  C4  UNL d   1      -1.976   0.842   1.040  0.00  0.00     0.002 A 
ATOM      3  C5  UNL d   1      -2.067  -0.536   0.841  0.00  0.00     0.002 A 
ATOM      4  C6  UNL d   1      -0.917  -1.288   0.611  0.00  0.00    -0.004 A 
ATOM      5  C7  UNL d   1       0.326  -0.659   0.574  0.00  0.00     0.002 A 
ATOM      6  C8  UNL d   1       0.421   0.719   0.777  0.00  0.00     0.002 A 
ENDROOT
BRANCH   1   7
ATOM      7  C2  UNL d   1      -0.620   2.969   1.266  0.00  0.00     0.056 C 
BRANCH   7   8
ATOM      8  C1  UNL d   1       0.372   3.349   2.369  0.00  0.00     0.007 C 
ATOM      9  C   UNL d   1      -0.188   3.158   3.773  0.00  0.00     0.009 C 
ENDBRANCH   7   8
ENDBRANCH   1   7
TORSDOF 2
ENDMDL
