MODEL 1
REMARK minimizedAffinity -0.445711523
REMARK minimizedRMSD -1
REMARK  2 active torsions:
REMARK  status: ('A' for Active; 'I' for Inactive)
REMARK    1  A    between atoms: C1_2  and  C2_3 
REMARK    2  A    between atoms: C2_3  and  C3_4 
ROOT
ATOM      1  C3  UNL d   1      -0.577  -0.191   0.359  0.00  0.00    -0.075 A 
ATOM      2  C4  UNL d   1       0.806   0.035   0.419  0.00  0.00     0.002 A 
ATOM      3  C5  UNL d   1       1.305   1.274   0.822  0.00  0.00     0.002 A 
ATOM      4  C6  UNL d   1       0.429   2.304   1.159  0.00  0.00    -0.004 A 
ATOM      5  C7  UNL d   1      -0.946   2.096   1.088  0.00  0.00     0.002 A 
ATOM      6  C8  UNL d   1      -1.448   0.855   0.689  0.00  0.00     0.002 A 
ENDROOT
BRANCH   1   7
ATOM      7  C2  UNL d   1      -1.122  -1.539  -0.048  0.00  0.00     0.056 C 
BRANCH   7   8
ATOM      8  C1  UNL d   1      -0.457  -2.131  -1.295  0.00  0.00     0.007 C 
ATOM      9  C   UNL d   1      -1.238  -3.290  -1.900  0.00  0.00     0.009 C 
ENDBRANCH   7   8
ENDBRANCH   1   7
TORSDOF 2
ENDMDL
