MODEL 1
REMARK minimizedAffinity -0.674383461
REMARK minimizedRMSD -1
REMARK  2 active torsions:
REMARK  status: ('A' for Active; 'I' for Inactive)
REMARK    1  A    between atoms: C1_2  and  C2_3 
REMARK    2  A    between atoms: C2_3  and  C3_4 
ROOT
ATOM      1  C3  UNL d   1       0.039   0.415   0.579  0.00  0.00    -0.075 A 
ATOM      2  C4  UNL d   1      -1.003  -0.515   0.461  0.00  0.00     0.002 A 
ATOM      3  C5  UNL d   1      -2.333  -0.105   0.562  0.00  0.00     0.002 A 
ATOM      4  C6  UNL d   1      -2.636   1.235   0.793  0.00  0.00    -0.004 A 
ATOM      5  C7  UNL d   1      -1.608   2.165   0.929  0.00  0.00     0.002 A 
ATOM      6  C8  UNL d   1      -0.277   1.758   0.824  0.00  0.00     0.002 A 
ENDROOT
BRANCH   1   7
ATOM      7  C2  UNL d   1       1.480  -0.017   0.441  0.00  0.00     0.056 C 
BRANCH   7   8
ATOM      8  C1  UNL d   1       1.754  -0.889  -0.789  0.00  0.00     0.007 C 
ATOM      9  C   UNL d   1       2.437  -0.132  -1.921  0.00  0.00     0.009 C 
ENDBRANCH   7   8
ENDBRANCH   1   7
TORSDOF 2
ENDMDL
