MODEL 1
REMARK minimizedAffinity -2.66745758
REMARK minimizedRMSD -1
REMARK  2 active torsions:
REMARK  status: ('A' for Active; 'I' for Inactive)
REMARK    1  A    between atoms: C1_2  and  C2_3 
REMARK    2  A    between atoms: C2_3  and  C3_4 
ROOT
ATOM      1  C3  UNL d   1       1.615   2.320   1.903  0.00  0.00    -0.075 A 
ATOM      2  C4  UNL d   1       0.439   3.084   1.902  0.00  0.00     0.002 A 
ATOM      3  C5  UNL d   1      -0.669   2.679   1.156  0.00  0.00     0.002 A 
ATOM      4  C6  UNL d   1      -0.611   1.514   0.395  0.00  0.00    -0.004 A 
ATOM      5  C7  UNL d   1       0.558   0.756   0.376  0.00  0.00     0.002 A 
ATOM      6  C8  UNL d   1       1.666   1.156   1.125  0.00  0.00     0.002 A 
ENDROOT
BRANCH   1   7
ATOM      7  C2  UNL d   1       2.806   2.738   2.732  0.00  0.00     0.056 C 
BRANCH   7   8
ATOM      8  C1  UNL d   1       3.359   4.122   2.377  0.00  0.00     0.007 C 
ATOM      9  C   UNL d   1       4.880   4.169   2.337  0.00  0.00     0.009 C 
ENDBRANCH   7   8
ENDBRANCH   1   7
TORSDOF 2
ENDMDL
