MODEL 1
REMARK minimizedAffinity 3.26152635
REMARK minimizedRMSD -1
REMARK  2 active torsions:
REMARK  status: ('A' for Active; 'I' for Inactive)
REMARK    1  A    between atoms: C1_2  and  C2_3 
REMARK    2  A    between atoms: C2_3  and  C3_4 
ROOT
ATOM      1  C3  UNL d   1      -0.132   1.331   1.294  0.00  0.00    -0.075 A 
ATOM      2  C4  UNL d   1      -0.843   0.126   1.206  0.00  0.00     0.002 A 
ATOM      3  C5  UNL d   1      -2.212   0.130   0.934  0.00  0.00     0.002 A 
ATOM      4  C6  UNL d   1      -2.887   1.336   0.757  0.00  0.00    -0.004 A 
ATOM      5  C7  UNL d   1      -2.193   2.540   0.859  0.00  0.00     0.002 A 
ATOM      6  C8  UNL d   1      -0.823   2.539   1.127  0.00  0.00     0.002 A 
ENDROOT
BRANCH   1   7
ATOM      7  C2  UNL d   1       1.355   1.333   1.559  0.00  0.00     0.056 C 
BRANCH   7   8
ATOM      8  C1  UNL d   1       1.811   2.411   2.548  0.00  0.00     0.007 C 
ATOM      9  C   UNL d   1       3.310   2.385   2.816  0.00  0.00     0.009 C 
ENDBRANCH   7   8
ENDBRANCH   1   7
TORSDOF 2
ENDMDL
