MODEL 1
REMARK minimizedAffinity 9.66517353
REMARK minimizedRMSD -1
REMARK  2 active torsions:
REMARK  status: ('A' for Active; 'I' for Inactive)
REMARK    1  A    between atoms: C1_2  and  C2_3 
REMARK    2  A    between atoms: C2_3  and  C3_4 
ROOT
ATOM      1  C3  UNL d   1      -0.904   1.976   1.174  0.00  0.00    -0.075 A 
ATOM      2  C4  UNL d   1      -2.296   2.144   1.166  0.00  0.00     0.002 A 
ATOM      3  C5  UNL d   1      -3.140   1.049   0.979  0.00  0.00     0.002 A 
ATOM      4  C6  UNL d   1      -2.605  -0.222   0.786  0.00  0.00    -0.004 A 
ATOM      5  C7  UNL d   1      -1.223  -0.398   0.775  0.00  0.00     0.002 A 
ATOM      6  C8  UNL d   1      -0.376   0.695   0.967  0.00  0.00     0.002 A 
ENDROOT
BRANCH   1   7
ATOM      7  C2  UNL d   1       0.015   3.152   1.406  0.00  0.00     0.056 C 
BRANCH   7   8
ATOM      8  C1  UNL d   1       0.879   3.029   2.665  0.00  0.00     0.007 C 
ATOM      9  C   UNL d   1       2.359   3.277   2.404  0.00  0.00     0.009 C 
ENDBRANCH   7   8
ENDBRANCH   1   7
TORSDOF 2
ENDMDL
