MODEL 1
REMARK minimizedAffinity 13.1857624
REMARK minimizedRMSD -1
REMARK  1 active torsions:
REMARK  status: ('A' for Active; 'I' for Inactive)
REMARK    1  A    between atoms: C1_2  and  C2_3 
ROOT
ATOM      1  C2  UNL d   1      -1.682  -0.471   0.962  0.00  0.00    -0.073 A 
ATOM      2  C3  UNL d   1      -1.307   0.858   1.190  0.00  0.00    -0.002 A 
ATOM      3  C4  UNL d   1      -0.561   1.196   2.320  0.00  0.00     0.004 A 
ATOM      4  C5  UNL d   1      -0.177   0.210   3.229  0.00  0.00    -0.004 A 
ATOM      5  C6  UNL d   1      -0.532  -1.126   3.012  0.00  0.00    -0.075 A 
ATOM      6  C7  UNL d   1      -0.129  -2.198   3.981  0.00  0.00     0.076 C 
ATOM      7  C8  UNL d   1      -1.283  -1.457   1.877  0.00  0.00     0.001 A 
ENDROOT
BRANCH   1   8
ATOM      8  C1  UNL d   1      -2.482  -0.842  -0.260  0.00  0.00     0.053 C 
ATOM      9  C   UNL d   1      -3.674   0.080  -0.462  0.00  0.00     0.018 C 
ENDBRANCH   1   8
TORSDOF 1
ENDMDL
