MODEL 1
REMARK minimizedAffinity 8.58872604
REMARK minimizedRMSD -1
REMARK  1 active torsions:
REMARK  status: ('A' for Active; 'I' for Inactive)
REMARK    1  A    between atoms: C1_2  and  C2_3 
ROOT
ATOM      1  C2  UNL d   1      -2.697   0.204   1.095  0.00  0.00    -0.073 A 
ATOM      2  C3  UNL d   1      -3.418   1.371   1.373  0.00  0.00    -0.002 A 
ATOM      3  C4  UNL d   1      -2.856   2.376   2.161  0.00  0.00     0.004 A 
ATOM      4  C5  UNL d   1      -1.567   2.228   2.673  0.00  0.00    -0.004 A 
ATOM      5  C6  UNL d   1      -0.826   1.074   2.397  0.00  0.00    -0.075 A 
ATOM      6  C7  UNL d   1       0.561   0.899   2.942  0.00  0.00     0.076 C 
ATOM      7  C8  UNL d   1      -1.398   0.068   1.606  0.00  0.00     0.001 A 
ENDROOT
BRANCH   1   8
ATOM      8  C1  UNL d   1      -3.297  -0.881   0.238  0.00  0.00     0.053 C 
ATOM      9  C   UNL d   1      -4.811  -0.935   0.365  0.00  0.00     0.018 C 
ENDBRANCH   1   8
TORSDOF 1
ENDMDL
