MODEL 1
REMARK minimizedAffinity 0.867735803
REMARK minimizedRMSD -1
REMARK  1 active torsions:
REMARK  status: ('A' for Active; 'I' for Inactive)
REMARK    1  A    between atoms: C1_2  and  C2_3 
ROOT
ATOM      1  C2  UNL d   1      -2.331  -1.452  -5.949  0.00  0.00    -0.073 A 
ATOM      2  C3  UNL d   1      -1.690  -2.696  -5.975  0.00  0.00    -0.002 A 
ATOM      3  C4  UNL d   1      -2.438  -3.874  -5.997  0.00  0.00     0.004 A 
ATOM      4  C5  UNL d   1      -3.832  -3.820  -6.000  0.00  0.00    -0.004 A 
ATOM      5  C6  UNL d   1      -4.491  -2.586  -5.986  0.00  0.00    -0.075 A 
ATOM      6  C7  UNL d   1      -5.989  -2.512  -5.986  0.00  0.00     0.076 C 
ATOM      7  C8  UNL d   1      -3.732  -1.408  -5.961  0.00  0.00     0.001 A 
ENDROOT
BRANCH   1   8
ATOM      8  C1  UNL d   1      -1.527  -0.177  -5.932  0.00  0.00     0.053 C 
ATOM      9  C   UNL d   1      -0.074  -0.425  -5.562  0.00  0.00     0.018 C 
ENDBRANCH   1   8
TORSDOF 1
ENDMDL
