MODEL 1
REMARK minimizedAffinity 4.50468445
REMARK minimizedRMSD -1
REMARK  1 active torsions:
REMARK  status: ('A' for Active; 'I' for Inactive)
REMARK    1  A    between atoms: C1_2  and  C2_3 
ROOT
ATOM      1  C2  UNL d   1      -4.002   0.807   3.310  0.00  0.00    -0.073 A 
ATOM      2  C3  UNL d   1      -4.641   1.834   4.014  0.00  0.00    -0.002 A 
ATOM      3  C4  UNL d   1      -4.997   1.656   5.352  0.00  0.00     0.004 A 
ATOM      4  C5  UNL d   1      -4.711   0.454   6.000  0.00  0.00    -0.004 A 
ATOM      5  C6  UNL d   1      -4.062  -0.579   5.317  0.00  0.00    -0.075 A 
ATOM      6  C7  UNL d   1      -3.750  -1.879   5.999  0.00  0.00     0.076 C 
ATOM      7  C8  UNL d   1      -3.711  -0.394   3.973  0.00  0.00     0.001 A 
ENDROOT
BRANCH   1   8
ATOM      8  C1  UNL d   1      -3.610   0.997   1.867  0.00  0.00     0.053 C 
ATOM      9  C   UNL d   1      -2.107   1.156   1.701  0.00  0.00     0.018 C 
ENDBRANCH   1   8
TORSDOF 1
ENDMDL
