MODEL 1
REMARK minimizedAffinity 5.82847786
REMARK minimizedRMSD -1
REMARK  1 active torsions:
REMARK  status: ('A' for Active; 'I' for Inactive)
REMARK    1  A    between atoms: C1_2  and  C2_3 
ROOT
ATOM      1  C2  UNL d   1       3.599   2.297  -4.380  0.00  0.00    -0.073 A 
ATOM      2  C3  UNL d   1       3.406   2.621  -3.032  0.00  0.00    -0.002 A 
ATOM      3  C4  UNL d   1       2.833   1.695  -2.159  0.00  0.00     0.004 A 
ATOM      4  C5  UNL d   1       2.456   0.434  -2.622  0.00  0.00    -0.004 A 
ATOM      5  C6  UNL d   1       2.651   0.087  -3.962  0.00  0.00    -0.075 A 
ATOM      6  C7  UNL d   1       2.248  -1.264  -4.476  0.00  0.00     0.076 C 
ATOM      7  C8  UNL d   1       3.224   1.024  -4.834  0.00  0.00     0.001 A 
ENDROOT
BRANCH   1   8
ATOM      8  C1  UNL d   1       4.222   3.291  -5.325  0.00  0.00     0.053 C 
ATOM      9  C   UNL d   1       5.664   3.601  -4.956  0.00  0.00     0.018 C 
ENDBRANCH   1   8
TORSDOF 1
ENDMDL
