MODEL 1
REMARK minimizedAffinity 14.9631186
REMARK minimizedRMSD -1
REMARK  1 active torsions:
REMARK  status: ('A' for Active; 'I' for Inactive)
REMARK    1  A    between atoms: C1_2  and  C2_3 
ROOT
ATOM      1  C2  UNL d   1      -4.435   0.597   2.901  0.00  0.00    -0.073 A 
ATOM      2  C3  UNL d   1      -5.211   0.925   1.783  0.00  0.00    -0.002 A 
ATOM      3  C4  UNL d   1      -4.644   0.930   0.508  0.00  0.00     0.004 A 
ATOM      4  C5  UNL d   1      -3.299   0.602   0.337  0.00  0.00    -0.004 A 
ATOM      5  C6  UNL d   1      -2.510   0.261   1.440  0.00  0.00    -0.075 A 
ATOM      6  C7  UNL d   1      -1.061  -0.092   1.273  0.00  0.00     0.076 C 
ATOM      7  C8  UNL d   1      -3.086   0.260   2.718  0.00  0.00     0.001 A 
ENDROOT
BRANCH   1   8
ATOM      8  C1  UNL d   1      -5.045   0.584   4.279  0.00  0.00     0.053 C 
ATOM      9  C   UNL d   1      -4.394  -0.454   5.180  0.00  0.00     0.018 C 
ENDBRANCH   1   8
TORSDOF 1
ENDMDL
