MODEL 1
REMARK minimizedAffinity 3.2612648
REMARK minimizedRMSD -1
REMARK  1 active torsions:
REMARK  status: ('A' for Active; 'I' for Inactive)
REMARK    1  A    between atoms: C1_2  and  C2_3 
ROOT
ATOM      1  C2  UNL d   1      -4.118  -2.739  -5.953  0.00  0.00    -0.073 A 
ATOM      2  C3  UNL d   1      -5.342  -2.062  -5.971  0.00  0.00    -0.002 A 
ATOM      3  C4  UNL d   1      -5.376  -0.667  -5.990  0.00  0.00     0.004 A 
ATOM      4  C5  UNL d   1      -4.188   0.064  -5.998  0.00  0.00    -0.004 A 
ATOM      5  C6  UNL d   1      -2.954  -0.595  -5.993  0.00  0.00    -0.075 A 
ATOM      6  C7  UNL d   1      -1.667   0.176  -6.000  0.00  0.00     0.076 C 
ATOM      7  C8  UNL d   1      -2.929  -1.996  -5.971  0.00  0.00     0.001 A 
ENDROOT
BRANCH   1   8
ATOM      8  C1  UNL d   1      -4.077  -4.245  -5.939  0.00  0.00     0.053 C 
ATOM      9  C   UNL d   1      -5.469  -4.854  -6.000  0.00  0.00     0.018 C 
ENDBRANCH   1   8
TORSDOF 1
ENDMDL
