MODEL 1
REMARK minimizedAffinity 10.6192064
REMARK minimizedRMSD -1
REMARK  1 active torsions:
REMARK  status: ('A' for Active; 'I' for Inactive)
REMARK    1  A    between atoms: C1_2  and  C2_3 
ROOT
ATOM      1  C2  UNL d   1       3.148  -5.058   2.330  0.00  0.00    -0.073 A 
ATOM      2  C3  UNL d   1       4.086  -5.994   2.779  0.00  0.00    -0.002 A 
ATOM      3  C4  UNL d   1       5.367  -5.585   3.153  0.00  0.00     0.004 A 
ATOM      4  C5  UNL d   1       5.720  -4.237   3.087  0.00  0.00    -0.004 A 
ATOM      5  C6  UNL d   1       4.793  -3.285   2.652  0.00  0.00    -0.075 A 
ATOM      6  C7  UNL d   1       5.157  -1.832   2.573  0.00  0.00     0.076 C 
ATOM      7  C8  UNL d   1       3.509  -3.704   2.276  0.00  0.00     0.001 A 
ENDROOT
BRANCH   1   8
ATOM      8  C1  UNL d   1       1.762  -5.495   1.932  0.00  0.00     0.053 C 
ATOM      9  C   UNL d   1       0.951  -5.974   3.126  0.00  0.00     0.018 C 
ENDBRANCH   1   8
TORSDOF 1
ENDMDL
