MODEL 1
REMARK minimizedAffinity 0.955685198
REMARK minimizedRMSD -1
REMARK  1 active torsions:
REMARK  status: ('A' for Active; 'I' for Inactive)
REMARK    1  A    between atoms: C1_2  and  C2_3 
ROOT
ATOM      1  C2  UNL d   1      -4.869  -0.290   4.595  0.00  0.00    -0.073 A 
ATOM      2  C3  UNL d   1      -4.046  -0.382   3.467  0.00  0.00    -0.002 A 
ATOM      3  C4  UNL d   1      -3.862   0.724   2.636  0.00  0.00     0.004 A 
ATOM      4  C5  UNL d   1      -4.492   1.933   2.927  0.00  0.00    -0.004 A 
ATOM      5  C6  UNL d   1      -5.308   2.049   4.057  0.00  0.00    -0.075 A 
ATOM      6  C7  UNL d   1      -5.995   3.343   4.383  0.00  0.00     0.076 C 
ATOM      7  C8  UNL d   1      -5.490   0.933   4.885  0.00  0.00     0.001 A 
ENDROOT
BRANCH   1   8
ATOM      8  C1  UNL d   1      -5.065  -1.479   5.499  0.00  0.00     0.053 C 
ATOM      9  C   UNL d   1      -3.743  -2.039   5.999  0.00  0.00     0.018 C 
ENDBRANCH   1   8
TORSDOF 1
ENDMDL
