MODEL 1
REMARK minimizedAffinity -0.186903119
REMARK minimizedRMSD -1
REMARK  1 active torsions:
REMARK  status: ('A' for Active; 'I' for Inactive)
REMARK    1  A    between atoms: C3_4  and  O_7 
ROOT
ATOM      1  C   UNL d   1       0.090  -1.465   1.086  0.00  0.00    -0.033 A 
ATOM      2  C1  UNL d   1       0.565  -0.461   0.240  0.00  0.00     0.039 A 
ATOM      3  C2  UNL d   1      -0.143  -0.129  -0.917  0.00  0.00    -0.080 A 
ATOM      4  C3  UNL d   1      -1.321  -0.807  -1.216  0.00  0.00     0.150 A 
ATOM      5  C4  UNL d   1      -1.802  -1.806  -0.375  0.00  0.00    -0.007 A 
ATOM      6  C5  UNL d   1      -1.094  -2.136   0.779  0.00  0.00     0.039 A 
ENDROOT
BRANCH   4   7
ATOM      7  O   UNL d   1      -2.044  -0.521  -2.336  0.00  0.00    -0.526 OA
ATOM      8  H5  UNL d   1      -1.576   0.169  -2.836  0.00  0.00     0.418 HD
ENDBRANCH   4   7
TORSDOF 1
ENDMDL
