MODEL 1
REMARK minimizedAffinity -3.0010469
REMARK minimizedRMSD -1
REMARK  1 active torsions:
REMARK  status: ('A' for Active; 'I' for Inactive)
REMARK    1  A    between atoms: C3_4  and  O_7 
ROOT
ATOM      1  C   UNL d   1      -0.311  -0.063  -0.128  0.00  0.00    -0.033 A 
ATOM      2  C1  UNL d   1       0.229  -1.335   0.066  0.00  0.00     0.039 A 
ATOM      3  C2  UNL d   1       1.585  -1.482   0.367  0.00  0.00    -0.080 A 
ATOM      4  C3  UNL d   1       2.388  -0.350   0.472  0.00  0.00     0.150 A 
ATOM      5  C4  UNL d   1       1.856   0.921   0.283  0.00  0.00    -0.007 A 
ATOM      6  C5  UNL d   1       0.502   1.066  -0.018  0.00  0.00     0.039 A 
ENDROOT
BRANCH   4   7
ATOM      7  O   UNL d   1       3.717  -0.443   0.760  0.00  0.00    -0.526 OA
ATOM      8  H5  UNL d   1       3.950  -1.384   0.835  0.00  0.00     0.418 HD
ENDBRANCH   4   7
TORSDOF 1
ENDMDL
