MODEL 1
REMARK minimizedAffinity -4.46730471
REMARK minimizedRMSD -1
REMARK  1 active torsions:
REMARK  status: ('A' for Active; 'I' for Inactive)
REMARK    1  A    between atoms: C3_4  and  O_7 
ROOT
ATOM      1  C   UNL d   1       3.471  -0.611   1.195  0.00  0.00    -0.033 A 
ATOM      2  C1  UNL d   1       2.967  -1.542   0.284  0.00  0.00     0.039 A 
ATOM      3  C2  UNL d   1       1.710  -1.348  -0.290  0.00  0.00    -0.080 A 
ATOM      4  C3  UNL d   1       0.968  -0.221   0.053  0.00  0.00     0.150 A 
ATOM      5  C4  UNL d   1       1.465   0.712   0.957  0.00  0.00    -0.007 A 
ATOM      6  C5  UNL d   1       2.721   0.516   1.530  0.00  0.00     0.039 A 
ENDROOT
BRANCH   4   7
ATOM      7  O   UNL d   1      -0.267   0.008  -0.478  0.00  0.00    -0.526 OA
ATOM      8  H5  UNL d   1      -0.492  -0.734  -1.064  0.00  0.00     0.418 HD
ENDBRANCH   4   7
TORSDOF 1
ENDMDL
