MODEL 1
REMARK minimizedAffinity -1.32992387
REMARK minimizedRMSD -1
REMARK  1 active torsions:
REMARK  status: ('A' for Active; 'I' for Inactive)
REMARK    1  A    between atoms: C3_4  and  O_7 
ROOT
ATOM      1  C   UNL d   1       0.556   0.527  -0.645  0.00  0.00    -0.033 A 
ATOM      2  C1  UNL d   1      -0.781   0.498  -0.246  0.00  0.00     0.039 A 
ATOM      3  C2  UNL d   1      -1.258  -0.564   0.525  0.00  0.00    -0.080 A 
ATOM      4  C3  UNL d   1      -0.389  -1.588   0.890  0.00  0.00     0.150 A 
ATOM      5  C4  UNL d   1       0.946  -1.563   0.499  0.00  0.00    -0.007 A 
ATOM      6  C5  UNL d   1       1.420  -0.502  -0.271  0.00  0.00     0.039 A 
ENDROOT
BRANCH   4   7
ATOM      7  O   UNL d   1      -0.809  -2.648   1.638  0.00  0.00    -0.526 OA
ATOM      8  H5  UNL d   1      -1.760  -2.545   1.810  0.00  0.00     0.418 HD
ENDBRANCH   4   7
TORSDOF 1
ENDMDL
