MODEL 1
REMARK minimizedAffinity -1.70052683
REMARK minimizedRMSD -1
REMARK  1 active torsions:
REMARK  status: ('A' for Active; 'I' for Inactive)
REMARK    1  A    between atoms: C3_4  and  O_7 
ROOT
ATOM      1  C   UNL d   1       1.005  -1.000  -0.056  0.00  0.00    -0.033 A 
ATOM      2  C1  UNL d   1       0.591   0.333  -0.041  0.00  0.00     0.039 A 
ATOM      3  C2  UNL d   1       1.256   1.264   0.761  0.00  0.00    -0.080 A 
ATOM      4  C3  UNL d   1       2.332   0.848   1.540  0.00  0.00     0.150 A 
ATOM      5  C4  UNL d   1       2.752  -0.478   1.527  0.00  0.00    -0.007 A 
ATOM      6  C5  UNL d   1       2.087  -1.405   0.727  0.00  0.00     0.039 A 
ENDROOT
BRANCH   4   7
ATOM      7  O   UNL d   1       3.009   1.719   2.342  0.00  0.00    -0.526 OA
ATOM      8  H5  UNL d   1       2.589   2.592   2.271  0.00  0.00     0.418 HD
ENDBRANCH   4   7
TORSDOF 1
ENDMDL
