MODEL 1
REMARK minimizedAffinity -4.48026466
REMARK minimizedRMSD -1
REMARK  1 active torsions:
REMARK  status: ('A' for Active; 'I' for Inactive)
REMARK    1  A    between atoms: C3_4  and  O_7 
ROOT
ATOM      1  C   UNL d   1      -0.322   0.673   0.237  0.00  0.00    -0.033 A 
ATOM      2  C1  UNL d   1      -0.019  -0.680   0.403  0.00  0.00     0.039 A 
ATOM      3  C2  UNL d   1       1.284  -1.073   0.714  0.00  0.00    -0.080 A 
ATOM      4  C3  UNL d   1       2.274  -0.104   0.858  0.00  0.00     0.150 A 
ATOM      5  C4  UNL d   1       1.978   1.246   0.698  0.00  0.00    -0.007 A 
ATOM      6  C5  UNL d   1       0.677   1.636   0.386  0.00  0.00     0.039 A 
ENDROOT
BRANCH   4   7
ATOM      7  O   UNL d   1       3.561  -0.440   1.157  0.00  0.00    -0.526 OA
ATOM      8  H5  UNL d   1       3.622  -1.408   1.209  0.00  0.00     0.418 HD
ENDBRANCH   4   7
TORSDOF 1
ENDMDL
