MODEL 1
REMARK minimizedAffinity -4.0012908
REMARK minimizedRMSD -1
REMARK  1 active torsions:
REMARK  status: ('A' for Active; 'I' for Inactive)
REMARK    1  A    between atoms: C3_4  and  O_7 
ROOT
ATOM      1  C   UNL d   1      -0.509   0.206   0.267  0.00  0.00    -0.033 A 
ATOM      2  C1  UNL d   1      -0.271  -1.155   0.466  0.00  0.00     0.039 A 
ATOM      3  C2  UNL d   1       1.036  -1.623   0.620  0.00  0.00    -0.080 A 
ATOM      4  C3  UNL d   1       2.094  -0.720   0.573  0.00  0.00     0.150 A 
ATOM      5  C4  UNL d   1       1.865   0.638   0.378  0.00  0.00    -0.007 A 
ATOM      6  C5  UNL d   1       0.559   1.103   0.224  0.00  0.00     0.039 A 
ENDROOT
BRANCH   4   7
ATOM      7  O   UNL d   1       3.387  -1.129   0.713  0.00  0.00    -0.526 OA
ATOM      8  H5  UNL d   1       3.394  -2.096   0.811  0.00  0.00     0.418 HD
ENDBRANCH   4   7
TORSDOF 1
ENDMDL
