MODEL 1
REMARK minimizedAffinity -3.17297816
REMARK minimizedRMSD -1
REMARK  1 active torsions:
REMARK  status: ('A' for Active; 'I' for Inactive)
REMARK    1  A    between atoms: C3_4  and  O_7 
ROOT
ATOM      1  C   UNL d   1       1.239   0.143  -0.787  0.00  0.00    -0.033 A 
ATOM      2  C1  UNL d   1       1.854  -1.015  -0.307  0.00  0.00     0.039 A 
ATOM      3  C2  UNL d   1       1.129  -1.924   0.466  0.00  0.00    -0.080 A 
ATOM      4  C3  UNL d   1      -0.209  -1.664   0.751  0.00  0.00     0.150 A 
ATOM      5  C4  UNL d   1      -0.829  -0.515   0.273  0.00  0.00    -0.007 A 
ATOM      6  C5  UNL d   1      -0.103   0.392  -0.498  0.00  0.00     0.039 A 
ENDROOT
BRANCH   4   7
ATOM      7  O   UNL d   1      -0.956  -2.519   1.506  0.00  0.00    -0.526 OA
ATOM      8  H5  UNL d   1      -0.388  -3.255   1.790  0.00  0.00     0.418 HD
ENDBRANCH   4   7
TORSDOF 1
ENDMDL
