MODEL 1
REMARK minimizedAffinity 2.40437245
REMARK minimizedRMSD -1
REMARK  1 active torsions:
REMARK  status: ('A' for Active; 'I' for Inactive)
REMARK    1  A    between atoms: N_2  and  C1_3 
ROOT
ATOM      1  C1  UNL d   1       4.075   2.465  -5.552  0.00  0.00     0.143 A 
ATOM      2  C2  UNL d   1       4.922   3.488  -5.989  0.00  0.00    -0.057 A 
ATOM      3  C3  UNL d   1       4.503   4.824  -5.999  0.00  0.00     0.033 A 
ATOM      4  C4  UNL d   1       3.214   5.157  -5.598  0.00  0.00    -0.042 A 
ATOM      5  C5  UNL d   1       2.345   4.154  -5.183  0.00  0.00     0.033 A 
ATOM      6  C6  UNL d   1       2.772   2.822  -5.169  0.00  0.00    -0.057 A 
ENDROOT
BRANCH   1   7
ATOM      7  N   UNL d   1       4.399   1.107  -5.612  0.00  0.00    -0.732 N 
ATOM      8  C   UNL d   1       3.385   0.097  -5.399  0.00  0.00     0.284 C 
ATOM      9  H3  UNL d   1       5.045   0.895  -6.368  0.00  0.00     0.395 HD
ENDBRANCH   1   7
TORSDOF 1
ENDMDL
