MODEL 1
REMARK minimizedAffinity -0.459279865
REMARK minimizedRMSD -1
REMARK  1 active torsions:
REMARK  status: ('A' for Active; 'I' for Inactive)
REMARK    1  A    between atoms: N_2  and  C1_3 
ROOT
ATOM      1  C1  UNL d   1       2.680   3.318  -5.275  0.00  0.00     0.143 A 
ATOM      2  C2  UNL d   1       3.425   2.359  -4.580  0.00  0.00    -0.057 A 
ATOM      3  C3  UNL d   1       4.824   2.407  -4.552  0.00  0.00     0.033 A 
ATOM      4  C4  UNL d   1       5.506   3.402  -5.245  0.00  0.00    -0.042 A 
ATOM      5  C5  UNL d   1       4.787   4.351  -5.963  0.00  0.00     0.033 A 
ATOM      6  C6  UNL d   1       3.390   4.301  -5.982  0.00  0.00    -0.057 A 
ENDROOT
BRANCH   1   7
ATOM      7  N   UNL d   1       1.292   3.267  -5.423  0.00  0.00    -0.732 N 
ATOM      8  C   UNL d   1       0.566   4.396  -5.964  0.00  0.00     0.284 C 
ATOM      9  H3  UNL d   1       0.970   2.364  -5.764  0.00  0.00     0.395 HD
ENDBRANCH   1   7
TORSDOF 1
ENDMDL
