MODEL 1
REMARK minimizedAffinity -1.85161209
REMARK minimizedRMSD -1
REMARK  1 active torsions:
REMARK  status: ('A' for Active; 'I' for Inactive)
REMARK    1  A    between atoms: N_2  and  C1_3 
ROOT
ATOM      1  C1  UNL d   1       2.884   4.444  -5.611  0.00  0.00     0.143 A 
ATOM      2  C2  UNL d   1       2.715   3.100  -5.261  0.00  0.00    -0.057 A 
ATOM      3  C3  UNL d   1       3.796   2.210  -5.253  0.00  0.00     0.033 A 
ATOM      4  C4  UNL d   1       5.064   2.644  -5.624  0.00  0.00    -0.042 A 
ATOM      5  C5  UNL d   1       5.251   3.969  -6.000  0.00  0.00     0.033 A 
ATOM      6  C6  UNL d   1       4.169   4.854  -6.000  0.00  0.00    -0.057 A 
ENDROOT
BRANCH   1   7
ATOM      7  N   UNL d   1       1.831   5.354  -5.734  0.00  0.00    -0.732 N 
ATOM      8  C   UNL d   1       0.483   4.892  -5.983  0.00  0.00     0.284 C 
ATOM      9  H3  UNL d   1       1.893   6.112  -5.058  0.00  0.00     0.395 HD
ENDBRANCH   1   7
TORSDOF 1
ENDMDL
