MODEL 1
REMARK minimizedAffinity -3.32234955
REMARK minimizedRMSD -1
REMARK  1 active torsions:
REMARK  status: ('A' for Active; 'I' for Inactive)
REMARK    1  A    between atoms: N_2  and  C1_3 
ROOT
ATOM      1  C1  UNL d   1       3.012   4.322  -5.191  0.00  0.00     0.143 A 
ATOM      2  C2  UNL d   1       3.374   2.971  -5.218  0.00  0.00    -0.057 A 
ATOM      3  C3  UNL d   1       4.660   2.571  -5.602  0.00  0.00     0.033 A 
ATOM      4  C4  UNL d   1       5.601   3.517  -5.995  0.00  0.00    -0.042 A 
ATOM      5  C5  UNL d   1       5.255   4.864  -6.000  0.00  0.00     0.033 A 
ATOM      6  C6  UNL d   1       3.972   5.257  -5.609  0.00  0.00    -0.057 A 
ENDROOT
BRANCH   1   7
ATOM      7  N   UNL d   1       1.720   4.776  -4.914  0.00  0.00    -0.732 N 
ATOM      8  C   UNL d   1       0.748   4.925  -5.975  0.00  0.00     0.284 C 
ATOM      9  H3  UNL d   1       1.343   4.375  -4.058  0.00  0.00     0.395 HD
ENDBRANCH   1   7
TORSDOF 1
ENDMDL
