MODEL 1
REMARK minimizedAffinity -1.48888814
REMARK minimizedRMSD -1
REMARK  1 active torsions:
REMARK  status: ('A' for Active; 'I' for Inactive)
REMARK    1  A    between atoms: N_2  and  C1_3 
ROOT
ATOM      1  C1  UNL d   1       2.390   3.790  -5.199  0.00  0.00     0.143 A 
ATOM      2  C2  UNL d   1       2.799   2.453  -5.231  0.00  0.00    -0.057 A 
ATOM      3  C3  UNL d   1       4.099   2.100  -5.612  0.00  0.00     0.033 A 
ATOM      4  C4  UNL d   1       5.007   3.081  -5.999  0.00  0.00    -0.042 A 
ATOM      5  C5  UNL d   1       4.615   4.414  -6.000  0.00  0.00     0.033 A 
ATOM      6  C6  UNL d   1       3.317   4.761  -5.611  0.00  0.00    -0.057 A 
ENDROOT
BRANCH   1   7
ATOM      7  N   UNL d   1       1.082   4.197  -4.924  0.00  0.00    -0.732 N 
ATOM      8  C   UNL d   1       0.156   4.479  -5.999  0.00  0.00     0.284 C 
ATOM      9  H3  UNL d   1       0.672   3.686  -4.145  0.00  0.00     0.395 HD
ENDBRANCH   1   7
TORSDOF 1
ENDMDL
