MODEL 1
REMARK minimizedAffinity -2.34563565
REMARK minimizedRMSD -1
REMARK  1 active torsions:
REMARK  status: ('A' for Active; 'I' for Inactive)
REMARK    1  A    between atoms: N_2  and  C1_3 
ROOT
ATOM      1  C1  UNL d   1       2.845   4.538  -5.626  0.00  0.00     0.143 A 
ATOM      2  C2  UNL d   1       3.212   3.188  -5.654  0.00  0.00    -0.057 A 
ATOM      3  C3  UNL d   1       4.547   2.801  -5.824  0.00  0.00     0.033 A 
ATOM      4  C4  UNL d   1       5.538   3.761  -5.999  0.00  0.00    -0.042 A 
ATOM      5  C5  UNL d   1       5.193   5.108  -6.000  0.00  0.00     0.033 A 
ATOM      6  C6  UNL d   1       3.859   5.488  -5.823  0.00  0.00    -0.057 A 
ENDROOT
BRANCH   1   7
ATOM      7  N   UNL d   1       1.523   4.983  -5.559  0.00  0.00    -0.732 N 
ATOM      8  C   UNL d   1       0.436   4.134  -5.996  0.00  0.00     0.284 C 
ATOM      9  H3  UNL d   1       1.329   5.499  -4.704  0.00  0.00     0.395 HD
ENDBRANCH   1   7
TORSDOF 1
ENDMDL
