MODEL 1
REMARK minimizedAffinity 3.63126779
REMARK minimizedRMSD -1
REMARK  1 active torsions:
REMARK  status: ('A' for Active; 'I' for Inactive)
REMARK    1  A    between atoms: N_2  and  C1_3 
ROOT
ATOM      1  C1  UNL d   1       3.115   3.254  -5.535  0.00  0.00     0.143 A 
ATOM      2  C2  UNL d   1       3.489   4.351  -4.751  0.00  0.00    -0.057 A 
ATOM      3  C3  UNL d   1       2.565   5.343  -4.401  0.00  0.00     0.033 A 
ATOM      4  C4  UNL d   1       1.252   5.270  -4.855  0.00  0.00    -0.042 A 
ATOM      5  C5  UNL d   1       0.864   4.201  -5.655  0.00  0.00     0.033 A 
ATOM      6  C6  UNL d   1       1.790   3.211  -5.996  0.00  0.00    -0.057 A 
ENDROOT
BRANCH   1   7
ATOM      7  N   UNL d   1       4.010   2.287  -5.998  0.00  0.00    -0.732 N 
ATOM      8  C   UNL d   1       3.793   0.885  -5.714  0.00  0.00     0.284 C 
ATOM      9  H3  UNL d   1       4.328   2.475  -6.946  0.00  0.00     0.395 HD
ENDBRANCH   1   7
TORSDOF 1
ENDMDL
