MODEL 1
REMARK minimizedAffinity -2.60331678
REMARK minimizedRMSD -1
REMARK  1 active torsions:
REMARK  status: ('A' for Active; 'I' for Inactive)
REMARK    1  A    between atoms: N_2  and  C1_3 
ROOT
ATOM      1  C1  UNL d   1       2.436   4.710  -5.427  0.00  0.00     0.143 A 
ATOM      2  C2  UNL d   1       2.571   3.409  -4.931  0.00  0.00    -0.057 A 
ATOM      3  C3  UNL d   1       3.807   2.752  -4.942  0.00  0.00     0.033 A 
ATOM      4  C4  UNL d   1       4.928   3.377  -5.478  0.00  0.00    -0.042 A 
ATOM      5  C5  UNL d   1       4.812   4.661  -5.999  0.00  0.00     0.033 A 
ATOM      6  C6  UNL d   1       3.576   5.314  -5.979  0.00  0.00    -0.057 A 
ENDROOT
BRANCH   1   7
ATOM      7  N   UNL d   1       1.214   5.379  -5.534  0.00  0.00    -0.732 N 
ATOM      8  C   UNL d   1       0.032   4.686  -6.000  0.00  0.00     0.284 C 
ATOM      9  H3  UNL d   1       1.046   6.008  -4.751  0.00  0.00     0.395 HD
ENDBRANCH   1   7
TORSDOF 1
ENDMDL
