MODEL 1
REMARK minimizedAffinity -0.353464335
REMARK minimizedRMSD -1
REMARK  1 active torsions:
REMARK  status: ('A' for Active; 'I' for Inactive)
REMARK    1  A    between atoms: N_2  and  C1_3 
ROOT
ATOM      1  C1  UNL d   1       4.368   1.774   1.213  0.00  0.00     0.143 A 
ATOM      2  C2  UNL d   1       5.060   0.628   1.621  0.00  0.00    -0.057 A 
ATOM      3  C3  UNL d   1       4.399  -0.433   2.252  0.00  0.00     0.033 A 
ATOM      4  C4  UNL d   1       3.035  -0.355   2.512  0.00  0.00    -0.042 A 
ATOM      5  C5  UNL d   1       2.332   0.785   2.138  0.00  0.00     0.033 A 
ATOM      6  C6  UNL d   1       2.996   1.839   1.503  0.00  0.00    -0.057 A 
ENDROOT
BRANCH   1   7
ATOM      7  N   UNL d   1       4.985   2.903   0.670  0.00  0.00    -0.732 N 
ATOM      8  C   UNL d   1       5.480   3.957   1.530  0.00  0.00     0.284 C 
ATOM      9  H3  UNL d   1       5.604   2.673  -0.104  0.00  0.00     0.395 HD
ENDBRANCH   1   7
TORSDOF 1
ENDMDL
