MODEL 1
REMARK minimizedAffinity -2.44717932
REMARK minimizedRMSD -1
REMARK  1 active torsions:
REMARK  status: ('A' for Active; 'I' for Inactive)
REMARK    1  A    between atoms: N_2  and  C1_3 
ROOT
ATOM      1  C1  UNL d   1       3.328   4.252  -5.219  0.00  0.00     0.143 A 
ATOM      2  C2  UNL d   1       3.713   2.968  -5.619  0.00  0.00    -0.057 A 
ATOM      3  C3  UNL d   1       5.034   2.689  -5.992  0.00  0.00     0.033 A 
ATOM      4  C4  UNL d   1       5.989   3.701  -6.000  0.00  0.00    -0.042 A 
ATOM      5  C5  UNL d   1       5.623   4.990  -5.631  0.00  0.00     0.033 A 
ATOM      6  C6  UNL d   1       4.304   5.261  -5.253  0.00  0.00    -0.057 A 
ENDROOT
BRANCH   1   7
ATOM      7  N   UNL d   1       2.010   4.614  -4.932  0.00  0.00    -0.732 N 
ATOM      8  C   UNL d   1       1.083   4.930  -5.997  0.00  0.00     0.284 C 
ATOM      9  H3  UNL d   1       1.608   4.055  -4.183  0.00  0.00     0.395 HD
ENDBRANCH   1   7
TORSDOF 1
ENDMDL
