MODEL 1
REMARK minimizedAffinity -3.65950179
REMARK minimizedRMSD -1
REMARK  1 active torsions:
REMARK  status: ('A' for Active; 'I' for Inactive)
REMARK    1  A    between atoms: N_2  and  C1_3 
ROOT
ATOM      1  C1  UNL d   1       2.814   4.061  -5.011  0.00  0.00     0.143 A 
ATOM      2  C2  UNL d   1       2.987   2.949  -5.843  0.00  0.00    -0.057 A 
ATOM      3  C3  UNL d   1       4.240   2.343  -5.994  0.00  0.00     0.033 A 
ATOM      4  C4  UNL d   1       5.352   2.858  -5.336  0.00  0.00    -0.042 A 
ATOM      5  C5  UNL d   1       5.208   3.978  -4.524  0.00  0.00     0.033 A 
ATOM      6  C6  UNL d   1       3.953   4.574  -4.372  0.00  0.00    -0.057 A 
ENDROOT
BRANCH   1   7
ATOM      7  N   UNL d   1       1.614   4.767  -4.896  0.00  0.00    -0.732 N 
ATOM      8  C   UNL d   1       0.679   4.817  -6.000  0.00  0.00     0.284 C 
ATOM      9  H3  UNL d   1       1.177   4.645  -3.986  0.00  0.00     0.395 HD
ENDBRANCH   1   7
TORSDOF 1
ENDMDL
