MODEL 1
REMARK minimizedAffinity 6.13358116
REMARK minimizedRMSD -1
REMARK  1 active torsions:
REMARK  status: ('A' for Active; 'I' for Inactive)
REMARK    1  A    between atoms: N_2  and  C1_3 
ROOT
ATOM      1  C1  UNL d   1       3.100   5.327  -5.922  0.00  0.00     0.143 A 
ATOM      2  C2  UNL d   1       1.858   5.970  -5.960  0.00  0.00    -0.057 A 
ATOM      3  C3  UNL d   1       0.663   5.240  -5.982  0.00  0.00     0.033 A 
ATOM      4  C4  UNL d   1       0.690   3.850  -5.997  0.00  0.00    -0.042 A 
ATOM      5  C5  UNL d   1       1.913   3.189  -5.985  0.00  0.00     0.033 A 
ATOM      6  C6  UNL d   1       3.103   3.923  -5.955  0.00  0.00    -0.057 A 
ENDROOT
BRANCH   1   7
ATOM      7  N   UNL d   1       4.324   5.995  -5.997  0.00  0.00    -0.732 N 
ATOM      8  C   UNL d   1       5.234   5.996  -4.872  0.00  0.00     0.284 C 
ATOM      9  H3  UNL d   1       4.779   5.872  -6.899  0.00  0.00     0.395 HD
ENDBRANCH   1   7
TORSDOF 1
ENDMDL
