MODEL 1
REMARK minimizedAffinity -1.09830332
REMARK minimizedRMSD -1
REMARK  1 active torsions:
REMARK  status: ('A' for Active; 'I' for Inactive)
REMARK    1  A    between atoms: N_2  and  C1_3 
ROOT
ATOM      1  C1  UNL d   1       3.829   3.113  -5.923  0.00  0.00     0.143 A 
ATOM      2  C2  UNL d   1       5.033   3.822  -5.980  0.00  0.00    -0.057 A 
ATOM      3  C3  UNL d   1       5.051   5.222  -6.000  0.00  0.00     0.033 A 
ATOM      4  C4  UNL d   1       3.859   5.939  -5.992  0.00  0.00    -0.042 A 
ATOM      5  C5  UNL d   1       2.649   5.255  -5.960  0.00  0.00     0.033 A 
ATOM      6  C6  UNL d   1       2.638   3.857  -5.934  0.00  0.00    -0.057 A 
ENDROOT
BRANCH   1   7
ATOM      7  N   UNL d   1       3.741   1.721  -6.000  0.00  0.00    -0.732 N 
ATOM      8  C   UNL d   1       4.464   0.884  -5.066  0.00  0.00     0.284 C 
ATOM      9  H3  UNL d   1       2.796   1.401  -6.199  0.00  0.00     0.395 HD
ENDBRANCH   1   7
TORSDOF 1
ENDMDL
