MODEL 1
REMARK minimizedAffinity 2.9104054
REMARK minimizedRMSD -1
REMARK  0 active torsions:
REMARK  status: ('A' for Active; 'I' for Inactive)
ROOT
ATOM      1  C4' PXY d   1      -0.496   2.939  -0.059  0.00  0.00     0.077 C 
ATOM      2  C1' PXY d   1       0.918  -1.209   3.711  0.00  0.00     0.077 C 
ATOM      3  C1  PXY d   1       0.536  -0.120   2.728  0.00  0.00    -0.082 A 
ATOM      4  C2  PXY d   1       1.185  -0.018   1.580  0.00  0.00     0.003 A 
ATOM      5  C3  PXY d   1       0.874   0.980   0.693  0.00  0.00     0.003 A 
ATOM      6  C4  PXY d   1      -0.149   1.850   0.960  0.00  0.00    -0.082 A 
ATOM      7  C5  PXY d   1      -0.824   1.745   2.125  0.00  0.00     0.003 A 
ATOM      8  C6  PXY d   1      -0.465   0.751   3.030  0.00  0.00     0.003 A 
ENDROOT
TORSDOF 0
ENDMDL
