MODEL 1
REMARK minimizedAffinity 8.13835907
REMARK minimizedRMSD -1
REMARK  0 active torsions:
REMARK  status: ('A' for Active; 'I' for Inactive)
ROOT
ATOM      1  C4' PXY d   1      -3.611   1.284  -1.367  0.00  0.00     0.077 C 
ATOM      2  C1' PXY d   1       1.126   4.535  -0.730  0.00  0.00     0.077 C 
ATOM      3  C1  PXY d   1      -0.117   3.682  -0.884  0.00  0.00    -0.082 A 
ATOM      4  C2  PXY d   1      -0.281   2.955  -1.978  0.00  0.00     0.003 A 
ATOM      5  C3  PXY d   1      -1.415   2.203  -2.148  0.00  0.00     0.003 A 
ATOM      6  C4  PXY d   1      -2.366   2.152  -1.165  0.00  0.00    -0.082 A 
ATOM      7  C5  PXY d   1      -2.202   2.883  -0.041  0.00  0.00     0.003 A 
ATOM      8  C6  PXY d   1      -1.063   3.672   0.094  0.00  0.00     0.003 A 
ENDROOT
TORSDOF 0
ENDMDL
