MODEL 1
REMARK minimizedAffinity 8.81201839
REMARK minimizedRMSD -1
REMARK  0 active torsions:
REMARK  status: ('A' for Active; 'I' for Inactive)
ROOT
ATOM      1  C4' PXY d   1      -2.993   2.112  -3.411  0.00  0.00     0.077 C 
ATOM      2  C1' PXY d   1       0.729   2.692   0.973  0.00  0.00     0.077 C 
ATOM      3  C1  PXY d   1      -0.237   2.543  -0.185  0.00  0.00    -0.082 A 
ATOM      4  C2  PXY d   1      -1.535   2.694   0.022  0.00  0.00     0.003 A 
ATOM      5  C3  PXY d   1      -2.426   2.531  -1.007  0.00  0.00     0.003 A 
ATOM      6  C4  PXY d   1      -1.980   2.263  -2.274  0.00  0.00    -0.082 A 
ATOM      7  C5  PXY d   1      -0.656   2.118  -2.496  0.00  0.00     0.003 A 
ATOM      8  C6  PXY d   1       0.229   2.247  -1.429  0.00  0.00     0.003 A 
ENDROOT
TORSDOF 0
ENDMDL
