MODEL 1
REMARK minimizedAffinity 1.27205205
REMARK minimizedRMSD -1
REMARK  0 active torsions:
REMARK  status: ('A' for Active; 'I' for Inactive)
ROOT
ATOM      1  C4' PXY d   1      -2.855   2.924  -3.147  0.00  0.00     0.077 C 
ATOM      2  C1' PXY d   1       1.604   2.630   0.519  0.00  0.00     0.077 C 
ATOM      3  C1  PXY d   1       0.441   2.717  -0.448  0.00  0.00    -0.082 A 
ATOM      4  C2  PXY d   1      -0.753   2.284  -0.076  0.00  0.00     0.003 A 
ATOM      5  C3  PXY d   1      -1.809   2.326  -0.950  0.00  0.00     0.003 A 
ATOM      6  C4  PXY d   1      -1.654   2.864  -2.199  0.00  0.00    -0.082 A 
ATOM      7  C5  PXY d   1      -0.442   3.318  -2.583  0.00  0.00     0.003 A 
ATOM      8  C6  PXY d   1       0.627   3.229  -1.695  0.00  0.00     0.003 A 
ENDROOT
TORSDOF 0
ENDMDL
