MODEL 1
REMARK minimizedAffinity 20.70438
REMARK minimizedRMSD -1
REMARK  0 active torsions:
REMARK  status: ('A' for Active; 'I' for Inactive)
ROOT
ATOM      1  C4' PXY d   1       6.000  -5.047  -0.688  0.00  0.00     0.077 C 
ATOM      2  C1' PXY d   1       0.275  -5.140  -1.480  0.00  0.00     0.077 C 
ATOM      3  C1  PXY d   1       1.775  -5.103  -1.269  0.00  0.00    -0.082 A 
ATOM      4  C2  PXY d   1       2.542  -5.999  -1.868  0.00  0.00     0.003 A 
ATOM      5  C3  PXY d   1       3.898  -6.000  -1.663  0.00  0.00     0.003 A 
ATOM      6  C4  PXY d   1       4.481  -5.040  -0.879  0.00  0.00    -0.082 A 
ATOM      7  C5  PXY d   1       3.706  -4.116  -0.273  0.00  0.00     0.003 A 
ATOM      8  C6  PXY d   1       2.328  -4.158  -0.461  0.00  0.00     0.003 A 
ENDROOT
TORSDOF 0
ENDMDL
