MODEL 1
REMARK minimizedAffinity 11.2040253
REMARK minimizedRMSD -1
REMARK  0 active torsions:
REMARK  status: ('A' for Active; 'I' for Inactive)
ROOT
ATOM      1  C4' PXY d   1       0.123   5.606  -4.586  0.00  0.00     0.077 C 
ATOM      2  C1' PXY d   1      -3.492   1.596  -2.520  0.00  0.00     0.077 C 
ATOM      3  C1  PXY d   1      -2.553   2.652  -3.070  0.00  0.00    -0.082 A 
ATOM      4  C2  PXY d   1      -1.245   2.482  -2.966  0.00  0.00     0.003 A 
ATOM      5  C3  PXY d   1      -0.382   3.442  -3.429  0.00  0.00     0.003 A 
ATOM      6  C4  PXY d   1      -0.862   4.562  -4.053  0.00  0.00    -0.082 A 
ATOM      7  C5  PXY d   1      -2.195   4.737  -4.173  0.00  0.00     0.003 A 
ATOM      8  C6  PXY d   1      -3.055   3.771  -3.659  0.00  0.00     0.003 A 
ENDROOT
TORSDOF 0
ENDMDL
