MODEL 1
REMARK minimizedAffinity 4.15773678
REMARK minimizedRMSD -1
REMARK  0 active torsions:
REMARK  status: ('A' for Active; 'I' for Inactive)
ROOT
ATOM      1  C4' PXY d   1       2.741  -0.821  -0.750  0.00  0.00     0.077 C 
ATOM      2  C1' PXY d   1      -1.414   2.873   0.834  0.00  0.00     0.077 C 
ATOM      3  C1  PXY d   1      -0.333   1.899   0.410  0.00  0.00    -0.082 A 
ATOM      4  C2  PXY d   1       0.674   1.642   1.230  0.00  0.00     0.003 A 
ATOM      5  C3  PXY d   1       1.677   0.788   0.849  0.00  0.00     0.003 A 
ATOM      6  C4  PXY d   1       1.622   0.149  -0.360  0.00  0.00    -0.082 A 
ATOM      7  C5  PXY d   1       0.592   0.397  -1.197  0.00  0.00     0.003 A 
ATOM      8  C6  PXY d   1      -0.395   1.299  -0.809  0.00  0.00     0.003 A 
ENDROOT
TORSDOF 0
ENDMDL
