MODEL 1
REMARK minimizedAffinity 1.68510103
REMARK minimizedRMSD -1
REMARK  0 active torsions:
REMARK  status: ('A' for Active; 'I' for Inactive)
ROOT
ATOM      1  C4' PXY d   1      -0.391   1.997   1.554  0.00  0.00     0.077 C 
ATOM      2  C1' PXY d   1      -0.362   0.722  -4.084  0.00  0.00     0.077 C 
ATOM      3  C1  PXY d   1      -0.369   1.044  -2.603  0.00  0.00    -0.082 A 
ATOM      4  C2  PXY d   1      -0.902   2.179  -2.183  0.00  0.00     0.003 A 
ATOM      5  C3  PXY d   1      -0.888   2.501  -0.850  0.00  0.00     0.003 A 
ATOM      6  C4  PXY d   1      -0.370   1.627   0.068  0.00  0.00    -0.082 A 
ATOM      7  C5  PXY d   1       0.166   0.461  -0.352  0.00  0.00     0.003 A 
ATOM      8  C6  PXY d   1       0.179   0.172  -1.713  0.00  0.00     0.003 A 
ENDROOT
TORSDOF 0
ENDMDL
