MODEL 1
REMARK minimizedAffinity 8.18907261
REMARK minimizedRMSD -1
REMARK  0 active torsions:
REMARK  status: ('A' for Active; 'I' for Inactive)
ROOT
ATOM      1  C4' PXY d   1      -2.965   3.402  -2.263  0.00  0.00     0.077 C 
ATOM      2  C1' PXY d   1      -0.912  -1.896  -1.198  0.00  0.00     0.077 C 
ATOM      3  C1  PXY d   1      -1.439  -0.502  -1.475  0.00  0.00    -0.082 A 
ATOM      4  C2  PXY d   1      -2.737  -0.263  -1.386  0.00  0.00     0.003 A 
ATOM      5  C3  PXY d   1      -3.234   0.984  -1.664  0.00  0.00     0.003 A 
ATOM      6  C4  PXY d   1      -2.387   2.012  -1.984  0.00  0.00    -0.082 A 
ATOM      7  C5  PXY d   1      -1.060   1.779  -2.066  0.00  0.00     0.003 A 
ATOM      8  C6  PXY d   1      -0.580   0.496  -1.821  0.00  0.00     0.003 A 
ENDROOT
TORSDOF 0
ENDMDL
