MODEL 1
REMARK minimizedAffinity 15.9407301
REMARK minimizedRMSD -1
REMARK  0 active torsions:
REMARK  status: ('A' for Active; 'I' for Inactive)
ROOT
ATOM      1  C4' PXY d   1       0.425  -5.284  -1.871  0.00  0.00     0.077 C 
ATOM      2  C1' PXY d   1       6.000  -4.580  -0.517  0.00  0.00     0.077 C 
ATOM      3  C1  PXY d   1       4.534  -4.757  -0.862  0.00  0.00    -0.082 A 
ATOM      4  C2  PXY d   1       4.142  -5.839  -1.515  0.00  0.00     0.003 A 
ATOM      5  C3  PXY d   1       2.826  -6.000  -1.863  0.00  0.00     0.003 A 
ATOM      6  C4  PXY d   1       1.893  -5.068  -1.493  0.00  0.00    -0.082 A 
ATOM      7  C5  PXY d   1       2.283  -3.967  -0.818  0.00  0.00     0.003 A 
ATOM      8  C6  PXY d   1       3.631  -3.803  -0.510  0.00  0.00     0.003 A 
ENDROOT
TORSDOF 0
ENDMDL
