MODEL 1
REMARK minimizedAffinity 3.42751527
REMARK minimizedRMSD -1
REMARK  0 active torsions:
REMARK  status: ('A' for Active; 'I' for Inactive)
ROOT
ATOM      1  C4' PXY d   1      -5.999  -2.223   6.000  0.00  0.00     0.077 C 
ATOM      2  C1' PXY d   1      -4.871   0.747   1.170  0.00  0.00     0.077 C 
ATOM      3  C1  PXY d   1      -5.166  -0.021   2.444  0.00  0.00    -0.082 A 
ATOM      4  C2  PXY d   1      -4.876  -1.310   2.513  0.00  0.00     0.003 A 
ATOM      5  C3  PXY d   1      -5.166  -2.027   3.645  0.00  0.00     0.003 A 
ATOM      6  C4  PXY d   1      -5.710  -1.406   4.737  0.00  0.00    -0.082 A 
ATOM      7  C5  PXY d   1      -5.999  -0.089   4.679  0.00  0.00     0.003 A 
ATOM      8  C6  PXY d   1      -5.736   0.612   3.505  0.00  0.00     0.003 A 
ENDROOT
TORSDOF 0
ENDMDL
