MODEL 1
REMARK minimizedAffinity -5.59023476
REMARK minimizedRMSD -1
REMARK  1 active torsions:
REMARK  status: ('A' for Active; 'I' for Inactive)
REMARK    1  A    between atoms: C1_2  and  C2_3 
ROOT
ATOM      1  C2  UNL d   1       0.412  -0.290  -0.317  0.00  0.00    -0.077 A 
ATOM      2  C3  UNL d   1       0.538   0.910  -1.030  0.00  0.00     0.002 A 
ATOM      3  C4  UNL d   1       1.332   0.971  -2.177  0.00  0.00     0.002 A 
ATOM      4  C5  UNL d   1       2.003  -0.166  -2.623  0.00  0.00    -0.004 A 
ATOM      5  C6  UNL d   1       1.886  -1.364  -1.919  0.00  0.00     0.002 A 
ATOM      6  C7  UNL d   1       1.094  -1.426  -0.772  0.00  0.00     0.002 A 
ENDROOT
BRANCH   1   7
ATOM      7  C1  UNL d   1      -0.483  -0.370   0.892  0.00  0.00     0.055 C 
ATOM      8  C   UNL d   1      -1.810   0.333   0.645  0.00  0.00     0.019 C 
ENDBRANCH   1   7
TORSDOF 1
ENDMDL
