MODEL 1
REMARK minimizedAffinity -3.08517814
REMARK minimizedRMSD -1
REMARK  1 active torsions:
REMARK  status: ('A' for Active; 'I' for Inactive)
REMARK    1  A    between atoms: C1_2  and  C2_3 
ROOT
ATOM      1  C2  UNL d   1       0.708  -0.431  -0.786  0.00  0.00    -0.077 A 
ATOM      2  C3  UNL d   1       0.915  -1.814  -0.686  0.00  0.00     0.002 A 
ATOM      3  C4  UNL d   1       1.989  -2.416  -1.345  0.00  0.00     0.002 A 
ATOM      4  C5  UNL d   1       2.866  -1.644  -2.103  0.00  0.00    -0.004 A 
ATOM      5  C6  UNL d   1       2.667  -0.268  -2.210  0.00  0.00     0.002 A 
ATOM      6  C7  UNL d   1       1.594   0.336  -1.554  0.00  0.00     0.002 A 
ENDROOT
BRANCH   1   7
ATOM      7  C1  UNL d   1      -0.420   0.228  -0.037  0.00  0.00     0.055 C 
ATOM      8  C   UNL d   1      -0.511  -0.287   1.393  0.00  0.00     0.019 C 
ENDBRANCH   1   7
TORSDOF 1
ENDMDL
