MODEL 1
REMARK minimizedAffinity -5.01069689
REMARK minimizedRMSD -1
REMARK  1 active torsions:
REMARK  status: ('A' for Active; 'I' for Inactive)
REMARK    1  A    between atoms: C1_2  and  C2_3 
ROOT
ATOM      1  C2  UNL d   1      -1.662   0.450   1.301  0.00  0.00    -0.077 A 
ATOM      2  C3  UNL d   1      -0.592   0.652   2.183  0.00  0.00     0.002 A 
ATOM      3  C4  UNL d   1       0.638   1.112   1.709  0.00  0.00     0.002 A 
ATOM      4  C5  UNL d   1       0.808   1.378   0.352  0.00  0.00    -0.004 A 
ATOM      5  C6  UNL d   1      -0.249   1.178  -0.535  0.00  0.00     0.002 A 
ATOM      6  C7  UNL d   1      -1.479   0.717  -0.062  0.00  0.00     0.002 A 
ENDROOT
BRANCH   1   7
ATOM      7  C1  UNL d   1      -3.003   0.001   1.817  0.00  0.00     0.055 C 
ATOM      8  C   UNL d   1      -4.108   0.957   1.393  0.00  0.00     0.019 C 
ENDBRANCH   1   7
TORSDOF 1
ENDMDL
