MODEL 1
REMARK minimizedAffinity -3.55000257
REMARK minimizedRMSD -1
REMARK  1 active torsions:
REMARK  status: ('A' for Active; 'I' for Inactive)
REMARK    1  A    between atoms: C1_2  and  C2_3 
ROOT
ATOM      1  C2  UNL d   1       1.069   1.202  -0.809  0.00  0.00    -0.077 A 
ATOM      2  C3  UNL d   1      -0.152   0.515  -0.748  0.00  0.00     0.002 A 
ATOM      3  C4  UNL d   1      -0.391  -0.576  -1.586  0.00  0.00     0.002 A 
ATOM      4  C5  UNL d   1       0.587  -0.992  -2.487  0.00  0.00    -0.004 A 
ATOM      5  C6  UNL d   1       1.804  -0.314  -2.557  0.00  0.00     0.002 A 
ATOM      6  C7  UNL d   1       2.044   0.777  -1.720  0.00  0.00     0.002 A 
ENDROOT
BRANCH   1   7
ATOM      7  C1  UNL d   1       1.348   2.347   0.129  0.00  0.00     0.055 C 
ATOM      8  C   UNL d   1       1.176   1.928   1.582  0.00  0.00     0.019 C 
ENDBRANCH   1   7
TORSDOF 1
ENDMDL
