MODEL 1
REMARK minimizedAffinity -4.24868441
REMARK minimizedRMSD -1
REMARK  1 active torsions:
REMARK  status: ('A' for Active; 'I' for Inactive)
REMARK    1  A    between atoms: C1_2  and  C2_3 
ROOT
ATOM      1  C2  UNL d   1       0.732  -0.217  -1.410  0.00  0.00    -0.077 A 
ATOM      2  C3  UNL d   1       0.087   0.888  -0.838  0.00  0.00     0.002 A 
ATOM      3  C4  UNL d   1      -0.748   0.724   0.270  0.00  0.00     0.002 A 
ATOM      4  C5  UNL d   1      -0.941  -0.543   0.817  0.00  0.00    -0.004 A 
ATOM      5  C6  UNL d   1      -0.305  -1.649   0.253  0.00  0.00     0.002 A 
ATOM      6  C7  UNL d   1       0.528  -1.487  -0.855  0.00  0.00     0.002 A 
ENDROOT
BRANCH   1   7
ATOM      7  C1  UNL d   1       1.670  -0.035  -2.574  0.00  0.00     0.055 C 
ATOM      8  C   UNL d   1       3.072   0.323  -2.104  0.00  0.00     0.019 C 
ENDBRANCH   1   7
TORSDOF 1
ENDMDL
