MODEL 1
REMARK minimizedAffinity -2.48562932
REMARK minimizedRMSD -1
REMARK  1 active torsions:
REMARK  status: ('A' for Active; 'I' for Inactive)
REMARK    1  A    between atoms: C1_2  and  C2_3 
ROOT
ATOM      1  C2  UNL d   1      -5.218   3.296  -5.959  0.00  0.00    -0.077 A 
ATOM      2  C3  UNL d   1      -6.000   4.460  -5.945  0.00  0.00     0.002 A 
ATOM      3  C4  UNL d   1      -5.394   5.718  -5.958  0.00  0.00     0.002 A 
ATOM      4  C5  UNL d   1      -4.005   5.823  -5.988  0.00  0.00    -0.004 A 
ATOM      5  C6  UNL d   1      -3.219   4.672  -6.000  0.00  0.00     0.002 A 
ATOM      6  C7  UNL d   1      -3.823   3.414  -5.987  0.00  0.00     0.002 A 
ENDROOT
BRANCH   1   7
ATOM      7  C1  UNL d   1      -5.871   1.939  -5.996  0.00  0.00     0.055 C 
ATOM      8  C   UNL d   1      -4.884   0.840  -5.629  0.00  0.00     0.019 C 
ENDBRANCH   1   7
TORSDOF 1
ENDMDL
