MODEL 1
REMARK minimizedAffinity -4.96684074
REMARK minimizedRMSD -1
REMARK  1 active torsions:
REMARK  status: ('A' for Active; 'I' for Inactive)
REMARK    1  A    between atoms: C1_2  and  C2_3 
ROOT
ATOM      1  C2  UNL d   1       1.227  -0.420  -0.495  0.00  0.00    -0.077 A 
ATOM      2  C3  UNL d   1       2.102  -0.557  -1.582  0.00  0.00     0.002 A 
ATOM      3  C4  UNL d   1       2.522  -1.823  -1.995  0.00  0.00     0.002 A 
ATOM      4  C5  UNL d   1       2.069  -2.960  -1.330  0.00  0.00    -0.004 A 
ATOM      5  C6  UNL d   1       1.200  -2.834  -0.247  0.00  0.00     0.002 A 
ATOM      6  C7  UNL d   1       0.780  -1.570   0.168  0.00  0.00     0.002 A 
ENDROOT
BRANCH   1   7
ATOM      7  C1  UNL d   1       0.734   0.942  -0.079  0.00  0.00     0.055 C 
ATOM      8  C   UNL d   1       1.050   1.991  -1.135  0.00  0.00     0.019 C 
ENDBRANCH   1   7
TORSDOF 1
ENDMDL
