MODEL 1
REMARK minimizedAffinity -1.7678349
REMARK minimizedRMSD -1
REMARK  1 active torsions:
REMARK  status: ('A' for Active; 'I' for Inactive)
REMARK    1  A    between atoms: C1_2  and  C2_3 
ROOT
ATOM      1  C2  UNL d   1      -1.313   0.416   1.020  0.00  0.00    -0.077 A 
ATOM      2  C3  UNL d   1      -0.654  -0.807   0.831  0.00  0.00     0.002 A 
ATOM      3  C4  UNL d   1       0.526  -0.865   0.087  0.00  0.00     0.002 A 
ATOM      4  C5  UNL d   1       1.060   0.296  -0.469  0.00  0.00    -0.004 A 
ATOM      5  C6  UNL d   1       0.411   1.516  -0.287  0.00  0.00     0.002 A 
ATOM      6  C7  UNL d   1      -0.770   1.576   0.455  0.00  0.00     0.002 A 
ENDROOT
BRANCH   1   7
ATOM      7  C1  UNL d   1      -2.559   0.489   1.863  0.00  0.00     0.055 C 
ATOM      8  C   UNL d   1      -3.685  -0.339   1.260  0.00  0.00     0.019 C 
ENDBRANCH   1   7
TORSDOF 1
ENDMDL
