MODEL 1
REMARK minimizedAffinity -1.4971832
REMARK minimizedRMSD -1
REMARK  1 active torsions:
REMARK  status: ('A' for Active; 'I' for Inactive)
REMARK    1  A    between atoms: C1_2  and  C2_3 
ROOT
ATOM      1  C2  UNL d   1       0.518  -0.289  -0.635  0.00  0.00    -0.077 A 
ATOM      2  C3  UNL d   1       1.329   0.708  -1.196  0.00  0.00     0.002 A 
ATOM      3  C4  UNL d   1       2.501   0.367  -1.873  0.00  0.00     0.002 A 
ATOM      4  C5  UNL d   1       2.871  -0.970  -1.999  0.00  0.00    -0.004 A 
ATOM      5  C6  UNL d   1       2.073  -1.969  -1.443  0.00  0.00     0.002 A 
ATOM      6  C7  UNL d   1       0.901  -1.630  -0.765  0.00  0.00     0.002 A 
ENDROOT
BRANCH   1   7
ATOM      7  C1  UNL d   1      -0.772   0.074   0.052  0.00  0.00     0.055 C 
ATOM      8  C   UNL d   1      -0.665  -0.104   1.560  0.00  0.00     0.019 C 
ENDBRANCH   1   7
TORSDOF 1
ENDMDL
