MODEL 1
REMARK minimizedAffinity -2.21191144
REMARK minimizedRMSD -1
REMARK  1 active torsions:
REMARK  status: ('A' for Active; 'I' for Inactive)
REMARK    1  A    between atoms: C1_2  and  C2_3 
ROOT
ATOM      1  C2  UNL d   1      -0.600   0.316   0.194  0.00  0.00    -0.077 A 
ATOM      2  C3  UNL d   1      -0.534  -0.159   1.512  0.00  0.00     0.002 A 
ATOM      3  C4  UNL d   1      -1.655  -0.097   2.342  0.00  0.00     0.002 A 
ATOM      4  C5  UNL d   1      -2.850   0.436   1.863  0.00  0.00    -0.004 A 
ATOM      5  C6  UNL d   1      -2.925   0.912   0.554  0.00  0.00     0.002 A 
ATOM      6  C7  UNL d   1      -1.805   0.852  -0.276  0.00  0.00     0.002 A 
ENDROOT
BRANCH   1   7
ATOM      7  C1  UNL d   1       0.594   0.204  -0.718  0.00  0.00     0.055 C 
ATOM      8  C   UNL d   1       0.571  -1.100  -1.502  0.00  0.00     0.019 C 
ENDBRANCH   1   7
TORSDOF 1
ENDMDL
