MODEL 1
REMARK minimizedAffinity -1.55416667
REMARK minimizedRMSD -1
REMARK  1 active torsions:
REMARK  status: ('A' for Active; 'I' for Inactive)
REMARK    1  A    between atoms: C1_2  and  C2_3 
ROOT
ATOM      1  C2  UNL d   1       0.388   1.039  -0.671  0.00  0.00    -0.077 A 
ATOM      2  C3  UNL d   1      -0.861   1.530  -1.076  0.00  0.00     0.002 A 
ATOM      3  C4  UNL d   1      -2.032   1.062  -0.478  0.00  0.00     0.002 A 
ATOM      4  C5  UNL d   1      -1.966   0.103   0.532  0.00  0.00    -0.004 A 
ATOM      5  C6  UNL d   1      -0.729  -0.393   0.940  0.00  0.00     0.002 A 
ATOM      6  C7  UNL d   1       0.443   0.074   0.342  0.00  0.00     0.002 A 
ENDROOT
BRANCH   1   7
ATOM      7  C1  UNL d   1       1.655   1.579  -1.281  0.00  0.00     0.055 C 
ATOM      8  C   UNL d   1       2.451   0.479  -1.967  0.00  0.00     0.019 C 
ENDBRANCH   1   7
TORSDOF 1
ENDMDL
