MODEL 1
REMARK minimizedAffinity -5.40836859
REMARK minimizedRMSD -1
REMARK  1 active torsions:
REMARK  status: ('A' for Active; 'I' for Inactive)
REMARK    1  A    between atoms: C1_2  and  C2_3 
ROOT
ATOM      1  C2  UNL d   1       0.341  -0.012  -0.841  0.00  0.00    -0.077 A 
ATOM      2  C3  UNL d   1       0.860  -1.304  -1.005  0.00  0.00     0.002 A 
ATOM      3  C4  UNL d   1       1.818  -1.561  -1.988  0.00  0.00     0.002 A 
ATOM      4  C5  UNL d   1       2.268  -0.530  -2.810  0.00  0.00    -0.004 A 
ATOM      5  C6  UNL d   1       1.757   0.758  -2.656  0.00  0.00     0.002 A 
ATOM      6  C7  UNL d   1       0.798   1.016  -1.675  0.00  0.00     0.002 A 
ENDROOT
BRANCH   1   7
ATOM      7  C1  UNL d   1      -0.656   0.278   0.251  0.00  0.00     0.055 C 
ATOM      8  C   UNL d   1      -0.720  -0.861   1.258  0.00  0.00     0.019 C 
ENDBRANCH   1   7
TORSDOF 1
ENDMDL
