MODEL 1
REMARK minimizedAffinity -3.32056737
REMARK minimizedRMSD -1
REMARK  1 active torsions:
REMARK  status: ('A' for Active; 'I' for Inactive)
REMARK    1  A    between atoms: C1_2  and  C2_3 
ROOT
ATOM      1  C2  UNL d   1      -0.278   0.397   0.091  0.00  0.00    -0.077 A 
ATOM      2  C3  UNL d   1       0.661  -0.376  -0.606  0.00  0.00     0.002 A 
ATOM      3  C4  UNL d   1       1.707   0.238  -1.298  0.00  0.00     0.002 A 
ATOM      4  C5  UNL d   1       1.826   1.626  -1.296  0.00  0.00    -0.004 A 
ATOM      5  C6  UNL d   1       0.895   2.403  -0.607  0.00  0.00     0.002 A 
ATOM      6  C7  UNL d   1      -0.151   1.792   0.084  0.00  0.00     0.002 A 
ENDROOT
BRANCH   1   7
ATOM      7  C1  UNL d   1      -1.379  -0.266   0.879  0.00  0.00     0.055 C 
ATOM      8  C   UNL d   1      -2.342   0.761   1.455  0.00  0.00     0.019 C 
ENDBRANCH   1   7
TORSDOF 1
ENDMDL
