MODEL 1
REMARK minimizedAffinity -2.94967103
REMARK minimizedRMSD -1
REMARK  0 active torsions:
REMARK  status: ('A' for Active; 'I' for Inactive)
ROOT
ATOM      1  C1  BNZ d   1      -0.543  -2.599   2.564  0.00  0.00     0.000 A 
ATOM      2  C2  BNZ d   1       0.703  -2.347   2.055  0.00  0.00     0.000 A 
ATOM      3  C3  BNZ d   1       1.590  -3.365   1.840  0.00  0.00     0.000 A 
ATOM      4  C4  BNZ d   1       1.246  -4.626   2.173  0.00  0.00     0.000 A 
ATOM      5  C5  BNZ d   1      -0.003  -4.895   2.696  0.00  0.00     0.000 A 
ATOM      6  C6  BNZ d   1      -0.908  -3.873   2.874  0.00  0.00     0.000 A 
ENDROOT
TORSDOF 0
ENDMDL
