MODEL 1
REMARK minimizedAffinity -3.24680614
REMARK minimizedRMSD -1
REMARK  0 active torsions:
REMARK  status: ('A' for Active; 'I' for Inactive)
ROOT
ATOM      1  C1  BNZ d   1       2.246  -3.558   1.604  0.00  0.00     0.000 A 
ATOM      2  C2  BNZ d   1       1.242  -3.355   2.513  0.00  0.00     0.000 A 
ATOM      3  C3  BNZ d   1       0.187  -2.536   2.219  0.00  0.00     0.000 A 
ATOM      4  C4  BNZ d   1       0.159  -1.890   1.035  0.00  0.00     0.000 A 
ATOM      5  C5  BNZ d   1       1.169  -2.077   0.113  0.00  0.00     0.000 A 
ATOM      6  C6  BNZ d   1       2.209  -2.933   0.396  0.00  0.00     0.000 A 
ENDROOT
TORSDOF 0
ENDMDL
