MODEL 1
REMARK minimizedAffinity -0.890601039
REMARK minimizedRMSD -1
REMARK  0 active torsions:
REMARK  status: ('A' for Active; 'I' for Inactive)
ROOT
ATOM      1  C1  BNZ d   1      -2.801   3.066  -4.582  0.00  0.00     0.000 A 
ATOM      2  C2  BNZ d   1      -3.853   2.431  -3.979  0.00  0.00     0.000 A 
ATOM      3  C3  BNZ d   1      -4.222   2.747  -2.701  0.00  0.00     0.000 A 
ATOM      4  C4  BNZ d   1      -3.514   3.667  -2.015  0.00  0.00     0.000 A 
ATOM      5  C5  BNZ d   1      -2.445   4.310  -2.606  0.00  0.00     0.000 A 
ATOM      6  C6  BNZ d   1      -2.100   4.017  -3.906  0.00  0.00     0.000 A 
ENDROOT
TORSDOF 0
ENDMDL
