MODEL 1
REMARK minimizedAffinity -1.39262199
REMARK minimizedRMSD -1
REMARK  0 active torsions:
REMARK  status: ('A' for Active; 'I' for Inactive)
ROOT
ATOM      1  C1  BNZ d   1      -4.254  -3.617  -5.985  0.00  0.00     0.000 A 
ATOM      2  C2  BNZ d   1      -5.489  -3.026  -5.980  0.00  0.00     0.000 A 
ATOM      3  C3  BNZ d   1      -5.613  -1.665  -6.000  0.00  0.00     0.000 A 
ATOM      4  C4  BNZ d   1      -4.505  -0.898  -5.984  0.00  0.00     0.000 A 
ATOM      5  C5  BNZ d   1      -3.252  -1.479  -5.980  0.00  0.00     0.000 A 
ATOM      6  C6  BNZ d   1      -3.131  -2.849  -6.000  0.00  0.00     0.000 A 
ENDROOT
TORSDOF 0
ENDMDL
