MODEL 1
REMARK minimizedAffinity 1.44218814
REMARK minimizedRMSD -1
REMARK  0 active torsions:
REMARK  status: ('A' for Active; 'I' for Inactive)
ROOT
ATOM      1  C1  BNZ d   1       4.490  -5.998   0.940  0.00  0.00     0.000 A 
ATOM      2  C2  BNZ d   1       3.159  -5.999   1.264  0.00  0.00     0.000 A 
ATOM      3  C3  BNZ d   1       2.395  -4.879   1.088  0.00  0.00     0.000 A 
ATOM      4  C4  BNZ d   1       2.970  -3.750   0.626  0.00  0.00     0.000 A 
ATOM      5  C5  BNZ d   1       4.312  -3.731   0.304  0.00  0.00     0.000 A 
ATOM      6  C6  BNZ d   1       5.070  -4.871   0.446  0.00  0.00     0.000 A 
ENDROOT
TORSDOF 0
ENDMDL
