MODEL 1
REMARK minimizedAffinity -0.383328497
REMARK minimizedRMSD -1
REMARK  0 active torsions:
REMARK  status: ('A' for Active; 'I' for Inactive)
ROOT
ATOM      1  C1  BNZ d   1      -5.823   1.976   5.072  0.00  0.00     0.000 A 
ATOM      2  C2  BNZ d   1      -5.772   2.985   5.997  0.00  0.00     0.000 A 
ATOM      3  C3  BNZ d   1      -4.739   3.880   6.000  0.00  0.00     0.000 A 
ATOM      4  C4  BNZ d   1      -3.739   3.741   5.105  0.00  0.00     0.000 A 
ATOM      5  C5  BNZ d   1      -3.771   2.723   4.173  0.00  0.00     0.000 A 
ATOM      6  C6  BNZ d   1      -4.832   1.848   4.148  0.00  0.00     0.000 A 
ENDROOT
TORSDOF 0
ENDMDL
