MODEL 1
REMARK minimizedAffinity 0.632096648
REMARK minimizedRMSD -1
REMARK  0 active torsions:
REMARK  status: ('A' for Active; 'I' for Inactive)
ROOT
ATOM      1  C1  BNZ d   1       1.511  -1.170  -0.101  0.00  0.00     0.000 A 
ATOM      2  C2  BNZ d   1       0.664  -0.638   0.835  0.00  0.00     0.000 A 
ATOM      3  C3  BNZ d   1       0.064  -1.435   1.769  0.00  0.00     0.000 A 
ATOM      4  C4  BNZ d   1       0.279  -2.766   1.741  0.00  0.00     0.000 A 
ATOM      5  C5  BNZ d   1       1.123  -3.319   0.798  0.00  0.00     0.000 A 
ATOM      6  C6  BNZ d   1       1.755  -2.508  -0.116  0.00  0.00     0.000 A 
ENDROOT
TORSDOF 0
ENDMDL
