MODEL 1
REMARK minimizedAffinity -2.56797934
REMARK minimizedRMSD -1
REMARK  0 active torsions:
REMARK  status: ('A' for Active; 'I' for Inactive)
ROOT
ATOM      1  C1  BNZ d   1      -3.001  -2.211  -3.986  0.00  0.00     0.000 A 
ATOM      2  C2  BNZ d   1      -3.146  -0.884  -3.684  0.00  0.00     0.000 A 
ATOM      3  C3  BNZ d   1      -3.838  -0.048  -4.515  0.00  0.00     0.000 A 
ATOM      4  C4  BNZ d   1      -4.350  -0.531  -5.665  0.00  0.00     0.000 A 
ATOM      5  C5  BNZ d   1      -4.205  -1.866  -5.988  0.00  0.00     0.000 A 
ATOM      6  C6  BNZ d   1      -3.541  -2.712  -5.130  0.00  0.00     0.000 A 
ENDROOT
TORSDOF 0
ENDMDL
