MODEL 1
REMARK minimizedAffinity 0.926098168
REMARK minimizedRMSD -1
REMARK  0 active torsions:
REMARK  status: ('A' for Active; 'I' for Inactive)
ROOT
ATOM      1  C1  BNZ d   1       4.176   4.099   1.266  0.00  0.00     0.000 A 
ATOM      2  C2  BNZ d   1       4.024   5.373   1.746  0.00  0.00     0.000 A 
ATOM      3  C3  BNZ d   1       2.880   5.744   2.395  0.00  0.00     0.000 A 
ATOM      4  C4  BNZ d   1       1.875   4.855   2.529  0.00  0.00     0.000 A 
ATOM      5  C5  BNZ d   1       2.009   3.570   2.042  0.00  0.00     0.000 A 
ATOM      6  C6  BNZ d   1       3.177   3.188   1.423  0.00  0.00     0.000 A 
ENDROOT
TORSDOF 0
ENDMDL
