MODEL 1
REMARK minimizedAffinity 3.23409271
REMARK minimizedRMSD -1
REMARK  0 active torsions:
REMARK  status: ('A' for Active; 'I' for Inactive)
ROOT
ATOM      1  C1  BNZ d   1       1.780  -0.051   0.804  0.00  0.00     0.000 A 
ATOM      2  C2  BNZ d   1       0.463  -0.038   1.177  0.00  0.00     0.000 A 
ATOM      3  C3  BNZ d   1      -0.129  -1.156   1.695  0.00  0.00     0.000 A 
ATOM      4  C4  BNZ d   1       0.584  -2.295   1.801  0.00  0.00     0.000 A 
ATOM      5  C5  BNZ d   1       1.911  -2.327   1.420  0.00  0.00     0.000 A 
ATOM      6  C6  BNZ d   1       2.515  -1.189   0.936  0.00  0.00     0.000 A 
ENDROOT
TORSDOF 0
ENDMDL
