MODEL 1
REMARK minimizedAffinity -3.93352795
REMARK minimizedRMSD -1
REMARK  2 active torsions:
REMARK  status: ('A' for Active; 'I' for Inactive)
REMARK    1  A    between atoms: C1_2  and  C2_3 
REMARK    2  A    between atoms: C2_3  and  C3_4 
ROOT
ATOM      1  C3  UNL d   1       0.789  -0.207   0.039  0.00  0.00    -0.075 A 
ATOM      2  C4  UNL d   1       1.528   0.985   0.004  0.00  0.00     0.002 A 
ATOM      3  C5  UNL d   1       2.916   0.955  -0.135  0.00  0.00     0.002 A 
ATOM      4  C6  UNL d   1       3.582  -0.265  -0.231  0.00  0.00    -0.004 A 
ATOM      5  C7  UNL d   1       2.861  -1.455  -0.181  0.00  0.00     0.002 A 
ATOM      6  C8  UNL d   1       1.471  -1.428  -0.046  0.00  0.00     0.002 A 
ENDROOT
BRANCH   1   7
ATOM      7  C2  UNL d   1      -0.716  -0.180   0.160  0.00  0.00     0.056 C 
BRANCH   7   8
ATOM      8  C1  UNL d   1      -1.381   0.979  -0.590  0.00  0.00     0.007 C 
ATOM      9  C   UNL d   1      -2.838   1.189  -0.200  0.00  0.00     0.009 C 
ENDBRANCH   7   8
ENDBRANCH   1   7
TORSDOF 2
ENDMDL
