MODEL 1
REMARK minimizedAffinity -1.70287478
REMARK minimizedRMSD -1
REMARK  2 active torsions:
REMARK  status: ('A' for Active; 'I' for Inactive)
REMARK    1  A    between atoms: C1_2  and  C2_3 
REMARK    2  A    between atoms: C2_3  and  C3_4 
ROOT
ATOM      1  C3  UNL d   1      -0.444   0.018   0.376  0.00  0.00    -0.075 A 
ATOM      2  C4  UNL d   1      -1.038  -0.459  -0.802  0.00  0.00     0.002 A 
ATOM      3  C5  UNL d   1      -0.270  -1.108  -1.769  0.00  0.00     0.002 A 
ATOM      4  C6  UNL d   1       1.100  -1.279  -1.577  0.00  0.00    -0.004 A 
ATOM      5  C7  UNL d   1       1.702  -0.794  -0.418  0.00  0.00     0.002 A 
ATOM      6  C8  UNL d   1       0.936  -0.148   0.553  0.00  0.00     0.002 A 
ENDROOT
BRANCH   1   7
ATOM      7  C2  UNL d   1      -1.275   0.695   1.440  0.00  0.00     0.056 C 
BRANCH   7   8
ATOM      8  C1  UNL d   1      -2.743   0.255   1.459  0.00  0.00     0.007 C 
ATOM      9  C   UNL d   1      -3.634   1.175   2.283  0.00  0.00     0.009 C 
ENDBRANCH   7   8
ENDBRANCH   1   7
TORSDOF 2
ENDMDL
