MODEL 1
REMARK minimizedAffinity -5.99227619
REMARK minimizedRMSD -1
REMARK  2 active torsions:
REMARK  status: ('A' for Active; 'I' for Inactive)
REMARK    1  A    between atoms: C1_2  and  C2_3 
REMARK    2  A    between atoms: C2_3  and  C3_4 
ROOT
ATOM      1  C3  UNL d   1       0.935  -0.249   0.004  0.00  0.00    -0.075 A 
ATOM      2  C4  UNL d   1       1.734  -1.387  -0.181  0.00  0.00     0.002 A 
ATOM      3  C5  UNL d   1       3.106  -1.336   0.070  0.00  0.00     0.002 A 
ATOM      4  C6  UNL d   1       3.696  -0.149   0.498  0.00  0.00    -0.004 A 
ATOM      5  C7  UNL d   1       2.914   0.991   0.668  0.00  0.00     0.002 A 
ATOM      6  C8  UNL d   1       1.541   0.943   0.423  0.00  0.00     0.002 A 
ENDROOT
BRANCH   1   7
ATOM      7  C2  UNL d   1      -0.555  -0.305  -0.237  0.00  0.00     0.056 C 
BRANCH   7   8
ATOM      8  C1  UNL d   1      -1.264   1.043  -0.071  0.00  0.00     0.007 C 
ATOM      9  C   UNL d   1      -2.597   0.934   0.659  0.00  0.00     0.009 C 
ENDBRANCH   7   8
ENDBRANCH   1   7
TORSDOF 2
ENDMDL
