MODEL 1
REMARK minimizedAffinity -5.25233078
REMARK minimizedRMSD -1
REMARK  2 active torsions:
REMARK  status: ('A' for Active; 'I' for Inactive)
REMARK    1  A    between atoms: C1_2  and  C2_3 
REMARK    2  A    between atoms: C2_3  and  C3_4 
ROOT
ATOM      1  C3  UNL d   1      -0.000  -0.112  -0.094  0.00  0.00    -0.075 A 
ATOM      2  C4  UNL d   1       0.145  -1.507  -0.110  0.00  0.00     0.002 A 
ATOM      3  C5  UNL d   1       1.414  -2.086  -0.133  0.00  0.00     0.002 A 
ATOM      4  C6  UNL d   1       2.551  -1.281  -0.151  0.00  0.00    -0.004 A 
ATOM      5  C7  UNL d   1       2.418   0.106  -0.152  0.00  0.00     0.002 A 
ATOM      6  C8  UNL d   1       1.149   0.688  -0.124  0.00  0.00     0.002 A 
ENDROOT
BRANCH   1   7
ATOM      7  C2  UNL d   1      -1.370   0.521  -0.039  0.00  0.00     0.056 C 
BRANCH   7   8
ATOM      8  C1  UNL d   1      -1.941   0.650   1.377  0.00  0.00     0.007 C 
ATOM      9  C   UNL d   1      -3.442   0.908   1.398  0.00  0.00     0.009 C 
ENDBRANCH   7   8
ENDBRANCH   1   7
TORSDOF 2
ENDMDL
