MODEL 1
REMARK minimizedAffinity -4.88616753
REMARK minimizedRMSD -1
REMARK  0 active torsions:
REMARK  status: ('A' for Active; 'I' for Inactive)
ROOT
ATOM      1  C   UNL d   1      -2.159  -2.425   1.586  0.00  0.00     0.023 A 
ATOM      2  C1  UNL d   1      -1.039  -2.767   0.828  0.00  0.00     0.003 A 
ATOM      3  C2  UNL d   1      -0.257  -1.767   0.245  0.00  0.00     0.048 A 
ATOM      4  C3  UNL d   1      -0.600  -0.428   0.426  0.00  0.00     0.023 A 
ATOM      5  C4  UNL d   1      -1.719  -0.081   1.185  0.00  0.00     0.048 A 
ATOM      6  C5  UNL d   1      -2.498  -1.084   1.764  0.00  0.00     0.003 A 
ATOM      7  I   UNL d   1       0.563   1.062  -0.439  0.00  0.00    -0.146 I 
ENDROOT
TORSDOF 0
ENDMDL
