MODEL 1
REMARK minimizedAffinity -0.10333132
REMARK minimizedRMSD -1
REMARK  0 active torsions:
REMARK  status: ('A' for Active; 'I' for Inactive)
ROOT
ATOM      1  C   UNL d   1      -1.625  -1.331  -0.692  0.00  0.00     0.023 A 
ATOM      2  C1  UNL d   1      -2.196  -2.333   0.093  0.00  0.00     0.003 A 
ATOM      3  C2  UNL d   1      -1.641  -2.652   1.334  0.00  0.00     0.048 A 
ATOM      4  C3  UNL d   1      -0.515  -1.963   1.784  0.00  0.00     0.023 A 
ATOM      5  C4  UNL d   1       0.059  -0.959   1.003  0.00  0.00     0.048 A 
ATOM      6  C5  UNL d   1      -0.499  -0.645  -0.238  0.00  0.00     0.003 A 
ATOM      7  I   UNL d   1       0.314  -2.435   3.631  0.00  0.00    -0.146 I 
ENDROOT
TORSDOF 0
ENDMDL
