MODEL 1
REMARK minimizedAffinity -4.20132303
REMARK minimizedRMSD -1
REMARK  0 active torsions:
REMARK  status: ('A' for Active; 'I' for Inactive)
ROOT
ATOM      1  C   UNL d   1      -1.252  -2.615   1.654  0.00  0.00     0.023 A 
ATOM      2  C1  UNL d   1      -1.989  -1.461   1.387  0.00  0.00     0.003 A 
ATOM      3  C2  UNL d   1      -1.394  -0.392   0.713  0.00  0.00     0.048 A 
ATOM      4  C3  UNL d   1      -0.063  -0.485   0.307  0.00  0.00     0.023 A 
ATOM      5  C4  UNL d   1       0.677  -1.638   0.572  0.00  0.00     0.048 A 
ATOM      6  C5  UNL d   1       0.079  -2.704   1.247  0.00  0.00     0.003 A 
ATOM      7  I   UNL d   1       0.824   1.104  -0.696  0.00  0.00    -0.146 I 
ENDROOT
TORSDOF 0
ENDMDL
