MODEL 1
REMARK minimizedAffinity -3.99568629
REMARK minimizedRMSD -1
REMARK  0 active torsions:
REMARK  status: ('A' for Active; 'I' for Inactive)
ROOT
ATOM      1  C   UNL d   1      -0.586  -2.235   1.329  0.00  0.00     0.023 A 
ATOM      2  C1  UNL d   1      -1.528  -1.261   0.998  0.00  0.00     0.003 A 
ATOM      3  C2  UNL d   1      -1.156  -0.164   0.217  0.00  0.00     0.048 A 
ATOM      4  C3  UNL d   1       0.160  -0.049  -0.229  0.00  0.00     0.023 A 
ATOM      5  C4  UNL d   1       1.106  -1.021   0.099  0.00  0.00     0.048 A 
ATOM      6  C5  UNL d   1       0.729  -2.115   0.880  0.00  0.00     0.003 A 
ATOM      7  I   UNL d   1       0.717   1.582  -1.391  0.00  0.00    -0.146 I 
ENDROOT
TORSDOF 0
ENDMDL
