MODEL 1
REMARK minimizedAffinity -1.72621667
REMARK minimizedRMSD -1
REMARK  0 active torsions:
REMARK  status: ('A' for Active; 'I' for Inactive)
ROOT
ATOM      1  C   UNL d   1      -2.994  -0.690   1.068  0.00  0.00     0.023 A 
ATOM      2  C1  UNL d   1      -2.208  -1.617   0.383  0.00  0.00     0.003 A 
ATOM      3  C2  UNL d   1      -0.965  -1.239  -0.128  0.00  0.00     0.048 A 
ATOM      4  C3  UNL d   1      -0.513   0.068   0.051  0.00  0.00     0.023 A 
ATOM      5  C4  UNL d   1      -1.296   0.999   0.736  0.00  0.00     0.048 A 
ATOM      6  C5  UNL d   1      -2.538   0.616   1.244  0.00  0.00     0.003 A 
ATOM      7  I   UNL d   1       1.337   0.634  -0.709  0.00  0.00    -0.146 I 
ENDROOT
TORSDOF 0
ENDMDL
