MODEL 1
REMARK minimizedAffinity -4.82745647
REMARK minimizedRMSD -1
REMARK  0 active torsions:
REMARK  status: ('A' for Active; 'I' for Inactive)
ROOT
ATOM      1  C   UNL d   1      -0.458  -2.673   0.922  0.00  0.00     0.023 A 
ATOM      2  C1  UNL d   1       0.899  -2.416   0.726  0.00  0.00     0.003 A 
ATOM      3  C2  UNL d   1       1.313  -1.175   0.240  0.00  0.00     0.048 A 
ATOM      4  C3  UNL d   1       0.364  -0.194  -0.049  0.00  0.00     0.023 A 
ATOM      5  C4  UNL d   1      -0.994  -0.446   0.147  0.00  0.00     0.048 A 
ATOM      6  C5  UNL d   1      -1.404  -1.689   0.632  0.00  0.00     0.003 A 
ATOM      7  I   UNL d   1       0.978   1.655  -0.773  0.00  0.00    -0.146 I 
ENDROOT
TORSDOF 0
ENDMDL
