MODEL 1
REMARK minimizedAffinity -2.65445566
REMARK minimizedRMSD -1
REMARK  0 active torsions:
REMARK  status: ('A' for Active; 'I' for Inactive)
ROOT
ATOM      1  C   UNL d   1      -2.273  -0.869   1.024  0.00  0.00     0.023 A 
ATOM      2  C1  UNL d   1      -1.230  -1.469   0.318  0.00  0.00     0.003 A 
ATOM      3  C2  UNL d   1      -0.355  -0.686  -0.438  0.00  0.00     0.048 A 
ATOM      4  C3  UNL d   1      -0.527   0.697  -0.483  0.00  0.00     0.023 A 
ATOM      5  C4  UNL d   1      -1.569   1.302   0.223  0.00  0.00     0.048 A 
ATOM      6  C5  UNL d   1      -2.442   0.515   0.976  0.00  0.00     0.003 A 
ATOM      7  I   UNL d   1       0.774   1.864  -1.606  0.00  0.00    -0.146 I 
ENDROOT
TORSDOF 0
ENDMDL
