MODEL 1
REMARK minimizedAffinity -0.871617377
REMARK minimizedRMSD -1
REMARK  0 active torsions:
REMARK  status: ('A' for Active; 'I' for Inactive)
ROOT
ATOM      1  C   UNL d   1      -0.855  -2.859   1.580  0.00  0.00     0.023 A 
ATOM      2  C1  UNL d   1       0.478  -2.457   1.500  0.00  0.00     0.003 A 
ATOM      3  C2  UNL d   1       0.812  -1.267   0.851  0.00  0.00     0.048 A 
ATOM      4  C3  UNL d   1      -0.193  -0.483   0.284  0.00  0.00     0.023 A 
ATOM      5  C4  UNL d   1      -1.528  -0.880   0.363  0.00  0.00     0.048 A 
ATOM      6  C5  UNL d   1      -1.857  -2.072   1.013  0.00  0.00     0.003 A 
ATOM      7  I   UNL d   1       0.302   1.289  -0.682  0.00  0.00    -0.146 I 
ENDROOT
TORSDOF 0
ENDMDL
