MODEL 1
REMARK minimizedAffinity -3.64159346
REMARK minimizedRMSD -1
REMARK  0 active torsions:
REMARK  status: ('A' for Active; 'I' for Inactive)
ROOT
ATOM      1  C   UNL d   1      -0.455  -2.172   0.949  0.00  0.00     0.023 A 
ATOM      2  C1  UNL d   1      -1.349  -1.105   0.865  0.00  0.00     0.003 A 
ATOM      3  C2  UNL d   1      -0.971   0.076   0.222  0.00  0.00     0.048 A 
ATOM      4  C3  UNL d   1       0.302   0.181  -0.336  0.00  0.00     0.023 A 
ATOM      5  C4  UNL d   1       1.200  -0.885  -0.256  0.00  0.00     0.048 A 
ATOM      6  C5  UNL d   1       0.818  -2.062   0.389  0.00  0.00     0.003 A 
ATOM      7  I   UNL d   1       0.868   1.937  -1.294  0.00  0.00    -0.146 I 
ENDROOT
TORSDOF 0
ENDMDL
