MODEL 1
REMARK minimizedAffinity -2.98094177
REMARK minimizedRMSD -1
REMARK  0 active torsions:
REMARK  status: ('A' for Active; 'I' for Inactive)
ROOT
ATOM      1  C   UNL d   1      -1.475  -1.311   1.244  0.00  0.00     0.023 A 
ATOM      2  C1  UNL d   1      -2.020  -0.043   1.039  0.00  0.00     0.003 A 
ATOM      3  C2  UNL d   1      -1.375   0.868   0.199  0.00  0.00     0.048 A 
ATOM      4  C3  UNL d   1      -0.187   0.504  -0.434  0.00  0.00     0.023 A 
ATOM      5  C4  UNL d   1       0.361  -0.764  -0.232  0.00  0.00     0.048 A 
ATOM      6  C5  UNL d   1      -0.286  -1.671   0.609  0.00  0.00     0.003 A 
ATOM      7  I   UNL d   1       0.774   1.857  -1.685  0.00  0.00    -0.146 I 
ENDROOT
TORSDOF 0
ENDMDL
