MODEL 1
REMARK minimizedAffinity -3.48039269
REMARK minimizedRMSD -1
REMARK  0 active torsions:
REMARK  status: ('A' for Active; 'I' for Inactive)
ROOT
ATOM      1  C   UNL d   1      -1.572  -1.372   2.323  0.00  0.00     0.023 A 
ATOM      2  C1  UNL d   1      -1.936  -0.057   2.032  0.00  0.00     0.003 A 
ATOM      3  C2  UNL d   1      -1.229   0.666   1.069  0.00  0.00     0.048 A 
ATOM      4  C3  UNL d   1      -0.161   0.069   0.400  0.00  0.00     0.023 A 
ATOM      5  C4  UNL d   1       0.205  -1.247   0.688  0.00  0.00     0.048 A 
ATOM      6  C5  UNL d   1      -0.503  -1.966   1.653  0.00  0.00     0.003 A 
ATOM      7  I   UNL d   1       0.892   1.143  -1.033  0.00  0.00    -0.146 I 
ENDROOT
TORSDOF 0
ENDMDL
