MODEL 1
REMARK minimizedAffinity -3.18301153
REMARK minimizedRMSD -1
REMARK  0 active torsions:
REMARK  status: ('A' for Active; 'I' for Inactive)
ROOT
ATOM      1  C   UNL d   1      -1.048  -2.630   2.187  0.00  0.00     0.023 A 
ATOM      2  C1  UNL d   1      -1.861  -1.533   1.900  0.00  0.00     0.003 A 
ATOM      3  C2  UNL d   1      -1.428  -0.558   1.000  0.00  0.00     0.048 A 
ATOM      4  C3  UNL d   1      -0.181  -0.686   0.388  0.00  0.00     0.023 A 
ATOM      5  C4  UNL d   1       0.635  -1.783   0.671  0.00  0.00     0.048 A 
ATOM      6  C5  UNL d   1       0.198  -2.755   1.573  0.00  0.00     0.003 A 
ATOM      7  I   UNL d   1       0.466   0.764  -0.953  0.00  0.00    -0.146 I 
ENDROOT
TORSDOF 0
ENDMDL
