MODEL 1
REMARK minimizedAffinity -0.19049938
REMARK minimizedRMSD -1
REMARK  0 active torsions:
REMARK  status: ('A' for Active; 'I' for Inactive)
ROOT
ATOM      1  C   UNL d   1       0.326  -2.191   1.138  0.00  0.00     0.023 A 
ATOM      2  C1  UNL d   1      -0.653  -1.197   1.109  0.00  0.00     0.003 A 
ATOM      3  C2  UNL d   1      -0.452  -0.039   0.356  0.00  0.00     0.048 A 
ATOM      4  C3  UNL d   1       0.730   0.120  -0.367  0.00  0.00     0.023 A 
ATOM      5  C4  UNL d   1       1.712  -0.872  -0.342  0.00  0.00     0.048 A 
ATOM      6  C5  UNL d   1       1.507  -2.028   0.413  0.00  0.00     0.003 A 
ATOM      7  I   UNL d   1       1.031   1.843  -1.489  0.00  0.00    -0.146 I 
ENDROOT
TORSDOF 0
ENDMDL
