MODEL 1
REMARK minimizedAffinity -3.25469446
REMARK minimizedRMSD -1
REMARK  0 active torsions:
REMARK  status: ('A' for Active; 'I' for Inactive)
ROOT
ATOM      1  C   UNL d   1      -1.912  -1.411   2.224  0.00  0.00     0.023 A 
ATOM      2  C1  UNL d   1      -0.758  -1.944   1.649  0.00  0.00     0.003 A 
ATOM      3  C2  UNL d   1       0.028  -1.159   0.802  0.00  0.00     0.048 A 
ATOM      4  C3  UNL d   1      -0.345   0.158   0.536  0.00  0.00     0.023 A 
ATOM      5  C4  UNL d   1      -1.499   0.695   1.110  0.00  0.00     0.048 A 
ATOM      6  C5  UNL d   1      -2.282  -0.094   1.955  0.00  0.00     0.003 A 
ATOM      7  I   UNL d   1       0.823   1.328  -0.724  0.00  0.00    -0.146 I 
ENDROOT
TORSDOF 0
ENDMDL
