MODEL 1
REMARK minimizedAffinity -2.23004842
REMARK minimizedRMSD -1
REMARK  0 active torsions:
REMARK  status: ('A' for Active; 'I' for Inactive)
ROOT
ATOM      1  C   UNL d   1      -0.839  -0.957   0.911  0.00  0.00     0.023 A 
ATOM      2  C1  UNL d   1      -1.517   0.224   0.612  0.00  0.00     0.003 A 
ATOM      3  C2  UNL d   1      -1.034   1.076  -0.384  0.00  0.00     0.048 A 
ATOM      4  C3  UNL d   1       0.127   0.738  -1.079  0.00  0.00     0.023 A 
ATOM      5  C4  UNL d   1       0.809  -0.444  -0.784  0.00  0.00     0.048 A 
ATOM      6  C5  UNL d   1       0.322  -1.291   0.213  0.00  0.00     0.003 A 
ATOM      7  I   UNL d   1       0.848   2.003  -2.562  0.00  0.00    -0.146 I 
ENDROOT
TORSDOF 0
ENDMDL
