MODEL 1
REMARK minimizedAffinity -3.46517277
REMARK minimizedRMSD -1
REMARK  0 active torsions:
REMARK  status: ('A' for Active; 'I' for Inactive)
ROOT
ATOM      1  C   UNL d   1      -0.422  -2.432   1.111  0.00  0.00     0.023 A 
ATOM      2  C1  UNL d   1      -1.441  -1.626   0.604  0.00  0.00     0.003 A 
ATOM      3  C2  UNL d   1      -1.144  -0.359   0.096  0.00  0.00     0.048 A 
ATOM      4  C3  UNL d   1       0.174   0.094   0.098  0.00  0.00     0.023 A 
ATOM      5  C4  UNL d   1       1.198  -0.709   0.603  0.00  0.00     0.048 A 
ATOM      6  C5  UNL d   1       0.896  -1.975   1.110  0.00  0.00     0.003 A 
ATOM      7  I   UNL d   1       0.619   1.979  -0.657  0.00  0.00    -0.146 I 
ENDROOT
TORSDOF 0
ENDMDL
