MODEL 1
REMARK minimizedAffinity 8.43371582
REMARK minimizedRMSD -1
REMARK  0 active torsions:
REMARK  status: ('A' for Active; 'I' for Inactive)
ROOT
ATOM      1  C   UNL d   1       4.093  -6.000   5.960  0.00  0.00     0.077 C 
ATOM      2  C1  UNL d   1       4.435  -4.568   5.672  0.00  0.00    -0.074 A 
ATOM      3  C2  UNL d   1       5.692  -4.049   5.999  0.00  0.00    -0.005 A 
ATOM      4  C3  UNL d   1       5.999  -2.719   5.715  0.00  0.00     0.006 A 
ATOM      5  C4  UNL d   1       5.054  -1.895   5.103  0.00  0.00    -0.005 A 
ATOM      6  C5  UNL d   1       3.792  -2.396   4.768  0.00  0.00    -0.074 A 
ATOM      7  C6  UNL d   1       2.768  -1.527   4.101  0.00  0.00     0.077 C 
ATOM      8  C7  UNL d   1       3.494  -3.736   5.050  0.00  0.00    -0.001 A 
ENDROOT
TORSDOF 0
ENDMDL
