MODEL 1
REMARK minimizedAffinity 4.2508831
REMARK minimizedRMSD -1
REMARK  0 active torsions:
REMARK  status: ('A' for Active; 'I' for Inactive)
ROOT
ATOM      1  C   UNL d   1      -1.431  -1.915   1.586  0.00  0.00     0.077 C 
ATOM      2  C1  UNL d   1       0.006  -2.275   1.354  0.00  0.00    -0.074 A 
ATOM      3  C2  UNL d   1       1.032  -1.377   1.665  0.00  0.00    -0.005 A 
ATOM      4  C3  UNL d   1       2.364  -1.730   1.453  0.00  0.00     0.006 A 
ATOM      5  C4  UNL d   1       2.684  -2.983   0.928  0.00  0.00    -0.005 A 
ATOM      6  C5  UNL d   1       1.672  -3.895   0.612  0.00  0.00    -0.074 A 
ATOM      7  C6  UNL d   1       1.999  -5.249   0.056  0.00  0.00     0.077 C 
ATOM      8  C7  UNL d   1       0.336  -3.535   0.834  0.00  0.00    -0.001 A 
ENDROOT
TORSDOF 0
ENDMDL
