MODEL 1
REMARK minimizedAffinity 16.3467426
REMARK minimizedRMSD -1
REMARK  0 active torsions:
REMARK  status: ('A' for Active; 'I' for Inactive)
ROOT
ATOM      1  C   UNL d   1       4.995  -5.514   5.896  0.00  0.00     0.077 C 
ATOM      2  C1  UNL d   1       4.908  -4.080   5.468  0.00  0.00    -0.074 A 
ATOM      3  C2  UNL d   1       5.833  -3.136   5.925  0.00  0.00    -0.005 A 
ATOM      4  C3  UNL d   1       5.745  -1.807   5.511  0.00  0.00     0.006 A 
ATOM      5  C4  UNL d   1       4.733  -1.409   4.637  0.00  0.00    -0.005 A 
ATOM      6  C5  UNL d   1       3.799  -2.339   4.169  0.00  0.00    -0.074 A 
ATOM      7  C6  UNL d   1       2.711  -1.930   3.221  0.00  0.00     0.077 C 
ATOM      8  C7  UNL d   1       3.899  -3.674   4.584  0.00  0.00    -0.001 A 
ENDROOT
TORSDOF 0
ENDMDL
