MODEL 1
REMARK minimizedAffinity 3.36076093
REMARK minimizedRMSD -1
REMARK  0 active torsions:
REMARK  status: ('A' for Active; 'I' for Inactive)
ROOT
ATOM      1  C   UNL d   1       2.167   6.000  -5.248  0.00  0.00     0.077 C 
ATOM      2  C1  UNL d   1       3.505   5.327  -5.336  0.00  0.00    -0.074 A 
ATOM      3  C2  UNL d   1       4.614   6.000  -5.860  0.00  0.00    -0.005 A 
ATOM      4  C3  UNL d   1       5.854   5.365  -5.927  0.00  0.00     0.006 A 
ATOM      5  C4  UNL d   1       5.998   4.054  -5.472  0.00  0.00    -0.005 A 
ATOM      6  C5  UNL d   1       4.900   3.366  -4.944  0.00  0.00    -0.074 A 
ATOM      7  C6  UNL d   1       5.040   1.959  -4.442  0.00  0.00     0.077 C 
ATOM      8  C7  UNL d   1       3.659   4.013  -4.874  0.00  0.00    -0.001 A 
ENDROOT
TORSDOF 0
ENDMDL
