MODEL 1
REMARK minimizedAffinity 10.2823391
REMARK minimizedRMSD -1
REMARK  0 active torsions:
REMARK  status: ('A' for Active; 'I' for Inactive)
ROOT
ATOM      1  C   UNL d   1      -1.735   2.196   2.633  0.00  0.00    -0.002 A 
ATOM      2  C1  UNL d   1      -0.975   1.499   3.561  0.00  0.00     0.010 A 
ATOM      3  C2  UNL d   1       0.391   1.294   3.352  0.00  0.00     0.041 A 
ATOM      4  C3  UNL d   1       0.986   1.809   2.183  0.00  0.00    -0.075 A 
ATOM      5  S   UNL d   1       2.640   1.682   1.716  0.00  0.00     0.015 SA
ATOM      6  C4  UNL d   1       2.378   2.551   0.274  0.00  0.00     0.022 A 
ATOM      7  C5  UNL d   1       1.065   2.936   0.136  0.00  0.00     0.026 A 
ATOM      8  C6  UNL d   1       0.241   2.515   1.234  0.00  0.00    -0.082 A 
ATOM      9  C7  UNL d   1      -1.141   2.705   1.475  0.00  0.00     0.045 A 
ENDROOT
TORSDOF 0
ENDMDL
