MODEL 1
REMARK minimizedAffinity 7.28973818
REMARK minimizedRMSD -1
REMARK  0 active torsions:
REMARK  status: ('A' for Active; 'I' for Inactive)
ROOT
ATOM      1  C   UNL d   1       2.894  -1.819  -0.552  0.00  0.00    -0.002 A 
ATOM      2  C1  UNL d   1       2.315  -2.384   0.575  0.00  0.00     0.010 A 
ATOM      3  C2  UNL d   1       1.523  -1.613   1.429  0.00  0.00     0.041 A 
ATOM      4  C3  UNL d   1       1.322  -0.252   1.127  0.00  0.00    -0.075 A 
ATOM      5  S   UNL d   1       0.390   0.885   2.028  0.00  0.00     0.015 SA
ATOM      6  C4  UNL d   1       0.740   2.148   0.938  0.00  0.00     0.022 A 
ATOM      7  C5  UNL d   1       1.546   1.730  -0.094  0.00  0.00     0.026 A 
ATOM      8  C6  UNL d   1       1.894   0.340  -0.002  0.00  0.00    -0.082 A 
ATOM      9  C7  UNL d   1       2.692  -0.469  -0.848  0.00  0.00     0.045 A 
ENDROOT
TORSDOF 0
ENDMDL
