MODEL 1
REMARK minimizedAffinity -2.05174541
REMARK minimizedRMSD -1
REMARK  0 active torsions:
REMARK  status: ('A' for Active; 'I' for Inactive)
ROOT
ATOM      1  C   UNL d   1       2.185  -2.205  -0.376  0.00  0.00    -0.002 A 
ATOM      2  C1  UNL d   1       0.824  -2.456  -0.282  0.00  0.00     0.010 A 
ATOM      3  C2  UNL d   1      -0.071  -1.425   0.012  0.00  0.00     0.041 A 
ATOM      4  C3  UNL d   1       0.431  -0.124   0.210  0.00  0.00    -0.075 A 
ATOM      5  S   UNL d   1      -0.476   1.295   0.580  0.00  0.00     0.015 SA
ATOM      6  C4  UNL d   1       0.923   2.269   0.621  0.00  0.00     0.022 A 
ATOM      7  C5  UNL d   1       2.063   1.545   0.362  0.00  0.00     0.026 A 
ATOM      8  C6  UNL d   1       1.798   0.155   0.121  0.00  0.00    -0.082 A 
ATOM      9  C7  UNL d   1       2.679  -0.913  -0.178  0.00  0.00     0.045 A 
ENDROOT
TORSDOF 0
ENDMDL
