MODEL 1
REMARK minimizedAffinity -0.204151258
REMARK minimizedRMSD -1
REMARK  0 active torsions:
REMARK  status: ('A' for Active; 'I' for Inactive)
ROOT
ATOM      1  C   UNL d   1       1.739  -2.256   0.025  0.00  0.00    -0.002 A 
ATOM      2  C1  UNL d   1       2.302  -1.175   0.690  0.00  0.00     0.010 A 
ATOM      3  C2  UNL d   1       1.769   0.107   0.539  0.00  0.00     0.041 A 
ATOM      4  C3  UNL d   1       0.650   0.286  -0.297  0.00  0.00    -0.075 A 
ATOM      5  S   UNL d   1      -0.172   1.764  -0.632  0.00  0.00     0.015 SA
ATOM      6  C4  UNL d   1      -1.290   0.996  -1.664  0.00  0.00     0.022 A 
ATOM      7  C5  UNL d   1      -1.056  -0.355  -1.763  0.00  0.00     0.026 A 
ATOM      8  C6  UNL d   1       0.065  -0.787  -0.977  0.00  0.00    -0.082 A 
ATOM      9  C7  UNL d   1       0.629  -2.074  -0.804  0.00  0.00     0.045 A 
ENDROOT
TORSDOF 0
ENDMDL
