MODEL 1
REMARK minimizedAffinity 2.1461215
REMARK minimizedRMSD -1
REMARK  0 active torsions:
REMARK  status: ('A' for Active; 'I' for Inactive)
ROOT
ATOM      1  C   UNL d   1      -0.985  -4.322  -1.426  0.00  0.00    -0.002 A 
ATOM      2  C1  UNL d   1      -1.228  -3.270  -2.299  0.00  0.00     0.010 A 
ATOM      3  C2  UNL d   1      -0.459  -2.106  -2.240  0.00  0.00     0.041 A 
ATOM      4  C3  UNL d   1       0.569  -2.016  -1.281  0.00  0.00    -0.075 A 
ATOM      5  S   UNL d   1       1.638  -0.689  -1.026  0.00  0.00     0.015 SA
ATOM      6  C4  UNL d   1       2.444  -1.486   0.247  0.00  0.00     0.022 A 
ATOM      7  C5  UNL d   1       1.922  -2.735   0.485  0.00  0.00     0.026 A 
ATOM      8  C6  UNL d   1       0.833  -3.062  -0.392  0.00  0.00    -0.082 A 
ATOM      9  C7  UNL d   1       0.036  -4.229  -0.477  0.00  0.00     0.045 A 
ENDROOT
TORSDOF 0
ENDMDL
