MODEL 1
REMARK minimizedAffinity 7.06966877
REMARK minimizedRMSD -1
REMARK  0 active torsions:
REMARK  status: ('A' for Active; 'I' for Inactive)
ROOT
ATOM      1  C   UNL d   1       2.127   1.990   0.394  0.00  0.00    -0.002 A 
ATOM      2  C1  UNL d   1       1.268   2.539  -0.547  0.00  0.00     0.010 A 
ATOM      3  C2  UNL d   1      -0.107   2.590  -0.309  0.00  0.00     0.041 A 
ATOM      4  C3  UNL d   1      -0.608   2.076   0.903  0.00  0.00    -0.075 A 
ATOM      5  S   UNL d   1      -2.255   2.032   1.410  0.00  0.00     0.015 SA
ATOM      6  C4  UNL d   1      -1.857   1.283   2.889  0.00  0.00     0.022 A 
ATOM      7  C5  UNL d   1      -0.505   1.064   3.009  0.00  0.00     0.026 A 
ATOM      8  C6  UNL d   1       0.237   1.518   1.866  0.00  0.00    -0.082 A 
ATOM      9  C7  UNL d   1       1.626   1.481   1.595  0.00  0.00     0.045 A 
ENDROOT
TORSDOF 0
ENDMDL
