MODEL 1
REMARK minimizedAffinity 8.878335
REMARK minimizedRMSD -1
REMARK  0 active torsions:
REMARK  status: ('A' for Active; 'I' for Inactive)
ROOT
ATOM      1  C   UNL d   1       2.197   2.081   0.926  0.00  0.00    -0.002 A 
ATOM      2  C1  UNL d   1       1.329   2.392  -0.111  0.00  0.00     0.010 A 
ATOM      3  C2  UNL d   1      -0.053   2.384   0.093  0.00  0.00     0.041 A 
ATOM      4  C3  UNL d   1      -0.551   2.057   1.369  0.00  0.00    -0.075 A 
ATOM      5  S   UNL d   1      -2.205   1.984   1.852  0.00  0.00     0.015 SA
ATOM      6  C4  UNL d   1      -1.798   1.539   3.446  0.00  0.00     0.022 A 
ATOM      7  C5  UNL d   1      -0.438   1.444   3.623  0.00  0.00     0.026 A 
ATOM      8  C6  UNL d   1       0.303   1.741   2.430  0.00  0.00    -0.082 A 
ATOM      9  C7  UNL d   1       1.698   1.757   2.191  0.00  0.00     0.045 A 
ENDROOT
TORSDOF 0
ENDMDL
