MODEL 1
REMARK minimizedAffinity -0.117187269
REMARK minimizedRMSD -1
REMARK  0 active torsions:
REMARK  status: ('A' for Active; 'I' for Inactive)
ROOT
ATOM      1  C   UNL d   1      -0.250  -2.904  -1.666  0.00  0.00    -0.002 A 
ATOM      2  C1  UNL d   1       1.030  -3.016  -1.142  0.00  0.00     0.010 A 
ATOM      3  C2  UNL d   1       1.722  -1.883  -0.709  0.00  0.00     0.041 A 
ATOM      4  C3  UNL d   1       1.099  -0.623  -0.812  0.00  0.00    -0.075 A 
ATOM      5  S   UNL d   1       1.754   0.901  -0.344  0.00  0.00     0.015 SA
ATOM      6  C4  UNL d   1       0.349   1.737  -0.829  0.00  0.00     0.022 A 
ATOM      7  C5  UNL d   1      -0.606   0.889  -1.337  0.00  0.00     0.026 A 
ATOM      8  C6  UNL d   1      -0.190  -0.485  -1.336  0.00  0.00    -0.082 A 
ATOM      9  C7  UNL d   1      -0.865  -1.653  -1.767  0.00  0.00     0.045 A 
ENDROOT
TORSDOF 0
ENDMDL
