MODEL 1
REMARK minimizedAffinity 8.93750668
REMARK minimizedRMSD -1
REMARK  0 active torsions:
REMARK  status: ('A' for Active; 'I' for Inactive)
ROOT
ATOM      1  C   UNL d   1       0.283  -1.512   4.919  0.00  0.00    -0.002 A 
ATOM      2  C1  UNL d   1       1.380  -2.221   4.449  0.00  0.00     0.010 A 
ATOM      3  C2  UNL d   1       1.396  -3.616   4.495  0.00  0.00     0.041 A 
ATOM      4  C3  UNL d   1       0.280  -4.294   5.025  0.00  0.00    -0.075 A 
ATOM      5  S   UNL d   1       0.077  -5.999   5.181  0.00  0.00     0.015 SA
ATOM      6  C4  UNL d   1      -1.470  -5.826   5.875  0.00  0.00     0.022 A 
ATOM      7  C5  UNL d   1      -1.838  -4.507   5.993  0.00  0.00     0.026 A 
ATOM      8  C6  UNL d   1      -0.836  -3.602   5.504  0.00  0.00    -0.082 A 
ATOM      9  C7  UNL d   1      -0.821  -2.188   5.445  0.00  0.00     0.045 A 
ENDROOT
TORSDOF 0
ENDMDL
