MODEL 1
REMARK minimizedAffinity -1.96972823
REMARK minimizedRMSD -1
REMARK  0 active torsions:
REMARK  status: ('A' for Active; 'I' for Inactive)
ROOT
ATOM      1  C   UNL d   1      -0.070  -0.293   2.894  0.00  0.00     0.124 A 
ATOM      2  C1  UNL d   1      -1.151  -0.032   2.064  0.00  0.00     0.062 A 
ATOM      3  C2  UNL d   1      -1.029  -0.185   0.686  0.00  0.00     0.162 A 
ATOM      4  C3  UNL d   1       0.180  -0.603   0.129  0.00  0.00    -0.034 A 
ATOM      5  C4  UNL d   1       1.263  -0.863   0.970  0.00  0.00     0.162 A 
ATOM      6  C5  UNL d   1       1.135  -0.708   2.347  0.00  0.00     0.062 A 
ATOM      7  F   UNL d   1       2.181  -0.962   3.148  0.00  0.00    -0.097 F 
ATOM      8  F1  UNL d   1       2.439  -1.267   0.468  0.00  0.00    -0.096 F 
ATOM      9  I   UNL d   1       0.367  -0.834  -1.931  0.00  0.00    -0.060 I 
ATOM     10  F2  UNL d   1      -2.090   0.075  -0.093  0.00  0.00    -0.096 F 
ATOM     11  F3  UNL d   1      -2.317   0.371   2.590  0.00  0.00    -0.097 F 
ATOM     12  F4  UNL d   1      -0.191  -0.144   4.219  0.00  0.00    -0.092 F 
ENDROOT
TORSDOF 0
ENDMDL
