MODEL 1
REMARK minimizedAffinity -1.40854466
REMARK minimizedRMSD -1
REMARK  0 active torsions:
REMARK  status: ('A' for Active; 'I' for Inactive)
ROOT
ATOM      1  C   UNL d   1       0.926   0.001  -2.031  0.00  0.00     0.124 A 
ATOM      2  C1  UNL d   1       1.421  -0.490  -0.831  0.00  0.00     0.062 A 
ATOM      3  C2  UNL d   1       0.812  -0.144   0.371  0.00  0.00     0.162 A 
ATOM      4  C3  UNL d   1      -0.302   0.696   0.380  0.00  0.00    -0.034 A 
ATOM      5  C4  UNL d   1      -0.793   1.187  -0.831  0.00  0.00     0.162 A 
ATOM      6  C5  UNL d   1      -0.181   0.839  -2.030  0.00  0.00     0.062 A 
ATOM      7  F   UNL d   1      -0.661   1.314  -3.188  0.00  0.00    -0.097 F 
ATOM      8  F1  UNL d   1      -1.862   1.997  -0.859  0.00  0.00    -0.096 F 
ATOM      9  I   UNL d   1      -1.216   1.215   2.176  0.00  0.00    -0.060 I 
ATOM     10  F2  UNL d   1       1.312  -0.634   1.516  0.00  0.00    -0.096 F 
ATOM     11  F3  UNL d   1       2.491  -1.298  -0.830  0.00  0.00    -0.097 F 
ATOM     12  F4  UNL d   1       1.515  -0.332  -3.187  0.00  0.00    -0.092 F 
ENDROOT
TORSDOF 0
ENDMDL
