MODEL 1
REMARK minimizedAffinity -2.27057409
REMARK minimizedRMSD -1
REMARK  0 active torsions:
REMARK  status: ('A' for Active; 'I' for Inactive)
ROOT
ATOM      1  C   UNL d   1      -0.208   0.051   2.489  0.00  0.00     0.124 A 
ATOM      2  C1  UNL d   1      -1.261   0.373   1.643  0.00  0.00     0.062 A 
ATOM      3  C2  UNL d   1      -1.112   0.257   0.264  0.00  0.00     0.162 A 
ATOM      4  C3  UNL d   1       0.095  -0.183  -0.279  0.00  0.00    -0.034 A 
ATOM      5  C4  UNL d   1       1.150  -0.504   0.578  0.00  0.00     0.162 A 
ATOM      6  C5  UNL d   1       0.996  -0.387   1.956  0.00  0.00     0.062 A 
ATOM      7  F   UNL d   1       2.014  -0.699   2.771  0.00  0.00    -0.097 F 
ATOM      8  F1  UNL d   1       2.324  -0.931   0.090  0.00  0.00    -0.096 F 
ATOM      9  I   UNL d   1       0.322  -0.357  -2.340  0.00  0.00    -0.060 I 
ATOM     10  F2  UNL d   1      -2.146   0.575  -0.529  0.00  0.00    -0.096 F 
ATOM     11  F3  UNL d   1      -2.425   0.797   2.156  0.00  0.00    -0.097 F 
ATOM     12  F4  UNL d   1      -0.354   0.164   3.815  0.00  0.00    -0.092 F 
ENDROOT
TORSDOF 0
ENDMDL
