MODEL 1
REMARK minimizedAffinity -4.76126766
REMARK minimizedRMSD -1
REMARK  0 active torsions:
REMARK  status: ('A' for Active; 'I' for Inactive)
ROOT
ATOM      1  C   UNL d   1       0.625   0.671   2.863  0.00  0.00     0.124 A 
ATOM      2  C1  UNL d   1      -0.402   1.170   2.073  0.00  0.00     0.062 A 
ATOM      3  C2  UNL d   1      -0.456   0.860   0.717  0.00  0.00     0.162 A 
ATOM      4  C3  UNL d   1       0.520   0.046   0.142  0.00  0.00    -0.034 A 
ATOM      5  C4  UNL d   1       1.550  -0.451   0.942  0.00  0.00     0.162 A 
ATOM      6  C5  UNL d   1       1.600  -0.138   2.297  0.00  0.00     0.062 A 
ATOM      7  F   UNL d   1       2.593  -0.621   3.058  0.00  0.00    -0.097 F 
ATOM      8  F1  UNL d   1       2.505  -1.236   0.421  0.00  0.00    -0.096 F 
ATOM      9  I   UNL d   1       0.442  -0.420  -1.885  0.00  0.00    -0.060 I 
ATOM     10  F2  UNL d   1      -1.460   1.355  -0.021  0.00  0.00    -0.096 F 
ATOM     11  F3  UNL d   1      -1.344   1.953   2.618  0.00  0.00    -0.097 F 
ATOM     12  F4  UNL d   1       0.675   0.972   4.167  0.00  0.00    -0.092 F 
ENDROOT
TORSDOF 0
ENDMDL
