MODEL 1
REMARK minimizedAffinity -4.29344225
REMARK minimizedRMSD -1
REMARK  0 active torsions:
REMARK  status: ('A' for Active; 'I' for Inactive)
ROOT
ATOM      1  C   UNL d   1       1.878   0.082   2.556  0.00  0.00     0.124 A 
ATOM      2  C1  UNL d   1       1.710  -0.596   1.357  0.00  0.00     0.062 A 
ATOM      3  C2  UNL d   1       0.506  -0.504   0.664  0.00  0.00     0.162 A 
ATOM      4  C3  UNL d   1      -0.539   0.269   1.168  0.00  0.00    -0.034 A 
ATOM      5  C4  UNL d   1      -0.363   0.948   2.376  0.00  0.00     0.162 A 
ATOM      6  C5  UNL d   1       0.842   0.853   3.064  0.00  0.00     0.062 A 
ATOM      7  F   UNL d   1       1.003   1.509   4.223  0.00  0.00    -0.097 F 
ATOM      8  F1  UNL d   1      -1.347   1.700   2.889  0.00  0.00    -0.096 F 
ATOM      9  I   UNL d   1      -2.341   0.409   0.135  0.00  0.00    -0.060 I 
ATOM     10  F2  UNL d   1       0.372  -1.170  -0.493  0.00  0.00    -0.096 F 
ATOM     11  F3  UNL d   1       2.709  -1.342   0.864  0.00  0.00    -0.097 F 
ATOM     12  F4  UNL d   1       3.037  -0.008   3.221  0.00  0.00    -0.092 F 
ENDROOT
TORSDOF 0
ENDMDL
