MODEL 1
REMARK minimizedAffinity -3.94888449
REMARK minimizedRMSD -1
REMARK  0 active torsions:
REMARK  status: ('A' for Active; 'I' for Inactive)
ROOT
ATOM      1  C   UNL d   1       1.639  -0.085   2.696  0.00  0.00     0.124 A 
ATOM      2  C1  UNL d   1       0.537   0.697   3.011  0.00  0.00     0.062 A 
ATOM      3  C2  UNL d   1      -0.546   0.765   2.140  0.00  0.00     0.162 A 
ATOM      4  C3  UNL d   1      -0.533   0.047   0.944  0.00  0.00    -0.034 A 
ATOM      5  C4  UNL d   1       0.580  -0.736   0.633  0.00  0.00     0.162 A 
ATOM      6  C5  UNL d   1       1.660  -0.800   1.507  0.00  0.00     0.062 A 
ATOM      7  F   UNL d   1       2.724  -1.556   1.200  0.00  0.00    -0.097 F 
ATOM      8  F1  UNL d   1       0.626  -1.439  -0.509  0.00  0.00    -0.096 F 
ATOM      9  I   UNL d   1      -2.150   0.146  -0.362  0.00  0.00    -0.060 I 
ATOM     10  F2  UNL d   1      -1.598   1.529   2.471  0.00  0.00    -0.096 F 
ATOM     11  F3  UNL d   1       0.515   1.391   4.159  0.00  0.00    -0.097 F 
ATOM     12  F4  UNL d   1       2.680  -0.147   3.536  0.00  0.00    -0.092 F 
ENDROOT
TORSDOF 0
ENDMDL
