MODEL 1
REMARK minimizedAffinity 0.89334631
REMARK minimizedRMSD -1
REMARK  0 active torsions:
REMARK  status: ('A' for Active; 'I' for Inactive)
ROOT
ATOM      1  C   UNL d   1      -0.042  -0.226   2.555  0.00  0.00     0.124 A 
ATOM      2  C1  UNL d   1       1.171  -0.671   2.048  0.00  0.00     0.062 A 
ATOM      3  C2  UNL d   1       1.363  -0.761   0.672  0.00  0.00     0.162 A 
ATOM      4  C3  UNL d   1       0.340  -0.405  -0.206  0.00  0.00    -0.034 A 
ATOM      5  C4  UNL d   1      -0.877   0.040   0.311  0.00  0.00     0.162 A 
ATOM      6  C5  UNL d   1      -1.065   0.129   1.687  0.00  0.00     0.062 A 
ATOM      7  F   UNL d   1      -2.237   0.558   2.175  0.00  0.00    -0.097 F 
ATOM      8  F1  UNL d   1      -1.882   0.391  -0.505  0.00  0.00    -0.096 F 
ATOM      9  I   UNL d   1       0.624  -0.538  -2.264  0.00  0.00    -0.060 I 
ATOM     10  F2  UNL d   1       2.546  -1.194   0.210  0.00  0.00    -0.096 F 
ATOM     11  F3  UNL d   1       2.160  -1.016   2.885  0.00  0.00    -0.097 F 
ATOM     12  F4  UNL d   1      -0.225  -0.142   3.879  0.00  0.00    -0.092 F 
ENDROOT
TORSDOF 0
ENDMDL
