MODEL 1
REMARK minimizedAffinity 0.346802473
REMARK minimizedRMSD -1
REMARK  0 active torsions:
REMARK  status: ('A' for Active; 'I' for Inactive)
ROOT
ATOM      1  C   UNL d   1      -0.068  -0.185   3.106  0.00  0.00     0.124 A 
ATOM      2  C1  UNL d   1      -1.171  -0.004   2.283  0.00  0.00     0.062 A 
ATOM      3  C2  UNL d   1      -1.041  -0.115   0.902  0.00  0.00     0.162 A 
ATOM      4  C3  UNL d   1       0.199  -0.411   0.334  0.00  0.00    -0.034 A 
ATOM      5  C4  UNL d   1       1.304  -0.591   1.167  0.00  0.00     0.162 A 
ATOM      6  C5  UNL d   1       1.168  -0.478   2.547  0.00  0.00     0.062 A 
ATOM      7  F   UNL d   1       2.236  -0.654   3.340  0.00  0.00    -0.097 F 
ATOM      8  F1  UNL d   1       2.510  -0.876   0.654  0.00  0.00    -0.096 F 
ATOM      9  I   UNL d   1       0.398  -0.578  -1.731  0.00  0.00    -0.060 I 
ATOM     10  F2  UNL d   1      -2.124   0.065   0.132  0.00  0.00    -0.096 F 
ATOM     11  F3  UNL d   1      -2.366   0.280   2.821  0.00  0.00    -0.097 F 
ATOM     12  F4  UNL d   1      -0.196  -0.076   4.434  0.00  0.00    -0.092 F 
ENDROOT
TORSDOF 0
ENDMDL
