MODEL 1
REMARK minimizedAffinity -2.1626544
REMARK minimizedRMSD -1
REMARK  0 active torsions:
REMARK  status: ('A' for Active; 'I' for Inactive)
ROOT
ATOM      1  C   UNL d   1      -1.469  -0.136   0.175  0.00  0.00     0.124 A 
ATOM      2  C1  UNL d   1      -0.283  -0.677  -0.300  0.00  0.00     0.062 A 
ATOM      3  C2  UNL d   1       0.830  -0.765   0.532  0.00  0.00     0.162 A 
ATOM      4  C3  UNL d   1       0.761  -0.311   1.849  0.00  0.00    -0.034 A 
ATOM      5  C4  UNL d   1      -0.436   0.233   2.320  0.00  0.00     0.162 A 
ATOM      6  C5  UNL d   1      -1.545   0.319   1.484  0.00  0.00     0.062 A 
ATOM      7  F   UNL d   1      -2.690   0.842   1.945  0.00  0.00    -0.097 F 
ATOM      8  F1  UNL d   1      -0.537   0.680   3.581  0.00  0.00    -0.096 F 
ATOM      9  I   UNL d   1       2.421  -0.440   3.097  0.00  0.00    -0.060 I 
ATOM     10  F2  UNL d   1       1.963  -1.293   0.047  0.00  0.00    -0.096 F 
ATOM     11  F3  UNL d   1      -0.207  -1.116  -1.565  0.00  0.00    -0.097 F 
ATOM     12  F4  UNL d   1      -2.537  -0.052  -0.628  0.00  0.00    -0.092 F 
ENDROOT
TORSDOF 0
ENDMDL
