MODEL 1
REMARK minimizedAffinity 0.469539762
REMARK minimizedRMSD -1
REMARK  0 active torsions:
REMARK  status: ('A' for Active; 'I' for Inactive)
ROOT
ATOM      1  C   UNL d   1      -1.392  -0.240   1.737  0.00  0.00     0.124 A 
ATOM      2  C1  UNL d   1      -1.443  -1.033   0.599  0.00  0.00     0.062 A 
ATOM      3  C2  UNL d   1      -0.785  -0.635  -0.562  0.00  0.00     0.162 A 
ATOM      4  C3  UNL d   1      -0.069   0.562  -0.589  0.00  0.00    -0.034 A 
ATOM      5  C4  UNL d   1      -0.023   1.354   0.559  0.00  0.00     0.162 A 
ATOM      6  C5  UNL d   1      -0.682   0.952   1.716  0.00  0.00     0.062 A 
ATOM      7  F   UNL d   1      -0.632   1.720   2.815  0.00  0.00    -0.097 F 
ATOM      8  F1  UNL d   1       0.657   2.511   0.567  0.00  0.00    -0.096 F 
ATOM      9  I   UNL d   1       0.917   1.160  -2.322  0.00  0.00    -0.060 I 
ATOM     10  F2  UNL d   1      -0.851  -1.421  -1.647  0.00  0.00    -0.096 F 
ATOM     11  F3  UNL d   1      -2.129  -2.185   0.616  0.00  0.00    -0.097 F 
ATOM     12  F4  UNL d   1      -2.027  -0.624   2.851  0.00  0.00    -0.092 F 
ENDROOT
TORSDOF 0
ENDMDL
