MODEL 1
REMARK minimizedAffinity -2.73635316
REMARK minimizedRMSD -1
REMARK  0 active torsions:
REMARK  status: ('A' for Active; 'I' for Inactive)
ROOT
ATOM      1  C   UNL d   1       0.068  -0.762   2.735  0.00  0.00     0.124 A 
ATOM      2  C1  UNL d   1      -0.944  -0.295   1.908  0.00  0.00     0.062 A 
ATOM      3  C2  UNL d   1      -0.802  -0.355   0.525  0.00  0.00     0.162 A 
ATOM      4  C3  UNL d   1       0.356  -0.887  -0.041  0.00  0.00    -0.034 A 
ATOM      5  C4  UNL d   1       1.370  -1.355   0.797  0.00  0.00     0.162 A 
ATOM      6  C5  UNL d   1       1.224  -1.292   2.179  0.00  0.00     0.062 A 
ATOM      7  F   UNL d   1       2.203  -1.744   2.976  0.00  0.00    -0.097 F 
ATOM      8  F1  UNL d   1       2.497  -1.872   0.286  0.00  0.00    -0.096 F 
ATOM      9  I   UNL d   1       0.572  -0.980  -2.109  0.00  0.00    -0.060 I 
ATOM     10  F2  UNL d   1      -1.797   0.104  -0.250  0.00  0.00    -0.096 F 
ATOM     11  F3  UNL d   1      -2.062   0.218   2.443  0.00  0.00    -0.097 F 
ATOM     12  F4  UNL d   1      -0.071  -0.702   4.066  0.00  0.00    -0.092 F 
ENDROOT
TORSDOF 0
ENDMDL
