MODEL 1
REMARK minimizedAffinity -0.309038907
REMARK minimizedRMSD -1
REMARK  0 active torsions:
REMARK  status: ('A' for Active; 'I' for Inactive)
ROOT
ATOM      1  C1  BNZ d   1       0.270  -0.727   0.663  0.00  0.00     0.000 A 
ATOM      2  C2  BNZ d   1      -0.989  -0.424   0.219  0.00  0.00     0.000 A 
ATOM      3  C3  BNZ d   1      -1.951   0.011   1.087  0.00  0.00     0.000 A 
ATOM      4  C4  BNZ d   1      -1.666   0.102   2.402  0.00  0.00     0.000 A 
ATOM      5  C5  BNZ d   1      -0.403  -0.209   2.867  0.00  0.00     0.000 A 
ATOM      6  C6  BNZ d   1       0.574  -0.608   1.984  0.00  0.00     0.000 A 
ENDROOT
TORSDOF 0
ENDMDL
