MODEL 1
REMARK minimizedAffinity -2.01418996
REMARK minimizedRMSD -1
REMARK  0 active torsions:
REMARK  status: ('A' for Active; 'I' for Inactive)
ROOT
ATOM      1  C1  BNZ d   1      -0.133  -0.511   0.267  0.00  0.00     0.000 A 
ATOM      2  C2  BNZ d   1      -0.596  -0.102   1.489  0.00  0.00     0.000 A 
ATOM      3  C3  BNZ d   1      -1.913   0.217   1.667  0.00  0.00     0.000 A 
ATOM      4  C4  BNZ d   1      -2.756   0.166   0.616  0.00  0.00     0.000 A 
ATOM      5  C5  BNZ d   1      -2.302  -0.235  -0.625  0.00  0.00     0.000 A 
ATOM      6  C6  BNZ d   1      -0.984  -0.593  -0.792  0.00  0.00     0.000 A 
ENDROOT
TORSDOF 0
ENDMDL
