MODEL 1
REMARK minimizedAffinity -0.718230546
REMARK minimizedRMSD -1
REMARK  0 active torsions:
REMARK  status: ('A' for Active; 'I' for Inactive)
ROOT
ATOM      1  C1  BNZ d   1      -0.924   0.111   1.799  0.00  0.00     0.000 A 
ATOM      2  C2  BNZ d   1      -1.587  -0.235   2.946  0.00  0.00     0.000 A 
ATOM      3  C3  BNZ d   1      -2.901  -0.609   2.909  0.00  0.00     0.000 A 
ATOM      4  C4  BNZ d   1      -3.561  -0.599   1.733  0.00  0.00     0.000 A 
ATOM      5  C5  BNZ d   1      -2.909  -0.244   0.569  0.00  0.00     0.000 A 
ATOM      6  C6  BNZ d   1      -1.576   0.095   0.604  0.00  0.00     0.000 A 
ENDROOT
TORSDOF 0
ENDMDL
