MODEL 1
REMARK minimizedAffinity 0.622722447
REMARK minimizedRMSD -1
REMARK  0 active torsions:
REMARK  status: ('A' for Active; 'I' for Inactive)
ROOT
ATOM      1  C1  BNZ d   1      -0.200  -0.585   0.079  0.00  0.00     0.000 A 
ATOM      2  C2  BNZ d   1      -1.034  -1.327  -0.714  0.00  0.00     0.000 A 
ATOM      3  C3  BNZ d   1      -2.370  -1.414  -0.436  0.00  0.00     0.000 A 
ATOM      4  C4  BNZ d   1      -2.862  -0.795   0.656  0.00  0.00     0.000 A 
ATOM      5  C5  BNZ d   1      -2.032  -0.051   1.471  0.00  0.00     0.000 A 
ATOM      6  C6  BNZ d   1      -0.695   0.067   1.167  0.00  0.00     0.000 A 
ENDROOT
TORSDOF 0
ENDMDL
