MODEL 1
REMARK minimizedAffinity -0.870442092
REMARK minimizedRMSD -1
REMARK  0 active torsions:
REMARK  status: ('A' for Active; 'I' for Inactive)
ROOT
ATOM      1  C1  BNZ d   1       0.133  -1.440   4.611  0.00  0.00     0.000 A 
ATOM      2  C2  BNZ d   1       1.444  -1.563   4.235  0.00  0.00     0.000 A 
ATOM      3  C3  BNZ d   1       1.849  -1.203   2.980  0.00  0.00     0.000 A 
ATOM      4  C4  BNZ d   1       0.937  -0.759   2.091  0.00  0.00     0.000 A 
ATOM      5  C5  BNZ d   1      -0.390  -0.639   2.452  0.00  0.00     0.000 A 
ATOM      6  C6  BNZ d   1      -0.787  -0.965   3.728  0.00  0.00     0.000 A 
ENDROOT
TORSDOF 0
ENDMDL
