MODEL 1
REMARK minimizedAffinity -3.16820383
REMARK minimizedRMSD -1
REMARK  0 active torsions:
REMARK  status: ('A' for Active; 'I' for Inactive)
ROOT
ATOM      1  C1  BNZ d   1      -1.564  -0.749   3.716  0.00  0.00     0.000 A 
ATOM      2  C2  BNZ d   1      -0.373  -0.422   3.123  0.00  0.00     0.000 A 
ATOM      3  C3  BNZ d   1       0.761  -1.136   3.392  0.00  0.00     0.000 A 
ATOM      4  C4  BNZ d   1       0.712  -2.148   4.282  0.00  0.00     0.000 A 
ATOM      5  C5  BNZ d   1      -0.479  -2.483   4.895  0.00  0.00     0.000 A 
ATOM      6  C6  BNZ d   1      -1.627  -1.788   4.593  0.00  0.00     0.000 A 
ENDROOT
TORSDOF 0
ENDMDL
