MODEL 1
REMARK minimizedAffinity -1.21508014
REMARK minimizedRMSD -1
REMARK  0 active torsions:
REMARK  status: ('A' for Active; 'I' for Inactive)
ROOT
ATOM      1  C1  BNZ d   1      -0.511  -0.679   0.122  0.00  0.00     0.000 A 
ATOM      2  C2  BNZ d   1      -0.555  -0.226   1.413  0.00  0.00     0.000 A 
ATOM      3  C3  BNZ d   1      -1.702   0.312   1.927  0.00  0.00     0.000 A 
ATOM      4  C4  BNZ d   1      -2.789   0.433   1.138  0.00  0.00     0.000 A 
ATOM      5  C5  BNZ d   1      -2.757  -0.012  -0.169  0.00  0.00     0.000 A 
ATOM      6  C6  BNZ d   1      -1.613  -0.588  -0.671  0.00  0.00     0.000 A 
ENDROOT
TORSDOF 0
ENDMDL
