MODEL 1
REMARK minimizedAffinity 0.35019663
REMARK minimizedRMSD -1
REMARK  0 active torsions:
REMARK  status: ('A' for Active; 'I' for Inactive)
ROOT
ATOM      1  C1  BNZ d   1      -3.045   0.454   1.144  0.00  0.00     0.000 A 
ATOM      2  C2  BNZ d   1      -2.769   0.190  -0.172  0.00  0.00     0.000 A 
ATOM      3  C3  BNZ d   1      -1.513  -0.179  -0.563  0.00  0.00     0.000 A 
ATOM      4  C4  BNZ d   1      -0.525  -0.246   0.353  0.00  0.00     0.000 A 
ATOM      5  C5  BNZ d   1      -0.785   0.026   1.682  0.00  0.00     0.000 A 
ATOM      6  C6  BNZ d   1      -2.060   0.360   2.078  0.00  0.00     0.000 A 
ENDROOT
TORSDOF 0
ENDMDL
