MODEL 1
REMARK minimizedAffinity -5.61950207
REMARK minimizedRMSD -1
REMARK  0 active torsions:
REMARK  status: ('A' for Active; 'I' for Inactive)
ROOT
ATOM      1  C   UNL d   1       2.699  -1.929   2.459  0.00  0.00     0.023 A 
ATOM      2  C1  UNL d   1       1.657  -1.171   2.995  0.00  0.00     0.003 A 
ATOM      3  C2  UNL d   1       0.694  -0.612   2.153  0.00  0.00     0.048 A 
ATOM      4  C3  UNL d   1       0.778  -0.814   0.776  0.00  0.00     0.023 A 
ATOM      5  C4  UNL d   1       1.818  -1.572   0.235  0.00  0.00     0.048 A 
ATOM      6  C5  UNL d   1       2.779  -2.129   1.081  0.00  0.00     0.003 A 
ATOM      7  I   UNL d   1      -0.653   0.018  -0.480  0.00  0.00    -0.146 I 
ENDROOT
TORSDOF 0
ENDMDL
