MODEL 1
REMARK minimizedAffinity -4.14272308
REMARK minimizedRMSD -1
REMARK  0 active torsions:
REMARK  status: ('A' for Active; 'I' for Inactive)
ROOT
ATOM      1  C   UNL d   1       2.405  -1.640   2.400  0.00  0.00     0.023 A 
ATOM      2  C1  UNL d   1       2.704  -1.894   1.062  0.00  0.00     0.003 A 
ATOM      3  C2  UNL d   1       1.938  -1.309   0.051  0.00  0.00     0.048 A 
ATOM      4  C3  UNL d   1       0.875  -0.471   0.386  0.00  0.00     0.023 A 
ATOM      5  C4  UNL d   1       0.573  -0.213   1.724  0.00  0.00     0.048 A 
ATOM      6  C5  UNL d   1       1.341  -0.801   2.731  0.00  0.00     0.003 A 
ATOM      7  I   UNL d   1      -0.266   0.402  -1.116  0.00  0.00    -0.146 I 
ENDROOT
TORSDOF 0
ENDMDL
