MODEL 1
REMARK minimizedAffinity -4.95009565
REMARK minimizedRMSD -1
REMARK  0 active torsions:
REMARK  status: ('A' for Active; 'I' for Inactive)
ROOT
ATOM      1  C   UNL d   1       1.825  -1.321   2.426  0.00  0.00     0.023 A 
ATOM      2  C1  UNL d   1       0.527  -0.818   2.515  0.00  0.00     0.003 A 
ATOM      3  C2  UNL d   1      -0.107  -0.315   1.377  0.00  0.00     0.048 A 
ATOM      4  C3  UNL d   1       0.561  -0.318   0.154  0.00  0.00     0.023 A 
ATOM      5  C4  UNL d   1       1.860  -0.822   0.060  0.00  0.00     0.048 A 
ATOM      6  C5  UNL d   1       2.491  -1.323   1.200  0.00  0.00     0.003 A 
ATOM      7  I   UNL d   1      -0.382   0.430  -1.541  0.00  0.00    -0.146 I 
ENDROOT
TORSDOF 0
ENDMDL
