MODEL 1
REMARK minimizedAffinity -4.64259481
REMARK minimizedRMSD -1
REMARK  1 active torsions:
REMARK  status: ('A' for Active; 'I' for Inactive)
REMARK    1  A    between atoms: C1_2  and  C2_3 
ROOT
ATOM      1  C2  UNL d   1      -1.252   0.474  -0.978  0.00  0.00    -0.081 A 
ATOM      2  C3  UNL d   1      -0.400   1.580  -0.869  0.00  0.00     0.006 A 
ATOM      3  C4  UNL d   1       0.827   1.467  -0.211  0.00  0.00     0.002 A 
ATOM      4  C5  UNL d   1       1.226   0.245   0.342  0.00  0.00    -0.080 A 
ATOM      5  C6  UNL d   1       2.553   0.102   1.025  0.00  0.00     0.076 C 
ATOM      6  C7  UNL d   1       0.367  -0.855   0.249  0.00  0.00     0.002 A 
ATOM      7  C8  UNL d   1      -0.860  -0.742  -0.408  0.00  0.00     0.006 A 
ENDROOT
BRANCH   1   8
ATOM      8  C1  UNL d   1      -2.547   0.577  -1.743  0.00  0.00     0.054 C 
ATOM      9  C   UNL d   1      -2.467  -0.170  -3.067  0.00  0.00     0.018 C 
ENDBRANCH   1   8
TORSDOF 1
ENDMDL
