MODEL 1
REMARK minimizedAffinity -3.02992296
REMARK minimizedRMSD -1
REMARK  1 active torsions:
REMARK  status: ('A' for Active; 'I' for Inactive)
REMARK    1  A    between atoms: C1_2  and  C2_3 
ROOT
ATOM      1  C2  UNL d   1      -1.212   0.154  -0.568  0.00  0.00    -0.081 A 
ATOM      2  C3  UNL d   1      -0.041   0.921  -0.580  0.00  0.00     0.006 A 
ATOM      3  C4  UNL d   1       1.052   0.558   0.212  0.00  0.00     0.002 A 
ATOM      4  C5  UNL d   1       0.994  -0.582   1.021  0.00  0.00    -0.080 A 
ATOM      5  C6  UNL d   1       2.170  -1.000   1.853  0.00  0.00     0.076 C 
ATOM      6  C7  UNL d   1      -0.183  -1.338   1.047  0.00  0.00     0.002 A 
ATOM      7  C8  UNL d   1      -1.275  -0.975   0.256  0.00  0.00     0.006 A 
ENDROOT
BRANCH   1   8
ATOM      8  C1  UNL d   1      -2.368   0.506  -1.469  0.00  0.00     0.054 C 
ATOM      9  C   UNL d   1      -2.431  -0.419  -2.676  0.00  0.00     0.018 C 
ENDBRANCH   1   8
TORSDOF 1
ENDMDL
