MODEL 1
REMARK minimizedAffinity -4.45749712
REMARK minimizedRMSD -1
REMARK  1 active torsions:
REMARK  status: ('A' for Active; 'I' for Inactive)
REMARK    1  A    between atoms: C1_2  and  C2_3 
ROOT
ATOM      1  C2  UNL d   1       1.664  -0.920   1.246  0.00  0.00    -0.081 A 
ATOM      2  C3  UNL d   1       2.647   0.075   1.177  0.00  0.00     0.006 A 
ATOM      3  C4  UNL d   1       2.348   1.328   0.635  0.00  0.00     0.002 A 
ATOM      4  C5  UNL d   1       1.063   1.608   0.160  0.00  0.00    -0.080 A 
ATOM      5  C6  UNL d   1       0.721   2.958  -0.397  0.00  0.00     0.076 C 
ATOM      6  C7  UNL d   1       0.086   0.608   0.213  0.00  0.00     0.002 A 
ATOM      7  C8  UNL d   1       0.384  -0.645   0.755  0.00  0.00     0.006 A 
ENDROOT
BRANCH   1   8
ATOM      8  C1  UNL d   1       1.965  -2.250   1.890  0.00  0.00     0.054 C 
ATOM      9  C   UNL d   1       0.686  -2.993   2.248  0.00  0.00     0.018 C 
ENDBRANCH   1   8
TORSDOF 1
ENDMDL
