MODEL 1
REMARK minimizedAffinity -3.24183774
REMARK minimizedRMSD -1
REMARK  1 active torsions:
REMARK  status: ('A' for Active; 'I' for Inactive)
REMARK    1  A    between atoms: C1_2  and  C2_3 
ROOT
ATOM      1  C2  UNL d   1      -1.008   0.116  -0.413  0.00  0.00    -0.081 A 
ATOM      2  C3  UNL d   1      -0.104   1.185  -0.381  0.00  0.00     0.006 A 
ATOM      3  C4  UNL d   1       1.208   0.990   0.059  0.00  0.00     0.002 A 
ATOM      4  C5  UNL d   1       1.639  -0.276   0.467  0.00  0.00    -0.080 A 
ATOM      5  C6  UNL d   1       3.053  -0.505   0.913  0.00  0.00     0.076 C 
ATOM      6  C7  UNL d   1       0.731  -1.341   0.451  0.00  0.00     0.002 A 
ATOM      7  C8  UNL d   1      -0.580  -1.147   0.012  0.00  0.00     0.006 A 
ENDROOT
BRANCH   1   8
ATOM      8  C1  UNL d   1      -2.404   0.308  -0.948  0.00  0.00     0.054 C 
ATOM      9  C   UNL d   1      -2.499  -0.111  -2.408  0.00  0.00     0.018 C 
ENDBRANCH   1   8
TORSDOF 1
ENDMDL
