MODEL 1
REMARK minimizedAffinity -1.60027134
REMARK minimizedRMSD -1
REMARK  0 active torsions:
REMARK  status: ('A' for Active; 'I' for Inactive)
ROOT
ATOM      1  C1  BNZ d   1       1.862  -0.445   0.835  0.00  0.00     0.000 A 
ATOM      2  C2  BNZ d   1       2.639  -1.149   1.716  0.00  0.00     0.000 A 
ATOM      3  C3  BNZ d   1       2.187  -2.314   2.271  0.00  0.00     0.000 A 
ATOM      4  C4  BNZ d   1       0.945  -2.751   1.976  0.00  0.00     0.000 A 
ATOM      5  C5  BNZ d   1       0.147  -2.046   1.097  0.00  0.00     0.000 A 
ATOM      6  C6  BNZ d   1       0.620  -0.895   0.510  0.00  0.00     0.000 A 
ENDROOT
TORSDOF 0
ENDMDL
