MODEL 1
REMARK minimizedAffinity -2.71654391
REMARK minimizedRMSD -1
REMARK  0 active torsions:
REMARK  status: ('A' for Active; 'I' for Inactive)
ROOT
ATOM      1  C1  BNZ d   1      -0.795   0.435  -0.019  0.00  0.00     0.000 A 
ATOM      2  C2  BNZ d   1       0.013   1.539   0.029  0.00  0.00     0.000 A 
ATOM      3  C3  BNZ d   1       1.299   1.446   0.483  0.00  0.00     0.000 A 
ATOM      4  C4  BNZ d   1       1.762   0.258   0.925  0.00  0.00     0.000 A 
ATOM      5  C5  BNZ d   1       0.956  -0.862   0.892  0.00  0.00     0.000 A 
ATOM      6  C6  BNZ d   1      -0.325  -0.772   0.398  0.00  0.00     0.000 A 
ENDROOT
TORSDOF 0
ENDMDL
