MODEL 1
REMARK minimizedAffinity -4.72031689
REMARK minimizedRMSD -1
REMARK  0 active torsions:
REMARK  status: ('A' for Active; 'I' for Inactive)
ROOT
ATOM      1  C1  BNZ d   1       2.990   0.325   0.790  0.00  0.00     0.000 A 
ATOM      2  C2  BNZ d   1       2.201   1.180   0.067  0.00  0.00     0.000 A 
ATOM      3  C3  BNZ d   1       0.864   0.939  -0.084  0.00  0.00     0.000 A 
ATOM      4  C4  BNZ d   1       0.326  -0.175   0.452  0.00  0.00     0.000 A 
ATOM      5  C5  BNZ d   1       1.110  -1.051   1.176  0.00  0.00     0.000 A 
ATOM      6  C6  BNZ d   1       2.448  -0.785   1.360  0.00  0.00     0.000 A 
ENDROOT
TORSDOF 0
ENDMDL
