MODEL 1
REMARK minimizedAffinity -3.18105745
REMARK minimizedRMSD -1
REMARK  0 active torsions:
REMARK  status: ('A' for Active; 'I' for Inactive)
ROOT
ATOM      1  C1  BNZ d   1       1.771  -1.668   2.698  0.00  0.00     0.000 A 
ATOM      2  C2  BNZ d   1       2.683  -0.669   2.487  0.00  0.00     0.000 A 
ATOM      3  C3  BNZ d   1       2.469   0.284   1.531  0.00  0.00     0.000 A 
ATOM      4  C4  BNZ d   1       1.363   0.215   0.762  0.00  0.00     0.000 A 
ATOM      5  C5  BNZ d   1       0.438  -0.791   0.957  0.00  0.00     0.000 A 
ATOM      6  C6  BNZ d   1       0.638  -1.727   1.946  0.00  0.00     0.000 A 
ENDROOT
TORSDOF 0
ENDMDL
