MODEL 1
REMARK minimizedAffinity -2.76605463
REMARK minimizedRMSD -1
REMARK  0 active torsions:
REMARK  status: ('A' for Active; 'I' for Inactive)
ROOT
ATOM      1  C1  BNZ d   1      -1.228   0.650   0.474  0.00  0.00     0.000 A 
ATOM      2  C2  BNZ d   1      -0.290   1.646   0.519  0.00  0.00     0.000 A 
ATOM      3  C3  BNZ d   1       1.035   1.369   0.324  0.00  0.00     0.000 A 
ATOM      4  C4  BNZ d   1       1.423   0.093   0.124  0.00  0.00     0.000 A 
ATOM      5  C5  BNZ d   1       0.489  -0.924   0.086  0.00  0.00     0.000 A 
ATOM      6  C6  BNZ d   1      -0.847  -0.636   0.244  0.00  0.00     0.000 A 
ENDROOT
TORSDOF 0
ENDMDL
