MODEL 1
REMARK minimizedAffinity -3.39097977
REMARK minimizedRMSD -1
REMARK  0 active torsions:
REMARK  status: ('A' for Active; 'I' for Inactive)
ROOT
ATOM      1  C1  BNZ d   1       1.029   1.301   0.720  0.00  0.00     0.000 A 
ATOM      2  C2  BNZ d   1       1.788   0.166   0.818  0.00  0.00     0.000 A 
ATOM      3  C3  BNZ d   1       1.204  -1.070   0.794  0.00  0.00     0.000 A 
ATOM      4  C4  BNZ d   1      -0.138  -1.168   0.714  0.00  0.00     0.000 A 
ATOM      5  C5  BNZ d   1      -0.918  -0.032   0.625  0.00  0.00     0.000 A 
ATOM      6  C6  BNZ d   1      -0.324   1.209   0.609  0.00  0.00     0.000 A 
ENDROOT
TORSDOF 0
ENDMDL
