MODEL 1
REMARK minimizedAffinity -3.08091736
REMARK minimizedRMSD -1
REMARK  0 active torsions:
REMARK  status: ('A' for Active; 'I' for Inactive)
ROOT
ATOM      1  C1  BNZ d   1      -2.667   1.171  -2.245  0.00  0.00     0.000 A 
ATOM      2  C2  BNZ d   1      -3.312   0.917  -3.426  0.00  0.00     0.000 A 
ATOM      3  C3  BNZ d   1      -3.505  -0.366  -3.857  0.00  0.00     0.000 A 
ATOM      4  C4  BNZ d   1      -3.017  -1.390  -3.128  0.00  0.00     0.000 A 
ATOM      5  C5  BNZ d   1      -2.356  -1.150  -1.939  0.00  0.00     0.000 A 
ATOM      6  C6  BNZ d   1      -2.199   0.140  -1.489  0.00  0.00     0.000 A 
ENDROOT
TORSDOF 0
ENDMDL
