MODEL 1
REMARK minimizedAffinity -5.80566835
REMARK minimizedRMSD -1
REMARK  3 active torsions:
REMARK  status: ('A' for Active; 'I' for Inactive)
REMARK    1  A    between atoms: C3'_2  and  C2'_3 
REMARK    2  A    between atoms: C2'_3  and  C1'_4 
REMARK    3  A    between atoms: C1'_4  and  C1_5 
ROOT
ATOM      1  C1  N4B d   1      -1.104   1.737  -1.125  0.00  0.00    -0.075 A 
ATOM      2  C2  N4B d   1      -1.066   3.049  -1.647  0.00  0.00     0.002 A 
ATOM      3  C3  N4B d   1      -1.572   3.304  -2.898  0.00  0.00     0.002 A 
ATOM      4  C4  N4B d   1      -2.103   2.266  -3.649  0.00  0.00    -0.004 A 
ATOM      5  C5  N4B d   1      -2.159   1.007  -3.126  0.00  0.00     0.002 A 
ATOM      6  C6  N4B d   1      -1.657   0.736  -1.869  0.00  0.00     0.002 A 
ENDROOT
BRANCH   1   7
ATOM      7  C1' N4B d   1      -0.485   1.393   0.202  0.00  0.00     0.057 C 
BRANCH   7   8
ATOM      8  C2' N4B d   1       0.819   0.637  -0.035  0.00  0.00     0.009 C 
BRANCH   8   9
ATOM      9  C3' N4B d   1       0.729  -0.809   0.422  0.00  0.00     0.004 C 
ATOM     10  C4' N4B d   1       2.060  -1.500   0.429  0.00  0.00     0.003 C 
ENDBRANCH   8   9
ENDBRANCH   7   8
ENDBRANCH   1   7
TORSDOF 3
ENDMDL
