MODEL 1
REMARK minimizedAffinity -3.65903115
REMARK minimizedRMSD -1
REMARK  3 active torsions:
REMARK  status: ('A' for Active; 'I' for Inactive)
REMARK    1  A    between atoms: C3'_2  and  C2'_3 
REMARK    2  A    between atoms: C2'_3  and  C1'_4 
REMARK    3  A    between atoms: C1'_4  and  C1_5 
ROOT
ATOM      1  C1  N4B d   1       0.248   0.004   0.805  0.00  0.00    -0.075 A 
ATOM      2  C2  N4B d   1       1.267  -0.971   0.894  0.00  0.00     0.002 A 
ATOM      3  C3  N4B d   1       1.256  -1.883   1.920  0.00  0.00     0.002 A 
ATOM      4  C4  N4B d   1       0.253  -1.829   2.876  0.00  0.00    -0.004 A 
ATOM      5  C5  N4B d   1      -0.741  -0.901   2.768  0.00  0.00     0.002 A 
ATOM      6  C6  N4B d   1      -0.746   0.020   1.740  0.00  0.00     0.002 A 
ENDROOT
BRANCH   1   7
ATOM      7  C1' N4B d   1       0.265   1.076  -0.250  0.00  0.00     0.057 C 
BRANCH   7   8
ATOM      8  C2' N4B d   1      -0.472   0.572  -1.488  0.00  0.00     0.009 C 
BRANCH   8   9
ATOM      9  C3' N4B d   1      -1.756   1.344  -1.739  0.00  0.00     0.004 C 
ATOM     10  C4' N4B d   1      -2.026   1.564  -3.197  0.00  0.00     0.003 C 
ENDBRANCH   8   9
ENDBRANCH   7   8
ENDBRANCH   1   7
TORSDOF 3
ENDMDL
