MODEL 1
REMARK minimizedAffinity -4.61912966
REMARK minimizedRMSD -1
REMARK  3 active torsions:
REMARK  status: ('A' for Active; 'I' for Inactive)
REMARK    1  A    between atoms: C3'_2  and  C2'_3 
REMARK    2  A    between atoms: C2'_3  and  C1'_4 
REMARK    3  A    between atoms: C1'_4  and  C1_5 
ROOT
ATOM      1  C1  N4B d   1      -0.145  -0.058   0.847  0.00  0.00    -0.075 A 
ATOM      2  C2  N4B d   1       1.110  -0.509   0.380  0.00  0.00     0.002 A 
ATOM      3  C3  N4B d   1       1.802  -1.463   1.084  0.00  0.00     0.002 A 
ATOM      4  C4  N4B d   1       1.271  -1.965   2.263  0.00  0.00    -0.004 A 
ATOM      5  C5  N4B d   1       0.047  -1.544   2.693  0.00  0.00     0.002 A 
ATOM      6  C6  N4B d   1      -0.662  -0.588   1.993  0.00  0.00     0.002 A 
ENDROOT
BRANCH   1   7
ATOM      7  C1' N4B d   1      -0.899   1.045   0.157  0.00  0.00     0.057 C 
BRANCH   7   8
ATOM      8  C2' N4B d   1      -1.036   0.708  -1.325  0.00  0.00     0.009 C 
BRANCH   8   9
ATOM      9  C3' N4B d   1      -2.376   1.150  -1.887  0.00  0.00     0.004 C 
ATOM     10  C4' N4B d   1      -2.238   2.014  -3.106  0.00  0.00     0.003 C 
ENDBRANCH   8   9
ENDBRANCH   7   8
ENDBRANCH   1   7
TORSDOF 3
ENDMDL
