MODEL 1
REMARK minimizedAffinity -1.9075923
REMARK minimizedRMSD -1
REMARK  3 active torsions:
REMARK  status: ('A' for Active; 'I' for Inactive)
REMARK    1  A    between atoms: C3'_2  and  C2'_3 
REMARK    2  A    between atoms: C2'_3  and  C1'_4 
REMARK    3  A    between atoms: C1'_4  and  C1_5 
ROOT
ATOM      1  C1  N4B d   1      -1.293   1.647  -1.126  0.00  0.00    -0.075 A 
ATOM      2  C2  N4B d   1      -0.891   2.705  -1.970  0.00  0.00     0.002 A 
ATOM      3  C3  N4B d   1      -1.377   2.783  -3.252  0.00  0.00     0.002 A 
ATOM      4  C4  N4B d   1      -2.248   1.809  -3.716  0.00  0.00    -0.004 A 
ATOM      5  C5  N4B d   1      -2.651   0.804  -2.886  0.00  0.00     0.002 A 
ATOM      6  C6  N4B d   1      -2.174   0.715  -1.594  0.00  0.00     0.002 A 
ENDROOT
BRANCH   1   7
ATOM      7  C1' N4B d   1      -0.722   1.471   0.255  0.00  0.00     0.057 C 
BRANCH   7   8
ATOM      8  C2' N4B d   1       0.078   0.173   0.305  0.00  0.00     0.009 C 
BRANCH   8   9
ATOM      9  C3' N4B d   1       1.337   0.249  -0.542  0.00  0.00     0.004 C 
ATOM     10  C4' N4B d   1       1.706  -1.069  -1.155  0.00  0.00     0.003 C 
ENDBRANCH   8   9
ENDBRANCH   7   8
ENDBRANCH   1   7
TORSDOF 3
ENDMDL
