MODEL 1
REMARK minimizedAffinity -3.77622056
REMARK minimizedRMSD -1
REMARK  3 active torsions:
REMARK  status: ('A' for Active; 'I' for Inactive)
REMARK    1  A    between atoms: C3'_2  and  C2'_3 
REMARK    2  A    between atoms: C2'_3  and  C1'_4 
REMARK    3  A    between atoms: C1'_4  and  C1_5 
ROOT
ATOM      1  C1  N4B d   1      -0.079   0.100  -0.037  0.00  0.00    -0.075 A 
ATOM      2  C2  N4B d   1      -0.066  -0.409   1.281  0.00  0.00     0.002 A 
ATOM      3  C3  N4B d   1       0.937  -1.259   1.678  0.00  0.00     0.002 A 
ATOM      4  C4  N4B d   1       1.922  -1.628   0.774  0.00  0.00    -0.004 A 
ATOM      5  C5  N4B d   1       1.916  -1.113  -0.489  0.00  0.00     0.002 A 
ATOM      6  C6  N4B d   1       0.916  -0.254  -0.901  0.00  0.00     0.002 A 
ENDROOT
BRANCH   1   7
ATOM      7  C1' N4B d   1      -1.202   0.964  -0.543  0.00  0.00     0.057 C 
BRANCH   7   8
ATOM      8  C2' N4B d   1      -0.847   1.481  -1.934  0.00  0.00     0.009 C 
BRANCH   8   9
ATOM      9  C3' N4B d   1      -2.085   1.825  -2.745  0.00  0.00     0.004 C 
ATOM     10  C4' N4B d   1      -1.774   2.126  -4.181  0.00  0.00     0.003 C 
ENDBRANCH   8   9
ENDBRANCH   7   8
ENDBRANCH   1   7
TORSDOF 3
ENDMDL
