MODEL 1
REMARK minimizedAffinity -4.68721581
REMARK minimizedRMSD -1
REMARK  3 active torsions:
REMARK  status: ('A' for Active; 'I' for Inactive)
REMARK    1  A    between atoms: C3'_2  and  C2'_3 
REMARK    2  A    between atoms: C2'_3  and  C1'_4 
REMARK    3  A    between atoms: C1'_4  and  C1_5 
ROOT
ATOM      1  C1  N4B d   1       0.318  -0.268   0.004  0.00  0.00    -0.075 A 
ATOM      2  C2  N4B d   1      -0.598  -0.254   1.079  0.00  0.00     0.002 A 
ATOM      3  C3  N4B d   1      -0.377  -1.044   2.180  0.00  0.00     0.002 A 
ATOM      4  C4  N4B d   1       0.738  -1.868   2.220  0.00  0.00    -0.004 A 
ATOM      5  C5  N4B d   1       1.631  -1.857   1.188  0.00  0.00     0.002 A 
ATOM      6  C6  N4B d   1       1.424  -1.064   0.078  0.00  0.00     0.002 A 
ENDROOT
BRANCH   1   7
ATOM      7  C1' N4B d   1       0.073   0.514  -1.257  0.00  0.00     0.057 C 
BRANCH   7   8
ATOM      8  C2' N4B d   1      -0.988   1.578  -0.989  0.00  0.00     0.009 C 
BRANCH   8   9
ATOM      9  C3' N4B d   1      -2.108   1.533  -2.014  0.00  0.00     0.004 C 
ATOM     10  C4' N4B d   1      -1.619   1.727  -3.419  0.00  0.00     0.003 C 
ENDBRANCH   8   9
ENDBRANCH   7   8
ENDBRANCH   1   7
TORSDOF 3
ENDMDL
