MODEL 1
REMARK minimizedAffinity -4.7564826
REMARK minimizedRMSD -1
REMARK  3 active torsions:
REMARK  status: ('A' for Active; 'I' for Inactive)
REMARK    1  A    between atoms: C3'_2  and  C2'_3 
REMARK    2  A    between atoms: C2'_3  and  C1'_4 
REMARK    3  A    between atoms: C1'_4  and  C1_5 
ROOT
ATOM      1  C1  N4B d   1       0.057   0.496   0.182  0.00  0.00    -0.075 A 
ATOM      2  C2  N4B d   1       1.317   0.584  -0.451  0.00  0.00     0.002 A 
ATOM      3  C3  N4B d   1       2.312  -0.305  -0.126  0.00  0.00     0.002 A 
ATOM      4  C4  N4B d   1       2.078  -1.273   0.839  0.00  0.00    -0.004 A 
ATOM      5  C5  N4B d   1       0.851  -1.367   1.428  0.00  0.00     0.002 A 
ATOM      6  C6  N4B d   1      -0.160  -0.483   1.108  0.00  0.00     0.002 A 
ENDROOT
BRANCH   1   7
ATOM      7  C1' N4B d   1      -1.034   1.498  -0.078  0.00  0.00     0.057 C 
BRANCH   7   8
ATOM      8  C2' N4B d   1      -0.942   1.974  -1.525  0.00  0.00     0.009 C 
BRANCH   8   9
ATOM      9  C3' N4B d   1      -2.289   1.923  -2.226  0.00  0.00     0.004 C 
ATOM     10  C4' N4B d   1      -2.180   2.119  -3.709  0.00  0.00     0.003 C 
ENDBRANCH   8   9
ENDBRANCH   7   8
ENDBRANCH   1   7
TORSDOF 3
ENDMDL
