MODEL 1
REMARK minimizedAffinity 2.32775521
REMARK minimizedRMSD -1
REMARK  3 active torsions:
REMARK  status: ('A' for Active; 'I' for Inactive)
REMARK    1  A    between atoms: C3'_2  and  C2'_3 
REMARK    2  A    between atoms: C2'_3  and  C1'_4 
REMARK    3  A    between atoms: C1'_4  and  C1_5 
ROOT
ATOM      1  C1  N4B d   1       0.036  -5.926  -3.661  0.00  0.00    -0.075 A 
ATOM      2  C2  N4B d   1       1.428  -5.951  -3.427  0.00  0.00     0.002 A 
ATOM      3  C3  N4B d   1       2.301  -5.978  -4.487  0.00  0.00     0.002 A 
ATOM      4  C4  N4B d   1       1.807  -5.999  -5.783  0.00  0.00    -0.004 A 
ATOM      5  C5  N4B d   1       0.461  -5.948  -6.000  0.00  0.00     0.002 A 
ATOM      6  C6  N4B d   1      -0.428  -5.917  -4.944  0.00  0.00     0.002 A 
ENDROOT
BRANCH   1   7
ATOM      7  C1' N4B d   1      -0.959  -5.983  -2.534  0.00  0.00     0.057 C 
BRANCH   7   8
ATOM      8  C2' N4B d   1      -2.366  -5.808  -3.098  0.00  0.00     0.009 C 
BRANCH   8   9
ATOM      9  C3' N4B d   1      -3.433  -5.999  -2.034  0.00  0.00     0.004 C 
ATOM     10  C4' N4B d   1      -4.823  -5.990  -2.598  0.00  0.00     0.003 C 
ENDBRANCH   8   9
ENDBRANCH   7   8
ENDBRANCH   1   7
TORSDOF 3
ENDMDL
