MODEL 1
REMARK minimizedAffinity 9.11881733
REMARK minimizedRMSD -1
REMARK  3 active torsions:
REMARK  status: ('A' for Active; 'I' for Inactive)
REMARK    1  A    between atoms: C3'_2  and  C2'_3 
REMARK    2  A    between atoms: C2'_3  and  C1'_4 
REMARK    3  A    between atoms: C1'_4  and  C1_5 
ROOT
ATOM      1  C1  N4B d   1      -0.170  -0.246   0.775  0.00  0.00    -0.075 A 
ATOM      2  C2  N4B d   1      -1.272  -1.124   0.674  0.00  0.00     0.002 A 
ATOM      3  C3  N4B d   1      -1.080  -2.480   0.771  0.00  0.00     0.002 A 
ATOM      4  C4  N4B d   1       0.201  -2.981   0.948  0.00  0.00    -0.004 A 
ATOM      5  C5  N4B d   1       1.257  -2.125   1.070  0.00  0.00     0.002 A 
ATOM      6  C6  N4B d   1       1.078  -0.760   0.979  0.00  0.00     0.002 A 
ENDROOT
BRANCH   1   7
ATOM      7  C1' N4B d   1      -0.318   1.239   0.589  0.00  0.00     0.057 C 
BRANCH   7   8
ATOM      8  C2' N4B d   1       1.029   1.830   0.183  0.00  0.00     0.009 C 
BRANCH   8   9
ATOM      9  C3' N4B d   1       1.082   3.332   0.408  0.00  0.00     0.004 C 
ATOM     10  C4' N4B d   1       2.465   3.893   0.261  0.00  0.00     0.003 C 
ENDBRANCH   8   9
ENDBRANCH   7   8
ENDBRANCH   1   7
TORSDOF 3
ENDMDL
