MODEL 1
REMARK minimizedAffinity 1.1124934
REMARK minimizedRMSD -1
REMARK  3 active torsions:
REMARK  status: ('A' for Active; 'I' for Inactive)
REMARK    1  A    between atoms: C3'_2  and  C2'_3 
REMARK    2  A    between atoms: C2'_3  and  C1'_4 
REMARK    3  A    between atoms: C1'_4  and  C1_5 
ROOT
ATOM      1  C1  N4B d   1      -1.121  -5.202  -2.923  0.00  0.00    -0.075 A 
ATOM      2  C2  N4B d   1      -2.301  -5.603  -3.587  0.00  0.00     0.002 A 
ATOM      3  C3  N4B d   1      -2.248  -6.000  -4.901  0.00  0.00     0.002 A 
ATOM      4  C4  N4B d   1      -1.036  -5.987  -5.574  0.00  0.00    -0.004 A 
ATOM      5  C5  N4B d   1       0.104  -5.622  -4.918  0.00  0.00     0.002 A 
ATOM      6  C6  N4B d   1       0.067  -5.225  -3.596  0.00  0.00     0.002 A 
ENDROOT
BRANCH   1   7
ATOM      7  C1' N4B d   1      -1.142  -4.678  -1.513  0.00  0.00     0.057 C 
BRANCH   7   8
ATOM      8  C2' N4B d   1      -0.349  -3.376  -1.451  0.00  0.00     0.009 C 
BRANCH   8   9
ATOM      9  C3' N4B d   1      -0.589  -2.626  -0.153  0.00  0.00     0.004 C 
ATOM     10  C4' N4B d   1       0.359  -1.479   0.040  0.00  0.00     0.003 C 
ENDBRANCH   8   9
ENDBRANCH   7   8
ENDBRANCH   1   7
TORSDOF 3
ENDMDL
