MODEL 1
REMARK minimizedAffinity 2.09793329
REMARK minimizedRMSD -1
REMARK  3 active torsions:
REMARK  status: ('A' for Active; 'I' for Inactive)
REMARK    1  A    between atoms: C3'_2  and  C2'_3 
REMARK    2  A    between atoms: C2'_3  and  C1'_4 
REMARK    3  A    between atoms: C1'_4  and  C1_5 
ROOT
ATOM      1  C1  N4B d   1       2.348   2.033  -0.126  0.00  0.00    -0.075 A 
ATOM      2  C2  N4B d   1       1.230   2.729   0.384  0.00  0.00     0.002 A 
ATOM      3  C3  N4B d   1       1.344   4.055   0.723  0.00  0.00     0.002 A 
ATOM      4  C4  N4B d   1       2.564   4.698   0.578  0.00  0.00    -0.004 A 
ATOM      5  C5  N4B d   1       3.632   4.025   0.060  0.00  0.00     0.002 A 
ATOM      6  C6  N4B d   1       3.531   2.693  -0.288  0.00  0.00     0.002 A 
ENDROOT
BRANCH   1   7
ATOM      7  C1' N4B d   1       2.295   0.560  -0.430  0.00  0.00     0.057 C 
BRANCH   7   8
ATOM      8  C2' N4B d   1       1.018  -0.028   0.163  0.00  0.00     0.009 C 
BRANCH   8   9
ATOM      9  C3' N4B d   1       1.307  -1.201   1.084  0.00  0.00     0.004 C 
ATOM     10  C4' N4B d   1       0.557  -2.441   0.698  0.00  0.00     0.003 C 
ENDBRANCH   8   9
ENDBRANCH   7   8
ENDBRANCH   1   7
TORSDOF 3
ENDMDL
