MODEL 1
REMARK minimizedAffinity -0.792126179
REMARK minimizedRMSD -1
REMARK  3 active torsions:
REMARK  status: ('A' for Active; 'I' for Inactive)
REMARK    1  A    between atoms: C3'_2  and  C2'_3 
REMARK    2  A    between atoms: C2'_3  and  C1'_4 
REMARK    3  A    between atoms: C1'_4  and  C1_5 
ROOT
ATOM      1  C1  N4B d   1      -0.485  -5.680  -2.970  0.00  0.00    -0.075 A 
ATOM      2  C2  N4B d   1      -1.828  -5.908  -3.342  0.00  0.00     0.002 A 
ATOM      3  C3  N4B d   1      -2.167  -5.997  -4.670  0.00  0.00     0.002 A 
ATOM      4  C4  N4B d   1      -1.187  -5.845  -5.639  0.00  0.00    -0.004 A 
ATOM      5  C5  N4B d   1       0.112  -5.651  -5.271  0.00  0.00     0.002 A 
ATOM      6  C6  N4B d   1       0.467  -5.562  -3.940  0.00  0.00     0.002 A 
ENDROOT
BRANCH   1   7
ATOM      7  C1' N4B d   1      -0.080  -5.490  -1.533  0.00  0.00     0.057 C 
BRANCH   7   8
ATOM      8  C2' N4B d   1      -0.518  -4.103  -1.070  0.00  0.00     0.009 C 
BRANCH   8   9
ATOM      9  C3' N4B d   1      -0.047  -3.801   0.342  0.00  0.00     0.004 C 
ATOM     10  C4' N4B d   1       0.615  -2.461   0.460  0.00  0.00     0.003 C 
ENDBRANCH   8   9
ENDBRANCH   7   8
ENDBRANCH   1   7
TORSDOF 3
ENDMDL
