MODEL 1
REMARK minimizedAffinity -0.0789156333
REMARK minimizedRMSD -1
REMARK  3 active torsions:
REMARK  status: ('A' for Active; 'I' for Inactive)
REMARK    1  A    between atoms: C3'_2  and  C2'_3 
REMARK    2  A    between atoms: C2'_3  and  C1'_4 
REMARK    3  A    between atoms: C1'_4  and  C1_5 
ROOT
ATOM      1  C1  N4B d   1      -1.634  -5.972  -4.514  0.00  0.00    -0.075 A 
ATOM      2  C2  N4B d   1      -1.094  -5.934  -5.819  0.00  0.00     0.002 A 
ATOM      3  C3  N4B d   1       0.267  -5.886  -5.997  0.00  0.00     0.002 A 
ATOM      4  C4  N4B d   1       1.103  -5.856  -4.891  0.00  0.00    -0.004 A 
ATOM      5  C5  N4B d   1       0.574  -5.919  -3.635  0.00  0.00     0.002 A 
ATOM      6  C6  N4B d   1      -0.792  -5.972  -3.441  0.00  0.00     0.002 A 
ENDROOT
BRANCH   1   7
ATOM      7  C1' N4B d   1      -3.118  -5.938  -4.268  0.00  0.00     0.057 C 
BRANCH   7   8
ATOM      8  C2' N4B d   1      -3.378  -5.997  -2.766  0.00  0.00     0.009 C 
BRANCH   8   9
ATOM      9  C3' N4B d   1      -4.862  -5.995  -2.445  0.00  0.00     0.004 C 
ATOM     10  C4' N4B d   1      -5.139  -5.898  -0.975  0.00  0.00     0.003 C 
ENDBRANCH   8   9
ENDBRANCH   7   8
ENDBRANCH   1   7
TORSDOF 3
ENDMDL
