MODEL 1
REMARK minimizedAffinity 8.31286526
REMARK minimizedRMSD -1
REMARK  3 active torsions:
REMARK  status: ('A' for Active; 'I' for Inactive)
REMARK    1  A    between atoms: C3'_2  and  C2'_3 
REMARK    2  A    between atoms: C2'_3  and  C1'_4 
REMARK    3  A    between atoms: C1'_4  and  C1_5 
ROOT
ATOM      1  C1  N4B d   1       0.932  -1.626   1.078  0.00  0.00    -0.075 A 
ATOM      2  C2  N4B d   1       2.319  -1.609   1.347  0.00  0.00     0.002 A 
ATOM      3  C3  N4B d   1       3.085  -0.547   0.934  0.00  0.00     0.002 A 
ATOM      4  C4  N4B d   1       2.493   0.496   0.238  0.00  0.00    -0.004 A 
ATOM      5  C5  N4B d   1       1.149   0.484   0.004  0.00  0.00     0.002 A 
ATOM      6  C6  N4B d   1       0.366  -0.575   0.417  0.00  0.00     0.002 A 
ENDROOT
BRANCH   1   7
ATOM      7  C1' N4B d   1       0.069  -2.806   1.433  0.00  0.00     0.057 C 
BRANCH   7   8
ATOM      8  C2' N4B d   1      -0.866  -3.112   0.267  0.00  0.00     0.009 C 
BRANCH   8   9
ATOM      9  C3' N4B d   1      -2.327  -2.962   0.656  0.00  0.00     0.004 C 
ATOM     10  C4' N4B d   1      -2.930  -1.679   0.167  0.00  0.00     0.003 C 
ENDBRANCH   8   9
ENDBRANCH   7   8
ENDBRANCH   1   7
TORSDOF 3
ENDMDL
