MODEL 1
REMARK minimizedAffinity 6.39028788
REMARK minimizedRMSD -1
REMARK  3 active torsions:
REMARK  status: ('A' for Active; 'I' for Inactive)
REMARK    1  A    between atoms: C3'_2  and  C2'_3 
REMARK    2  A    between atoms: C2'_3  and  C1'_4 
REMARK    3  A    between atoms: C1'_4  and  C1_5 
ROOT
ATOM      1  C1  N4B d   1       1.227   0.000   0.206  0.00  0.00    -0.075 A 
ATOM      2  C2  N4B d   1       0.069  -0.553  -0.384  0.00  0.00     0.002 A 
ATOM      3  C3  N4B d   1      -0.417  -1.759   0.058  0.00  0.00     0.002 A 
ATOM      4  C4  N4B d   1       0.247  -2.437   1.070  0.00  0.00    -0.004 A 
ATOM      5  C5  N4B d   1       1.350  -1.883   1.651  0.00  0.00     0.002 A 
ATOM      6  C6  N4B d   1       1.847  -0.670   1.220  0.00  0.00     0.002 A 
ENDROOT
BRANCH   1   7
ATOM      7  C1' N4B d   1       1.844   1.275  -0.302  0.00  0.00     0.057 C 
BRANCH   7   8
ATOM      8  C2' N4B d   1       0.953   2.452   0.085  0.00  0.00     0.009 C 
BRANCH   8   9
ATOM      9  C3' N4B d   1       1.590   3.786  -0.264  0.00  0.00     0.004 C 
ATOM     10  C4' N4B d   1       3.085   3.763  -0.149  0.00  0.00     0.003 C 
ENDBRANCH   8   9
ENDBRANCH   7   8
ENDBRANCH   1   7
TORSDOF 3
ENDMDL
