MODEL 1
REMARK minimizedAffinity 11.2799597
REMARK minimizedRMSD -1
REMARK  0 active torsions:
REMARK  status: ('A' for Active; 'I' for Inactive)
ROOT
ATOM      1  C   UNL d   1       0.140   1.045   2.117  0.00  0.00     0.020 A 
ATOM      2  C1  UNL d   1      -0.834   1.631   1.310  0.00  0.00     0.020 A 
ATOM      3  C2  UNL d   1      -1.771   0.830   0.653  0.00  0.00     0.034 A 
ATOM      4  C3  UNL d   1      -1.736  -0.561   0.802  0.00  0.00     0.017 A 
ATOM      5  C4  UNL d   1      -0.758  -1.148   1.613  0.00  0.00     0.017 A 
ATOM      6  C5  UNL d   1       0.177  -0.342   2.268  0.00  0.00     0.034 A 
ATOM      7 Cl   UNL d   1      -0.652  -2.858   1.845  0.00  0.00    -0.070 Cl
ATOM      8 Cl1  UNL d   1      -2.925  -1.489  -0.040  0.00  0.00    -0.070 Cl
ENDROOT
TORSDOF 0
ENDMDL
