MODEL 1
REMARK minimizedAffinity 0.281077325
REMARK minimizedRMSD -1
REMARK  0 active torsions:
REMARK  status: ('A' for Active; 'I' for Inactive)
ROOT
ATOM      1  C   UNL d   1      -1.179   2.700   4.178  0.00  0.00     0.020 A 
ATOM      2  C1  UNL d   1       0.050   2.263   3.687  0.00  0.00     0.020 A 
ATOM      3  C2  UNL d   1       0.098   1.403   2.588  0.00  0.00     0.034 A 
ATOM      4  C3  UNL d   1      -1.087   0.978   1.975  0.00  0.00     0.017 A 
ATOM      5  C4  UNL d   1      -2.321   1.417   2.469  0.00  0.00     0.017 A 
ATOM      6  C5  UNL d   1      -2.362   2.278   3.570  0.00  0.00     0.034 A 
ATOM      7 Cl   UNL d   1      -3.824   0.936   1.766  0.00  0.00    -0.070 Cl
ATOM      8 Cl1  UNL d   1      -0.953  -0.085   0.620  0.00  0.00    -0.070 Cl
ENDROOT
TORSDOF 0
ENDMDL
