MODEL 1
REMARK minimizedAffinity 2.60542274
REMARK minimizedRMSD -1
REMARK  0 active torsions:
REMARK  status: ('A' for Active; 'I' for Inactive)
ROOT
ATOM      1  C   UNL d   1      -2.771   0.838   0.882  0.00  0.00     0.020 A 
ATOM      2  C1  UNL d   1      -2.995   1.539   2.066  0.00  0.00     0.020 A 
ATOM      3  C2  UNL d   1      -1.923   1.850   2.906  0.00  0.00     0.034 A 
ATOM      4  C3  UNL d   1      -0.624   1.460   2.563  0.00  0.00     0.017 A 
ATOM      5  C4  UNL d   1      -0.400   0.756   1.374  0.00  0.00     0.017 A 
ATOM      6  C5  UNL d   1      -1.477   0.448   0.537  0.00  0.00     0.034 A 
ATOM      7 Cl   UNL d   1       1.175   0.242   0.883  0.00  0.00    -0.070 Cl
ATOM      8 Cl1  UNL d   1       0.654   1.878   3.649  0.00  0.00    -0.070 Cl
ENDROOT
TORSDOF 0
ENDMDL
