MODEL 1
REMARK minimizedAffinity 3.21543908
REMARK minimizedRMSD -1
REMARK  0 active torsions:
REMARK  status: ('A' for Active; 'I' for Inactive)
ROOT
ATOM      1  C   UNL d   1      -2.087   0.918   1.248  0.00  0.00     0.020 A 
ATOM      2  C1  UNL d   1      -2.243   1.890   2.236  0.00  0.00     0.020 A 
ATOM      3  C2  UNL d   1      -1.153   2.266   3.024  0.00  0.00     0.034 A 
ATOM      4  C3  UNL d   1       0.098   1.670   2.826  0.00  0.00     0.017 A 
ATOM      5  C4  UNL d   1       0.253   0.695   1.834  0.00  0.00     0.017 A 
ATOM      6  C5  UNL d   1      -0.841   0.322   1.048  0.00  0.00     0.034 A 
ATOM      7 Cl   UNL d   1       1.766  -0.085   1.530  0.00  0.00    -0.070 Cl
ATOM      8 Cl1  UNL d   1       1.402   2.184   3.836  0.00  0.00    -0.070 Cl
ENDROOT
TORSDOF 0
ENDMDL
