MODEL 1
REMARK minimizedAffinity 7.37991953
REMARK minimizedRMSD -1
REMARK  0 active torsions:
REMARK  status: ('A' for Active; 'I' for Inactive)
ROOT
ATOM      1  C   UNL d   1       1.283  -1.248  -4.964  0.00  0.00     0.020 A 
ATOM      2  C1  UNL d   1       1.887  -1.777  -3.824  0.00  0.00     0.020 A 
ATOM      3  C2  UNL d   1       3.057  -1.203  -3.323  0.00  0.00     0.034 A 
ATOM      4  C3  UNL d   1       3.628  -0.097  -3.963  0.00  0.00     0.017 A 
ATOM      5  C4  UNL d   1       3.022   0.433  -5.108  0.00  0.00     0.017 A 
ATOM      6  C5  UNL d   1       1.850  -0.146  -5.604  0.00  0.00     0.034 A 
ATOM      7 Cl   UNL d   1       3.667   1.796  -5.952  0.00  0.00    -0.070 Cl
ATOM      8 Cl1  UNL d   1       5.077   0.562  -3.290  0.00  0.00    -0.070 Cl
ENDROOT
TORSDOF 0
ENDMDL
