MODEL 1
REMARK minimizedAffinity 9.83051586
REMARK minimizedRMSD -1
REMARK  0 active torsions:
REMARK  status: ('A' for Active; 'I' for Inactive)
ROOT
ATOM      1  C   UNL d   1      -3.561  -2.990   5.999  0.00  0.00     0.020 A 
ATOM      2  C1  UNL d   1      -2.957  -1.811   5.563  0.00  0.00     0.020 A 
ATOM      3  C2  UNL d   1      -2.930  -1.503   4.201  0.00  0.00     0.034 A 
ATOM      4  C3  UNL d   1      -3.507  -2.375   3.271  0.00  0.00     0.017 A 
ATOM      5  C4  UNL d   1      -4.113  -3.558   3.710  0.00  0.00     0.017 A 
ATOM      6  C5  UNL d   1      -4.137  -3.862   5.074  0.00  0.00     0.034 A 
ATOM      7 Cl   UNL d   1      -4.846  -4.683   2.621  0.00  0.00    -0.070 Cl
ATOM      8 Cl1  UNL d   1      -3.438  -1.931   1.602  0.00  0.00    -0.070 Cl
ENDROOT
TORSDOF 0
ENDMDL
