MODEL 1
REMARK minimizedAffinity 11.8589945
REMARK minimizedRMSD -1
REMARK  0 active torsions:
REMARK  status: ('A' for Active; 'I' for Inactive)
ROOT
ATOM      1  C   UNL d   1       1.788  -0.644   2.267  0.00  0.00     0.020 A 
ATOM      2  C1  UNL d   1       1.456   0.357   1.355  0.00  0.00     0.020 A 
ATOM      3  C2  UNL d   1       2.460   1.143   0.785  0.00  0.00     0.034 A 
ATOM      4  C3  UNL d   1       3.800   0.929   1.126  0.00  0.00     0.017 A 
ATOM      5  C4  UNL d   1       4.132  -0.076   2.042  0.00  0.00     0.017 A 
ATOM      6  C5  UNL d   1       3.123  -0.860   2.610  0.00  0.00     0.034 A 
ATOM      7 Cl   UNL d   1       5.764  -0.399   2.512  0.00  0.00    -0.070 Cl
ATOM      8 Cl1  UNL d   1       4.989   1.938   0.383  0.00  0.00    -0.070 Cl
ENDROOT
TORSDOF 0
ENDMDL
