MODEL 1
REMARK minimizedAffinity 12.0343122
REMARK minimizedRMSD -1
REMARK  0 active torsions:
REMARK  status: ('A' for Active; 'I' for Inactive)
ROOT
ATOM      1  C   UNL d   1      -3.755  -2.655   6.000  0.00  0.00     0.020 A 
ATOM      2  C1  UNL d   1      -3.029  -1.526   5.621  0.00  0.00     0.020 A 
ATOM      3  C2  UNL d   1      -2.909  -1.195   4.269  0.00  0.00     0.034 A 
ATOM      4  C3  UNL d   1      -3.515  -1.993   3.292  0.00  0.00     0.017 A 
ATOM      5  C4  UNL d   1      -4.243  -3.126   3.674  0.00  0.00     0.017 A 
ATOM      6  C5  UNL d   1      -4.361  -3.453   5.029  0.00  0.00     0.034 A 
ATOM      7 Cl   UNL d   1      -5.020  -4.159   2.526  0.00  0.00    -0.070 Cl
ATOM      8 Cl1  UNL d   1      -3.326  -1.524   1.640  0.00  0.00    -0.070 Cl
ENDROOT
TORSDOF 0
ENDMDL
