MODEL 1
REMARK minimizedAffinity 0.0520864315
REMARK minimizedRMSD -1
REMARK  0 active torsions:
REMARK  status: ('A' for Active; 'I' for Inactive)
ROOT
ATOM      1  C   UNL d   1      -3.189  -1.966   5.324  0.00  0.00     0.020 A 
ATOM      2  C1  UNL d   1      -3.597  -3.213   5.797  0.00  0.00     0.020 A 
ATOM      3  C2  UNL d   1      -3.943  -4.222   4.896  0.00  0.00     0.034 A 
ATOM      4  C3  UNL d   1      -3.882  -3.987   3.518  0.00  0.00     0.017 A 
ATOM      5  C4  UNL d   1      -3.472  -2.736   3.044  0.00  0.00     0.017 A 
ATOM      6  C5  UNL d   1      -3.127  -1.728   3.950  0.00  0.00     0.034 A 
ATOM      7 Cl   UNL d   1      -3.371  -2.371   1.357  0.00  0.00    -0.070 Cl
ATOM      8 Cl1  UNL d   1      -4.323  -5.281   2.461  0.00  0.00    -0.070 Cl
ENDROOT
TORSDOF 0
ENDMDL
