MODEL 1
REMARK minimizedAffinity 5.72826862
REMARK minimizedRMSD -1
REMARK  0 active torsions:
REMARK  status: ('A' for Active; 'I' for Inactive)
ROOT
ATOM      1  C   UNL d   1      -4.476   5.442   5.973  0.00  0.00     0.020 A 
ATOM      2  C1  UNL d   1      -5.697   4.770   5.964  0.00  0.00     0.020 A 
ATOM      3  C2  UNL d   1      -5.726   3.374   5.965  0.00  0.00     0.034 A 
ATOM      4  C3  UNL d   1      -4.531   2.646   5.973  0.00  0.00     0.017 A 
ATOM      5  C4  UNL d   1      -3.305   3.321   5.982  0.00  0.00     0.017 A 
ATOM      6  C5  UNL d   1      -3.282   4.719   5.982  0.00  0.00     0.034 A 
ATOM      7 Cl   UNL d   1      -1.789   2.491   5.993  0.00  0.00    -0.070 Cl
ATOM      8 Cl1  UNL d   1      -4.641   0.921   5.974  0.00  0.00    -0.070 Cl
ENDROOT
TORSDOF 0
ENDMDL
