MODEL 1
REMARK minimizedAffinity 14.464222
REMARK minimizedRMSD -1
REMARK  0 active torsions:
REMARK  status: ('A' for Active; 'I' for Inactive)
ROOT
ATOM      1  C   UNL d   1       2.355   1.554   0.369  0.00  0.00     0.020 A 
ATOM      2  C1  UNL d   1       3.681   1.987   0.366  0.00  0.00     0.020 A 
ATOM      3  C2  UNL d   1       4.613   1.389   1.217  0.00  0.00     0.034 A 
ATOM      4  C3  UNL d   1       4.221   0.354   2.074  0.00  0.00     0.017 A 
ATOM      5  C4  UNL d   1       2.890  -0.080   2.076  0.00  0.00     0.017 A 
ATOM      6  C5  UNL d   1       1.961   0.522   1.222  0.00  0.00     0.034 A 
ATOM      7 Cl   UNL d   1       2.332  -1.351   3.105  0.00  0.00    -0.070 Cl
ATOM      8 Cl1  UNL d   1       5.426  -0.340   3.099  0.00  0.00    -0.070 Cl
ENDROOT
TORSDOF 0
ENDMDL
