MODEL 1
REMARK minimizedAffinity 6.18466187
REMARK minimizedRMSD -1
REMARK  0 active torsions:
REMARK  status: ('A' for Active; 'I' for Inactive)
ROOT
ATOM      1  C   UNL d   1      -2.070   4.184   5.968  0.00  0.00     0.020 A 
ATOM      2  C1  UNL d   1      -2.088   2.790   5.992  0.00  0.00     0.020 A 
ATOM      3  C2  UNL d   1      -3.306   2.107   5.997  0.00  0.00     0.034 A 
ATOM      4  C3  UNL d   1      -4.512   2.818   5.978  0.00  0.00     0.017 A 
ATOM      5  C4  UNL d   1      -4.493   4.218   5.953  0.00  0.00     0.017 A 
ATOM      6  C5  UNL d   1      -3.270   4.896   5.948  0.00  0.00     0.034 A 
ATOM      7 Cl   UNL d   1      -5.939   5.164   5.928  0.00  0.00    -0.070 Cl
ATOM      8 Cl1  UNL d   1      -5.981   1.910   5.985  0.00  0.00    -0.070 Cl
ENDROOT
TORSDOF 0
ENDMDL
