MODEL 1
REMARK minimizedAffinity 4.94231987
REMARK minimizedRMSD -1
REMARK  0 active torsions:
REMARK  status: ('A' for Active; 'I' for Inactive)
ROOT
ATOM      1  C   UNL d   1      -3.446   1.971   5.998  0.00  0.00     0.020 A 
ATOM      2  C1  UNL d   1      -4.838   1.892   5.998  0.00  0.00     0.020 A 
ATOM      3  C2  UNL d   1      -5.604   3.060   5.998  0.00  0.00     0.034 A 
ATOM      4  C3  UNL d   1      -4.979   4.312   5.999  0.00  0.00     0.017 A 
ATOM      5  C4  UNL d   1      -3.581   4.390   5.999  0.00  0.00     0.017 A 
ATOM      6  C5  UNL d   1      -2.819   3.218   5.998  0.00  0.00     0.034 A 
ATOM      7 Cl   UNL d   1      -2.738   5.899   6.000  0.00  0.00    -0.070 Cl
ATOM      8 Cl1  UNL d   1      -5.988   5.714   5.999  0.00  0.00    -0.070 Cl
ENDROOT
TORSDOF 0
ENDMDL
