MODEL 1
REMARK minimizedAffinity 4.15542984
REMARK minimizedRMSD -1
REMARK  0 active torsions:
REMARK  status: ('A' for Active; 'I' for Inactive)
ROOT
ATOM      1  C   UNL d   1       2.186  -0.441   1.975  0.00  0.00     0.020 A 
ATOM      2  C1  UNL d   1       2.031   0.380   0.859  0.00  0.00     0.020 A 
ATOM      3  C2  UNL d   1       3.109   1.134   0.391  0.00  0.00     0.034 A 
ATOM      4  C3  UNL d   1       4.347   1.069   1.040  0.00  0.00     0.017 A 
ATOM      5  C4  UNL d   1       4.503   0.245   2.160  0.00  0.00     0.017 A 
ATOM      6  C5  UNL d   1       3.420  -0.508   2.624  0.00  0.00     0.034 A 
ATOM      7 Cl   UNL d   1       6.000   0.113   3.013  0.00  0.00    -0.070 Cl
ATOM      8 Cl1  UNL d   1       5.637   2.029   0.406  0.00  0.00    -0.070 Cl
ENDROOT
TORSDOF 0
ENDMDL
