MODEL 1
REMARK minimizedAffinity 8.38171196
REMARK minimizedRMSD -1
REMARK  0 active torsions:
REMARK  status: ('A' for Active; 'I' for Inactive)
ROOT
ATOM      1  C   UNL d   1       1.472  -0.221   0.755  0.00  0.00     0.020 A 
ATOM      2  C1  UNL d   1       2.475   0.747   0.710  0.00  0.00     0.020 A 
ATOM      3  C2  UNL d   1       3.607   0.617   1.518  0.00  0.00     0.034 A 
ATOM      4  C3  UNL d   1       3.738  -0.482   2.374  0.00  0.00     0.017 A 
ATOM      5  C4  UNL d   1       2.731  -1.453   2.418  0.00  0.00     0.017 A 
ATOM      6  C5  UNL d   1       1.600  -1.318   1.607  0.00  0.00     0.034 A 
ATOM      7 Cl   UNL d   1       2.823  -2.838   3.448  0.00  0.00    -0.070 Cl
ATOM      8 Cl1  UNL d   1       5.165  -0.579   3.344  0.00  0.00    -0.070 Cl
ENDROOT
TORSDOF 0
ENDMDL
