MODEL 1
REMARK minimizedAffinity 11.5085459
REMARK minimizedRMSD -1
REMARK  0 active torsions:
REMARK  status: ('A' for Active; 'I' for Inactive)
ROOT
ATOM      1  C   UNL d   1       4.232  -1.677  -2.620  0.00  0.00     0.020 A 
ATOM      2  C1  UNL d   1       4.723  -0.372  -2.628  0.00  0.00     0.020 A 
ATOM      3  C2  UNL d   1       4.123   0.595  -3.438  0.00  0.00     0.034 A 
ATOM      4  C3  UNL d   1       3.029   0.259  -4.243  0.00  0.00     0.017 A 
ATOM      5  C4  UNL d   1       2.537  -1.051  -4.235  0.00  0.00     0.017 A 
ATOM      6  C5  UNL d   1       3.141  -2.016  -3.422  0.00  0.00     0.034 A 
ATOM      7 Cl   UNL d   1       1.191  -1.542  -5.201  0.00  0.00    -0.070 Cl
ATOM      8 Cl1  UNL d   1       2.337   1.505  -5.219  0.00  0.00    -0.070 Cl
ENDROOT
TORSDOF 0
ENDMDL
