MODEL 1
REMARK minimizedAffinity 7.73493814
REMARK minimizedRMSD -1
REMARK  0 active torsions:
REMARK  status: ('A' for Active; 'I' for Inactive)
ROOT
ATOM      1  C   UNL d   1       4.286   2.941   0.169  0.00  0.00     0.020 A 
ATOM      2  C1  UNL d   1       3.001   2.428  -0.008  0.00  0.00     0.020 A 
ATOM      3  C2  UNL d   1       2.625   1.249   0.640  0.00  0.00     0.034 A 
ATOM      4  C3  UNL d   1       3.534   0.580   1.468  0.00  0.00     0.017 A 
ATOM      5  C4  UNL d   1       4.823   1.096   1.645  0.00  0.00     0.017 A 
ATOM      6  C5  UNL d   1       5.194   2.276   0.994  0.00  0.00     0.034 A 
ATOM      7 Cl   UNL d   1       5.999   0.326   2.650  0.00  0.00    -0.070 Cl
ATOM      8 Cl1  UNL d   1       3.000  -0.872   2.238  0.00  0.00    -0.070 Cl
ENDROOT
TORSDOF 0
ENDMDL
