MODEL 1
REMARK minimizedAffinity 0.702176809
REMARK minimizedRMSD -1
REMARK  0 active torsions:
REMARK  status: ('A' for Active; 'I' for Inactive)
ROOT
ATOM      1  C   UNL d   1       2.563  -2.772   2.721  0.00  0.00     0.020 A 
ATOM      2  C1  UNL d   1       1.438  -2.249   2.085  0.00  0.00     0.020 A 
ATOM      3  C2  UNL d   1       1.493  -0.982   1.501  0.00  0.00     0.034 A 
ATOM      4  C3  UNL d   1       2.675  -0.234   1.551  0.00  0.00     0.017 A 
ATOM      5  C4  UNL d   1       3.803  -0.760   2.189  0.00  0.00     0.017 A 
ATOM      6  C5  UNL d   1       3.743  -2.029   2.773  0.00  0.00     0.034 A 
ATOM      7 Cl   UNL d   1       5.297   0.104   2.292  0.00  0.00    -0.070 Cl
ATOM      8 Cl1  UNL d   1       2.671   1.326   0.807  0.00  0.00    -0.070 Cl
ENDROOT
TORSDOF 0
ENDMDL
