MODEL 1
REMARK minimizedAffinity 10.2727518
REMARK minimizedRMSD -1
REMARK  0 active torsions:
REMARK  status: ('A' for Active; 'I' for Inactive)
ROOT
ATOM      1  C   UNL d   1      -2.237  -0.645  -2.742  0.00  0.00     0.078 C 
ATOM      2  C1  UNL d   1      -1.709  -1.799  -1.943  0.00  0.00    -0.077 A 
ATOM      3  C2  UNL d   1      -1.222  -2.950  -2.574  0.00  0.00    -0.001 A 
ATOM      4  C3  UNL d   1      -0.742  -4.021  -1.818  0.00  0.00     0.003 A 
ATOM      5  C4  UNL d   1      -0.746  -3.951  -0.426  0.00  0.00    -0.005 A 
ATOM      6  C5  UNL d   1      -1.231  -2.811   0.211  0.00  0.00     0.003 A 
ATOM      7  C6  UNL d   1      -1.711  -1.740  -0.544  0.00  0.00    -0.001 A 
ENDROOT
TORSDOF 0
ENDMDL
