MODEL 1
REMARK minimizedAffinity 13.7461443
REMARK minimizedRMSD -1
REMARK  0 active torsions:
REMARK  status: ('A' for Active; 'I' for Inactive)
ROOT
ATOM      1  C   UNL d   1       0.622   3.265  -4.853  0.00  0.00     0.078 C 
ATOM      2  C1  UNL d   1      -0.665   2.640  -4.403  0.00  0.00    -0.077 A 
ATOM      3  C2  UNL d   1      -0.706   1.314  -3.956  0.00  0.00    -0.001 A 
ATOM      4  C3  UNL d   1      -1.912   0.743  -3.549  0.00  0.00     0.003 A 
ATOM      5  C4  UNL d   1      -3.088   1.490  -3.586  0.00  0.00    -0.005 A 
ATOM      6  C5  UNL d   1      -3.058   2.810  -4.030  0.00  0.00     0.003 A 
ATOM      7  C6  UNL d   1      -1.852   3.383  -4.438  0.00  0.00    -0.001 A 
ENDROOT
TORSDOF 0
ENDMDL
