MODEL 1
REMARK minimizedAffinity 8.80244732
REMARK minimizedRMSD -1
REMARK  0 active torsions:
REMARK  status: ('A' for Active; 'I' for Inactive)
ROOT
ATOM      1  C   UNL d   1       4.685   3.852   3.666  0.00  0.00     0.078 C 
ATOM      2  C1  UNL d   1       4.587   4.091   2.189  0.00  0.00    -0.077 A 
ATOM      3  C2  UNL d   1       4.921   5.333   1.635  0.00  0.00    -0.001 A 
ATOM      4  C3  UNL d   1       4.815   5.544   0.260  0.00  0.00     0.003 A 
ATOM      5  C4  UNL d   1       4.373   4.518  -0.574  0.00  0.00    -0.005 A 
ATOM      6  C5  UNL d   1       4.037   3.279  -0.031  0.00  0.00     0.003 A 
ATOM      7  C6  UNL d   1       4.142   3.066   1.344  0.00  0.00    -0.001 A 
ENDROOT
TORSDOF 0
ENDMDL
