MODEL 1
REMARK minimizedAffinity 5.39578581
REMARK minimizedRMSD -1
REMARK  0 active torsions:
REMARK  status: ('A' for Active; 'I' for Inactive)
ROOT
ATOM      1  C   UNL d   1      -3.000   0.312   5.998  0.00  0.00     0.078 C 
ATOM      2  C1  UNL d   1      -2.468  -1.011   5.535  0.00  0.00    -0.077 A 
ATOM      3  C2  UNL d   1      -1.239  -1.497   6.000  0.00  0.00    -0.001 A 
ATOM      4  C3  UNL d   1      -0.752  -2.726   5.554  0.00  0.00     0.003 A 
ATOM      5  C4  UNL d   1      -1.485  -3.480   4.640  0.00  0.00    -0.005 A 
ATOM      6  C5  UNL d   1      -2.708  -3.004   4.170  0.00  0.00     0.003 A 
ATOM      7  C6  UNL d   1      -3.197  -1.775   4.615  0.00  0.00    -0.001 A 
ENDROOT
TORSDOF 0
ENDMDL
