MODEL 1
REMARK minimizedAffinity 8.00261402
REMARK minimizedRMSD -1
REMARK  0 active torsions:
REMARK  status: ('A' for Active; 'I' for Inactive)
ROOT
ATOM      1  C   UNL d   1      -0.477  -4.112   0.374  0.00  0.00     0.078 C 
ATOM      2  C1  UNL d   1      -1.270  -2.906  -0.032  0.00  0.00    -0.077 A 
ATOM      3  C2  UNL d   1      -2.332  -2.443   0.755  0.00  0.00    -0.001 A 
ATOM      4  C3  UNL d   1      -3.068  -1.325   0.360  0.00  0.00     0.003 A 
ATOM      5  C4  UNL d   1      -2.750  -0.660  -0.823  0.00  0.00    -0.005 A 
ATOM      6  C5  UNL d   1      -1.696  -1.114  -1.613  0.00  0.00     0.003 A 
ATOM      7  C6  UNL d   1      -0.959  -2.233  -1.220  0.00  0.00    -0.001 A 
ENDROOT
TORSDOF 0
ENDMDL
