MODEL 1
REMARK minimizedAffinity 1.78474653
REMARK minimizedRMSD -1
REMARK  0 active torsions:
REMARK  status: ('A' for Active; 'I' for Inactive)
ROOT
ATOM      1  C   UNL d   1       3.151   3.732   5.875  0.00  0.00     0.078 C 
ATOM      2  C1  UNL d   1       3.885   2.627   5.177  0.00  0.00    -0.077 A 
ATOM      3  C2  UNL d   1       3.215   1.743   4.323  0.00  0.00    -0.001 A 
ATOM      4  C3  UNL d   1       3.910   0.712   3.688  0.00  0.00     0.003 A 
ATOM      5  C4  UNL d   1       5.278   0.555   3.901  0.00  0.00    -0.005 A 
ATOM      6  C5  UNL d   1       5.953   1.428   4.752  0.00  0.00     0.003 A 
ATOM      7  C6  UNL d   1       5.260   2.459   5.388  0.00  0.00    -0.001 A 
ENDROOT
TORSDOF 0
ENDMDL
