MODEL 1
REMARK minimizedAffinity 5.03127766
REMARK minimizedRMSD -1
REMARK  0 active torsions:
REMARK  status: ('A' for Active; 'I' for Inactive)
ROOT
ATOM      1  C   UNL d   1      -3.214   1.565  -3.072  0.00  0.00     0.078 C 
ATOM      2  C1  UNL d   1      -2.416   2.337  -4.080  0.00  0.00    -0.077 A 
ATOM      3  C2  UNL d   1      -3.048   3.114  -5.058  0.00  0.00    -0.001 A 
ATOM      4  C3  UNL d   1      -2.293   3.819  -5.996  0.00  0.00     0.003 A 
ATOM      5  C4  UNL d   1      -0.901   3.754  -5.966  0.00  0.00    -0.005 A 
ATOM      6  C5  UNL d   1      -0.263   2.982  -4.997  0.00  0.00     0.003 A 
ATOM      7  C6  UNL d   1      -1.017   2.276  -4.058  0.00  0.00    -0.001 A 
ENDROOT
TORSDOF 0
ENDMDL
