MODEL 1
REMARK minimizedAffinity 3.94546604
REMARK minimizedRMSD -1
REMARK  0 active torsions:
REMARK  status: ('A' for Active; 'I' for Inactive)
ROOT
ATOM      1  C   UNL d   1      -0.322  -5.998   1.875  0.00  0.00     0.078 C 
ATOM      2  C1  UNL d   1      -1.012  -4.673   1.747  0.00  0.00    -0.077 A 
ATOM      3  C2  UNL d   1      -1.857  -4.200   2.758  0.00  0.00    -0.001 A 
ATOM      4  C3  UNL d   1      -2.500  -2.969   2.621  0.00  0.00     0.003 A 
ATOM      5  C4  UNL d   1      -2.306  -2.202   1.474  0.00  0.00    -0.005 A 
ATOM      6  C5  UNL d   1      -1.469  -2.666   0.461  0.00  0.00     0.003 A 
ATOM      7  C6  UNL d   1      -0.825  -3.896   0.597  0.00  0.00    -0.001 A 
ENDROOT
TORSDOF 0
ENDMDL
