MODEL 1
REMARK minimizedAffinity 7.86905193
REMARK minimizedRMSD -1
REMARK  0 active torsions:
REMARK  status: ('A' for Active; 'I' for Inactive)
ROOT
ATOM      1  C   UNL d   1      -1.738  -3.077   0.430  0.00  0.00     0.078 C 
ATOM      2  C1  UNL d   1      -2.255  -1.953  -0.416  0.00  0.00    -0.077 A 
ATOM      3  C2  UNL d   1      -3.407  -1.246  -0.050  0.00  0.00    -0.001 A 
ATOM      4  C3  UNL d   1      -3.883  -0.208  -0.853  0.00  0.00     0.003 A 
ATOM      5  C4  UNL d   1      -3.215   0.131  -2.028  0.00  0.00    -0.005 A 
ATOM      6  C5  UNL d   1      -2.069  -0.569  -2.402  0.00  0.00     0.003 A 
ATOM      7  C6  UNL d   1      -1.591  -1.607  -1.600  0.00  0.00    -0.001 A 
ENDROOT
TORSDOF 0
ENDMDL
