MODEL 1
REMARK minimizedAffinity 3.81679773
REMARK minimizedRMSD -1
REMARK  0 active torsions:
REMARK  status: ('A' for Active; 'I' for Inactive)
ROOT
ATOM      1  C   UNL d   1      -5.461   4.033   5.999  0.00  0.00     0.078 C 
ATOM      2  C1  UNL d   1      -4.977   2.614   5.992  0.00  0.00    -0.077 A 
ATOM      3  C2  UNL d   1      -5.880   1.544   5.995  0.00  0.00    -0.001 A 
ATOM      4  C3  UNL d   1      -5.416   0.228   5.997  0.00  0.00     0.003 A 
ATOM      5  C4  UNL d   1      -4.047  -0.031   5.998  0.00  0.00    -0.005 A 
ATOM      6  C5  UNL d   1      -3.140   1.028   5.996  0.00  0.00     0.003 A 
ATOM      7  C6  UNL d   1      -3.603   2.344   5.994  0.00  0.00    -0.001 A 
ENDROOT
TORSDOF 0
ENDMDL
