MODEL 1
REMARK minimizedAffinity 15.8703699
REMARK minimizedRMSD -1
REMARK  0 active torsions:
REMARK  status: ('A' for Active; 'I' for Inactive)
ROOT
ATOM      1  C   UNL d   1      -3.124   2.805  -4.208  0.00  0.00     0.078 C 
ATOM      2  C1  UNL d   1      -4.134   3.858  -4.553  0.00  0.00    -0.077 A 
ATOM      3  C2  UNL d   1      -4.968   3.719  -5.669  0.00  0.00    -0.001 A 
ATOM      4  C3  UNL d   1      -5.897   4.712  -5.985  0.00  0.00     0.003 A 
ATOM      5  C4  UNL d   1      -6.000   5.852  -5.190  0.00  0.00    -0.005 A 
ATOM      6  C5  UNL d   1      -5.172   6.000  -4.078  0.00  0.00     0.003 A 
ATOM      7  C6  UNL d   1      -4.243   5.008  -3.761  0.00  0.00    -0.001 A 
ENDROOT
TORSDOF 0
ENDMDL
