MODEL 1
REMARK minimizedAffinity 6.52698088
REMARK minimizedRMSD -1
REMARK  0 active torsions:
REMARK  status: ('A' for Active; 'I' for Inactive)
ROOT
ATOM      1  C   UNL d   1      -3.073   2.820  -4.050  0.00  0.00     0.078 C 
ATOM      2  C1  UNL d   1      -4.085   3.849  -4.455  0.00  0.00    -0.077 A 
ATOM      3  C2  UNL d   1      -4.209   5.054  -3.753  0.00  0.00    -0.001 A 
ATOM      4  C3  UNL d   1      -5.163   5.999  -4.135  0.00  0.00     0.003 A 
ATOM      5  C4  UNL d   1      -6.000   5.749  -5.221  0.00  0.00    -0.005 A 
ATOM      6  C5  UNL d   1      -5.885   4.552  -5.924  0.00  0.00     0.003 A 
ATOM      7  C6  UNL d   1      -4.932   3.605  -5.543  0.00  0.00    -0.001 A 
ENDROOT
TORSDOF 0
ENDMDL
