MODEL 1
REMARK minimizedAffinity 5.35140944
REMARK minimizedRMSD -1
REMARK  0 active torsions:
REMARK  status: ('A' for Active; 'I' for Inactive)
ROOT
ATOM      1  C   UNL d   1      -2.652  -0.313  -2.577  0.00  0.00     0.078 C 
ATOM      2  C1  UNL d   1      -2.140  -1.265  -1.537  0.00  0.00    -0.077 A 
ATOM      3  C2  UNL d   1      -2.720  -1.322  -0.264  0.00  0.00    -0.001 A 
ATOM      4  C3  UNL d   1      -2.227  -2.206   0.697  0.00  0.00     0.003 A 
ATOM      5  C4  UNL d   1      -1.150  -3.038   0.396  0.00  0.00    -0.005 A 
ATOM      6  C5  UNL d   1      -0.565  -2.986  -0.868  0.00  0.00     0.003 A 
ATOM      7  C6  UNL d   1      -1.057  -2.103  -1.830  0.00  0.00    -0.001 A 
ENDROOT
TORSDOF 0
ENDMDL
