MODEL 1
REMARK minimizedAffinity 8.16182899
REMARK minimizedRMSD -1
REMARK  0 active torsions:
REMARK  status: ('A' for Active; 'I' for Inactive)
ROOT
ATOM      1  C   UNL d   1       0.386  -5.999   1.935  0.00  0.00     0.078 C 
ATOM      2  C1  UNL d   1      -0.153  -5.288   0.730  0.00  0.00    -0.077 A 
ATOM      3  C2  UNL d   1      -0.442  -3.918   0.770  0.00  0.00    -0.001 A 
ATOM      4  C3  UNL d   1      -0.953  -3.271  -0.356  0.00  0.00     0.003 A 
ATOM      5  C4  UNL d   1      -1.181  -3.986  -1.530  0.00  0.00    -0.005 A 
ATOM      6  C5  UNL d   1      -0.899  -5.349  -1.579  0.00  0.00     0.003 A 
ATOM      7  C6  UNL d   1      -0.388  -5.998  -0.454  0.00  0.00    -0.001 A 
ENDROOT
TORSDOF 0
ENDMDL
