MODEL 1
REMARK minimizedAffinity 5.83187056
REMARK minimizedRMSD -1
REMARK  0 active torsions:
REMARK  status: ('A' for Active; 'I' for Inactive)
ROOT
ATOM      1  C   UNL d   1      -3.777   3.390  -5.997  0.00  0.00     0.078 C 
ATOM      2  C1  UNL d   1      -2.455   3.031  -5.387  0.00  0.00    -0.077 A 
ATOM      3  C2  UNL d   1      -2.385   2.290  -4.201  0.00  0.00    -0.001 A 
ATOM      4  C3  UNL d   1      -1.147   1.972  -3.640  0.00  0.00     0.003 A 
ATOM      5  C4  UNL d   1       0.029   2.391  -4.257  0.00  0.00    -0.005 A 
ATOM      6  C5  UNL d   1      -0.030   3.131  -5.436  0.00  0.00     0.003 A 
ATOM      7  C6  UNL d   1      -1.267   3.450  -5.999  0.00  0.00    -0.001 A 
ENDROOT
TORSDOF 0
ENDMDL
