MODEL 1
REMARK minimizedAffinity 12.5285416
REMARK minimizedRMSD -1
REMARK  0 active torsions:
REMARK  status: ('A' for Active; 'I' for Inactive)
ROOT
ATOM      1  C   UNL d   1       3.334   2.902   0.686  0.00  0.00     0.078 C 
ATOM      2  C1  UNL d   1       2.705   2.023  -0.353  0.00  0.00    -0.077 A 
ATOM      3  C2  UNL d   1       2.613   0.638  -0.166  0.00  0.00    -0.001 A 
ATOM      4  C3  UNL d   1       2.033  -0.170  -1.146  0.00  0.00     0.003 A 
ATOM      5  C4  UNL d   1       1.541   0.398  -2.320  0.00  0.00    -0.005 A 
ATOM      6  C5  UNL d   1       1.630   1.775  -2.516  0.00  0.00     0.003 A 
ATOM      7  C6  UNL d   1       2.210   2.584  -1.537  0.00  0.00    -0.001 A 
ENDROOT
TORSDOF 0
ENDMDL
