MODEL 1
REMARK minimizedAffinity 4.8441329
REMARK minimizedRMSD -1
REMARK  0 active torsions:
REMARK  status: ('A' for Active; 'I' for Inactive)
ROOT
ATOM      1  C   UNL d   1      -0.866   3.756  -5.273  0.00  0.00     0.078 C 
ATOM      2  C1  UNL d   1      -2.277   4.263  -5.267  0.00  0.00    -0.077 A 
ATOM      3  C2  UNL d   1      -3.280   3.615  -5.999  0.00  0.00    -0.001 A 
ATOM      4  C3  UNL d   1      -4.587   4.104  -5.991  0.00  0.00     0.003 A 
ATOM      5  C4  UNL d   1      -4.904   5.243  -5.255  0.00  0.00    -0.005 A 
ATOM      6  C5  UNL d   1      -3.913   5.896  -4.525  0.00  0.00     0.003 A 
ATOM      7  C6  UNL d   1      -2.605   5.409  -4.531  0.00  0.00    -0.001 A 
ENDROOT
TORSDOF 0
ENDMDL
