MODEL 1
REMARK minimizedAffinity 7.70832396
REMARK minimizedRMSD -1
REMARK  0 active torsions:
REMARK  status: ('A' for Active; 'I' for Inactive)
ROOT
ATOM      1  C   UNL d   1      -1.873  -1.495   5.945  0.00  0.00     0.078 C 
ATOM      2  C1  UNL d   1      -2.892  -0.395   5.935  0.00  0.00    -0.077 A 
ATOM      3  C2  UNL d   1      -2.503   0.949   6.000  0.00  0.00    -0.001 A 
ATOM      4  C3  UNL d   1      -3.462   1.962   5.999  0.00  0.00     0.003 A 
ATOM      5  C4  UNL d   1      -4.817   1.643   5.936  0.00  0.00    -0.005 A 
ATOM      6  C5  UNL d   1      -5.214   0.309   5.873  0.00  0.00     0.003 A 
ATOM      7  C6  UNL d   1      -4.256  -0.706   5.873  0.00  0.00    -0.001 A 
ENDROOT
TORSDOF 0
ENDMDL
