MODEL 1
REMARK minimizedAffinity 12.4730692
REMARK minimizedRMSD -1
REMARK  0 active torsions:
REMARK  status: ('A' for Active; 'I' for Inactive)
ROOT
ATOM      1  C   UNL d   1      -2.256  -2.596   1.356  0.00  0.00     0.078 C 
ATOM      2  C1  UNL d   1      -2.144  -2.699   2.847  0.00  0.00    -0.077 A 
ATOM      3  C2  UNL d   1      -2.759  -3.745   3.546  0.00  0.00    -0.001 A 
ATOM      4  C3  UNL d   1      -2.655  -3.823   4.936  0.00  0.00     0.003 A 
ATOM      5  C4  UNL d   1      -1.937  -2.857   5.639  0.00  0.00    -0.005 A 
ATOM      6  C5  UNL d   1      -1.323  -1.812   4.952  0.00  0.00     0.003 A 
ATOM      7  C6  UNL d   1      -1.426  -1.732   3.562  0.00  0.00    -0.001 A 
ENDROOT
TORSDOF 0
ENDMDL
