MODEL 1
REMARK minimizedAffinity -2.72241497
REMARK minimizedRMSD -1
REMARK  0 active torsions:
REMARK  status: ('A' for Active; 'I' for Inactive)
ROOT
ATOM      1  C   UNL d   1      -0.325   1.761   1.898  0.00  0.00     0.172 C 
ATOM      2  N   UNL d   1      -0.218   0.726   0.897  0.00  0.00    -0.070 N 
ATOM      3  C1  UNL d   1       0.258   0.893  -0.376  0.00  0.00    -0.004 A 
ATOM      4  C2  UNL d   1       0.198  -0.327  -1.013  0.00  0.00    -0.047 A 
ATOM      5  C3  UNL d   1      -0.333  -1.260  -0.091  0.00  0.00    -0.047 A 
ATOM      6  C4  UNL d   1      -0.582  -0.582   1.083  0.00  0.00    -0.004 A 
ENDROOT
TORSDOF 0
ENDMDL
