MODEL 1
REMARK minimizedAffinity -1.83518791
REMARK minimizedRMSD -1
REMARK  0 active torsions:
REMARK  status: ('A' for Active; 'I' for Inactive)
ROOT
ATOM      1  C   UNL d   1      -1.116   2.128  -1.577  0.00  0.00     0.172 C 
ATOM      2  N   UNL d   1      -0.266   1.094  -1.035  0.00  0.00    -0.070 N 
ATOM      3  C1  UNL d   1       0.499   0.225  -1.766  0.00  0.00    -0.004 A 
ATOM      4  C2  UNL d   1       1.159  -0.602  -0.883  0.00  0.00    -0.047 A 
ATOM      5  C3  UNL d   1       0.775  -0.218   0.424  0.00  0.00    -0.047 A 
ATOM      6  C4  UNL d   1      -0.107   0.834   0.301  0.00  0.00    -0.004 A 
ENDROOT
TORSDOF 0
ENDMDL
