MODEL 1
REMARK minimizedAffinity -1.71852589
REMARK minimizedRMSD -1
REMARK  0 active torsions:
REMARK  status: ('A' for Active; 'I' for Inactive)
ROOT
ATOM      1  C   UNL d   1      -0.019   1.188  -2.087  0.00  0.00     0.172 C 
ATOM      2  N   UNL d   1       0.224   0.491  -0.846  0.00  0.00    -0.070 N 
ATOM      3  C1  UNL d   1       0.515  -0.841  -0.722  0.00  0.00    -0.004 A 
ATOM      4  C2  UNL d   1       0.678  -1.115   0.619  0.00  0.00    -0.047 A 
ATOM      5  C3  UNL d   1       0.477   0.095   1.325  0.00  0.00    -0.047 A 
ATOM      6  C4  UNL d   1       0.198   1.073   0.394  0.00  0.00    -0.004 A 
ENDROOT
TORSDOF 0
ENDMDL
