MODEL 1
REMARK minimizedAffinity -4.14304781
REMARK minimizedRMSD -1
REMARK  0 active torsions:
REMARK  status: ('A' for Active; 'I' for Inactive)
ROOT
ATOM      1  C   UNL d   1       0.472  -0.080  -0.645  0.00  0.00     0.172 C 
ATOM      2  N   UNL d   1      -0.248   0.993   0.000  0.00  0.00    -0.070 N 
ATOM      3  C1  UNL d   1      -0.637   1.017   1.313  0.00  0.00    -0.004 A 
ATOM      4  C2  UNL d   1      -1.295   2.207   1.537  0.00  0.00    -0.047 A 
ATOM      5  C3  UNL d   1      -1.302   2.923   0.316  0.00  0.00    -0.047 A 
ATOM      6  C4  UNL d   1      -0.648   2.148  -0.618  0.00  0.00    -0.004 A 
ENDROOT
TORSDOF 0
ENDMDL
