MODEL 1
REMARK minimizedAffinity 4.72786283
REMARK minimizedRMSD -1
REMARK  0 active torsions:
REMARK  status: ('A' for Active; 'I' for Inactive)
ROOT
ATOM      1  C   UNL d   1       5.781  -3.781   6.000  0.00  0.00     0.023 A 
ATOM      2  C1  UNL d   1       5.337  -4.673   5.023  0.00  0.00     0.003 A 
ATOM      3  C2  UNL d   1       4.655  -4.198   3.901  0.00  0.00     0.048 A 
ATOM      4  C3  UNL d   1       4.422  -2.831   3.761  0.00  0.00     0.023 A 
ATOM      5  C4  UNL d   1       4.865  -1.935   4.735  0.00  0.00     0.048 A 
ATOM      6  C5  UNL d   1       5.545  -2.414   5.856  0.00  0.00     0.003 A 
ATOM      7  I   UNL d   1       3.407  -2.122   2.091  0.00  0.00    -0.146 I 
ENDROOT
TORSDOF 0
ENDMDL
