MODEL 1
REMARK minimizedAffinity 11.0948515
REMARK minimizedRMSD -1
REMARK  0 active torsions:
REMARK  status: ('A' for Active; 'I' for Inactive)
ROOT
ATOM      1  C   UNL d   1      -0.034   4.511   2.436  0.00  0.00     0.023 A 
ATOM      2  C1  UNL d   1       0.104   4.070   1.120  0.00  0.00     0.003 A 
ATOM      3  C2  UNL d   1       1.253   3.378   0.731  0.00  0.00     0.048 A 
ATOM      4  C3  UNL d   1       2.259   3.129   1.663  0.00  0.00     0.023 A 
ATOM      5  C4  UNL d   1       2.125   3.567   2.982  0.00  0.00     0.048 A 
ATOM      6  C5  UNL d   1       0.975   4.260   3.366  0.00  0.00     0.003 A 
ATOM      7  I   UNL d   1       3.969   2.098   1.087  0.00  0.00    -0.146 I 
ENDROOT
TORSDOF 0
ENDMDL
