MODEL 1
REMARK minimizedAffinity -0.358985901
REMARK minimizedRMSD -1
REMARK  0 active torsions:
REMARK  status: ('A' for Active; 'I' for Inactive)
ROOT
ATOM      1  C   UNL d   1      -1.344  -0.123   1.032  0.00  0.00     0.023 A 
ATOM      2  C1  UNL d   1      -1.123  -0.779   2.243  0.00  0.00     0.003 A 
ATOM      3  C2  UNL d   1      -0.140  -1.766   2.335  0.00  0.00     0.048 A 
ATOM      4  C3  UNL d   1       0.620  -2.092   1.212  0.00  0.00     0.023 A 
ATOM      5  C4  UNL d   1       0.404  -1.438  -0.002  0.00  0.00     0.048 A 
ATOM      6  C5  UNL d   1      -0.581  -0.452  -0.089  0.00  0.00     0.003 A 
ATOM      7  I   UNL d   1       2.085  -3.560   1.347  0.00  0.00    -0.146 I 
ENDROOT
TORSDOF 0
ENDMDL
