MODEL 1
REMARK minimizedAffinity -3.97680068
REMARK minimizedRMSD -1
REMARK  0 active torsions:
REMARK  status: ('A' for Active; 'I' for Inactive)
ROOT
ATOM      1  C   UNL d   1       3.662  -4.276   2.556  0.00  0.00     0.023 A 
ATOM      2  C1  UNL d   1       3.706  -3.250   3.501  0.00  0.00     0.003 A 
ATOM      3  C2  UNL d   1       2.741  -2.241   3.484  0.00  0.00     0.048 A 
ATOM      4  C3  UNL d   1       1.734  -2.265   2.520  0.00  0.00     0.023 A 
ATOM      5  C4  UNL d   1       1.684  -3.289   1.574  0.00  0.00     0.048 A 
ATOM      6  C5  UNL d   1       2.652  -4.295   1.594  0.00  0.00     0.003 A 
ATOM      7  I   UNL d   1       0.296  -0.764   2.494  0.00  0.00    -0.146 I 
ENDROOT
TORSDOF 0
ENDMDL
