MODEL 1
REMARK minimizedAffinity 2.01532745
REMARK minimizedRMSD -1
REMARK  0 active torsions:
REMARK  status: ('A' for Active; 'I' for Inactive)
ROOT
ATOM      1  C   UNL d   1       2.768  -4.135   1.118  0.00  0.00     0.023 A 
ATOM      2  C1  UNL d   1       1.850  -3.796   2.112  0.00  0.00     0.003 A 
ATOM      3  C2  UNL d   1       2.273  -3.649   3.434  0.00  0.00     0.048 A 
ATOM      4  C3  UNL d   1       3.616  -3.840   3.756  0.00  0.00     0.023 A 
ATOM      5  C4  UNL d   1       4.539  -4.179   2.765  0.00  0.00     0.048 A 
ATOM      6  C5  UNL d   1       4.111  -4.326   1.444  0.00  0.00     0.003 A 
ATOM      7  I   UNL d   1       4.248  -3.621   5.724  0.00  0.00    -0.146 I 
ENDROOT
TORSDOF 0
ENDMDL
