MODEL 1
REMARK minimizedAffinity 0.149744526
REMARK minimizedRMSD -1
REMARK  0 active torsions:
REMARK  status: ('A' for Active; 'I' for Inactive)
ROOT
ATOM      1  C   UNL d   1      -1.627   0.293   2.301  0.00  0.00     0.023 A 
ATOM      2  C1  UNL d   1      -1.130   0.502   1.015  0.00  0.00     0.003 A 
ATOM      3  C2  UNL d   1      -0.105  -0.307   0.520  0.00  0.00     0.048 A 
ATOM      4  C3  UNL d   1       0.417  -1.326   1.317  0.00  0.00     0.023 A 
ATOM      5  C4  UNL d   1      -0.078  -1.540   2.604  0.00  0.00     0.048 A 
ATOM      6  C5  UNL d   1      -1.102  -0.727   3.095  0.00  0.00     0.003 A 
ATOM      7  I   UNL d   1       1.941  -2.532   0.583  0.00  0.00    -0.146 I 
ENDROOT
TORSDOF 0
ENDMDL
