MODEL 1
REMARK minimizedAffinity -2.48091674
REMARK minimizedRMSD -1
REMARK  0 active torsions:
REMARK  status: ('A' for Active; 'I' for Inactive)
ROOT
ATOM      1  C   UNL d   1      -1.044  -0.014   1.576  0.00  0.00     0.023 A 
ATOM      2  C1  UNL d   1      -0.714  -0.795   2.684  0.00  0.00     0.003 A 
ATOM      3  C2  UNL d   1       0.259  -1.791   2.573  0.00  0.00     0.048 A 
ATOM      4  C3  UNL d   1       0.898  -2.000   1.352  0.00  0.00     0.023 A 
ATOM      5  C4  UNL d   1       0.572  -1.221   0.241  0.00  0.00     0.048 A 
ATOM      6  C5  UNL d   1      -0.402  -0.227   0.356  0.00  0.00     0.003 A 
ATOM      7  I   UNL d   1       2.346  -3.482   1.185  0.00  0.00    -0.146 I 
ENDROOT
TORSDOF 0
ENDMDL
