MODEL 1
REMARK minimizedAffinity 5.23888683
REMARK minimizedRMSD -1
REMARK  0 active torsions:
REMARK  status: ('A' for Active; 'I' for Inactive)
ROOT
ATOM      1  C   UNL d   1       4.420   3.498   2.182  0.00  0.00     0.023 A 
ATOM      2  C1  UNL d   1       5.590   2.839   2.559  0.00  0.00     0.003 A 
ATOM      3  C2  UNL d   1       6.000   1.694   1.871  0.00  0.00     0.048 A 
ATOM      4  C3  UNL d   1       5.236   1.216   0.808  0.00  0.00     0.023 A 
ATOM      5  C4  UNL d   1       4.065   1.873   0.426  0.00  0.00     0.048 A 
ATOM      6  C5  UNL d   1       3.659   3.016   1.117  0.00  0.00     0.003 A 
ATOM      7  I   UNL d   1       5.845  -0.487  -0.217  0.00  0.00    -0.146 I 
ENDROOT
TORSDOF 0
ENDMDL
