MODEL 1
REMARK minimizedAffinity 1.15936077
REMARK minimizedRMSD -1
REMARK  0 active torsions:
REMARK  status: ('A' for Active; 'I' for Inactive)
ROOT
ATOM      1  C   UNL d   1       3.153  -2.955   0.090  0.00  0.00     0.023 A 
ATOM      2  C1  UNL d   1       4.504  -3.114   0.397  0.00  0.00     0.003 A 
ATOM      3  C2  UNL d   1       4.943  -2.975   1.715  0.00  0.00     0.048 A 
ATOM      4  C3  UNL d   1       4.024  -2.679   2.722  0.00  0.00     0.023 A 
ATOM      5  C4  UNL d   1       2.671  -2.520   2.419  0.00  0.00     0.048 A 
ATOM      6  C5  UNL d   1       2.237  -2.659   1.099  0.00  0.00     0.003 A 
ATOM      7  I   UNL d   1       4.674  -2.471   4.685  0.00  0.00    -0.146 I 
ENDROOT
TORSDOF 0
ENDMDL
