MODEL 1
REMARK minimizedAffinity 6.23666286
REMARK minimizedRMSD -1
REMARK  0 active torsions:
REMARK  status: ('A' for Active; 'I' for Inactive)
ROOT
ATOM      1  C   UNL d   1       6.000   1.564   0.798  0.00  0.00     0.023 A 
ATOM      2  C1  UNL d   1       4.872   2.339   0.527  0.00  0.00     0.003 A 
ATOM      3  C2  UNL d   1       3.679   1.726   0.138  0.00  0.00     0.048 A 
ATOM      4  C3  UNL d   1       3.621   0.337   0.024  0.00  0.00     0.023 A 
ATOM      5  C4  UNL d   1       4.746  -0.442   0.295  0.00  0.00     0.048 A 
ATOM      6  C5  UNL d   1       5.937   0.175   0.683  0.00  0.00     0.003 A 
ATOM      7  I   UNL d   1       1.846  -0.577  -0.555  0.00  0.00    -0.146 I 
ENDROOT
TORSDOF 0
ENDMDL
