MODEL 1
REMARK minimizedAffinity 0.180388287
REMARK minimizedRMSD -1
REMARK  0 active torsions:
REMARK  status: ('A' for Active; 'I' for Inactive)
ROOT
ATOM      1  C   UNL d   1       4.977   0.276  -4.888  0.00  0.00     0.023 A 
ATOM      2  C1  UNL d   1       5.999   1.127  -4.469  0.00  0.00     0.003 A 
ATOM      3  C2  UNL d   1       5.952   2.486  -4.787  0.00  0.00     0.048 A 
ATOM      4  C3  UNL d   1       4.880   2.987  -5.525  0.00  0.00     0.023 A 
ATOM      5  C4  UNL d   1       3.854   2.139  -5.946  0.00  0.00     0.048 A 
ATOM      6  C5  UNL d   1       3.906   0.781  -5.626  0.00  0.00     0.003 A 
ATOM      7  I   UNL d   1       4.808   5.009  -5.999  0.00  0.00    -0.146 I 
ENDROOT
TORSDOF 0
ENDMDL
