MODEL 1
REMARK minimizedAffinity 8.75103951
REMARK minimizedRMSD -1
REMARK  0 active torsions:
REMARK  status: ('A' for Active; 'I' for Inactive)
ROOT
ATOM      1  C   UNL d   1       4.277  -4.816   1.262  0.00  0.00     0.023 A 
ATOM      2  C1  UNL d   1       3.317  -4.584   0.277  0.00  0.00     0.003 A 
ATOM      3  C2  UNL d   1       2.293  -3.661   0.501  0.00  0.00     0.048 A 
ATOM      4  C3  UNL d   1       2.237  -2.972   1.712  0.00  0.00     0.023 A 
ATOM      5  C4  UNL d   1       3.196  -3.200   2.700  0.00  0.00     0.048 A 
ATOM      6  C5  UNL d   1       4.217  -4.125   2.472  0.00  0.00     0.003 A 
ATOM      7  I   UNL d   1       0.715  -1.598   2.048  0.00  0.00    -0.146 I 
ENDROOT
TORSDOF 0
ENDMDL
