MODEL 1
REMARK minimizedAffinity -3.29818654
REMARK minimizedRMSD -1
REMARK  2 active torsions:
REMARK  status: ('A' for Active; 'I' for Inactive)
REMARK    1  A    between atoms: C2'_3  and  C1'_4 
REMARK    2  A    between atoms: C1'_4  and  C1_5 
ROOT
ATOM      1  C1  I4B d   1       1.513   2.872  -0.832  0.00  0.00    -0.075 A 
ATOM      2  C2  I4B d   1       1.511   1.773  -0.009  0.00  0.00     0.003 A 
ATOM      3  C3  I4B d   1       1.163   0.500  -0.521  0.00  0.00     0.002 A 
ATOM      4  C4  I4B d   1       0.777   0.380  -1.841  0.00  0.00    -0.004 A 
ATOM      5  C5  I4B d   1       0.801   1.491  -2.679  0.00  0.00     0.002 A 
ATOM      6  C6  I4B d   1       1.183   2.743  -2.175  0.00  0.00     0.003 A 
ENDROOT
BRANCH   1   7
ATOM      7  C1' I4B d   1       1.854   4.207  -0.250  0.00  0.00     0.060 C 
BRANCH   7   8
ATOM      8  C2' I4B d   1       2.164   5.149  -1.396  0.00  0.00    -0.013 C 
ATOM      9  C4' I4B d   1       0.970   6.000  -1.741  0.00  0.00     0.013 C 
ATOM     10  C3' I4B d   1       3.334   5.997  -0.994  0.00  0.00     0.013 C 
ENDBRANCH   7   8
ENDBRANCH   1   7
TORSDOF 2
ENDMDL
