MODEL 1
REMARK minimizedAffinity -0.330834568
REMARK minimizedRMSD -1
REMARK  2 active torsions:
REMARK  status: ('A' for Active; 'I' for Inactive)
REMARK    1  A    between atoms: C2'_3  and  C1'_4 
REMARK    2  A    between atoms: C1'_4  and  C1_5 
ROOT
ATOM      1  C1  I4B d   1       1.980   2.904  -1.167  0.00  0.00    -0.075 A 
ATOM      2  C2  I4B d   1       1.682   1.852  -1.997  0.00  0.00     0.003 A 
ATOM      3  C3  I4B d   1       1.181   0.641  -1.461  0.00  0.00     0.002 A 
ATOM      4  C4  I4B d   1       1.041   0.509  -0.095  0.00  0.00    -0.004 A 
ATOM      5  C5  I4B d   1       1.321   1.585   0.743  0.00  0.00     0.002 A 
ATOM      6  C6  I4B d   1       1.782   2.794   0.203  0.00  0.00     0.003 A 
ENDROOT
BRANCH   1   7
ATOM      7  C1' I4B d   1       2.539   4.157  -1.764  0.00  0.00     0.060 C 
BRANCH   7   8
ATOM      8  C2' I4B d   1       2.769   5.147  -0.640  0.00  0.00    -0.013 C 
ATOM      9  C4' I4B d   1       3.992   5.988  -0.896  0.00  0.00     0.013 C 
ATOM     10  C3' I4B d   1       1.542   5.999  -0.515  0.00  0.00     0.013 C 
ENDBRANCH   7   8
ENDBRANCH   1   7
TORSDOF 2
ENDMDL
