MODEL 1
REMARK minimizedAffinity 9.35671425
REMARK minimizedRMSD -1
REMARK  2 active torsions:
REMARK  status: ('A' for Active; 'I' for Inactive)
REMARK    1  A    between atoms: C2'_3  and  C1'_4 
REMARK    2  A    between atoms: C1'_4  and  C1_5 
ROOT
ATOM      1  C1  I4B d   1       0.141   0.906  -1.453  0.00  0.00    -0.075 A 
ATOM      2  C2  I4B d   1       1.121   1.713  -1.976  0.00  0.00     0.003 A 
ATOM      3  C3  I4B d   1       2.459   1.591  -1.529  0.00  0.00     0.002 A 
ATOM      4  C4  I4B d   1       2.761   0.691  -0.528  0.00  0.00    -0.004 A 
ATOM      5  C5  I4B d   1       1.771  -0.142  -0.015  0.00  0.00     0.002 A 
ATOM      6  C6  I4B d   1       0.455  -0.043  -0.489  0.00  0.00     0.003 A 
ENDROOT
BRANCH   1   7
ATOM      7  C1' I4B d   1      -1.267   1.084  -1.925  0.00  0.00     0.060 C 
BRANCH   7   8
ATOM      8  C2' I4B d   1      -1.631   2.547  -1.766  0.00  0.00    -0.013 C 
ATOM      9  C4' I4B d   1      -1.763   3.224  -3.104  0.00  0.00     0.013 C 
ATOM     10  C3' I4B d   1      -2.913   2.623  -0.992  0.00  0.00     0.013 C 
ENDBRANCH   7   8
ENDBRANCH   1   7
TORSDOF 2
ENDMDL
