MODEL 1
REMARK minimizedAffinity -0.89751327
REMARK minimizedRMSD -1
REMARK  2 active torsions:
REMARK  status: ('A' for Active; 'I' for Inactive)
REMARK    1  A    between atoms: C2'_3  and  C1'_4 
REMARK    2  A    between atoms: C1'_4  and  C1_5 
ROOT
ATOM      1  C1  I4B d   1       1.478   2.175  -0.205  0.00  0.00    -0.075 A 
ATOM      2  C2  I4B d   1       1.010   1.397   0.824  0.00  0.00     0.003 A 
ATOM      3  C3  I4B d   1       0.740   0.023   0.613  0.00  0.00     0.002 A 
ATOM      4  C4  I4B d   1       0.903  -0.517  -0.647  0.00  0.00    -0.004 A 
ATOM      5  C5  I4B d   1       1.400   0.268  -1.683  0.00  0.00     0.002 A 
ATOM      6  C6  I4B d   1       1.701   1.620  -1.459  0.00  0.00     0.003 A 
ENDROOT
BRANCH   1   7
ATOM      7  C1' I4B d   1       1.721   3.629   0.044  0.00  0.00     0.060 C 
BRANCH   7   8
ATOM      8  C2' I4B d   1       2.160   4.260  -1.262  0.00  0.00    -0.013 C 
ATOM      9  C4' I4B d   1       1.187   3.952  -2.370  0.00  0.00     0.013 C 
ATOM     10  C3' I4B d   1       2.283   5.738  -1.044  0.00  0.00     0.013 C 
ENDBRANCH   7   8
ENDBRANCH   1   7
TORSDOF 2
ENDMDL
