MODEL 1
REMARK minimizedAffinity -5.83156967
REMARK minimizedRMSD -1
REMARK  2 active torsions:
REMARK  status: ('A' for Active; 'I' for Inactive)
REMARK    1  A    between atoms: C2'_3  and  C1'_4 
REMARK    2  A    between atoms: C1'_4  and  C1_5 
ROOT
ATOM      1  C1  I4B d   1       0.355   0.723   0.418  0.00  0.00    -0.075 A 
ATOM      2  C2  I4B d   1      -0.158  -0.101  -0.553  0.00  0.00     0.003 A 
ATOM      3  C3  I4B d   1       0.543  -0.293  -1.768  0.00  0.00     0.002 A 
ATOM      4  C4  I4B d   1       1.721   0.392  -1.989  0.00  0.00    -0.004 A 
ATOM      5  C5  I4B d   1       2.251   1.208  -0.994  0.00  0.00     0.002 A 
ATOM      6  C6  I4B d   1       1.570   1.366   0.222  0.00  0.00     0.003 A 
ENDROOT
BRANCH   1   7
ATOM      7  C1' I4B d   1      -0.428   0.929   1.675  0.00  0.00     0.060 C 
BRANCH   7   8
ATOM      8  C2' I4B d   1      -1.877   1.154   1.292  0.00  0.00    -0.013 C 
ATOM      9  C4' I4B d   1      -2.762   0.069   1.846  0.00  0.00     0.013 C 
ATOM     10  C3' I4B d   1      -2.287   2.502   1.804  0.00  0.00     0.013 C 
ENDBRANCH   7   8
ENDBRANCH   1   7
TORSDOF 2
ENDMDL
