MODEL 1
REMARK minimizedAffinity 12.1548281
REMARK minimizedRMSD -1
REMARK  2 active torsions:
REMARK  status: ('A' for Active; 'I' for Inactive)
REMARK    1  A    between atoms: C2'_3  and  C1'_4 
REMARK    2  A    between atoms: C1'_4  and  C1_5 
ROOT
ATOM      1  C1  I4B d   1      -3.044   3.115   1.670  0.00  0.00    -0.075 A 
ATOM      2  C2  I4B d   1      -3.841   2.076   2.084  0.00  0.00     0.003 A 
ATOM      3  C3  I4B d   1      -3.604   1.449   3.331  0.00  0.00     0.002 A 
ATOM      4  C4  I4B d   1      -2.536   1.856   4.104  0.00  0.00    -0.004 A 
ATOM      5  C5  I4B d   1      -1.743   2.924   3.694  0.00  0.00     0.002 A 
ATOM      6  C6  I4B d   1      -2.006   3.566   2.475  0.00  0.00     0.003 A 
ENDROOT
BRANCH   1   7
ATOM      7  C1' I4B d   1      -3.303   3.733   0.333  0.00  0.00     0.060 C 
BRANCH   7   8
ATOM      8  C2' I4B d   1      -3.002   2.693  -0.728  0.00  0.00    -0.013 C 
ATOM      9  C4' I4B d   1      -3.072   3.288  -2.110  0.00  0.00     0.013 C 
ATOM     10  C3' I4B d   1      -1.641   2.128  -0.450  0.00  0.00     0.013 C 
ENDBRANCH   7   8
ENDBRANCH   1   7
TORSDOF 2
ENDMDL
