MODEL 1
REMARK minimizedAffinity 14.256608
REMARK minimizedRMSD -1
REMARK  2 active torsions:
REMARK  status: ('A' for Active; 'I' for Inactive)
REMARK    1  A    between atoms: C2'_3  and  C1'_4 
REMARK    2  A    between atoms: C1'_4  and  C1_5 
ROOT
ATOM      1  C1  I4B d   1       1.036   1.691  -0.956  0.00  0.00    -0.075 A 
ATOM      2  C2  I4B d   1       1.903   2.699  -1.299  0.00  0.00     0.003 A 
ATOM      3  C3  I4B d   1       1.584   3.583  -2.357  0.00  0.00     0.002 A 
ATOM      4  C4  I4B d   1       0.421   3.394  -3.075  0.00  0.00    -0.004 A 
ATOM      5  C5  I4B d   1      -0.468   2.386  -2.711  0.00  0.00     0.002 A 
ATOM      6  C6  I4B d   1      -0.165   1.537  -1.637  0.00  0.00     0.003 A 
ENDROOT
BRANCH   1   7
ATOM      7  C1' I4B d   1       1.419   0.755   0.146  0.00  0.00     0.060 C 
BRANCH   7   8
ATOM      8  C2' I4B d   1       2.180   1.547   1.189  0.00  0.00    -0.013 C 
ATOM      9  C4' I4B d   1       1.356   2.695   1.711  0.00  0.00     0.013 C 
ATOM     10  C3' I4B d   1       2.564   0.610   2.294  0.00  0.00     0.013 C 
ENDBRANCH   7   8
ENDBRANCH   1   7
TORSDOF 2
ENDMDL
