MODEL 1
REMARK minimizedAffinity -1.99901819
REMARK minimizedRMSD -1
REMARK  2 active torsions:
REMARK  status: ('A' for Active; 'I' for Inactive)
REMARK    1  A    between atoms: C2'_3  and  C1'_4 
REMARK    2  A    between atoms: C1'_4  and  C1_5 
ROOT
ATOM      1  C1  I4B d   1       1.431  -1.363  -0.519  0.00  0.00    -0.075 A 
ATOM      2  C2  I4B d   1       1.562  -2.307   0.469  0.00  0.00     0.003 A 
ATOM      3  C3  I4B d   1       0.813  -3.507   0.411  0.00  0.00     0.002 A 
ATOM      4  C4  I4B d   1      -0.086  -3.699  -0.618  0.00  0.00    -0.004 A 
ATOM      5  C5  I4B d   1      -0.200  -2.751  -1.631  0.00  0.00     0.002 A 
ATOM      6  C6  I4B d   1       0.572  -1.581  -1.588  0.00  0.00     0.003 A 
ENDROOT
BRANCH   1   7
ATOM      7  C1' I4B d   1       2.212  -0.092  -0.410  0.00  0.00     0.060 C 
BRANCH   7   8
ATOM      8  C2' I4B d   1       1.252   1.064  -0.604  0.00  0.00    -0.013 C 
ATOM      9  C4' I4B d   1       1.269   1.991   0.583  0.00  0.00     0.013 C 
ATOM     10  C3' I4B d   1       1.643   1.785  -1.859  0.00  0.00     0.013 C 
ENDBRANCH   7   8
ENDBRANCH   1   7
TORSDOF 2
ENDMDL
