MODEL 1
REMARK minimizedAffinity 3.79308295
REMARK minimizedRMSD -1
REMARK  2 active torsions:
REMARK  status: ('A' for Active; 'I' for Inactive)
REMARK    1  A    between atoms: C2'_3  and  C1'_4 
REMARK    2  A    between atoms: C1'_4  and  C1_5 
ROOT
ATOM      1  C1  I4B d   1       1.047  -0.996  -0.996  0.00  0.00    -0.075 A 
ATOM      2  C2  I4B d   1       0.524  -0.194  -1.980  0.00  0.00     0.003 A 
ATOM      3  C3  I4B d   1       0.487   1.211  -1.810  0.00  0.00     0.002 A 
ATOM      4  C4  I4B d   1       0.933   1.764  -0.627  0.00  0.00    -0.004 A 
ATOM      5  C5  I4B d   1       1.483   0.952   0.360  0.00  0.00     0.002 A 
ATOM      6  C6  I4B d   1       1.552  -0.436   0.170  0.00  0.00     0.003 A 
ENDROOT
BRANCH   1   7
ATOM      7  C1' I4B d   1       1.040  -2.478  -1.195  0.00  0.00     0.060 C 
BRANCH   7   8
ATOM      8  C2' I4B d   1      -0.388  -2.907  -1.464  0.00  0.00    -0.013 C 
ATOM      9  C4' I4B d   1      -0.632  -3.095  -2.938  0.00  0.00     0.013 C 
ATOM     10  C3' I4B d   1      -0.640  -4.177  -0.708  0.00  0.00     0.013 C 
ENDBRANCH   7   8
ENDBRANCH   1   7
TORSDOF 2
ENDMDL
