MODEL 1
REMARK minimizedAffinity 2.58213735
REMARK minimizedRMSD -1
REMARK  0 active torsions:
REMARK  status: ('A' for Active; 'I' for Inactive)
ROOT
ATOM      1  C   UNL d   1       1.235  -2.572   3.197  0.00  0.00     0.078 C 
ATOM      2  C1  UNL d   1       0.031  -1.711   2.962  0.00  0.00    -0.077 A 
ATOM      3  C2  UNL d   1      -0.402  -0.796   3.929  0.00  0.00    -0.001 A 
ATOM      4  C3  UNL d   1      -1.531  -0.007   3.701  0.00  0.00     0.003 A 
ATOM      5  C4  UNL d   1      -2.237  -0.126   2.505  0.00  0.00    -0.005 A 
ATOM      6  C5  UNL d   1      -1.815  -1.035   1.537  0.00  0.00     0.003 A 
ATOM      7  C6  UNL d   1      -0.687  -1.825   1.764  0.00  0.00    -0.001 A 
ENDROOT
TORSDOF 0
ENDMDL
