MODEL 1
REMARK minimizedAffinity 13.2683477
REMARK minimizedRMSD -1
REMARK  0 active torsions:
REMARK  status: ('A' for Active; 'I' for Inactive)
ROOT
ATOM      1  C   UNL d   1       1.008  -1.771   2.696  0.00  0.00     0.078 C 
ATOM      2  C1  UNL d   1      -0.325  -1.199   2.319  0.00  0.00    -0.077 A 
ATOM      3  C2  UNL d   1      -0.876  -0.125   3.029  0.00  0.00    -0.001 A 
ATOM      4  C3  UNL d   1      -2.123   0.392   2.673  0.00  0.00     0.003 A 
ATOM      5  C4  UNL d   1      -2.830  -0.160   1.608  0.00  0.00    -0.005 A 
ATOM      6  C5  UNL d   1      -2.292  -1.230   0.897  0.00  0.00     0.003 A 
ATOM      7  C6  UNL d   1      -1.045  -1.748   1.251  0.00  0.00    -0.001 A 
ENDROOT
TORSDOF 0
ENDMDL
