MODEL 1
REMARK minimizedAffinity 0.675964952
REMARK minimizedRMSD -1
REMARK  0 active torsions:
REMARK  status: ('A' for Active; 'I' for Inactive)
ROOT
ATOM      1  C   UNL d   1      -5.675  -2.739   5.156  0.00  0.00     0.078 C 
ATOM      2  C1  UNL d   1      -5.646  -3.732   4.033  0.00  0.00    -0.077 A 
ATOM      3  C2  UNL d   1      -5.281  -3.347   2.738  0.00  0.00    -0.001 A 
ATOM      4  C3  UNL d   1      -5.267  -4.280   1.700  0.00  0.00     0.003 A 
ATOM      5  C4  UNL d   1      -5.619  -5.606   1.948  0.00  0.00    -0.005 A 
ATOM      6  C5  UNL d   1      -5.986  -5.999   3.233  0.00  0.00     0.003 A 
ATOM      7  C6  UNL d   1      -6.000  -5.066   4.272  0.00  0.00    -0.001 A 
ENDROOT
TORSDOF 0
ENDMDL
