MODEL 1
REMARK minimizedAffinity 11.6001682
REMARK minimizedRMSD -1
REMARK  0 active torsions:
REMARK  status: ('A' for Active; 'I' for Inactive)
ROOT
ATOM      1  C   UNL d   1      -1.172  -0.661   0.660  0.00  0.00     0.078 C 
ATOM      2  C1  UNL d   1      -0.445  -1.472   1.690  0.00  0.00    -0.077 A 
ATOM      3  C2  UNL d   1      -0.143  -2.820   1.466  0.00  0.00    -0.001 A 
ATOM      4  C3  UNL d   1       0.526  -3.565   2.438  0.00  0.00     0.003 A 
ATOM      5  C4  UNL d   1       0.897  -2.971   3.643  0.00  0.00    -0.005 A 
ATOM      6  C5  UNL d   1       0.598  -1.630   3.876  0.00  0.00     0.003 A 
ATOM      7  C6  UNL d   1      -0.070  -0.883   2.905  0.00  0.00    -0.001 A 
ENDROOT
TORSDOF 0
ENDMDL
