MODEL 1
REMARK minimizedAffinity 5.69566488
REMARK minimizedRMSD -1
REMARK  0 active torsions:
REMARK  status: ('A' for Active; 'I' for Inactive)
ROOT
ATOM      1  C   UNL d   1       0.694  -2.076   3.067  0.00  0.00     0.078 C 
ATOM      2  C1  UNL d   1      -0.486  -1.229   2.694  0.00  0.00    -0.077 A 
ATOM      3  C2  UNL d   1      -1.087  -0.377   3.628  0.00  0.00    -0.001 A 
ATOM      4  C3  UNL d   1      -2.191   0.398   3.270  0.00  0.00     0.003 A 
ATOM      5  C4  UNL d   1      -2.704   0.329   1.976  0.00  0.00    -0.005 A 
ATOM      6  C5  UNL d   1      -2.114  -0.518   1.040  0.00  0.00     0.003 A 
ATOM      7  C6  UNL d   1      -1.010  -1.294   1.396  0.00  0.00    -0.001 A 
ENDROOT
TORSDOF 0
ENDMDL
