MODEL 1
REMARK minimizedAffinity 3.08587837
REMARK minimizedRMSD -1
REMARK  0 active torsions:
REMARK  status: ('A' for Active; 'I' for Inactive)
ROOT
ATOM      1  C   UNL d   1      -4.377   1.051   0.233  0.00  0.00     0.078 C 
ATOM      2  C1  UNL d   1      -3.284   0.374   1.007  0.00  0.00    -0.077 A 
ATOM      3  C2  UNL d   1      -3.232   0.457   2.403  0.00  0.00    -0.001 A 
ATOM      4  C3  UNL d   1      -2.203  -0.169   3.110  0.00  0.00     0.003 A 
ATOM      5  C4  UNL d   1      -1.219  -0.882   2.427  0.00  0.00    -0.005 A 
ATOM      6  C5  UNL d   1      -1.262  -0.968   1.037  0.00  0.00     0.003 A 
ATOM      7  C6  UNL d   1      -2.290  -0.343   0.330  0.00  0.00    -0.001 A 
ENDROOT
TORSDOF 0
ENDMDL
