MODEL 1
REMARK minimizedAffinity 10.1046381
REMARK minimizedRMSD -1
REMARK  0 active torsions:
REMARK  status: ('A' for Active; 'I' for Inactive)
ROOT
ATOM      1  C   UNL d   1      -1.843   0.213   4.229  0.00  0.00     0.078 C 
ATOM      2  C1  UNL d   1      -0.907  -0.804   3.648  0.00  0.00    -0.077 A 
ATOM      3  C2  UNL d   1      -1.003  -1.189   2.305  0.00  0.00    -0.001 A 
ATOM      4  C3  UNL d   1      -0.131  -2.145   1.781  0.00  0.00     0.003 A 
ATOM      5  C4  UNL d   1       0.842  -2.724   2.592  0.00  0.00    -0.005 A 
ATOM      6  C5  UNL d   1       0.944  -2.350   3.930  0.00  0.00     0.003 A 
ATOM      7  C6  UNL d   1       0.073  -1.394   4.457  0.00  0.00    -0.001 A 
ENDROOT
TORSDOF 0
ENDMDL
