MODEL 1
REMARK minimizedAffinity 9.6619072
REMARK minimizedRMSD -1
REMARK  0 active torsions:
REMARK  status: ('A' for Active; 'I' for Inactive)
ROOT
ATOM      1  C   UNL d   1      -2.610  -3.200   0.012  0.00  0.00     0.078 C 
ATOM      2  C1  UNL d   1      -2.514  -1.794   0.524  0.00  0.00    -0.077 A 
ATOM      3  C2  UNL d   1      -3.526  -0.862   0.266  0.00  0.00    -0.001 A 
ATOM      4  C3  UNL d   1      -3.418   0.446   0.741  0.00  0.00     0.003 A 
ATOM      5  C4  UNL d   1      -2.299   0.834   1.476  0.00  0.00    -0.005 A 
ATOM      6  C5  UNL d   1      -1.286  -0.086   1.736  0.00  0.00     0.003 A 
ATOM      7  C6  UNL d   1      -1.392  -1.395   1.262  0.00  0.00    -0.001 A 
ENDROOT
TORSDOF 0
ENDMDL
