MODEL 1
REMARK minimizedAffinity 5.99213409
REMARK minimizedRMSD -1
REMARK  0 active torsions:
REMARK  status: ('A' for Active; 'I' for Inactive)
ROOT
ATOM      1  C   UNL d   1      -1.722  -2.051   0.945  0.00  0.00     0.078 C 
ATOM      2  C1  UNL d   1      -0.617  -2.023   1.957  0.00  0.00    -0.077 A 
ATOM      3  C2  UNL d   1       0.466  -2.907   1.869  0.00  0.00    -0.001 A 
ATOM      4  C3  UNL d   1       1.483  -2.876   2.824  0.00  0.00     0.003 A 
ATOM      5  C4  UNL d   1       1.427  -1.963   3.876  0.00  0.00    -0.005 A 
ATOM      6  C5  UNL d   1       0.353  -1.081   3.973  0.00  0.00     0.003 A 
ATOM      7  C6  UNL d   1      -0.665  -1.111   3.019  0.00  0.00    -0.001 A 
ENDROOT
TORSDOF 0
ENDMDL
