MODEL 1
REMARK minimizedAffinity 0.538239419
REMARK minimizedRMSD -1
REMARK  0 active torsions:
REMARK  status: ('A' for Active; 'I' for Inactive)
ROOT
ATOM      1  C   UNL d   1       0.850   5.999  -2.644  0.00  0.00     0.078 C 
ATOM      2  C1  UNL d   1       2.177   5.302  -2.676  0.00  0.00    -0.077 A 
ATOM      3  C2  UNL d   1       2.277   3.960  -3.066  0.00  0.00    -0.001 A 
ATOM      4  C3  UNL d   1       3.518   3.321  -3.082  0.00  0.00     0.003 A 
ATOM      5  C4  UNL d   1       4.667   4.014  -2.709  0.00  0.00    -0.005 A 
ATOM      6  C5  UNL d   1       4.578   5.348  -2.318  0.00  0.00     0.003 A 
ATOM      7  C6  UNL d   1       3.338   5.990  -2.301  0.00  0.00    -0.001 A 
ENDROOT
TORSDOF 0
ENDMDL
