MODEL 1
REMARK minimizedAffinity 0.57767868
REMARK minimizedRMSD -1
REMARK  0 active torsions:
REMARK  status: ('A' for Active; 'I' for Inactive)
ROOT
ATOM      1  C   UNL d   1      -5.437  -4.812   1.719  0.00  0.00     0.078 C 
ATOM      2  C1  UNL d   1      -5.625  -4.801   3.207  0.00  0.00    -0.077 A 
ATOM      3  C2  UNL d   1      -5.794  -5.993   3.921  0.00  0.00    -0.001 A 
ATOM      4  C3  UNL d   1      -5.978  -5.968   5.304  0.00  0.00     0.003 A 
ATOM      5  C4  UNL d   1      -5.996  -4.752   5.985  0.00  0.00    -0.005 A 
ATOM      6  C5  UNL d   1      -5.832  -3.560   5.283  0.00  0.00     0.003 A 
ATOM      7  C6  UNL d   1      -5.648  -3.584   3.899  0.00  0.00    -0.001 A 
ENDROOT
TORSDOF 0
ENDMDL
