MODEL 1
REMARK minimizedAffinity 8.80488491
REMARK minimizedRMSD -1
REMARK  0 active torsions:
REMARK  status: ('A' for Active; 'I' for Inactive)
ROOT
ATOM      1  C   UNL d   1       3.180   1.455   0.618  0.00  0.00     0.078 C 
ATOM      2  C1  UNL d   1       3.157   1.917  -0.809  0.00  0.00    -0.077 A 
ATOM      3  C2  UNL d   1       3.910   3.024  -1.220  0.00  0.00    -0.001 A 
ATOM      4  C3  UNL d   1       3.871   3.449  -2.549  0.00  0.00     0.003 A 
ATOM      5  C4  UNL d   1       3.081   2.774  -3.477  0.00  0.00    -0.005 A 
ATOM      6  C5  UNL d   1       2.326   1.673  -3.076  0.00  0.00     0.003 A 
ATOM      7  C6  UNL d   1       2.364   1.247  -1.748  0.00  0.00    -0.001 A 
ENDROOT
TORSDOF 0
ENDMDL
