MODEL 1
REMARK minimizedAffinity 2.78206134
REMARK minimizedRMSD -1
REMARK  0 active torsions:
REMARK  status: ('A' for Active; 'I' for Inactive)
ROOT
ATOM      1  C   UNL d   1      -5.666   4.783   5.230  0.00  0.00     0.078 C 
ATOM      2  C1  UNL d   1      -5.266   3.338   5.250  0.00  0.00    -0.077 A 
ATOM      3  C2  UNL d   1      -6.000   2.396   5.982  0.00  0.00    -0.001 A 
ATOM      4  C3  UNL d   1      -5.611   1.056   5.999  0.00  0.00     0.003 A 
ATOM      5  C4  UNL d   1      -4.485   0.645   5.288  0.00  0.00    -0.005 A 
ATOM      6  C5  UNL d   1      -3.747   1.575   4.559  0.00  0.00     0.003 A 
ATOM      7  C6  UNL d   1      -4.135   2.916   4.540  0.00  0.00    -0.001 A 
ENDROOT
TORSDOF 0
ENDMDL
