MODEL 1
REMARK minimizedAffinity 6.69052458
REMARK minimizedRMSD -1
REMARK  0 active torsions:
REMARK  status: ('A' for Active; 'I' for Inactive)
ROOT
ATOM      1  C   UNL d   1      -5.281  -2.619   5.149  0.00  0.00     0.078 C 
ATOM      2  C1  UNL d   1      -5.479  -3.661   4.089  0.00  0.00    -0.077 A 
ATOM      3  C2  UNL d   1      -5.827  -4.975   4.425  0.00  0.00    -0.001 A 
ATOM      4  C3  UNL d   1      -5.999  -5.937   3.429  0.00  0.00     0.003 A 
ATOM      5  C4  UNL d   1      -5.824  -5.596   2.089  0.00  0.00    -0.005 A 
ATOM      6  C5  UNL d   1      -5.476  -4.292   1.745  0.00  0.00     0.003 A 
ATOM      7  C6  UNL d   1      -5.303  -3.328   2.740  0.00  0.00    -0.001 A 
ENDROOT
TORSDOF 0
ENDMDL
