MODEL 1
REMARK minimizedAffinity -0.772847593
REMARK minimizedRMSD -1
REMARK  0 active torsions:
REMARK  status: ('A' for Active; 'I' for Inactive)
ROOT
ATOM      1  C   UNL d   1      -5.248  -2.326   5.956  0.00  0.00     0.078 C 
ATOM      2  C1  UNL d   1      -5.408  -3.603   5.186  0.00  0.00    -0.077 A 
ATOM      3  C2  UNL d   1      -5.314  -3.619   3.789  0.00  0.00    -0.001 A 
ATOM      4  C3  UNL d   1      -5.475  -4.813   3.085  0.00  0.00     0.003 A 
ATOM      5  C4  UNL d   1      -5.732  -6.000   3.768  0.00  0.00    -0.005 A 
ATOM      6  C5  UNL d   1      -5.829  -5.993   5.158  0.00  0.00     0.003 A 
ATOM      7  C6  UNL d   1      -5.669  -4.800   5.865  0.00  0.00    -0.001 A 
ENDROOT
TORSDOF 0
ENDMDL
