MODEL 1
REMARK minimizedAffinity 5.0744791
REMARK minimizedRMSD -1
REMARK  0 active torsions:
REMARK  status: ('A' for Active; 'I' for Inactive)
ROOT
ATOM      1  C   UNL d   1       1.466  -4.689   1.048  0.00  0.00     0.078 C 
ATOM      2  C1  UNL d   1       0.713  -3.413   1.277  0.00  0.00    -0.077 A 
ATOM      3  C2  UNL d   1      -0.545  -3.204   0.698  0.00  0.00    -0.001 A 
ATOM      4  C3  UNL d   1      -1.231  -2.008   0.912  0.00  0.00     0.003 A 
ATOM      5  C4  UNL d   1      -0.667  -1.010   1.704  0.00  0.00    -0.005 A 
ATOM      6  C5  UNL d   1       0.585  -1.208   2.283  0.00  0.00     0.003 A 
ATOM      7  C6  UNL d   1       1.273  -2.404   2.070  0.00  0.00    -0.001 A 
ENDROOT
TORSDOF 0
ENDMDL
