MODEL 1
REMARK minimizedAffinity 13.6127396
REMARK minimizedRMSD -1
REMARK  0 active torsions:
REMARK  status: ('A' for Active; 'I' for Inactive)
ROOT
ATOM      1  C   UNL d   1      -4.321  -2.312   1.660  0.00  0.00     0.078 C 
ATOM      2  C1  UNL d   1      -4.913  -3.578   2.203  0.00  0.00    -0.077 A 
ATOM      3  C2  UNL d   1      -5.459  -3.625   3.491  0.00  0.00    -0.001 A 
ATOM      4  C3  UNL d   1      -5.998  -4.813   3.987  0.00  0.00     0.003 A 
ATOM      5  C4  UNL d   1      -5.995  -5.964   3.201  0.00  0.00    -0.005 A 
ATOM      6  C5  UNL d   1      -5.452  -5.928   1.919  0.00  0.00     0.003 A 
ATOM      7  C6  UNL d   1      -4.913  -4.740   1.421  0.00  0.00    -0.001 A 
ENDROOT
TORSDOF 0
ENDMDL
