MODEL 1
REMARK minimizedAffinity 14.5372934
REMARK minimizedRMSD -1
REMARK  0 active torsions:
REMARK  status: ('A' for Active; 'I' for Inactive)
ROOT
ATOM      1  C   UNL d   1      -0.286  -1.667   4.921  0.00  0.00     0.078 C 
ATOM      2  C1  UNL d   1      -0.470  -1.767   3.436  0.00  0.00    -0.077 A 
ATOM      3  C2  UNL d   1      -0.491  -0.620   2.633  0.00  0.00    -0.001 A 
ATOM      4  C3  UNL d   1      -0.673  -0.726   1.254  0.00  0.00     0.003 A 
ATOM      5  C4  UNL d   1      -0.838  -1.978   0.665  0.00  0.00    -0.005 A 
ATOM      6  C5  UNL d   1      -0.822  -3.126   1.455  0.00  0.00     0.003 A 
ATOM      7  C6  UNL d   1      -0.639  -3.021   2.835  0.00  0.00    -0.001 A 
ENDROOT
TORSDOF 0
ENDMDL
