MODEL 1
REMARK minimizedAffinity 9.97691822
REMARK minimizedRMSD -1
REMARK  0 active torsions:
REMARK  status: ('A' for Active; 'I' for Inactive)
ROOT
ATOM      1  C   UNL d   1       2.443  -0.744   2.126  0.00  0.00     0.078 C 
ATOM      2  C1  UNL d   1       1.014  -1.182   2.245  0.00  0.00    -0.077 A 
ATOM      3  C2  UNL d   1       0.385  -1.258   3.493  0.00  0.00    -0.001 A 
ATOM      4  C3  UNL d   1      -0.943  -1.676   3.590  0.00  0.00     0.003 A 
ATOM      5  C4  UNL d   1      -1.653  -2.022   2.442  0.00  0.00    -0.005 A 
ATOM      6  C5  UNL d   1      -1.035  -1.952   1.196  0.00  0.00     0.003 A 
ATOM      7  C6  UNL d   1       0.293  -1.534   1.097  0.00  0.00    -0.001 A 
ENDROOT
TORSDOF 0
ENDMDL
