MODEL 1
REMARK minimizedAffinity 22.7430115
REMARK minimizedRMSD -1
REMARK  0 active torsions:
REMARK  status: ('A' for Active; 'I' for Inactive)
ROOT
ATOM      1  C1  DEN d   1      -3.936   0.882  -3.364  0.00  0.00     0.130 A 
ATOM      2  C2  DEN d   1      -2.751   1.328  -2.636  0.00  0.00    -0.031 A 
ATOM      3  C3  DEN d   1      -2.464   2.720  -3.039  0.00  0.00     0.027 A 
ATOM      4  C4  DEN d   1      -3.737   4.222  -4.705  0.00  0.00     0.027 A 
ATOM      5  C5  DEN d   1      -4.801   4.279  -5.578  0.00  0.00    -0.003 A 
ATOM      6  C6  DEN d   1      -5.624   3.206  -5.798  0.00  0.00     0.001 A 
ATOM      7  C7  DEN d   1      -5.423   2.043  -5.103  0.00  0.00     0.017 A 
ATOM      8  C8  DEN d   1      -4.348   1.975  -4.226  0.00  0.00    -0.094 A 
ATOM      9  C9  DEN d   1      -3.536   3.075  -4.008  0.00  0.00    -0.072 A 
ENDROOT
TORSDOF 0
ENDMDL
