MODEL 1
REMARK minimizedAffinity 18.7780437
REMARK minimizedRMSD -1
REMARK  0 active torsions:
REMARK  status: ('A' for Active; 'I' for Inactive)
ROOT
ATOM      1  C1  DEN d   1      -0.650   2.914  -4.642  0.00  0.00     0.130 A 
ATOM      2  C2  DEN d   1       0.588   2.214  -4.973  0.00  0.00    -0.031 A 
ATOM      3  C3  DEN d   1       0.563   0.899  -4.302  0.00  0.00     0.027 A 
ATOM      4  C4  DEN d   1      -1.266  -0.118  -2.794  0.00  0.00     0.027 A 
ATOM      5  C5  DEN d   1      -2.496   0.106  -2.215  0.00  0.00    -0.003 A 
ATOM      6  C6  DEN d   1      -3.176   1.284  -2.375  0.00  0.00     0.001 A 
ATOM      7  C7  DEN d   1      -2.650   2.268  -3.170  0.00  0.00     0.017 A 
ATOM      8  C8  DEN d   1      -1.407   2.053  -3.751  0.00  0.00    -0.094 A 
ATOM      9  C9  DEN d   1      -0.741   0.850  -3.587  0.00  0.00    -0.072 A 
ENDROOT
TORSDOF 0
ENDMDL
