MODEL 1
REMARK minimizedAffinity 0.393767208
REMARK minimizedRMSD -1
REMARK  0 active torsions:
REMARK  status: ('A' for Active; 'I' for Inactive)
ROOT
ATOM      1  C1  DEN d   1       1.902  -1.377   1.935  0.00  0.00     0.130 A 
ATOM      2  C2  DEN d   1       0.449  -1.239   1.880  0.00  0.00    -0.031 A 
ATOM      3  C3  DEN d   1      -0.074  -2.271   0.963  0.00  0.00     0.027 A 
ATOM      4  C4  DEN d   1       1.217  -4.063  -0.368  0.00  0.00     0.027 A 
ATOM      5  C5  DEN d   1       2.468  -4.566  -0.654  0.00  0.00    -0.003 A 
ATOM      6  C6  DEN d   1       3.610  -4.024  -0.128  0.00  0.00     0.001 A 
ATOM      7  C7  DEN d   1       3.523  -2.974   0.748  0.00  0.00     0.017 A 
ATOM      8  C8  DEN d   1       2.266  -2.457   1.035  0.00  0.00    -0.094 A 
ATOM      9  C9  DEN d   1       1.122  -3.027   0.503  0.00  0.00    -0.072 A 
ENDROOT
TORSDOF 0
ENDMDL
