MODEL 1
REMARK minimizedAffinity 11.7038908
REMARK minimizedRMSD -1
REMARK  0 active torsions:
REMARK  status: ('A' for Active; 'I' for Inactive)
ROOT
ATOM      1  C1  DEN d   1      -0.923  -2.174   1.976  0.00  0.00     0.130 A 
ATOM      2  C2  DEN d   1      -1.628  -1.272   2.883  0.00  0.00    -0.031 A 
ATOM      3  C3  DEN d   1      -0.653  -0.290   3.399  0.00  0.00     0.027 A 
ATOM      4  C4  DEN d   1       1.864  -0.076   2.880  0.00  0.00     0.027 A 
ATOM      5  C5  DEN d   1       2.916  -0.620   2.177  0.00  0.00    -0.003 A 
ATOM      6  C6  DEN d   1       2.770  -1.733   1.391  0.00  0.00     0.001 A 
ATOM      7  C7  DEN d   1       1.535  -2.309   1.253  0.00  0.00     0.017 A 
ATOM      8  C8  DEN d   1       0.472  -1.770   1.965  0.00  0.00    -0.094 A 
ATOM      9  C9  DEN d   1       0.637  -0.638   2.745  0.00  0.00    -0.072 A 
ENDROOT
TORSDOF 0
ENDMDL
