MODEL 1
REMARK minimizedAffinity 15.6071415
REMARK minimizedRMSD -1
REMARK  0 active torsions:
REMARK  status: ('A' for Active; 'I' for Inactive)
ROOT
ATOM      1  C1  DEN d   1       5.662  -1.749  -0.480  0.00  0.00     0.130 A 
ATOM      2  C2  DEN d   1       5.652  -1.009   0.779  0.00  0.00    -0.031 A 
ATOM      3  C3  DEN d   1       5.760   0.429   0.465  0.00  0.00     0.027 A 
ATOM      4  C4  DEN d   1       5.937   1.578  -1.838  0.00  0.00     0.027 A 
ATOM      5  C5  DEN d   1       5.997   1.364  -3.197  0.00  0.00    -0.003 A 
ATOM      6  C6  DEN d   1       5.984   0.107  -3.740  0.00  0.00     0.001 A 
ATOM      7  C7  DEN d   1       5.864  -0.985  -2.921  0.00  0.00     0.017 A 
ATOM      8  C8  DEN d   1       5.810  -0.778  -1.549  0.00  0.00    -0.094 A 
ATOM      9  C9  DEN d   1       5.812   0.502  -1.020  0.00  0.00    -0.072 A 
ENDROOT
TORSDOF 0
ENDMDL
