MODEL 1
REMARK minimizedAffinity 16.6906776
REMARK minimizedRMSD -1
REMARK  0 active torsions:
REMARK  status: ('A' for Active; 'I' for Inactive)
ROOT
ATOM      1  C1  DEN d   1       0.975   0.010  -4.071  0.00  0.00     0.130 A 
ATOM      2  C2  DEN d   1       1.579   1.155  -4.747  0.00  0.00    -0.031 A 
ATOM      3  C3  DEN d   1       0.765   2.348  -4.439  0.00  0.00     0.027 A 
ATOM      4  C4  DEN d   1      -1.356   2.534  -2.984  0.00  0.00     0.027 A 
ATOM      5  C5  DEN d   1      -2.253   1.830  -2.212  0.00  0.00    -0.003 A 
ATOM      6  C6  DEN d   1      -2.158   0.475  -2.035  0.00  0.00     0.001 A 
ATOM      7  C7  DEN d   1      -1.117  -0.212  -2.601  0.00  0.00     0.017 A 
ATOM      8  C8  DEN d   1      -0.212   0.490  -3.387  0.00  0.00    -0.094 A 
ATOM      9  C9  DEN d   1      -0.319   1.862  -3.544  0.00  0.00    -0.072 A 
ENDROOT
TORSDOF 0
ENDMDL
