MODEL 1
REMARK minimizedAffinity 7.152915
REMARK minimizedRMSD -1
REMARK  0 active torsions:
REMARK  status: ('A' for Active; 'I' for Inactive)
ROOT
ATOM      1  C1  DEN d   1       5.997  -4.995   5.991  0.00  0.00     0.130 A 
ATOM      2  C2  DEN d   1       5.217  -5.980   5.247  0.00  0.00    -0.031 A 
ATOM      3  C3  DEN d   1       4.315  -5.252   4.333  0.00  0.00     0.027 A 
ATOM      4  C4  DEN d   1       4.054  -2.708   3.995  0.00  0.00     0.027 A 
ATOM      5  C5  DEN d   1       4.493  -1.470   4.410  0.00  0.00    -0.003 A 
ATOM      6  C6  DEN d   1       5.431  -1.320   5.397  0.00  0.00     0.001 A 
ATOM      7  C7  DEN d   1       5.995  -2.429   5.971  0.00  0.00     0.017 A 
ATOM      8  C8  DEN d   1       5.552  -3.681   5.563  0.00  0.00    -0.094 A 
ATOM      9  C9  DEN d   1       4.612  -3.811   4.556  0.00  0.00    -0.072 A 
ENDROOT
TORSDOF 0
ENDMDL
