MODEL 1
REMARK minimizedAffinity 13.080554
REMARK minimizedRMSD -1
REMARK  0 active torsions:
REMARK  status: ('A' for Active; 'I' for Inactive)
ROOT
ATOM      1  C1  DEN d   1       0.836  -3.276  -0.015  0.00  0.00     0.130 A 
ATOM      2  C2  DEN d   1       2.273  -3.021  -0.044  0.00  0.00    -0.031 A 
ATOM      3  C3  DEN d   1       2.566  -1.947   0.926  0.00  0.00     0.027 A 
ATOM      4  C4  DEN d   1       0.942  -0.664   2.465  0.00  0.00     0.027 A 
ATOM      5  C5  DEN d   1      -0.377  -0.521   2.835  0.00  0.00    -0.003 A 
ATOM      6  C6  DEN d   1      -1.380  -1.257   2.262  0.00  0.00     0.001 A 
ATOM      7  C7  DEN d   1      -1.075  -2.201   1.319  0.00  0.00     0.017 A 
ATOM      8  C8  DEN d   1       0.252  -2.346   0.934  0.00  0.00    -0.094 A 
ATOM      9  C9  DEN d   1       1.253  -1.601   1.534  0.00  0.00    -0.072 A 
ENDROOT
TORSDOF 0
ENDMDL
