MODEL 1
REMARK minimizedAffinity 12.2123098
REMARK minimizedRMSD -1
REMARK  0 active torsions:
REMARK  status: ('A' for Active; 'I' for Inactive)
ROOT
ATOM      1  C1  DEN d   1       1.757  -1.046   2.621  0.00  0.00     0.130 A 
ATOM      2  C2  DEN d   1       0.322  -0.876   2.411  0.00  0.00    -0.031 A 
ATOM      3  C3  DEN d   1      -0.062  -1.666   1.224  0.00  0.00     0.027 A 
ATOM      4  C4  DEN d   1       1.417  -3.131  -0.298  0.00  0.00     0.027 A 
ATOM      5  C5  DEN d   1       2.701  -3.576  -0.525  0.00  0.00    -0.003 A 
ATOM      6  C6  DEN d   1       3.758  -3.184   0.255  0.00  0.00     0.001 A 
ATOM      7  C7  DEN d   1       3.541  -2.358   1.326  0.00  0.00     0.017 A 
ATOM      8  C8  DEN d   1       2.251  -1.900   1.556  0.00  0.00    -0.094 A 
ATOM      9  C9  DEN d   1       1.194  -2.317   0.764  0.00  0.00    -0.072 A 
ENDROOT
TORSDOF 0
ENDMDL
