MODEL 1
REMARK minimizedAffinity -0.231668293
REMARK minimizedRMSD -1
REMARK  0 active torsions:
REMARK  status: ('A' for Active; 'I' for Inactive)
ROOT
ATOM      1  C4' PXY d   1      -4.197  -2.119  -0.129  0.00  0.00     0.077 C 
ATOM      2  C1' PXY d   1       1.111  -2.409  -2.400  0.00  0.00     0.077 C 
ATOM      3  C1  PXY d   1      -0.285  -2.329  -1.816  0.00  0.00    -0.082 A 
ATOM      4  C2  PXY d   1      -0.441  -2.187  -0.510  0.00  0.00     0.003 A 
ATOM      5  C3  PXY d   1      -1.697  -2.145   0.038  0.00  0.00     0.003 A 
ATOM      6  C4  PXY d   1      -2.805  -2.195  -0.764  0.00  0.00    -0.082 A 
ATOM      7  C5  PXY d   1      -2.655  -2.328  -2.099  0.00  0.00     0.003 A 
ATOM      8  C6  PXY d   1      -1.372  -2.411  -2.632  0.00  0.00     0.003 A 
ENDROOT
TORSDOF 0
ENDMDL
