MODEL 1
REMARK minimizedAffinity -4.94950962
REMARK minimizedRMSD -1
REMARK  0 active torsions:
REMARK  status: ('A' for Active; 'I' for Inactive)
ROOT
ATOM      1  C4' PXY d   1       0.363   2.840   0.118  0.00  0.00     0.077 C 
ATOM      2  C1' PXY d   1      -0.182  -2.906   0.432  0.00  0.00     0.077 C 
ATOM      3  C1  PXY d   1      -0.027  -1.401   0.343  0.00  0.00    -0.082 A 
ATOM      4  C2  PXY d   1      -0.634  -0.628   1.229  0.00  0.00     0.003 A 
ATOM      5  C3  PXY d   1      -0.532   0.737   1.145  0.00  0.00     0.003 A 
ATOM      6  C4  PXY d   1       0.243   1.315   0.175  0.00  0.00    -0.082 A 
ATOM      7  C5  PXY d   1       0.874   0.532  -0.726  0.00  0.00     0.003 A 
ATOM      8  C6  PXY d   1       0.724  -0.849  -0.648  0.00  0.00     0.003 A 
ENDROOT
TORSDOF 0
ENDMDL
