MODEL 1
REMARK minimizedAffinity -5.1863699
REMARK minimizedRMSD -1
REMARK  0 active torsions:
REMARK  status: ('A' for Active; 'I' for Inactive)
ROOT
ATOM      1  C4' PXY d   1      -0.891   0.745   1.435  0.00  0.00     0.077 C 
ATOM      2  C1' PXY d   1       2.265   0.955  -3.403  0.00  0.00     0.077 C 
ATOM      3  C1  PXY d   1       1.448   0.902  -2.127  0.00  0.00    -0.082 A 
ATOM      4  C2  PXY d   1       0.282   0.277  -2.123  0.00  0.00     0.003 A 
ATOM      5  C3  PXY d   1      -0.485   0.247  -0.986  0.00  0.00     0.003 A 
ATOM      6  C4  PXY d   1      -0.028   0.816   0.172  0.00  0.00    -0.082 A 
ATOM      7  C5  PXY d   1       1.166   1.445   0.179  0.00  0.00     0.003 A 
ATOM      8  C6  PXY d   1       1.910   1.501  -0.996  0.00  0.00     0.003 A 
ENDROOT
TORSDOF 0
ENDMDL
