MODEL 1
REMARK minimizedAffinity 4.8258996
REMARK minimizedRMSD -1
REMARK  0 active torsions:
REMARK  status: ('A' for Active; 'I' for Inactive)
ROOT
ATOM      1  C4' PXY d   1      -3.306  -3.052  -0.421  0.00  0.00     0.077 C 
ATOM      2  C1' PXY d   1       0.401  -0.324   3.077  0.00  0.00     0.077 C 
ATOM      3  C1  PXY d   1      -0.563  -1.049   2.158  0.00  0.00    -0.082 A 
ATOM      4  C2  PXY d   1      -1.489  -0.363   1.509  0.00  0.00     0.003 A 
ATOM      5  C3  PXY d   1      -2.389  -1.007   0.699  0.00  0.00     0.003 A 
ATOM      6  C4  PXY d   1      -2.306  -2.360   0.510  0.00  0.00    -0.082 A 
ATOM      7  C5  PXY d   1      -1.357  -3.066   1.160  0.00  0.00     0.003 A 
ATOM      8  C6  PXY d   1      -0.479  -2.399   2.010  0.00  0.00     0.003 A 
ENDROOT
TORSDOF 0
ENDMDL
