MODEL 1
REMARK minimizedAffinity -4.12618637
REMARK minimizedRMSD -1
REMARK  0 active torsions:
REMARK  status: ('A' for Active; 'I' for Inactive)
ROOT
ATOM      1  C4' PXY d   1       1.313   2.502   0.948  0.00  0.00     0.077 C 
ATOM      2  C1' PXY d   1      -1.553  -2.492   0.426  0.00  0.00     0.077 C 
ATOM      3  C1  PXY d   1      -0.795  -1.185   0.552  0.00  0.00    -0.082 A 
ATOM      4  C2  PXY d   1      -0.583  -0.664   1.749  0.00  0.00     0.003 A 
ATOM      5  C3  PXY d   1       0.072   0.534   1.879  0.00  0.00     0.003 A 
ATOM      6  C4  PXY d   1       0.561   1.179   0.774  0.00  0.00    -0.082 A 
ATOM      7  C5  PXY d   1       0.358   0.649  -0.450  0.00  0.00     0.003 A 
ATOM      8  C6  PXY d   1      -0.346  -0.547  -0.563  0.00  0.00     0.003 A 
ENDROOT
TORSDOF 0
ENDMDL
