MODEL 1
REMARK minimizedAffinity -4.00896072
REMARK minimizedRMSD -1
REMARK  0 active torsions:
REMARK  status: ('A' for Active; 'I' for Inactive)
ROOT
ATOM      1  C4' PXY d   1       0.804   3.964   1.503  0.00  0.00     0.077 C 
ATOM      2  C1' PXY d   1       1.474  -0.210  -2.441  0.00  0.00     0.077 C 
ATOM      3  C1  PXY d   1       1.311   0.885  -1.405  0.00  0.00    -0.082 A 
ATOM      4  C2  PXY d   1       0.163   1.010  -0.760  0.00  0.00     0.003 A 
ATOM      5  C3  PXY d   1      -0.012   2.014   0.157  0.00  0.00     0.003 A 
ATOM      6  C4  PXY d   1       1.016   2.867   0.456  0.00  0.00    -0.082 A 
ATOM      7  C5  PXY d   1       2.195   2.740  -0.190  0.00  0.00     0.003 A 
ATOM      8  C6  PXY d   1       2.339   1.739  -1.147  0.00  0.00     0.003 A 
ENDROOT
TORSDOF 0
ENDMDL
