MODEL 1
REMARK minimizedAffinity -5.13054991
REMARK minimizedRMSD -1
REMARK  0 active torsions:
REMARK  status: ('A' for Active; 'I' for Inactive)
ROOT
ATOM      1  C4' PXY d   1       2.225   3.430   1.842  0.00  0.00     0.077 C 
ATOM      2  C1' PXY d   1       0.896   0.085  -2.682  0.00  0.00     0.077 C 
ATOM      3  C1  PXY d   1       1.257   0.961  -1.498  0.00  0.00    -0.082 A 
ATOM      4  C2  PXY d   1       0.411   1.077  -0.488  0.00  0.00     0.003 A 
ATOM      5  C3  PXY d   1       0.708   1.890   0.576  0.00  0.00     0.003 A 
ATOM      6  C4  PXY d   1       1.906   2.549   0.630  0.00  0.00    -0.082 A 
ATOM      7  C5  PXY d   1       2.780   2.428  -0.391  0.00  0.00     0.003 A 
ATOM      8  C6  PXY d   1       2.442   1.630  -1.481  0.00  0.00     0.003 A 
ENDROOT
TORSDOF 0
ENDMDL
