MODEL 1
REMARK minimizedAffinity 7.02493334
REMARK minimizedRMSD -1
REMARK  0 active torsions:
REMARK  status: ('A' for Active; 'I' for Inactive)
ROOT
ATOM      1  C4' PXY d   1      -0.471   2.720   1.166  0.00  0.00     0.077 C 
ATOM      2  C1' PXY d   1      -1.624  -2.941   0.945  0.00  0.00     0.077 C 
ATOM      3  C1  PXY d   1      -1.313  -1.458   0.993  0.00  0.00    -0.082 A 
ATOM      4  C2  PXY d   1      -1.514  -0.783   2.114  0.00  0.00     0.003 A 
ATOM      5  C3  PXY d   1      -1.268   0.565   2.166  0.00  0.00     0.003 A 
ATOM      6  C4  PXY d   1      -0.762   1.219   1.075  0.00  0.00    -0.082 A 
ATOM      7  C5  PXY d   1      -0.544   0.536  -0.069  0.00  0.00     0.003 A 
ATOM      8  C6  PXY d   1      -0.839  -0.824  -0.113  0.00  0.00     0.003 A 
ENDROOT
TORSDOF 0
ENDMDL
