MODEL 1
REMARK minimizedAffinity -0.323643625
REMARK minimizedRMSD -1
REMARK  0 active torsions:
REMARK  status: ('A' for Active; 'I' for Inactive)
ROOT
ATOM      1  C4' PXY d   1       3.220   0.764  -3.839  0.00  0.00     0.077 C 
ATOM      2  C1' PXY d   1      -0.456   0.653   0.621  0.00  0.00     0.077 C 
ATOM      3  C1  PXY d   1       0.515   0.692  -0.543  0.00  0.00    -0.082 A 
ATOM      4  C2  PXY d   1       0.131   0.252  -1.730  0.00  0.00     0.003 A 
ATOM      5  C3  PXY d   1       1.006   0.250  -2.786  0.00  0.00     0.003 A 
ATOM      6  C4  PXY d   1       2.271   0.753  -2.638  0.00  0.00    -0.082 A 
ATOM      7  C5  PXY d   1       2.667   1.214  -1.432  0.00  0.00     0.003 A 
ATOM      8  C6  PXY d   1       1.777   1.169  -0.363  0.00  0.00     0.003 A 
ENDROOT
TORSDOF 0
ENDMDL
