MODEL 1
REMARK minimizedAffinity -2.86788249
REMARK minimizedRMSD -1
REMARK  0 active torsions:
REMARK  status: ('A' for Active; 'I' for Inactive)
ROOT
ATOM      1  C4' PXY d   1      -1.344  -1.482   1.868  0.00  0.00     0.077 C 
ATOM      2  C1' PXY d   1       1.382   0.498  -2.830  0.00  0.00     0.077 C 
ATOM      3  C1  PXY d   1       0.671  -0.011  -1.591  0.00  0.00    -0.082 A 
ATOM      4  C2  PXY d   1       0.400  -1.301  -1.476  0.00  0.00     0.003 A 
ATOM      5  C3  PXY d   1      -0.270  -1.774  -0.377  0.00  0.00     0.003 A 
ATOM      6  C4  PXY d   1      -0.620  -0.925   0.639  0.00  0.00    -0.082 A 
ATOM      7  C5  PXY d   1      -0.337   0.391   0.534  0.00  0.00     0.003 A 
ATOM      8  C6  PXY d   1       0.307   0.857  -0.608  0.00  0.00     0.003 A 
ENDROOT
TORSDOF 0
ENDMDL
