MODEL 1
REMARK minimizedAffinity -5.35878372
REMARK minimizedRMSD -1
REMARK  0 active torsions:
REMARK  status: ('A' for Active; 'I' for Inactive)
ROOT
ATOM      1  C4' PXY d   1       0.406   2.713   0.232  0.00  0.00     0.077 C 
ATOM      2  C1' PXY d   1      -0.028  -3.047   0.451  0.00  0.00     0.077 C 
ATOM      3  C1  PXY d   1       0.096  -1.538   0.386  0.00  0.00    -0.082 A 
ATOM      4  C2  PXY d   1      -0.399  -0.798   1.364  0.00  0.00     0.003 A 
ATOM      5  C3  PXY d   1      -0.324   0.570   1.306  0.00  0.00     0.003 A 
ATOM      6  C4  PXY d   1       0.312   1.185   0.260  0.00  0.00    -0.082 A 
ATOM      7  C5  PXY d   1       0.829   0.436  -0.737  0.00  0.00     0.003 A 
ATOM      8  C6  PXY d   1       0.705  -0.949  -0.679  0.00  0.00     0.003 A 
ENDROOT
TORSDOF 0
ENDMDL
