MODEL 1
REMARK minimizedAffinity -5.08128643
REMARK minimizedRMSD -1
REMARK  0 active torsions:
REMARK  status: ('A' for Active; 'I' for Inactive)
ROOT
ATOM      1  C4' PXY d   1       1.123  -1.127  -2.602  0.00  0.00     0.077 C 
ATOM      2  C1' PXY d   1      -1.476  -0.039   2.445  0.00  0.00     0.077 C 
ATOM      3  C1  PXY d   1      -0.788  -0.334   1.127  0.00  0.00    -0.082 A 
ATOM      4  C2  PXY d   1      -0.606   0.640   0.251  0.00  0.00     0.003 A 
ATOM      5  C3  PXY d   1      -0.015   0.384  -0.959  0.00  0.00     0.003 A 
ATOM      6  C4  PXY d   1       0.442  -0.873  -1.255  0.00  0.00    -0.082 A 
ATOM      7  C5  PXY d   1       0.269  -1.870  -0.362  0.00  0.00     0.003 A 
ATOM      8  C6  PXY d   1      -0.370  -1.598   0.844  0.00  0.00     0.003 A 
ENDROOT
TORSDOF 0
ENDMDL
