MODEL 1
REMARK minimizedAffinity 0.920162141
REMARK minimizedRMSD -1
REMARK  0 active torsions:
REMARK  status: ('A' for Active; 'I' for Inactive)
ROOT
ATOM      1  C4' PXY d   1      -1.487  -2.247   1.111  0.00  0.00     0.077 C 
ATOM      2  C1' PXY d   1       0.326   3.235   0.832  0.00  0.00     0.077 C 
ATOM      3  C1  PXY d   1      -0.150   1.798   0.918  0.00  0.00    -0.082 A 
ATOM      4  C2  PXY d   1       0.114   0.962  -0.072  0.00  0.00     0.003 A 
ATOM      5  C3  PXY d   1      -0.336  -0.333  -0.025  0.00  0.00     0.003 A 
ATOM      6  C4  PXY d   1      -1.018  -0.790   1.071  0.00  0.00    -0.082 A 
ATOM      7  C5  PXY d   1      -1.281   0.055   2.090  0.00  0.00     0.003 A 
ATOM      8  C6  PXY d   1      -0.851   1.376   2.005  0.00  0.00     0.003 A 
ENDROOT
TORSDOF 0
ENDMDL
