MODEL 1
REMARK minimizedAffinity -0.697400272
REMARK minimizedRMSD -1
REMARK  0 active torsions:
REMARK  status: ('A' for Active; 'I' for Inactive)
ROOT
ATOM      1  C4' PXY d   1      -0.693   3.224   1.136  0.00  0.00     0.077 C 
ATOM      2  C1' PXY d   1      -1.081  -2.517   0.591  0.00  0.00     0.077 C 
ATOM      3  C1  PXY d   1      -0.987  -1.012   0.745  0.00  0.00    -0.082 A 
ATOM      4  C2  PXY d   1      -0.742  -0.261  -0.316  0.00  0.00     0.003 A 
ATOM      5  C3  PXY d   1      -0.621   1.099  -0.190  0.00  0.00     0.003 A 
ATOM      6  C4  PXY d   1      -0.806   1.701   1.026  0.00  0.00    -0.082 A 
ATOM      7  C5  PXY d   1      -1.067   0.942   2.111  0.00  0.00     0.003 A 
ATOM      8  C6  PXY d   1      -1.145  -0.440   1.969  0.00  0.00     0.003 A 
ENDROOT
TORSDOF 0
ENDMDL
