MODEL 1
REMARK minimizedAffinity -4.83513355
REMARK minimizedRMSD -1
REMARK  0 active torsions:
REMARK  status: ('A' for Active; 'I' for Inactive)
ROOT
ATOM      1  C4' PXY d   1       1.757  -0.105  -2.626  0.00  0.00     0.077 C 
ATOM      2  C1' PXY d   1      -1.162  -1.115   2.260  0.00  0.00     0.077 C 
ATOM      3  C1  PXY d   1      -0.390  -0.861   0.980  0.00  0.00    -0.082 A 
ATOM      4  C2  PXY d   1      -0.261   0.376   0.528  0.00  0.00     0.003 A 
ATOM      5  C3  PXY d   1       0.407   0.620  -0.644  0.00  0.00     0.003 A 
ATOM      6  C4  PXY d   1       0.994  -0.407  -1.334  0.00  0.00    -0.082 A 
ATOM      7  C5  PXY d   1       0.876  -1.671  -0.874  0.00  0.00     0.003 A 
ATOM      8  C6  PXY d   1       0.159  -1.902   0.297  0.00  0.00     0.003 A 
ENDROOT
TORSDOF 0
ENDMDL
