MODEL 1
REMARK minimizedAffinity -2.82414746
REMARK minimizedRMSD -1
REMARK  0 active torsions:
REMARK  status: ('A' for Active; 'I' for Inactive)
ROOT
ATOM      1  C4' PXY d   1       0.666  -0.004  -1.864  0.00  0.00     0.077 C 
ATOM      2  C1' PXY d   1      -2.326   1.204   2.933  0.00  0.00     0.077 C 
ATOM      3  C1  PXY d   1      -1.545   0.899   1.670  0.00  0.00    -0.082 A 
ATOM      4  C2  PXY d   1      -1.273  -0.358   1.357  0.00  0.00     0.003 A 
ATOM      5  C3  PXY d   1      -0.540  -0.650   0.235  0.00  0.00     0.003 A 
ATOM      6  C4  PXY d   1      -0.128   0.351  -0.603  0.00  0.00    -0.082 A 
ATOM      7  C5  PXY d   1      -0.411   1.634  -0.297  0.00  0.00     0.003 A 
ATOM      8  C6  PXY d   1      -1.120   1.913   0.868  0.00  0.00     0.003 A 
ENDROOT
TORSDOF 0
ENDMDL
