MODEL 1
REMARK minimizedAffinity -5.03657484
REMARK minimizedRMSD -1
REMARK  0 active torsions:
REMARK  status: ('A' for Active; 'I' for Inactive)
ROOT
ATOM      1  C4' PXY d   1       1.147  -0.101  -2.611  0.00  0.00     0.077 C 
ATOM      2  C1' PXY d   1       1.737   3.619   1.774  0.00  0.00     0.077 C 
ATOM      3  C1  PXY d   1       1.572   2.638   0.630  0.00  0.00    -0.082 A 
ATOM      4  C2  PXY d   1       2.599   2.379  -0.163  0.00  0.00     0.003 A 
ATOM      5  C3  PXY d   1       2.459   1.518  -1.221  0.00  0.00     0.003 A 
ATOM      6  C4  PXY d   1       1.270   0.876  -1.438  0.00  0.00    -0.082 A 
ATOM      7  C5  PXY d   1       0.220   1.126  -0.628  0.00  0.00     0.003 A 
ATOM      8  C6  PXY d   1       0.372   2.034   0.416  0.00  0.00     0.003 A 
ENDROOT
TORSDOF 0
ENDMDL
