MODEL 1
REMARK minimizedAffinity -1.67968369
REMARK minimizedRMSD -1
REMARK  0 active torsions:
REMARK  status: ('A' for Active; 'I' for Inactive)
ROOT
ATOM      1  C4' PXY d   1       1.332  -0.055  -2.420  0.00  0.00     0.077 C 
ATOM      2  C1' PXY d   1       2.111   3.412   2.140  0.00  0.00     0.077 C 
ATOM      3  C1  PXY d   1       1.918   2.507   0.939  0.00  0.00    -0.082 A 
ATOM      4  C2  PXY d   1       0.701   2.099   0.616  0.00  0.00     0.003 A 
ATOM      5  C3  PXY d   1       0.512   1.255  -0.448  0.00  0.00     0.003 A 
ATOM      6  C4  PXY d   1       1.573   0.867  -1.221  0.00  0.00    -0.082 A 
ATOM      7  C5  PXY d   1       2.816   1.287  -0.905  0.00  0.00     0.003 A 
ATOM      8  C6  PXY d   1       2.992   2.111   0.203  0.00  0.00     0.003 A 
ENDROOT
TORSDOF 0
ENDMDL
