MODEL 1
REMARK minimizedAffinity 5.90193844
REMARK minimizedRMSD -1
REMARK  0 active torsions:
REMARK  status: ('A' for Active; 'I' for Inactive)
ROOT
ATOM      1  C4' PXY d   1       2.793   3.963   1.672  0.00  0.00     0.077 C 
ATOM      2  C1' PXY d   1      -1.241   0.024   0.395  0.00  0.00     0.077 C 
ATOM      3  C1  PXY d   1      -0.192   1.066   0.727  0.00  0.00    -0.082 A 
ATOM      4  C2  PXY d   1       1.091   0.755   0.638  0.00  0.00     0.003 A 
ATOM      5  C3  PXY d   1       2.053   1.675   0.965  0.00  0.00     0.003 A 
ATOM      6  C4  PXY d   1       1.699   2.945   1.337  0.00  0.00    -0.082 A 
ATOM      7  C5  PXY d   1       0.392   3.274   1.420  0.00  0.00     0.003 A 
ATOM      8  C6  PXY d   1      -0.569   2.312   1.123  0.00  0.00     0.003 A 
ENDROOT
TORSDOF 0
ENDMDL
