MODEL 1
REMARK minimizedAffinity -5.76678753
REMARK minimizedRMSD -1
REMARK  0 active torsions:
REMARK  status: ('A' for Active; 'I' for Inactive)
ROOT
ATOM      1  C   UNL d   1      -0.955   0.345  -0.835  0.00  0.00     0.078 C 
ATOM      2  C1  UNL d   1       0.282  -0.113  -0.122  0.00  0.00    -0.077 A 
ATOM      3  C2  UNL d   1       1.471   0.623  -0.196  0.00  0.00    -0.001 A 
ATOM      4  C3  UNL d   1       2.618   0.180   0.466  0.00  0.00     0.003 A 
ATOM      5  C4  UNL d   1       2.587  -1.002   1.204  0.00  0.00    -0.005 A 
ATOM      6  C5  UNL d   1       1.409  -1.742   1.281  0.00  0.00     0.003 A 
ATOM      7  C6  UNL d   1       0.261  -1.300   0.621  0.00  0.00    -0.001 A 
ENDROOT
TORSDOF 0
ENDMDL
