MODEL 1
REMARK minimizedAffinity -5.40331793
REMARK minimizedRMSD -1
REMARK  0 active torsions:
REMARK  status: ('A' for Active; 'I' for Inactive)
ROOT
ATOM      1  C   UNL d   1      -1.232  -0.413  -0.873  0.00  0.00     0.078 C 
ATOM      2  C1  UNL d   1       0.026   0.146  -0.278  0.00  0.00    -0.077 A 
ATOM      3  C2  UNL d   1       1.088  -0.692   0.082  0.00  0.00    -0.001 A 
ATOM      4  C3  UNL d   1       2.249  -0.159   0.644  0.00  0.00     0.003 A 
ATOM      5  C4  UNL d   1       2.359   1.215   0.852  0.00  0.00    -0.005 A 
ATOM      6  C5  UNL d   1       1.306   2.057   0.499  0.00  0.00     0.003 A 
ATOM      7  C6  UNL d   1       0.145   1.525  -0.063  0.00  0.00    -0.001 A 
ENDROOT
TORSDOF 0
ENDMDL
