MODEL 1
REMARK minimizedAffinity -5.1438055
REMARK minimizedRMSD -1
REMARK  0 active torsions:
REMARK  status: ('A' for Active; 'I' for Inactive)
ROOT
ATOM      1  C   UNL d   1      -0.846  -0.052  -0.747  0.00  0.00     0.078 C 
ATOM      2  C1  UNL d   1       0.495  -0.071  -0.077  0.00  0.00    -0.077 A 
ATOM      3  C2  UNL d   1       0.890  -1.155   0.717  0.00  0.00    -0.001 A 
ATOM      4  C3  UNL d   1       2.138  -1.154   1.343  0.00  0.00     0.003 A 
ATOM      5  C4  UNL d   1       3.000  -0.072   1.183  0.00  0.00    -0.005 A 
ATOM      6  C5  UNL d   1       2.615   1.013   0.397  0.00  0.00     0.003 A 
ATOM      7  C6  UNL d   1       1.368   1.014  -0.230  0.00  0.00    -0.001 A 
ENDROOT
TORSDOF 0
ENDMDL
