MODEL 1
REMARK minimizedAffinity -3.94827747
REMARK minimizedRMSD -1
REMARK  0 active torsions:
REMARK  status: ('A' for Active; 'I' for Inactive)
ROOT
ATOM      1  C   UNL d   1      -1.694  -0.072  -0.228  0.00  0.00     0.078 C 
ATOM      2  C1  UNL d   1      -0.332   0.446   0.128  0.00  0.00    -0.077 A 
ATOM      3  C2  UNL d   1       0.706  -0.430   0.468  0.00  0.00    -0.001 A 
ATOM      4  C3  UNL d   1       1.966   0.066   0.806  0.00  0.00     0.003 A 
ATOM      5  C4  UNL d   1       2.199   1.440   0.810  0.00  0.00    -0.005 A 
ATOM      6  C5  UNL d   1       1.172   2.319   0.475  0.00  0.00     0.003 A 
ATOM      7  C6  UNL d   1      -0.089   1.825   0.136  0.00  0.00    -0.001 A 
ENDROOT
TORSDOF 0
ENDMDL
