MODEL 1
REMARK minimizedAffinity -5.59429836
REMARK minimizedRMSD -1
REMARK  0 active torsions:
REMARK  status: ('A' for Active; 'I' for Inactive)
ROOT
ATOM      1  C   UNL d   1       0.458   2.975   0.278  0.00  0.00     0.078 C 
ATOM      2  C1  UNL d   1       1.098   1.620   0.336  0.00  0.00    -0.077 A 
ATOM      3  C2  UNL d   1       2.306   1.422   1.016  0.00  0.00    -0.001 A 
ATOM      4  C3  UNL d   1       2.895   0.157   1.054  0.00  0.00     0.003 A 
ATOM      5  C4  UNL d   1       2.284  -0.919   0.414  0.00  0.00    -0.005 A 
ATOM      6  C5  UNL d   1       1.083  -0.731  -0.267  0.00  0.00     0.003 A 
ATOM      7  C6  UNL d   1       0.492   0.533  -0.306  0.00  0.00    -0.001 A 
ENDROOT
TORSDOF 0
ENDMDL
