MODEL 1
REMARK minimizedAffinity -4.78470993
REMARK minimizedRMSD -1
REMARK  0 active torsions:
REMARK  status: ('A' for Active; 'I' for Inactive)
ROOT
ATOM      1  C   UNL d   1      -0.579  -0.695  -0.334  0.00  0.00     0.078 C 
ATOM      2  C1  UNL d   1       0.787  -0.528   0.263  0.00  0.00    -0.077 A 
ATOM      3  C2  UNL d   1       1.280  -1.443   1.201  0.00  0.00    -0.001 A 
ATOM      4  C3  UNL d   1       2.549  -1.270   1.756  0.00  0.00     0.003 A 
ATOM      5  C4  UNL d   1       3.335  -0.182   1.381  0.00  0.00    -0.005 A 
ATOM      6  C5  UNL d   1       2.851   0.735   0.449  0.00  0.00     0.003 A 
ATOM      7  C6  UNL d   1       1.582   0.563  -0.107  0.00  0.00    -0.001 A 
ENDROOT
TORSDOF 0
ENDMDL
