MODEL 1
REMARK minimizedAffinity -5.03776646
REMARK minimizedRMSD -1
REMARK  0 active torsions:
REMARK  status: ('A' for Active; 'I' for Inactive)
ROOT
ATOM      1  C   UNL d   1      -1.090   0.038  -0.341  0.00  0.00     0.078 C 
ATOM      2  C1  UNL d   1       0.320   0.073   0.168  0.00  0.00    -0.077 A 
ATOM      3  C2  UNL d   1       0.823   1.204   0.823  0.00  0.00    -0.001 A 
ATOM      4  C3  UNL d   1       2.141   1.226   1.282  0.00  0.00     0.003 A 
ATOM      5  C4  UNL d   1       2.967   0.120   1.091  0.00  0.00    -0.005 A 
ATOM      6  C5  UNL d   1       2.477  -1.009   0.438  0.00  0.00     0.003 A 
ATOM      7  C6  UNL d   1       1.159  -1.033  -0.022  0.00  0.00    -0.001 A 
ENDROOT
TORSDOF 0
ENDMDL
