MODEL 1
REMARK minimizedAffinity -0.661912501
REMARK minimizedRMSD -1
REMARK  2 active torsions:
REMARK  status: ('A' for Active; 'I' for Inactive)
REMARK    1  A    between atoms: C1_2  and  C2_3 
REMARK    2  A    between atoms: C2_3  and  C3_4 
ROOT
ATOM      1  C3  UNL d   1       4.522  -4.110  -2.908  0.00  0.00    -0.075 A 
ATOM      2  C4  UNL d   1       5.811  -4.158  -3.459  0.00  0.00     0.002 A 
ATOM      3  C5  UNL d   1       5.999  -4.548  -4.785  0.00  0.00     0.002 A 
ATOM      4  C6  UNL d   1       4.907  -4.905  -5.572  0.00  0.00    -0.004 A 
ATOM      5  C7  UNL d   1       3.624  -4.877  -5.029  0.00  0.00     0.002 A 
ATOM      6  C8  UNL d   1       3.431  -4.482  -3.704  0.00  0.00     0.002 A 
ENDROOT
BRANCH   1   7
ATOM      7  C2  UNL d   1       4.308  -3.660  -1.482  0.00  0.00     0.056 C 
BRANCH   7   8
ATOM      8  C1  UNL d   1       5.577  -3.683  -0.624  0.00  0.00     0.007 C 
ATOM      9  C   UNL d   1       5.314  -4.067   0.826  0.00  0.00     0.009 C 
ENDBRANCH   7   8
ENDBRANCH   1   7
TORSDOF 2
ENDMDL
