MODEL 1
REMARK minimizedAffinity -4.08478928
REMARK minimizedRMSD -1
REMARK  2 active torsions:
REMARK  status: ('A' for Active; 'I' for Inactive)
REMARK    1  A    between atoms: C1_2  and  C2_3 
REMARK    2  A    between atoms: C2_3  and  C3_4 
ROOT
ATOM      1  C3  UNL d   1       5.640  -3.855   2.428  0.00  0.00    -0.075 A 
ATOM      2  C4  UNL d   1       5.999  -2.550   2.794  0.00  0.00     0.002 A 
ATOM      3  C5  UNL d   1       5.994  -2.163   4.134  0.00  0.00     0.002 A 
ATOM      4  C6  UNL d   1       5.621  -3.070   5.123  0.00  0.00    -0.004 A 
ATOM      5  C7  UNL d   1       5.246  -4.365   4.770  0.00  0.00     0.002 A 
ATOM      6  C8  UNL d   1       5.254  -4.756   3.430  0.00  0.00     0.002 A 
ENDROOT
BRANCH   1   7
ATOM      7  C2  UNL d   1       5.672  -4.289   0.982  0.00  0.00     0.056 C 
BRANCH   7   8
ATOM      8  C1  UNL d   1       5.995  -3.159  -0.001  0.00  0.00     0.007 C 
ATOM      9  C   UNL d   1       5.725  -3.531  -1.453  0.00  0.00     0.009 C 
ENDBRANCH   7   8
ENDBRANCH   1   7
TORSDOF 2
ENDMDL
