MODEL 1
REMARK minimizedAffinity 3.29746675
REMARK minimizedRMSD -1
REMARK  2 active torsions:
REMARK  status: ('A' for Active; 'I' for Inactive)
REMARK    1  A    between atoms: C1_2  and  C2_3 
REMARK    2  A    between atoms: C2_3  and  C3_4 
ROOT
ATOM      1  C3  UNL d   1       5.278  -3.743   3.545  0.00  0.00    -0.075 A 
ATOM      2  C4  UNL d   1       5.994  -3.964   4.730  0.00  0.00     0.002 A 
ATOM      3  C5  UNL d   1       5.322  -4.190   5.932  0.00  0.00     0.002 A 
ATOM      4  C6  UNL d   1       3.929  -4.187   5.966  0.00  0.00    -0.004 A 
ATOM      5  C7  UNL d   1       3.208  -3.952   4.797  0.00  0.00     0.002 A 
ATOM      6  C8  UNL d   1       3.878  -3.731   3.593  0.00  0.00     0.002 A 
ENDROOT
BRANCH   1   7
ATOM      7  C2  UNL d   1       5.999  -3.528   2.236  0.00  0.00     0.056 C 
BRANCH   7   8
ATOM      8  C1  UNL d   1       5.876  -4.699   1.256  0.00  0.00     0.007 C 
ATOM      9  C   UNL d   1       5.999  -4.278  -0.202  0.00  0.00     0.009 C 
ENDBRANCH   7   8
ENDBRANCH   1   7
TORSDOF 2
ENDMDL
