MODEL 1
REMARK minimizedAffinity 0.808617592
REMARK minimizedRMSD -1
REMARK  2 active torsions:
REMARK  status: ('A' for Active; 'I' for Inactive)
REMARK    1  A    between atoms: C1_2  and  C2_3 
REMARK    2  A    between atoms: C2_3  and  C3_4 
ROOT
ATOM      1  C3  UNL d   1       5.725  -4.114  -3.335  0.00  0.00    -0.075 A 
ATOM      2  C4  UNL d   1       5.568  -5.484  -3.591  0.00  0.00     0.002 A 
ATOM      3  C5  UNL d   1       5.544  -5.962  -4.902  0.00  0.00     0.002 A 
ATOM      4  C6  UNL d   1       5.665  -5.077  -5.971  0.00  0.00    -0.004 A 
ATOM      5  C7  UNL d   1       5.805  -3.712  -5.729  0.00  0.00     0.002 A 
ATOM      6  C8  UNL d   1       5.834  -3.232  -4.418  0.00  0.00     0.002 A 
ENDROOT
BRANCH   1   7
ATOM      7  C2  UNL d   1       5.781  -3.595  -1.918  0.00  0.00     0.056 C 
BRANCH   7   8
ATOM      8  C1  UNL d   1       5.440  -2.107  -1.786  0.00  0.00     0.007 C 
ATOM      9  C   UNL d   1       3.975  -1.854  -1.457  0.00  0.00     0.009 C 
ENDBRANCH   7   8
ENDBRANCH   1   7
TORSDOF 2
ENDMDL
