MODEL 1
REMARK minimizedAffinity 0.482736886
REMARK minimizedRMSD -1
REMARK  2 active torsions:
REMARK  status: ('A' for Active; 'I' for Inactive)
REMARK    1  A    between atoms: C1_2  and  C2_3 
REMARK    2  A    between atoms: C2_3  and  C3_4 
ROOT
ATOM      1  C3  UNL d   1       5.919  -4.010   4.127  0.00  0.00    -0.075 A 
ATOM      2  C4  UNL d   1       5.962  -3.000   3.156  0.00  0.00     0.002 A 
ATOM      3  C5  UNL d   1       5.997  -3.323   1.799  0.00  0.00     0.002 A 
ATOM      4  C6  UNL d   1       6.000  -4.657   1.397  0.00  0.00    -0.004 A 
ATOM      5  C7  UNL d   1       5.974  -5.669   2.354  0.00  0.00     0.002 A 
ATOM      6  C8  UNL d   1       5.934  -5.349   3.713  0.00  0.00     0.002 A 
ENDROOT
BRANCH   1   7
ATOM      7  C2  UNL d   1       5.851  -3.667   5.596  0.00  0.00     0.056 C 
BRANCH   7   8
ATOM      8  C1  UNL d   1       5.088  -2.373   5.900  0.00  0.00     0.007 C 
ATOM      9  C   UNL d   1       5.993  -1.152   5.999  0.00  0.00     0.009 C 
ENDBRANCH   7   8
ENDBRANCH   1   7
TORSDOF 2
ENDMDL
