MODEL 1
REMARK minimizedAffinity -2.48090005
REMARK minimizedRMSD -1
REMARK  2 active torsions:
REMARK  status: ('A' for Active; 'I' for Inactive)
REMARK    1  A    between atoms: C1_2  and  C2_3 
REMARK    2  A    between atoms: C2_3  and  C3_4 
ROOT
ATOM      1  C3  UNL d   1       5.820  -4.986   4.121  0.00  0.00    -0.075 A 
ATOM      2  C4  UNL d   1       5.850  -3.612   4.402  0.00  0.00     0.002 A 
ATOM      3  C5  UNL d   1       5.933  -2.679   3.368  0.00  0.00     0.002 A 
ATOM      4  C6  UNL d   1       5.999  -3.106   2.044  0.00  0.00    -0.004 A 
ATOM      5  C7  UNL d   1       5.987  -4.468   1.754  0.00  0.00     0.002 A 
ATOM      6  C8  UNL d   1       5.899  -5.404   2.786  0.00  0.00     0.002 A 
ENDROOT
BRANCH   1   7
ATOM      7  C2  UNL d   1       5.700  -6.000   5.233  0.00  0.00     0.056 C 
BRANCH   7   8
ATOM      8  C1  UNL d   1       4.355  -5.965   5.966  0.00  0.00     0.007 C 
ATOM      9  C   UNL d   1       3.158  -5.984   5.025  0.00  0.00     0.009 C 
ENDBRANCH   7   8
ENDBRANCH   1   7
TORSDOF 2
ENDMDL
