MODEL 1
REMARK minimizedAffinity 0.610159397
REMARK minimizedRMSD -1
REMARK  2 active torsions:
REMARK  status: ('A' for Active; 'I' for Inactive)
REMARK    1  A    between atoms: C1_2  and  C2_3 
REMARK    2  A    between atoms: C2_3  and  C3_4 
ROOT
ATOM      1  C3  UNL d   1       5.968  -4.064  -2.915  0.00  0.00    -0.075 A 
ATOM      2  C4  UNL d   1       5.999  -5.403  -3.328  0.00  0.00     0.002 A 
ATOM      3  C5  UNL d   1       5.997  -5.727  -4.685  0.00  0.00     0.002 A 
ATOM      4  C6  UNL d   1       5.952  -4.718  -5.644  0.00  0.00    -0.004 A 
ATOM      5  C7  UNL d   1       5.904  -3.384  -5.245  0.00  0.00     0.002 A 
ATOM      6  C8  UNL d   1       5.911  -3.057  -3.888  0.00  0.00     0.002 A 
ENDROOT
BRANCH   1   7
ATOM      7  C2  UNL d   1       6.000  -3.706  -1.448  0.00  0.00     0.056 C 
BRANCH   7   8
ATOM      8  C1  UNL d   1       5.336  -2.365  -1.118  0.00  0.00     0.007 C 
ATOM      9  C   UNL d   1       4.151  -2.044  -2.019  0.00  0.00     0.009 C 
ENDBRANCH   7   8
ENDBRANCH   1   7
TORSDOF 2
ENDMDL
