MODEL 1
REMARK minimizedAffinity -4.29160357
REMARK minimizedRMSD -1
REMARK  2 active torsions:
REMARK  status: ('A' for Active; 'I' for Inactive)
REMARK    1  A    between atoms: C1_2  and  C2_3 
REMARK    2  A    between atoms: C2_3  and  C3_4 
ROOT
ATOM      1  C3  UNL d   1       5.445  -4.238   2.038  0.00  0.00    -0.075 A 
ATOM      2  C4  UNL d   1       4.904  -4.911   3.143  0.00  0.00     0.002 A 
ATOM      3  C5  UNL d   1       4.899  -4.313   4.403  0.00  0.00     0.002 A 
ATOM      4  C6  UNL d   1       5.441  -3.042   4.577  0.00  0.00    -0.004 A 
ATOM      5  C7  UNL d   1       5.996  -2.371   3.489  0.00  0.00     0.002 A 
ATOM      6  C8  UNL d   1       5.999  -2.965   2.226  0.00  0.00     0.002 A 
ENDROOT
BRANCH   1   7
ATOM      7  C2  UNL d   1       5.427  -4.868   0.665  0.00  0.00     0.056 C 
BRANCH   7   8
ATOM      8  C1  UNL d   1       5.382  -3.856  -0.485  0.00  0.00     0.007 C 
ATOM      9  C   UNL d   1       4.889  -4.457  -1.794  0.00  0.00     0.009 C 
ENDBRANCH   7   8
ENDBRANCH   1   7
TORSDOF 2
ENDMDL
