MODEL 1
REMARK minimizedAffinity -2.1154151
REMARK minimizedRMSD -1
REMARK  2 active torsions:
REMARK  status: ('A' for Active; 'I' for Inactive)
REMARK    1  A    between atoms: C1_2  and  C2_3 
REMARK    2  A    between atoms: C2_3  and  C3_4 
ROOT
ATOM      1  C3  UNL d   1       5.597  -3.742   2.146  0.00  0.00    -0.075 A 
ATOM      2  C4  UNL d   1       4.931  -2.543   2.439  0.00  0.00     0.002 A 
ATOM      3  C5  UNL d   1       4.692  -2.171   3.762  0.00  0.00     0.002 A 
ATOM      4  C6  UNL d   1       5.105  -2.996   4.806  0.00  0.00    -0.004 A 
ATOM      5  C7  UNL d   1       5.752  -4.198   4.526  0.00  0.00     0.002 A 
ATOM      6  C8  UNL d   1       5.996  -4.570   3.203  0.00  0.00     0.002 A 
ENDROOT
BRANCH   1   7
ATOM      7  C2  UNL d   1       5.885  -4.136   0.717  0.00  0.00     0.056 C 
BRANCH   7   8
ATOM      8  C1  UNL d   1       6.000  -2.950  -0.246  0.00  0.00     0.007 C 
ATOM      9  C   UNL d   1       5.917  -3.356  -1.712  0.00  0.00     0.009 C 
ENDBRANCH   7   8
ENDBRANCH   1   7
TORSDOF 2
ENDMDL
