MODEL 1
REMARK minimizedAffinity -3.77481389
REMARK minimizedRMSD -1
REMARK  2 active torsions:
REMARK  status: ('A' for Active; 'I' for Inactive)
REMARK    1  A    between atoms: C1_2  and  C2_3 
REMARK    2  A    between atoms: C2_3  and  C3_4 
ROOT
ATOM      1  C3  UNL d   1       5.625  -3.942   3.507  0.00  0.00    -0.075 A 
ATOM      2  C4  UNL d   1       4.914  -4.614   4.511  0.00  0.00     0.002 A 
ATOM      3  C5  UNL d   1       4.547  -3.952   5.683  0.00  0.00     0.002 A 
ATOM      4  C6  UNL d   1       4.895  -2.616   5.870  0.00  0.00    -0.004 A 
ATOM      5  C7  UNL d   1       5.616  -1.943   4.886  0.00  0.00     0.002 A 
ATOM      6  C8  UNL d   1       5.981  -2.602   3.711  0.00  0.00     0.002 A 
ENDROOT
BRANCH   1   7
ATOM      7  C2  UNL d   1       6.000  -4.644   2.223  0.00  0.00     0.056 C 
BRANCH   7   8
ATOM      8  C1  UNL d   1       5.998  -3.734   0.991  0.00  0.00     0.007 C 
ATOM      9  C   UNL d   1       5.999  -4.503  -0.324  0.00  0.00     0.009 C 
ENDBRANCH   7   8
ENDBRANCH   1   7
TORSDOF 2
ENDMDL
