MODEL 1
REMARK minimizedAffinity -3.39252615
REMARK minimizedRMSD -1
REMARK  2 active torsions:
REMARK  status: ('A' for Active; 'I' for Inactive)
REMARK    1  A    between atoms: C1_2  and  C2_3 
REMARK    2  A    between atoms: C2_3  and  C3_4 
ROOT
ATOM      1  C3  UNL d   1       5.966  -3.849   3.900  0.00  0.00    -0.075 A 
ATOM      2  C4  UNL d   1       5.984  -2.525   3.439  0.00  0.00     0.002 A 
ATOM      3  C5  UNL d   1       5.996  -2.251   2.071  0.00  0.00     0.002 A 
ATOM      4  C6  UNL d   1       6.000  -3.295   1.149  0.00  0.00    -0.004 A 
ATOM      5  C7  UNL d   1       5.999  -4.615   1.595  0.00  0.00     0.002 A 
ATOM      6  C8  UNL d   1       5.982  -4.891   2.964  0.00  0.00     0.002 A 
ENDROOT
BRANCH   1   7
ATOM      7  C2  UNL d   1       5.924  -4.152   5.379  0.00  0.00     0.056 C 
BRANCH   7   8
ATOM      8  C1  UNL d   1       4.508  -4.221   5.961  0.00  0.00     0.007 C 
ATOM      9  C   UNL d   1       3.936  -5.633   5.982  0.00  0.00     0.009 C 
ENDBRANCH   7   8
ENDBRANCH   1   7
TORSDOF 2
ENDMDL
