MODEL 1
REMARK minimizedAffinity 1.74824333
REMARK minimizedRMSD -1
REMARK  2 active torsions:
REMARK  status: ('A' for Active; 'I' for Inactive)
REMARK    1  A    between atoms: C1_2  and  C2_3 
REMARK    2  A    between atoms: C2_3  and  C3_4 
ROOT
ATOM      1  C3  UNL d   1       5.197  -3.711   4.821  0.00  0.00    -0.075 A 
ATOM      2  C4  UNL d   1       5.938  -4.841   5.197  0.00  0.00     0.002 A 
ATOM      3  C5  UNL d   1       5.305  -5.944   5.772  0.00  0.00     0.002 A 
ATOM      4  C6  UNL d   1       3.929  -5.927   5.987  0.00  0.00    -0.004 A 
ATOM      5  C7  UNL d   1       3.186  -4.803   5.632  0.00  0.00     0.002 A 
ATOM      6  C8  UNL d   1       3.816  -3.700   5.053  0.00  0.00     0.002 A 
ENDROOT
BRANCH   1   7
ATOM      7  C2  UNL d   1       5.872  -2.526   4.171  0.00  0.00     0.056 C 
BRANCH   7   8
ATOM      8  C1  UNL d   1       5.965  -2.621   2.645  0.00  0.00     0.007 C 
ATOM      9  C   UNL d   1       5.626  -4.005   2.108  0.00  0.00     0.009 C 
ENDBRANCH   7   8
ENDBRANCH   1   7
TORSDOF 2
ENDMDL
