MODEL 1
REMARK minimizedAffinity -3.83066702
REMARK minimizedRMSD -1
REMARK  2 active torsions:
REMARK  status: ('A' for Active; 'I' for Inactive)
REMARK    1  A    between atoms: C1_2  and  C2_3 
REMARK    2  A    between atoms: C2_3  and  C3_4 
ROOT
ATOM      1  C3  UNL d   1       5.801  -5.133  -1.086  0.00  0.00    -0.075 A 
ATOM      2  C4  UNL d   1       5.413  -3.807  -1.331  0.00  0.00     0.002 A 
ATOM      3  C5  UNL d   1       5.204  -3.360  -2.636  0.00  0.00     0.002 A 
ATOM      4  C6  UNL d   1       5.390  -4.226  -3.711  0.00  0.00    -0.004 A 
ATOM      5  C7  UNL d   1       5.791  -5.540  -3.480  0.00  0.00     0.002 A 
ATOM      6  C8  UNL d   1       5.996  -5.992  -2.176  0.00  0.00     0.002 A 
ENDROOT
BRANCH   1   7
ATOM      7  C2  UNL d   1       6.000  -5.631   0.325  0.00  0.00     0.056 C 
BRANCH   7   8
ATOM      8  C1  UNL d   1       5.999  -4.524   1.384  0.00  0.00     0.007 C 
ATOM      9  C   UNL d   1       4.766  -4.547   2.277  0.00  0.00     0.009 C 
ENDBRANCH   7   8
ENDBRANCH   1   7
TORSDOF 2
ENDMDL
