MODEL 1
REMARK minimizedAffinity 15.8638096
REMARK minimizedRMSD -1
REMARK  1 active torsions:
REMARK  status: ('A' for Active; 'I' for Inactive)
REMARK    1  A    between atoms: C1_2  and  C2_3 
ROOT
ATOM      1  C2  UNL d   1      -0.132   3.574  -0.294  0.00  0.00    -0.073 A 
ATOM      2  C3  UNL d   1      -0.189   3.018   0.989  0.00  0.00    -0.002 A 
ATOM      3  C4  UNL d   1      -1.053   1.956   1.259  0.00  0.00     0.004 A 
ATOM      4  C5  UNL d   1      -1.861   1.434   0.249  0.00  0.00    -0.004 A 
ATOM      5  C6  UNL d   1      -1.809   1.968  -1.042  0.00  0.00    -0.075 A 
ATOM      6  C7  UNL d   1      -2.674   1.420  -2.139  0.00  0.00     0.076 C 
ATOM      7  C8  UNL d   1      -0.942   3.037  -1.305  0.00  0.00     0.001 A 
ENDROOT
BRANCH   1   8
ATOM      8  C1  UNL d   1       0.804   4.717  -0.592  0.00  0.00     0.053 C 
ATOM      9  C   UNL d   1       0.386   5.995   0.118  0.00  0.00     0.018 C 
ENDBRANCH   1   8
TORSDOF 1
ENDMDL
