MODEL 1
REMARK minimizedAffinity 6.84204769
REMARK minimizedRMSD -1
REMARK  1 active torsions:
REMARK  status: ('A' for Active; 'I' for Inactive)
REMARK    1  A    between atoms: C1_2  and  C2_3 
ROOT
ATOM      1  C2  UNL d   1       1.102  -2.139   4.156  0.00  0.00    -0.073 A 
ATOM      2  C3  UNL d   1       0.909  -3.125   3.183  0.00  0.00    -0.002 A 
ATOM      3  C4  UNL d   1       1.148  -2.844   1.837  0.00  0.00     0.004 A 
ATOM      4  C5  UNL d   1       1.589  -1.578   1.452  0.00  0.00    -0.004 A 
ATOM      5  C6  UNL d   1       1.799  -0.582   2.412  0.00  0.00    -0.075 A 
ATOM      6  C7  UNL d   1       2.271   0.786   2.014  0.00  0.00     0.076 C 
ATOM      7  C8  UNL d   1       1.554  -0.872   3.761  0.00  0.00     0.001 A 
ENDROOT
BRANCH   1   8
ATOM      8  C1  UNL d   1       0.851  -2.440   5.611  0.00  0.00     0.053 C 
ATOM      9  C   UNL d   1       1.083  -3.907   5.938  0.00  0.00     0.018 C 
ENDBRANCH   1   8
TORSDOF 1
ENDMDL
