MODEL 1
REMARK minimizedAffinity -2.43776059
REMARK minimizedRMSD -1
REMARK  1 active torsions:
REMARK  status: ('A' for Active; 'I' for Inactive)
REMARK    1  A    between atoms: C1_2  and  C2_3 
ROOT
ATOM      1  C2  UNL d   1       0.950  -3.221   2.564  0.00  0.00    -0.073 A 
ATOM      2  C3  UNL d   1       1.316  -3.947   1.425  0.00  0.00    -0.002 A 
ATOM      3  C4  UNL d   1       1.492  -5.329   1.497  0.00  0.00     0.004 A 
ATOM      4  C5  UNL d   1       1.297  -6.000   2.704  0.00  0.00    -0.004 A 
ATOM      5  C6  UNL d   1       0.920  -5.294   3.851  0.00  0.00    -0.075 A 
ATOM      6  C7  UNL d   1       0.709  -6.000   5.158  0.00  0.00     0.076 C 
ATOM      7  C8  UNL d   1       0.748  -3.905   3.771  0.00  0.00     0.001 A 
ENDROOT
BRANCH   1   8
ATOM      8  C1  UNL d   1       0.752  -1.729   2.490  0.00  0.00     0.053 C 
ATOM      9  C   UNL d   1       1.136  -1.170   1.129  0.00  0.00     0.018 C 
ENDBRANCH   1   8
TORSDOF 1
ENDMDL
