MODEL 1
REMARK minimizedAffinity 7.15554905
REMARK minimizedRMSD -1
REMARK  1 active torsions:
REMARK  status: ('A' for Active; 'I' for Inactive)
REMARK    1  A    between atoms: C1_2  and  C2_3 
ROOT
ATOM      1  C2  UNL d   1       2.163  -2.393   3.167  0.00  0.00    -0.073 A 
ATOM      2  C3  UNL d   1       1.665  -3.148   4.235  0.00  0.00    -0.002 A 
ATOM      3  C4  UNL d   1       2.533  -3.884   5.042  0.00  0.00     0.004 A 
ATOM      4  C5  UNL d   1       3.906  -3.867   4.796  0.00  0.00    -0.004 A 
ATOM      5  C6  UNL d   1       4.424  -3.108   3.741  0.00  0.00    -0.075 A 
ATOM      6  C7  UNL d   1       5.898  -3.081   3.461  0.00  0.00     0.076 C 
ATOM      7  C8  UNL d   1       3.545  -2.374   2.933  0.00  0.00     0.001 A 
ENDROOT
BRANCH   1   8
ATOM      8  C1  UNL d   1       1.230  -1.592   2.296  0.00  0.00     0.053 C 
ATOM      9  C   UNL d   1       1.929  -0.403   1.655  0.00  0.00     0.018 C 
ENDBRANCH   1   8
TORSDOF 1
ENDMDL
