MODEL 1
REMARK minimizedAffinity 11.9169369
REMARK minimizedRMSD -1
REMARK  1 active torsions:
REMARK  status: ('A' for Active; 'I' for Inactive)
REMARK    1  A    between atoms: C1_2  and  C2_3 
ROOT
ATOM      1  C2  UNL d   1       3.917  -3.224   3.934  0.00  0.00    -0.073 A 
ATOM      2  C3  UNL d   1       3.167  -3.883   4.915  0.00  0.00    -0.002 A 
ATOM      3  C4  UNL d   1       1.775  -3.778   4.926  0.00  0.00     0.004 A 
ATOM      4  C5  UNL d   1       1.120  -3.021   3.955  0.00  0.00    -0.004 A 
ATOM      5  C6  UNL d   1       1.852  -2.364   2.960  0.00  0.00    -0.075 A 
ATOM      6  C7  UNL d   1       1.163  -1.544   1.910  0.00  0.00     0.076 C 
ATOM      7  C8  UNL d   1       3.249  -2.472   2.957  0.00  0.00     0.001 A 
ENDROOT
BRANCH   1   8
ATOM      8  C1  UNL d   1       5.420  -3.339   3.914  0.00  0.00     0.053 C 
ATOM      9  C   UNL d   1       6.000  -2.990   2.553  0.00  0.00     0.018 C 
ENDBRANCH   1   8
TORSDOF 1
ENDMDL
