MODEL 1
REMARK minimizedAffinity 14.1363792
REMARK minimizedRMSD -1
REMARK  1 active torsions:
REMARK  status: ('A' for Active; 'I' for Inactive)
REMARK    1  A    between atoms: C1_2  and  C2_3 
ROOT
ATOM      1  C2  UNL d   1       1.841  -3.302   2.874  0.00  0.00    -0.073 A 
ATOM      2  C3  UNL d   1       1.032  -2.857   3.926  0.00  0.00    -0.002 A 
ATOM      3  C4  UNL d   1       0.744  -1.499   4.068  0.00  0.00     0.004 A 
ATOM      4  C5  UNL d   1       1.255  -0.574   3.157  0.00  0.00    -0.004 A 
ATOM      5  C6  UNL d   1       2.056  -1.001   2.093  0.00  0.00    -0.075 A 
ATOM      6  C7  UNL d   1       2.615  -0.019   1.106  0.00  0.00     0.076 C 
ATOM      7  C8  UNL d   1       2.342  -2.366   1.959  0.00  0.00     0.001 A 
ENDROOT
BRANCH   1   8
ATOM      8  C1  UNL d   1       2.149  -4.768   2.714  0.00  0.00     0.053 C 
ATOM      9  C   UNL d   1       1.702  -5.300   1.361  0.00  0.00     0.018 C 
ENDBRANCH   1   8
TORSDOF 1
ENDMDL
