MODEL 1
REMARK minimizedAffinity 7.51824999
REMARK minimizedRMSD -1
REMARK  1 active torsions:
REMARK  status: ('A' for Active; 'I' for Inactive)
REMARK    1  A    between atoms: C1_2  and  C2_3 
ROOT
ATOM      1  C2  UNL d   1       3.490  -3.519   2.947  0.00  0.00    -0.073 A 
ATOM      2  C3  UNL d   1       2.722  -2.898   1.955  0.00  0.00    -0.002 A 
ATOM      3  C4  UNL d   1       1.481  -2.343   2.270  0.00  0.00     0.004 A 
ATOM      4  C5  UNL d   1       0.999  -2.395   3.578  0.00  0.00    -0.004 A 
ATOM      5  C6  UNL d   1       1.758  -3.001   4.585  0.00  0.00    -0.075 A 
ATOM      6  C7  UNL d   1       1.253  -3.068   5.996  0.00  0.00     0.076 C 
ATOM      7  C8  UNL d   1       3.002  -3.559   4.261  0.00  0.00     0.001 A 
ENDROOT
BRANCH   1   8
ATOM      8  C1  UNL d   1       4.833  -4.115   2.613  0.00  0.00     0.053 C 
ATOM      9  C   UNL d   1       5.935  -3.066   2.601  0.00  0.00     0.018 C 
ENDBRANCH   1   8
TORSDOF 1
ENDMDL
