MODEL 1
REMARK minimizedAffinity -3.4445951
REMARK minimizedRMSD -1
REMARK  2 active torsions:
REMARK  status: ('A' for Active; 'I' for Inactive)
REMARK    1  A    between atoms: C1_2  and  C2_3 
REMARK    2  A    between atoms: C2_3  and  C3_4 
ROOT
ATOM      1  C3  UNL d   1      -0.127  -0.462   0.121  0.00  0.00    -0.075 A 
ATOM      2  C4  UNL d   1      -1.035   0.606   0.160  0.00  0.00     0.002 A 
ATOM      3  C5  UNL d   1      -0.584   1.914   0.340  0.00  0.00     0.002 A 
ATOM      4  C6  UNL d   1       0.777   2.169   0.493  0.00  0.00    -0.004 A 
ATOM      5  C7  UNL d   1       1.687   1.114   0.473  0.00  0.00     0.002 A 
ATOM      6  C8  UNL d   1       1.239  -0.195   0.288  0.00  0.00     0.002 A 
ENDROOT
BRANCH   1   7
ATOM      7  C2  UNL d   1      -0.606  -1.876  -0.103  0.00  0.00     0.056 C 
BRANCH   7   8
ATOM      8  C1  UNL d   1      -0.725  -2.268  -1.579  0.00  0.00     0.007 C 
ATOM      9  C   UNL d   1      -2.018  -3.004  -1.903  0.00  0.00     0.009 C 
ENDBRANCH   7   8
ENDBRANCH   1   7
TORSDOF 2
ENDMDL
