MODEL 1
REMARK minimizedAffinity -5.4874835
REMARK minimizedRMSD -1
REMARK  2 active torsions:
REMARK  status: ('A' for Active; 'I' for Inactive)
REMARK    1  A    between atoms: C1_2  and  C2_3 
REMARK    2  A    between atoms: C2_3  and  C3_4 
ROOT
ATOM      1  C3  UNL d   1      -0.058   0.110   0.101  0.00  0.00    -0.075 A 
ATOM      2  C4  UNL d   1       1.149   0.575  -0.441  0.00  0.00     0.002 A 
ATOM      3  C5  UNL d   1       1.472   1.931  -0.391  0.00  0.00     0.002 A 
ATOM      4  C6  UNL d   1       0.590   2.840   0.190  0.00  0.00    -0.004 A 
ATOM      5  C7  UNL d   1      -0.620   2.392   0.717  0.00  0.00     0.002 A 
ATOM      6  C8  UNL d   1      -0.943   1.034   0.673  0.00  0.00     0.002 A 
ENDROOT
BRANCH   1   7
ATOM      7  C2  UNL d   1      -0.400  -1.360   0.078  0.00  0.00     0.056 C 
BRANCH   7   8
ATOM      8  C1  UNL d   1      -0.111  -2.046  -1.262  0.00  0.00     0.007 C 
ATOM      9  C   UNL d   1      -0.803  -3.395  -1.407  0.00  0.00     0.009 C 
ENDBRANCH   7   8
ENDBRANCH   1   7
TORSDOF 2
ENDMDL
