MODEL 1
REMARK minimizedAffinity -6.00965071
REMARK minimizedRMSD -1
REMARK  2 active torsions:
REMARK  status: ('A' for Active; 'I' for Inactive)
REMARK    1  A    between atoms: C1_2  and  C2_3 
REMARK    2  A    between atoms: C2_3  and  C3_4 
ROOT
ATOM      1  C3  UNL d   1       0.260  -0.098  -0.043  0.00  0.00    -0.075 A 
ATOM      2  C4  UNL d   1       1.125   0.931  -0.443  0.00  0.00     0.002 A 
ATOM      3  C5  UNL d   1       0.750   2.268  -0.302  0.00  0.00     0.002 A 
ATOM      4  C6  UNL d   1      -0.497   2.592   0.229  0.00  0.00    -0.004 A 
ATOM      5  C7  UNL d   1      -1.371   1.577   0.614  0.00  0.00     0.002 A 
ATOM      6  C8  UNL d   1      -0.996   0.240   0.478  0.00  0.00     0.002 A 
ENDROOT
BRANCH   1   7
ATOM      7  C2  UNL d   1       0.673  -1.545  -0.166  0.00  0.00     0.056 C 
BRANCH   7   8
ATOM      8  C1  UNL d   1      -0.291  -2.400  -0.996  0.00  0.00     0.007 C 
ATOM      9  C   UNL d   1       0.321  -2.902  -2.297  0.00  0.00     0.009 C 
ENDBRANCH   7   8
ENDBRANCH   1   7
TORSDOF 2
ENDMDL
