MODEL 1
REMARK minimizedAffinity -5.14003706
REMARK minimizedRMSD -1
REMARK  2 active torsions:
REMARK  status: ('A' for Active; 'I' for Inactive)
REMARK    1  A    between atoms: C1_2  and  C2_3 
REMARK    2  A    between atoms: C2_3  and  C3_4 
ROOT
ATOM      1  C3  UNL d   1       0.754   0.470   0.516  0.00  0.00    -0.075 A 
ATOM      2  C4  UNL d   1      -0.429   1.210   0.370  0.00  0.00     0.002 A 
ATOM      3  C5  UNL d   1      -0.408   2.602   0.449  0.00  0.00     0.002 A 
ATOM      4  C6  UNL d   1       0.791   3.272   0.684  0.00  0.00    -0.004 A 
ATOM      5  C7  UNL d   1       1.969   2.547   0.847  0.00  0.00     0.002 A 
ATOM      6  C8  UNL d   1       1.952   1.153   0.765  0.00  0.00     0.002 A 
ENDROOT
BRANCH   1   7
ATOM      7  C2  UNL d   1       0.743  -1.035   0.402  0.00  0.00     0.056 C 
BRANCH   7   8
ATOM      8  C1  UNL d   1       0.196  -1.556  -0.931  0.00  0.00     0.007 C 
ATOM      9  C   UNL d   1      -0.687  -2.787  -0.778  0.00  0.00     0.009 C 
ENDBRANCH   7   8
ENDBRANCH   1   7
TORSDOF 2
ENDMDL
