MODEL 1
REMARK minimizedAffinity -4.61197948
REMARK minimizedRMSD -1
REMARK  2 active torsions:
REMARK  status: ('A' for Active; 'I' for Inactive)
REMARK    1  A    between atoms: C1_2  and  C2_3 
REMARK    2  A    between atoms: C2_3  and  C3_4 
ROOT
ATOM      1  C3  UNL d   1       0.889   0.913  -0.364  0.00  0.00    -0.075 A 
ATOM      2  C4  UNL d   1      -0.213   0.071  -0.574  0.00  0.00     0.002 A 
ATOM      3  C5  UNL d   1      -0.214  -1.232  -0.078  0.00  0.00     0.002 A 
ATOM      4  C6  UNL d   1       0.889  -1.714   0.624  0.00  0.00    -0.004 A 
ATOM      5  C7  UNL d   1       1.996  -0.892   0.824  0.00  0.00     0.002 A 
ATOM      6  C8  UNL d   1       1.997   0.414   0.333  0.00  0.00     0.002 A 
ENDROOT
BRANCH   1   7
ATOM      7  C2  UNL d   1       0.883   2.335  -0.873  0.00  0.00     0.056 C 
BRANCH   7   8
ATOM      8  C1  UNL d   1       0.739   3.391   0.227  0.00  0.00     0.007 C 
ATOM      9  C   UNL d   1      -0.164   2.947   1.370  0.00  0.00     0.009 C 
ENDBRANCH   7   8
ENDBRANCH   1   7
TORSDOF 2
ENDMDL
