MODEL 1
REMARK minimizedAffinity -4.31394672
REMARK minimizedRMSD -1
REMARK  2 active torsions:
REMARK  status: ('A' for Active; 'I' for Inactive)
REMARK    1  A    between atoms: C1_2  and  C2_3 
REMARK    2  A    between atoms: C2_3  and  C3_4 
ROOT
ATOM      1  C3  UNL d   1       0.065   0.196  -0.081  0.00  0.00    -0.075 A 
ATOM      2  C4  UNL d   1      -1.061   0.900   0.369  0.00  0.00     0.002 A 
ATOM      3  C5  UNL d   1      -1.044   2.294   0.438  0.00  0.00     0.002 A 
ATOM      4  C6  UNL d   1       0.099   2.998   0.069  0.00  0.00    -0.004 A 
ATOM      5  C7  UNL d   1       1.229   2.308  -0.365  0.00  0.00     0.002 A 
ATOM      6  C8  UNL d   1       1.214   0.914  -0.439  0.00  0.00     0.002 A 
ENDROOT
BRANCH   1   7
ATOM      7  C2  UNL d   1       0.043  -1.310  -0.186  0.00  0.00     0.056 C 
BRANCH   7   8
ATOM      8  C1  UNL d   1       0.262  -1.840  -1.608  0.00  0.00     0.007 C 
ATOM      9  C   UNL d   1      -0.720  -2.937  -1.998  0.00  0.00     0.009 C 
ENDBRANCH   7   8
ENDBRANCH   1   7
TORSDOF 2
ENDMDL
