MODEL 1
REMARK minimizedAffinity -5.29403257
REMARK minimizedRMSD -1
REMARK  2 active torsions:
REMARK  status: ('A' for Active; 'I' for Inactive)
REMARK    1  A    between atoms: C1_2  and  C2_3 
REMARK    2  A    between atoms: C2_3  and  C3_4 
ROOT
ATOM      1  C3  UNL d   1      -0.099   0.153  -0.112  0.00  0.00    -0.075 A 
ATOM      2  C4  UNL d   1       1.045   0.856  -0.515  0.00  0.00     0.002 A 
ATOM      3  C5  UNL d   1       1.071   2.250  -0.473  0.00  0.00     0.002 A 
ATOM      4  C6  UNL d   1      -0.047   2.958  -0.039  0.00  0.00    -0.004 A 
ATOM      5  C7  UNL d   1      -1.195   2.271   0.349  0.00  0.00     0.002 A 
ATOM      6  C8  UNL d   1      -1.223   0.875   0.312  0.00  0.00     0.002 A 
ENDROOT
BRANCH   1   7
ATOM      7  C2  UNL d   1      -0.124  -1.357  -0.127  0.00  0.00     0.056 C 
BRANCH   7   8
ATOM      8  C1  UNL d   1      -0.215  -1.966  -1.530  0.00  0.00     0.007 C 
ATOM      9  C   UNL d   1      -1.225  -3.101  -1.628  0.00  0.00     0.009 C 
ENDBRANCH   7   8
ENDBRANCH   1   7
TORSDOF 2
ENDMDL
