MODEL 1
REMARK minimizedAffinity -4.05419731
REMARK minimizedRMSD -1
REMARK  2 active torsions:
REMARK  status: ('A' for Active; 'I' for Inactive)
REMARK    1  A    between atoms: C1_2  and  C2_3 
REMARK    2  A    between atoms: C2_3  and  C3_4 
ROOT
ATOM      1  C3  UNL d   1       0.034  -0.293   0.035  0.00  0.00    -0.075 A 
ATOM      2  C4  UNL d   1       0.841   0.625  -0.652  0.00  0.00     0.002 A 
ATOM      3  C5  UNL d   1       0.544   1.988  -0.625  0.00  0.00     0.002 A 
ATOM      4  C6  UNL d   1      -0.566   2.448   0.079  0.00  0.00    -0.004 A 
ATOM      5  C7  UNL d   1      -1.385   1.543   0.751  0.00  0.00     0.002 A 
ATOM      6  C8  UNL d   1      -1.088   0.179   0.730  0.00  0.00     0.002 A 
ENDROOT
BRANCH   1   7
ATOM      7  C2  UNL d   1       0.367  -1.766   0.035  0.00  0.00     0.056 C 
BRANCH   7   8
ATOM      8  C1  UNL d   1      -0.539  -2.610  -0.868  0.00  0.00     0.007 C 
ATOM      9  C   UNL d   1       0.112  -2.982  -2.194  0.00  0.00     0.009 C 
ENDBRANCH   7   8
ENDBRANCH   1   7
TORSDOF 2
ENDMDL
