MODEL 1
REMARK minimizedAffinity -5.44910431
REMARK minimizedRMSD -1
REMARK  2 active torsions:
REMARK  status: ('A' for Active; 'I' for Inactive)
REMARK    1  A    between atoms: C1_2  and  C2_3 
REMARK    2  A    between atoms: C2_3  and  C3_4 
ROOT
ATOM      1  C3  UNL d   1       0.204  -0.120   0.122  0.00  0.00    -0.075 A 
ATOM      2  C4  UNL d   1       1.209   0.855   0.047  0.00  0.00     0.002 A 
ATOM      3  C5  UNL d   1       0.879   2.202  -0.108  0.00  0.00     0.002 A 
ATOM      4  C6  UNL d   1      -0.456   2.589  -0.200  0.00  0.00    -0.004 A 
ATOM      5  C7  UNL d   1      -1.462   1.627  -0.143  0.00  0.00     0.002 A 
ATOM      6  C8  UNL d   1      -1.135   0.279   0.016  0.00  0.00     0.002 A 
ENDROOT
BRANCH   1   7
ATOM      7  C2  UNL d   1       0.553  -1.576   0.320  0.00  0.00     0.056 C 
BRANCH   7   8
ATOM      8  C1  UNL d   1      -0.535  -2.548  -0.150  0.00  0.00     0.007 C 
ATOM      9  C   UNL d   1      -0.266  -3.126  -1.533  0.00  0.00     0.009 C 
ENDBRANCH   7   8
ENDBRANCH   1   7
TORSDOF 2
ENDMDL
