MODEL 1
REMARK minimizedAffinity -5.3062129
REMARK minimizedRMSD -1
REMARK  2 active torsions:
REMARK  status: ('A' for Active; 'I' for Inactive)
REMARK    1  A    between atoms: C1_2  and  C2_3 
REMARK    2  A    between atoms: C2_3  and  C3_4 
ROOT
ATOM      1  C3  UNL d   1      -0.184  -0.840  -0.070  0.00  0.00    -0.075 A 
ATOM      2  C4  UNL d   1      -1.292  -0.133   0.419  0.00  0.00     0.002 A 
ATOM      3  C5  UNL d   1      -1.270   1.261   0.483  0.00  0.00     0.002 A 
ATOM      4  C6  UNL d   1      -0.140   1.963   0.071  0.00  0.00    -0.004 A 
ATOM      5  C7  UNL d   1       0.973   1.270  -0.400  0.00  0.00     0.002 A 
ATOM      6  C8  UNL d   1       0.952  -0.125  -0.470  0.00  0.00     0.002 A 
ENDROOT
BRANCH   1   7
ATOM      7  C2  UNL d   1      -0.212  -2.347  -0.170  0.00  0.00     0.056 C 
BRANCH   7   8
ATOM      8  C1  UNL d   1      -1.046  -2.878  -1.341  0.00  0.00     0.007 C 
ATOM      9  C   UNL d   1      -0.202  -3.295  -2.538  0.00  0.00     0.009 C 
ENDBRANCH   7   8
ENDBRANCH   1   7
TORSDOF 2
ENDMDL
