MODEL 1
REMARK minimizedAffinity -4.79901886
REMARK minimizedRMSD -1
REMARK  2 active torsions:
REMARK  status: ('A' for Active; 'I' for Inactive)
REMARK    1  A    between atoms: C1_2  and  C2_3 
REMARK    2  A    between atoms: C2_3  and  C3_4 
ROOT
ATOM      1  C3  UNL d   1       0.188   0.116   0.313  0.00  0.00    -0.075 A 
ATOM      2  C4  UNL d   1       1.149   0.924  -0.312  0.00  0.00     0.002 A 
ATOM      3  C5  UNL d   1       1.031   2.314  -0.287  0.00  0.00     0.002 A 
ATOM      4  C6  UNL d   1      -0.053   2.912   0.352  0.00  0.00    -0.004 A 
ATOM      5  C7  UNL d   1      -1.023   2.119   0.961  0.00  0.00     0.002 A 
ATOM      6  C8  UNL d   1      -0.905   0.729   0.942  0.00  0.00     0.002 A 
ENDROOT
BRANCH   1   7
ATOM      7  C2  UNL d   1       0.325  -1.387   0.315  0.00  0.00     0.056 C 
BRANCH   7   8
ATOM      8  C1  UNL d   1      -0.879  -2.125  -0.279  0.00  0.00     0.007 C 
ATOM      9  C   UNL d   1      -0.512  -3.036  -1.442  0.00  0.00     0.009 C 
ENDBRANCH   7   8
ENDBRANCH   1   7
TORSDOF 2
ENDMDL
