MODEL 1
REMARK minimizedAffinity -3.13030124
REMARK minimizedRMSD -1
REMARK  2 active torsions:
REMARK  status: ('A' for Active; 'I' for Inactive)
REMARK    1  A    between atoms: C1_2  and  C2_3 
REMARK    2  A    between atoms: C2_3  and  C3_4 
ROOT
ATOM      1  C3  UNL d   1      -0.145   0.859  -0.008  0.00  0.00    -0.075 A 
ATOM      2  C4  UNL d   1      -0.578   1.452   1.187  0.00  0.00     0.002 A 
ATOM      3  C5  UNL d   1      -0.389   2.817   1.409  0.00  0.00     0.002 A 
ATOM      4  C6  UNL d   1       0.243   3.602   0.447  0.00  0.00    -0.004 A 
ATOM      5  C7  UNL d   1       0.693   3.020  -0.736  0.00  0.00     0.002 A 
ATOM      6  C8  UNL d   1       0.501   1.656  -0.963  0.00  0.00     0.002 A 
ENDROOT
BRANCH   1   7
ATOM      7  C2  UNL d   1      -0.372  -0.611  -0.268  0.00  0.00     0.056 C 
BRANCH   7   8
ATOM      8  C1  UNL d   1      -0.924  -0.920  -1.664  0.00  0.00     0.007 C 
ATOM      9  C   UNL d   1      -0.678  -2.357  -2.102  0.00  0.00     0.009 C 
ENDBRANCH   7   8
ENDBRANCH   1   7
TORSDOF 2
ENDMDL
