MODEL 1
REMARK minimizedAffinity 6.21771193
REMARK minimizedRMSD -1
REMARK  2 active torsions:
REMARK  status: ('A' for Active; 'I' for Inactive)
REMARK    1  A    between atoms: C1_2  and  C2_3 
REMARK    2  A    between atoms: C2_3  and  C3_4 
ROOT
ATOM      1  C3  UNL d   1       2.649  -1.035   0.475  0.00  0.00    -0.075 A 
ATOM      2  C4  UNL d   1       2.272   0.265   0.106  0.00  0.00     0.002 A 
ATOM      3  C5  UNL d   1       2.889   1.373   0.687  0.00  0.00     0.002 A 
ATOM      4  C6  UNL d   1       3.881   1.198   1.650  0.00  0.00    -0.004 A 
ATOM      5  C7  UNL d   1       4.251  -0.089   2.036  0.00  0.00     0.002 A 
ATOM      6  C8  UNL d   1       3.639  -1.200   1.453  0.00  0.00     0.002 A 
ENDROOT
BRANCH   1   7
ATOM      7  C2  UNL d   1       2.007  -2.238  -0.172  0.00  0.00     0.056 C 
BRANCH   7   8
ATOM      8  C1  UNL d   1       1.606  -2.021  -1.635  0.00  0.00     0.007 C 
ATOM      9  C   UNL d   1       2.748  -2.267  -2.612  0.00  0.00     0.009 C 
ENDBRANCH   7   8
ENDBRANCH   1   7
TORSDOF 2
ENDMDL
