MODEL 1
REMARK minimizedAffinity 2.84668589
REMARK minimizedRMSD -1
REMARK  2 active torsions:
REMARK  status: ('A' for Active; 'I' for Inactive)
REMARK    1  A    between atoms: C1_2  and  C2_3 
REMARK    2  A    between atoms: C2_3  and  C3_4 
ROOT
ATOM      1  C3  UNL d   1       3.089  -0.463   0.098  0.00  0.00    -0.075 A 
ATOM      2  C4  UNL d   1       4.349  -0.138  -0.425  0.00  0.00     0.002 A 
ATOM      3  C5  UNL d   1       4.771   1.191  -0.481  0.00  0.00     0.002 A 
ATOM      4  C6  UNL d   1       3.938   2.209  -0.024  0.00  0.00    -0.004 A 
ATOM      5  C7  UNL d   1       2.678   1.899   0.482  0.00  0.00     0.002 A 
ATOM      6  C8  UNL d   1       2.254   0.570   0.543  0.00  0.00     0.002 A 
ENDROOT
BRANCH   1   7
ATOM      7  C2  UNL d   1       2.638  -1.902   0.188  0.00  0.00     0.056 C 
BRANCH   7   8
ATOM      8  C1  UNL d   1       1.815  -2.374  -1.016  0.00  0.00     0.007 C 
ATOM      9  C   UNL d   1       0.322  -2.458  -0.727  0.00  0.00     0.009 C 
ENDBRANCH   7   8
ENDBRANCH   1   7
TORSDOF 2
ENDMDL
