MODEL 1
REMARK minimizedAffinity 2.31688619
REMARK minimizedRMSD -1
REMARK  2 active torsions:
REMARK  status: ('A' for Active; 'I' for Inactive)
REMARK    1  A    between atoms: C1_2  and  C2_3 
REMARK    2  A    between atoms: C2_3  and  C3_4 
ROOT
ATOM      1  C3  UNL d   1       1.255   0.889  -0.006  0.00  0.00    -0.075 A 
ATOM      2  C4  UNL d   1       1.694  -0.443  -0.031  0.00  0.00     0.002 A 
ATOM      3  C5  UNL d   1       3.055  -0.741   0.047  0.00  0.00     0.002 A 
ATOM      4  C6  UNL d   1       3.992   0.285   0.140  0.00  0.00    -0.004 A 
ATOM      5  C7  UNL d   1       3.568   1.612   0.149  0.00  0.00     0.002 A 
ATOM      6  C8  UNL d   1       2.207   1.914   0.076  0.00  0.00     0.002 A 
ENDROOT
BRANCH   1   7
ATOM      7  C2  UNL d   1      -0.218   1.218  -0.060  0.00  0.00     0.056 C 
BRANCH   7   8
ATOM      8  C1  UNL d   1      -0.745   1.929   1.191  0.00  0.00     0.007 C 
ATOM      9  C   UNL d   1      -0.835   1.016   2.407  0.00  0.00     0.009 C 
ENDBRANCH   7   8
ENDBRANCH   1   7
TORSDOF 2
ENDMDL
