MODEL 1
REMARK minimizedAffinity 7.45648766
REMARK minimizedRMSD -1
REMARK  2 active torsions:
REMARK  status: ('A' for Active; 'I' for Inactive)
REMARK    1  A    between atoms: C1_2  and  C2_3 
REMARK    2  A    between atoms: C2_3  and  C3_4 
ROOT
ATOM      1  C3  UNL d   1       1.138   0.241  -0.711  0.00  0.00    -0.075 A 
ATOM      2  C4  UNL d   1       2.175   0.962  -0.101  0.00  0.00     0.002 A 
ATOM      3  C5  UNL d   1       3.291   0.302   0.412  0.00  0.00     0.002 A 
ATOM      4  C6  UNL d   1       3.381  -1.086   0.333  0.00  0.00    -0.004 A 
ATOM      5  C7  UNL d   1       2.349  -1.815  -0.256  0.00  0.00     0.002 A 
ATOM      6  C8  UNL d   1       1.233  -1.156  -0.775  0.00  0.00     0.002 A 
ENDROOT
BRANCH   1   7
ATOM      7  C2  UNL d   1      -0.059   0.952  -1.296  0.00  0.00     0.056 C 
BRANCH   7   8
ATOM      8  C1  UNL d   1      -0.445   0.472  -2.699  0.00  0.00     0.007 C 
ATOM      9  C   UNL d   1      -1.634   1.224  -3.284  0.00  0.00     0.009 C 
ENDBRANCH   7   8
ENDBRANCH   1   7
TORSDOF 2
ENDMDL
