MODEL 1
REMARK minimizedAffinity 4.67674923
REMARK minimizedRMSD -1
REMARK  2 active torsions:
REMARK  status: ('A' for Active; 'I' for Inactive)
REMARK    1  A    between atoms: C1_2  and  C2_3 
REMARK    2  A    between atoms: C2_3  and  C3_4 
ROOT
ATOM      1  C3  UNL d   1       2.485  -0.365   0.381  0.00  0.00    -0.075 A 
ATOM      2  C4  UNL d   1       3.766   0.016  -0.042  0.00  0.00     0.002 A 
ATOM      3  C5  UNL d   1       4.143   1.360  -0.039  0.00  0.00     0.002 A 
ATOM      4  C6  UNL d   1       3.242   2.338   0.376  0.00  0.00    -0.004 A 
ATOM      5  C7  UNL d   1       1.961   1.972   0.783  0.00  0.00     0.002 A 
ATOM      6  C8  UNL d   1       1.583   0.628   0.785  0.00  0.00     0.002 A 
ENDROOT
BRANCH   1   7
ATOM      7  C2  UNL d   1       2.081  -1.820   0.408  0.00  0.00     0.056 C 
BRANCH   7   8
ATOM      8  C1  UNL d   1       1.162  -2.233  -0.746  0.00  0.00     0.007 C 
ATOM      9  C   UNL d   1       0.290  -3.438  -0.417  0.00  0.00     0.009 C 
ENDBRANCH   7   8
ENDBRANCH   1   7
TORSDOF 2
ENDMDL
