MODEL 1
REMARK minimizedAffinity -0.036319457
REMARK minimizedRMSD -1
REMARK  2 active torsions:
REMARK  status: ('A' for Active; 'I' for Inactive)
REMARK    1  A    between atoms: C1_2  and  C2_3 
REMARK    2  A    between atoms: C2_3  and  C3_4 
ROOT
ATOM      1  C3  UNL d   1       2.175  -1.752  -0.131  0.00  0.00    -0.075 A 
ATOM      2  C4  UNL d   1       3.459  -1.555   0.397  0.00  0.00     0.002 A 
ATOM      3  C5  UNL d   1       3.935  -0.266   0.641  0.00  0.00     0.002 A 
ATOM      4  C6  UNL d   1       3.138   0.840   0.352  0.00  0.00    -0.004 A 
ATOM      5  C7  UNL d   1       1.867   0.656  -0.188  0.00  0.00     0.002 A 
ATOM      6  C8  UNL d   1       1.388  -0.633  -0.429  0.00  0.00     0.002 A 
ENDROOT
BRANCH   1   7
ATOM      7  C2  UNL d   1       1.644  -3.145  -0.370  0.00  0.00     0.056 C 
BRANCH   7   8
ATOM      8  C1  UNL d   1       0.384  -3.191  -1.241  0.00  0.00     0.007 C 
ATOM      9  C   UNL d   1      -0.367  -4.512  -1.141  0.00  0.00     0.009 C 
ENDBRANCH   7   8
ENDBRANCH   1   7
TORSDOF 2
ENDMDL
