MODEL 1
REMARK minimizedAffinity 2.55700159
REMARK minimizedRMSD -1
REMARK  2 active torsions:
REMARK  status: ('A' for Active; 'I' for Inactive)
REMARK    1  A    between atoms: C1_2  and  C2_3 
REMARK    2  A    between atoms: C2_3  and  C3_4 
ROOT
ATOM      1  C3  UNL d   1       0.345  -1.220  -0.589  0.00  0.00    -0.075 A 
ATOM      2  C4  UNL d   1      -0.880  -1.177  -1.270  0.00  0.00     0.002 A 
ATOM      3  C5  UNL d   1      -1.461   0.045  -1.606  0.00  0.00     0.002 A 
ATOM      4  C6  UNL d   1      -0.832   1.238  -1.258  0.00  0.00    -0.004 A 
ATOM      5  C7  UNL d   1       0.378   1.208  -0.567  0.00  0.00     0.002 A 
ATOM      6  C8  UNL d   1       0.964  -0.014  -0.233  0.00  0.00     0.002 A 
ENDROOT
BRANCH   1   7
ATOM      7  C2  UNL d   1       0.994  -2.541  -0.248  0.00  0.00     0.056 C 
BRANCH   7   8
ATOM      8  C1  UNL d   1       2.507  -2.572  -0.488  0.00  0.00     0.007 C 
ATOM      9  C   UNL d   1       2.882  -2.999  -1.901  0.00  0.00     0.009 C 
ENDBRANCH   7   8
ENDBRANCH   1   7
TORSDOF 2
ENDMDL
