MODEL 1
REMARK minimizedAffinity 4.12893343
REMARK minimizedRMSD -1
REMARK  2 active torsions:
REMARK  status: ('A' for Active; 'I' for Inactive)
REMARK    1  A    between atoms: C1_2  and  C2_3 
REMARK    2  A    between atoms: C2_3  and  C3_4 
ROOT
ATOM      1  C3  UNL d   1       1.805  -0.456  -0.764  0.00  0.00    -0.075 A 
ATOM      2  C4  UNL d   1       0.409  -0.356  -0.663  0.00  0.00     0.002 A 
ATOM      3  C5  UNL d   1      -0.382  -1.504  -0.617  0.00  0.00     0.002 A 
ATOM      4  C6  UNL d   1       0.209  -2.764  -0.683  0.00  0.00    -0.004 A 
ATOM      5  C7  UNL d   1       1.593  -2.875  -0.800  0.00  0.00     0.002 A 
ATOM      6  C8  UNL d   1       2.387  -1.728  -0.842  0.00  0.00     0.002 A 
ENDROOT
BRANCH   1   7
ATOM      7  C2  UNL d   1       2.669   0.782  -0.784  0.00  0.00     0.056 C 
BRANCH   7   8
ATOM      8  C1  UNL d   1       3.950   0.635  -1.612  0.00  0.00     0.007 C 
ATOM      9  C   UNL d   1       5.219   0.826  -0.792  0.00  0.00     0.009 C 
ENDBRANCH   7   8
ENDBRANCH   1   7
TORSDOF 2
ENDMDL
