MODEL 1
REMARK minimizedAffinity -4.56369305
REMARK minimizedRMSD -1
REMARK  1 active torsions:
REMARK  status: ('A' for Active; 'I' for Inactive)
REMARK    1  A    between atoms: C1_2  and  C2_3 
ROOT
ATOM      1  C2  UNL d   1       0.399  -0.178  -0.287  0.00  0.00    -0.076 A 
ATOM      2  C3  UNL d   1      -0.793  -0.824   0.085  0.00  0.00     0.004 A 
ATOM      3  C4  UNL d   1      -1.164  -0.929   1.424  0.00  0.00    -0.003 A 
ATOM      4  C5  UNL d   1      -0.350  -0.388   2.413  0.00  0.00     0.000 A 
ATOM      5  C6  UNL d   1       0.827   0.271   2.061  0.00  0.00     0.000 A 
ATOM      6  C7  UNL d   1       1.207   0.400   0.714  0.00  0.00    -0.073 A 
ATOM      7  C8  UNL d   1       2.490   1.116   0.392  0.00  0.00     0.078 C 
ENDROOT
BRANCH   1   8
ATOM      8  C1  UNL d   1       0.763  -0.120  -1.754  0.00  0.00     0.053 C 
ATOM      9  C   UNL d   1       0.422  -1.405  -2.491  0.00  0.00     0.018 C 
ENDBRANCH   1   8
TORSDOF 1
ENDMDL
