MODEL 1
REMARK minimizedAffinity -2.18100977
REMARK minimizedRMSD -1
REMARK  1 active torsions:
REMARK  status: ('A' for Active; 'I' for Inactive)
REMARK    1  A    between atoms: C1_2  and  C2_3 
ROOT
ATOM      1  C2  UNL d   1      -0.044  -0.553  -0.371  0.00  0.00    -0.076 A 
ATOM      2  C3  UNL d   1       0.007  -1.694   0.448  0.00  0.00     0.004 A 
ATOM      3  C4  UNL d   1      -0.805  -1.805   1.575  0.00  0.00    -0.003 A 
ATOM      4  C5  UNL d   1      -1.684  -0.777   1.900  0.00  0.00     0.000 A 
ATOM      5  C6  UNL d   1      -1.760   0.354   1.089  0.00  0.00     0.000 A 
ATOM      6  C7  UNL d   1      -0.960   0.475  -0.060  0.00  0.00    -0.073 A 
ATOM      7  C8  UNL d   1      -1.079   1.720  -0.895  0.00  0.00     0.078 C 
ENDROOT
BRANCH   1   8
ATOM      8  C1  UNL d   1       0.881  -0.476  -1.565  0.00  0.00     0.053 C 
ATOM      9  C   UNL d   1       0.621  -1.582  -2.576  0.00  0.00     0.018 C 
ENDBRANCH   1   8
TORSDOF 1
ENDMDL
