MODEL 1
REMARK minimizedAffinity -4.22124004
REMARK minimizedRMSD -1
REMARK  1 active torsions:
REMARK  status: ('A' for Active; 'I' for Inactive)
REMARK    1  A    between atoms: C1_2  and  C2_3 
ROOT
ATOM      1  C2  UNL d   1       0.559  -0.787  -1.014  0.00  0.00    -0.076 A 
ATOM      2  C3  UNL d   1       1.430  -1.476  -0.152  0.00  0.00     0.004 A 
ATOM      3  C4  UNL d   1       1.248  -1.442   1.229  0.00  0.00    -0.003 A 
ATOM      4  C5  UNL d   1       0.191  -0.719   1.771  0.00  0.00     0.000 A 
ATOM      5  C6  UNL d   1      -0.693  -0.044   0.931  0.00  0.00     0.000 A 
ATOM      6  C7  UNL d   1      -0.533  -0.082  -0.465  0.00  0.00    -0.073 A 
ATOM      7  C8  UNL d   1      -1.513   0.669  -1.324  0.00  0.00     0.078 C 
ENDROOT
BRANCH   1   8
ATOM      8  C1  UNL d   1       0.822  -0.838  -2.502  0.00  0.00     0.053 C 
ATOM      9  C   UNL d   1       0.678  -2.241  -3.072  0.00  0.00     0.018 C 
ENDBRANCH   1   8
TORSDOF 1
ENDMDL
