MODEL 1
REMARK minimizedAffinity -2.97301507
REMARK minimizedRMSD -1
REMARK  1 active torsions:
REMARK  status: ('A' for Active; 'I' for Inactive)
REMARK    1  A    between atoms: C1_2  and  C2_3 
ROOT
ATOM      1  C2  UNL d   1      -0.149  -0.267   0.012  0.00  0.00    -0.076 A 
ATOM      2  C3  UNL d   1       1.159  -0.263   0.527  0.00  0.00     0.004 A 
ATOM      3  C4  UNL d   1       1.391  -0.371   1.898  0.00  0.00    -0.003 A 
ATOM      4  C5  UNL d   1       0.318  -0.486   2.775  0.00  0.00     0.000 A 
ATOM      5  C6  UNL d   1      -0.986  -0.509   2.279  0.00  0.00     0.000 A 
ATOM      6  C7  UNL d   1      -1.236  -0.417   0.899  0.00  0.00    -0.073 A 
ATOM      7  C8  UNL d   1      -2.661  -0.441   0.421  0.00  0.00     0.078 C 
ENDROOT
BRANCH   1   8
ATOM      8  C1  UNL d   1      -0.339  -0.118  -1.481  0.00  0.00     0.053 C 
ATOM      9  C   UNL d   1       0.726  -0.853  -2.280  0.00  0.00     0.018 C 
ENDBRANCH   1   8
TORSDOF 1
ENDMDL
