MODEL 1
REMARK minimizedAffinity -3.62665343
REMARK minimizedRMSD -1
REMARK  1 active torsions:
REMARK  status: ('A' for Active; 'I' for Inactive)
REMARK    1  A    between atoms: C1_2  and  C2_3 
ROOT
ATOM      1  C2  UNL d   1      -0.712   0.101   0.826  0.00  0.00    -0.076 A 
ATOM      2  C3  UNL d   1       0.098   0.870  -0.027  0.00  0.00     0.004 A 
ATOM      3  C4  UNL d   1       1.358   1.306   0.380  0.00  0.00    -0.003 A 
ATOM      4  C5  UNL d   1       1.828   0.980   1.648  0.00  0.00     0.000 A 
ATOM      5  C6  UNL d   1       1.044   0.203   2.501  0.00  0.00     0.000 A 
ATOM      6  C7  UNL d   1      -0.221  -0.258   2.100  0.00  0.00    -0.073 A 
ATOM      7  C8  UNL d   1      -1.026  -1.087   3.062  0.00  0.00     0.078 C 
ENDROOT
BRANCH   1   8
ATOM      8  C1  UNL d   1      -2.081  -0.320   0.340  0.00  0.00     0.053 C 
ATOM      9  C   UNL d   1      -2.746   0.743  -0.521  0.00  0.00     0.018 C 
ENDBRANCH   1   8
TORSDOF 1
ENDMDL
