MODEL 1
REMARK minimizedAffinity -3.94082189
REMARK minimizedRMSD -1
REMARK  1 active torsions:
REMARK  status: ('A' for Active; 'I' for Inactive)
REMARK    1  A    between atoms: C1_2  and  C2_3 
ROOT
ATOM      1  C2  UNL d   1      -0.598  -0.107   1.304  0.00  0.00    -0.076 A 
ATOM      2  C3  UNL d   1       0.577   0.628   1.071  0.00  0.00     0.004 A 
ATOM      3  C4  UNL d   1       0.725   1.399  -0.081  0.00  0.00    -0.003 A 
ATOM      4  C5  UNL d   1      -0.300   1.447  -1.019  0.00  0.00     0.000 A 
ATOM      5  C6  UNL d   1      -1.480   0.738  -0.796  0.00  0.00     0.000 A 
ATOM      6  C7  UNL d   1      -1.652  -0.031   0.368  0.00  0.00    -0.073 A 
ATOM      7  C8  UNL d   1      -2.943  -0.780   0.554  0.00  0.00     0.078 C 
ENDROOT
BRANCH   1   8
ATOM      8  C1  UNL d   1      -0.691  -0.946   2.558  0.00  0.00     0.053 C 
ATOM      9  C   UNL d   1      -0.435  -0.137   3.821  0.00  0.00     0.018 C 
ENDBRANCH   1   8
TORSDOF 1
ENDMDL
