MODEL 1
REMARK minimizedAffinity 3.95441389
REMARK minimizedRMSD -1
REMARK  1 active torsions:
REMARK  status: ('A' for Active; 'I' for Inactive)
REMARK    1  A    between atoms: C1_2  and  C2_3 
ROOT
ATOM      1  C2  UNL d   1       0.839   1.453   2.869  0.00  0.00    -0.076 A 
ATOM      2  C3  UNL d   1       1.684   1.787   1.796  0.00  0.00     0.004 A 
ATOM      3  C4  UNL d   1       1.561   1.151   0.562  0.00  0.00    -0.003 A 
ATOM      4  C5  UNL d   1       0.591   0.172   0.380  0.00  0.00     0.000 A 
ATOM      5  C6  UNL d   1      -0.267  -0.160   1.429  0.00  0.00     0.000 A 
ATOM      6  C7  UNL d   1      -0.167   0.483   2.674  0.00  0.00    -0.073 A 
ATOM      7  C8  UNL d   1      -1.115   0.082   3.772  0.00  0.00     0.078 C 
ENDROOT
BRANCH   1   8
ATOM      8  C1  UNL d   1       1.037   2.157   4.193  0.00  0.00     0.053 C 
ATOM      9  C   UNL d   1       0.283   3.476   4.270  0.00  0.00     0.018 C 
ENDBRANCH   1   8
TORSDOF 1
ENDMDL
