MODEL 1
REMARK minimizedAffinity -3.96064591
REMARK minimizedRMSD -1
REMARK  1 active torsions:
REMARK  status: ('A' for Active; 'I' for Inactive)
REMARK    1  A    between atoms: C1_2  and  C2_3 
ROOT
ATOM      1  C2  UNL d   1      -0.248   0.446   1.395  0.00  0.00    -0.076 A 
ATOM      2  C3  UNL d   1       1.074   0.612   0.946  0.00  0.00     0.004 A 
ATOM      3  C4  UNL d   1       1.385   0.547  -0.411  0.00  0.00    -0.003 A 
ATOM      4  C5  UNL d   1       0.378   0.315  -1.342  0.00  0.00     0.000 A 
ATOM      5  C6  UNL d   1      -0.941   0.166  -0.916  0.00  0.00     0.000 A 
ATOM      6  C7  UNL d   1      -1.274   0.245   0.447  0.00  0.00    -0.073 A 
ATOM      7  C8  UNL d   1      -2.712   0.070   0.851  0.00  0.00     0.078 C 
ENDROOT
BRANCH   1   8
ATOM      8  C1  UNL d   1      -0.520   0.499   2.881  0.00  0.00     0.053 C 
ATOM      9  C   UNL d   1      -1.131  -0.790   3.409  0.00  0.00     0.018 C 
ENDBRANCH   1   8
TORSDOF 1
ENDMDL
