MODEL 1
REMARK minimizedAffinity 5.39675856
REMARK minimizedRMSD -1
REMARK  1 active torsions:
REMARK  status: ('A' for Active; 'I' for Inactive)
REMARK    1  A    between atoms: C1_2  and  C2_3 
ROOT
ATOM      1  C2  UNL d   1       0.453  -0.741  -1.214  0.00  0.00    -0.076 A 
ATOM      2  C3  UNL d   1       0.241  -1.961  -0.549  0.00  0.00     0.004 A 
ATOM      3  C4  UNL d   1      -0.654  -2.051   0.517  0.00  0.00    -0.003 A 
ATOM      4  C5  UNL d   1      -1.351  -0.923   0.933  0.00  0.00     0.000 A 
ATOM      5  C6  UNL d   1      -1.167   0.292   0.274  0.00  0.00     0.000 A 
ATOM      6  C7  UNL d   1      -0.281   0.396  -0.812  0.00  0.00    -0.073 A 
ATOM      7  C8  UNL d   1      -0.115   1.732  -1.483  0.00  0.00     0.078 C 
ENDROOT
BRANCH   1   8
ATOM      8  C1  UNL d   1       1.456  -0.697  -2.344  0.00  0.00     0.053 C 
ATOM      9  C   UNL d   1       1.128  -1.687  -3.452  0.00  0.00     0.018 C 
ENDBRANCH   1   8
TORSDOF 1
ENDMDL
