MODEL 1
REMARK minimizedAffinity -1.7643013
REMARK minimizedRMSD -1
REMARK  1 active torsions:
REMARK  status: ('A' for Active; 'I' for Inactive)
REMARK    1  A    between atoms: C1_2  and  C2_3 
ROOT
ATOM      1  C2  UNL d   1       0.368   0.449   1.341  0.00  0.00    -0.076 A 
ATOM      2  C3  UNL d   1       0.771   1.393   0.380  0.00  0.00     0.004 A 
ATOM      3  C4  UNL d   1       0.704   1.105  -0.981  0.00  0.00    -0.003 A 
ATOM      4  C5  UNL d   1       0.233  -0.133  -1.405  0.00  0.00     0.000 A 
ATOM      5  C6  UNL d   1      -0.188  -1.075  -0.467  0.00  0.00     0.000 A 
ATOM      6  C7  UNL d   1      -0.142  -0.794   0.910  0.00  0.00    -0.073 A 
ATOM      7  C8  UNL d   1      -0.602  -1.849   1.878  0.00  0.00     0.078 C 
ENDROOT
BRANCH   1   8
ATOM      8  C1  UNL d   1       0.489   0.809   2.805  0.00  0.00     0.053 C 
ATOM      9  C   UNL d   1      -0.351   2.020   3.179  0.00  0.00     0.018 C 
ENDBRANCH   1   8
TORSDOF 1
ENDMDL
