MODEL 1
REMARK minimizedAffinity 0.402120233
REMARK minimizedRMSD -1
REMARK  1 active torsions:
REMARK  status: ('A' for Active; 'I' for Inactive)
REMARK    1  A    between atoms: C1_2  and  C2_3 
ROOT
ATOM      1  C2  UNL d   1      -0.562   0.780   1.821  0.00  0.00    -0.076 A 
ATOM      2  C3  UNL d   1      -1.898   0.686   1.395  0.00  0.00     0.004 A 
ATOM      3  C4  UNL d   1      -2.211   0.515   0.047  0.00  0.00    -0.003 A 
ATOM      4  C5  UNL d   1      -1.192   0.433  -0.896  0.00  0.00     0.000 A 
ATOM      5  C6  UNL d   1       0.140   0.505  -0.488  0.00  0.00     0.000 A 
ATOM      6  C7  UNL d   1       0.472   0.662   0.868  0.00  0.00    -0.073 A 
ATOM      7  C8  UNL d   1       1.925   0.741   1.251  0.00  0.00     0.078 C 
ENDROOT
BRANCH   1   8
ATOM      8  C1  UNL d   1      -0.285   0.993   3.292  0.00  0.00     0.053 C 
ATOM      9  C   UNL d   1      -0.986  -0.031   4.172  0.00  0.00     0.018 C 
ENDBRANCH   1   8
TORSDOF 1
ENDMDL
