MODEL 1
REMARK minimizedAffinity -3.52232456
REMARK minimizedRMSD -1
REMARK  1 active torsions:
REMARK  status: ('A' for Active; 'I' for Inactive)
REMARK    1  A    between atoms: C1_2  and  C2_3 
ROOT
ATOM      1  C2  UNL d   1      -0.033   0.143   0.084  0.00  0.00    -0.076 A 
ATOM      2  C3  UNL d   1       1.262   0.446   0.538  0.00  0.00     0.004 A 
ATOM      3  C4  UNL d   1       1.595   0.331   1.886  0.00  0.00    -0.003 A 
ATOM      4  C5  UNL d   1       0.638  -0.090   2.803  0.00  0.00     0.000 A 
ATOM      5  C6  UNL d   1      -0.647  -0.412   2.367  0.00  0.00     0.000 A 
ATOM      6  C7  UNL d   1      -0.995  -0.316   1.009  0.00  0.00    -0.073 A 
ATOM      7  C8  UNL d   1      -2.397  -0.670   0.596  0.00  0.00     0.078 C 
ENDROOT
BRANCH   1   8
ATOM      8  C1  UNL d   1      -0.344   0.313  -1.386  0.00  0.00     0.053 C 
ATOM      9  C   UNL d   1       0.667  -0.389  -2.280  0.00  0.00     0.018 C 
ENDBRANCH   1   8
TORSDOF 1
ENDMDL
