MODEL 1
REMARK minimizedAffinity 4.79308987
REMARK minimizedRMSD -1
REMARK  0 active torsions:
REMARK  status: ('A' for Active; 'I' for Inactive)
ROOT
ATOM      1  C2' OXE d   1       1.858  -0.928   2.626  0.00  0.00     0.078 C 
ATOM      2  C1' OXE d   1       0.479  -3.371   2.725  0.00  0.00     0.078 C 
ATOM      3  C1  OXE d   1       1.794  -3.276   3.456  0.00  0.00    -0.078 A 
ATOM      4  C2  OXE d   1       2.485  -2.091   3.364  0.00  0.00    -0.078 A 
ATOM      5  C3  OXE d   1       3.677  -1.932   4.064  0.00  0.00     0.003 A 
ATOM      6  C4  OXE d   1       4.255  -3.016   4.736  0.00  0.00    -0.002 A 
ATOM      7  C5  OXE d   1       3.588  -4.243   4.809  0.00  0.00    -0.002 A 
ATOM      8  C6  OXE d   1       2.339  -4.377   4.212  0.00  0.00     0.003 A 
ENDROOT
TORSDOF 0
ENDMDL
