MODEL 1
REMARK minimizedAffinity -1.33634055
REMARK minimizedRMSD -1
REMARK  0 active torsions:
REMARK  status: ('A' for Active; 'I' for Inactive)
ROOT
ATOM      1  C2' OXE d   1       1.915  -4.760   1.158  0.00  0.00     0.078 C 
ATOM      2  C1' OXE d   1       2.619  -5.089   3.856  0.00  0.00     0.078 C 
ATOM      3  C1  OXE d   1       2.246  -3.704   3.390  0.00  0.00    -0.078 A 
ATOM      4  C2  OXE d   1       1.948  -3.544   2.058  0.00  0.00    -0.078 A 
ATOM      5  C3  OXE d   1       1.544  -2.298   1.587  0.00  0.00     0.003 A 
ATOM      6  C4  OXE d   1       1.587  -1.176   2.423  0.00  0.00    -0.002 A 
ATOM      7  C5  OXE d   1       1.926  -1.309   3.774  0.00  0.00    -0.002 A 
ATOM      8  C6  OXE d   1       2.216  -2.571   4.282  0.00  0.00     0.003 A 
ENDROOT
TORSDOF 0
ENDMDL
