MODEL 1
REMARK minimizedAffinity 5.17851591
REMARK minimizedRMSD -1
REMARK  0 active torsions:
REMARK  status: ('A' for Active; 'I' for Inactive)
ROOT
ATOM      1  C2' OXE d   1       2.040  -5.909  -1.734  0.00  0.00     0.078 C 
ATOM      2  C1' OXE d   1       4.827  -5.924  -1.398  0.00  0.00     0.078 C 
ATOM      3  C1  OXE d   1       4.288  -5.934  -2.807  0.00  0.00    -0.078 A 
ATOM      4  C2  OXE d   1       2.923  -5.973  -2.961  0.00  0.00    -0.078 A 
ATOM      5  C3  OXE d   1       2.373  -5.928  -4.239  0.00  0.00     0.003 A 
ATOM      6  C4  OXE d   1       3.197  -5.999  -5.369  0.00  0.00    -0.002 A 
ATOM      7  C5  OXE d   1       4.589  -5.999  -5.233  0.00  0.00    -0.002 A 
ATOM      8  C6  OXE d   1       5.150  -5.924  -3.963  0.00  0.00     0.003 A 
ENDROOT
TORSDOF 0
ENDMDL
