MODEL 1
REMARK minimizedAffinity -0.741978467
REMARK minimizedRMSD -1
REMARK  0 active torsions:
REMARK  status: ('A' for Active; 'I' for Inactive)
ROOT
ATOM      1  C2' OXE d   1       1.487  -1.116   5.059  0.00  0.00     0.078 C 
ATOM      2  C1' OXE d   1       1.396  -1.226   2.256  0.00  0.00     0.078 C 
ATOM      3  C1  OXE d   1       1.832  -2.466   2.994  0.00  0.00    -0.078 A 
ATOM      4  C2  OXE d   1       1.919  -2.389   4.364  0.00  0.00    -0.078 A 
ATOM      5  C3  OXE d   1       2.263  -3.521   5.097  0.00  0.00     0.003 A 
ATOM      6  C4  OXE d   1       2.670  -4.691   4.446  0.00  0.00    -0.002 A 
ATOM      7  C5  OXE d   1       2.628  -4.779   3.050  0.00  0.00    -0.002 A 
ATOM      8  C6  OXE d   1       2.171  -3.691   2.313  0.00  0.00     0.003 A 
ENDROOT
TORSDOF 0
ENDMDL
