MODEL 1
REMARK minimizedAffinity -3.05441523
REMARK minimizedRMSD -1
REMARK  0 active torsions:
REMARK  status: ('A' for Active; 'I' for Inactive)
ROOT
ATOM      1  C2' OXE d   1       2.212  -1.850   3.148  0.00  0.00     0.078 C 
ATOM      2  C1' OXE d   1       4.237  -2.605   4.940  0.00  0.00     0.078 C 
ATOM      3  C1  OXE d   1       2.970  -3.424   4.924  0.00  0.00    -0.078 A 
ATOM      4  C2  OXE d   1       1.966  -3.019   4.078  0.00  0.00    -0.078 A 
ATOM      5  C3  OXE d   1       0.799  -3.771   3.984  0.00  0.00     0.003 A 
ATOM      6  C4  OXE d   1       0.575  -4.845   4.854  0.00  0.00    -0.002 A 
ATOM      7  C5  OXE d   1       1.569  -5.250   5.752  0.00  0.00    -0.002 A 
ATOM      8  C6  OXE d   1       2.786  -4.577   5.770  0.00  0.00     0.003 A 
ENDROOT
TORSDOF 0
ENDMDL
