MODEL 1
REMARK minimizedAffinity 7.78170967
REMARK minimizedRMSD -1
REMARK  0 active torsions:
REMARK  status: ('A' for Active; 'I' for Inactive)
ROOT
ATOM      1  C2' OXE d   1      -3.001   3.007  -1.972  0.00  0.00     0.078 C 
ATOM      2  C1' OXE d   1      -1.870   2.251   0.484  0.00  0.00     0.078 C 
ATOM      3  C1  OXE d   1      -3.328   2.639   0.470  0.00  0.00    -0.078 A 
ATOM      4  C2  OXE d   1      -3.861   3.052  -0.727  0.00  0.00    -0.078 A 
ATOM      5  C3  OXE d   1      -5.214   3.369  -0.806  0.00  0.00     0.003 A 
ATOM      6  C4  OXE d   1      -5.999   3.418   0.351  0.00  0.00    -0.002 A 
ATOM      7  C5  OXE d   1      -5.466   3.039   1.588  0.00  0.00    -0.002 A 
ATOM      8  C6  OXE d   1      -4.146   2.607   1.657  0.00  0.00     0.003 A 
ENDROOT
TORSDOF 0
ENDMDL
