MODEL 1
REMARK minimizedAffinity 8.95512104
REMARK minimizedRMSD -1
REMARK  0 active torsions:
REMARK  status: ('A' for Active; 'I' for Inactive)
ROOT
ATOM      1  C2' OXE d   1       1.086  -5.975  -3.560  0.00  0.00     0.078 C 
ATOM      2  C1' OXE d   1       3.151  -5.995  -5.462  0.00  0.00     0.078 C 
ATOM      3  C1  OXE d   1       3.537  -5.974  -4.004  0.00  0.00    -0.078 A 
ATOM      4  C2  OXE d   1       2.520  -5.917  -3.081  0.00  0.00    -0.078 A 
ATOM      5  C3  OXE d   1       2.820  -5.952  -1.722  0.00  0.00     0.003 A 
ATOM      6  C4  OXE d   1       4.149  -5.888  -1.288  0.00  0.00    -0.002 A 
ATOM      7  C5  OXE d   1       5.200  -5.905  -2.211  0.00  0.00    -0.002 A 
ATOM      8  C6  OXE d   1       4.912  -5.991  -3.569  0.00  0.00     0.003 A 
ENDROOT
TORSDOF 0
ENDMDL
