MODEL 1
REMARK minimizedAffinity 2.93867564
REMARK minimizedRMSD -1
REMARK  0 active torsions:
REMARK  status: ('A' for Active; 'I' for Inactive)
ROOT
ATOM      1  C2' OXE d   1       2.587  -5.317  -5.931  0.00  0.00     0.078 C 
ATOM      2  C1' OXE d   1       0.566  -6.000  -4.106  0.00  0.00     0.078 C 
ATOM      3  C1  OXE d   1       1.969  -5.840  -3.575  0.00  0.00    -0.078 A 
ATOM      4  C2  OXE d   1       2.959  -5.552  -4.483  0.00  0.00    -0.078 A 
ATOM      5  C3  OXE d   1       4.261  -5.340  -4.039  0.00  0.00     0.003 A 
ATOM      6  C4  OXE d   1       4.599  -5.569  -2.699  0.00  0.00    -0.002 A 
ATOM      7  C5  OXE d   1       3.613  -5.903  -1.765  0.00  0.00    -0.002 A 
ATOM      8  C6  OXE d   1       2.288  -6.000  -2.178  0.00  0.00     0.003 A 
ENDROOT
TORSDOF 0
ENDMDL
