MODEL 1
REMARK minimizedAffinity -3.54076409
REMARK minimizedRMSD -1
REMARK  0 active torsions:
REMARK  status: ('A' for Active; 'I' for Inactive)
ROOT
ATOM      1  C2' OXE d   1       1.253  -1.665   3.195  0.00  0.00     0.078 C 
ATOM      2  C1' OXE d   1       0.212  -2.216   0.647  0.00  0.00     0.078 C 
ATOM      3  C1  OXE d   1       1.237  -1.116   0.765  0.00  0.00    -0.078 A 
ATOM      4  C2  OXE d   1       1.707  -0.822   2.023  0.00  0.00    -0.078 A 
ATOM      5  C3  OXE d   1       2.694   0.146   2.181  0.00  0.00     0.003 A 
ATOM      6  C4  OXE d   1       3.101   0.928   1.092  0.00  0.00    -0.002 A 
ATOM      7  C5  OXE d   1       2.605   0.671  -0.191  0.00  0.00    -0.002 A 
ATOM      8  C6  OXE d   1       1.707  -0.373  -0.378  0.00  0.00     0.003 A 
ENDROOT
TORSDOF 0
ENDMDL
