MODEL 1
REMARK minimizedAffinity 6.81136322
REMARK minimizedRMSD -1
REMARK  0 active torsions:
REMARK  status: ('A' for Active; 'I' for Inactive)
ROOT
ATOM      1  C2' OXE d   1       0.762  -5.985  -2.642  0.00  0.00     0.078 C 
ATOM      2  C1' OXE d   1       1.845  -6.000  -5.232  0.00  0.00     0.078 C 
ATOM      3  C1  OXE d   1       2.804  -5.981  -4.069  0.00  0.00    -0.078 A 
ATOM      4  C2  OXE d   1       2.266  -5.926  -2.806  0.00  0.00    -0.078 A 
ATOM      5  C3  OXE d   1       3.105  -5.963  -1.696  0.00  0.00     0.003 A 
ATOM      6  C4  OXE d   1       4.495  -5.899  -1.856  0.00  0.00    -0.002 A 
ATOM      7  C5  OXE d   1       5.063  -5.913  -3.134  0.00  0.00    -0.002 A 
ATOM      8  C6  OXE d   1       4.235  -5.997  -4.248  0.00  0.00     0.003 A 
ENDROOT
TORSDOF 0
ENDMDL
