MODEL 1
REMARK minimizedAffinity 3.77378535
REMARK minimizedRMSD -1
REMARK  0 active torsions:
REMARK  status: ('A' for Active; 'I' for Inactive)
ROOT
ATOM      1  C2' OXE d   1      -2.840   0.112  -3.293  0.00  0.00     0.078 C 
ATOM      2  C1' OXE d   1      -3.956   2.663  -3.647  0.00  0.00     0.078 C 
ATOM      3  C1  OXE d   1      -3.373   2.331  -2.296  0.00  0.00    -0.078 A 
ATOM      4  C2  OXE d   1      -2.871   1.065  -2.118  0.00  0.00    -0.078 A 
ATOM      5  C3  OXE d   1      -2.272   0.724  -0.909  0.00  0.00     0.003 A 
ATOM      6  C4  OXE d   1      -2.314   1.608   0.177  0.00  0.00    -0.002 A 
ATOM      7  C5  OXE d   1      -2.856   2.889   0.029  0.00  0.00    -0.002 A 
ATOM      8  C6  OXE d   1      -3.350   3.281  -1.211  0.00  0.00     0.003 A 
ENDROOT
TORSDOF 0
ENDMDL
