MODEL 1
REMARK minimizedAffinity -2.20863938
REMARK minimizedRMSD -1
REMARK  0 active torsions:
REMARK  status: ('A' for Active; 'I' for Inactive)
ROOT
ATOM      1  N1  IND d   1       1.323   0.993   0.970  0.00  0.00    -0.196 N 
ATOM      2  C2  IND d   1       2.402   0.279   0.531  0.00  0.00     0.054 A 
ATOM      3  C3  IND d   1       2.045  -0.999   0.268  0.00  0.00    -0.031 A 
ATOM      4  C4  IND d   1      -0.275  -2.106   0.389  0.00  0.00     0.051 A 
ATOM      5  C5  IND d   1      -1.565  -1.865   0.772  0.00  0.00    -0.031 A 
ATOM      6  C6  IND d   1      -1.967  -0.634   1.247  0.00  0.00     0.015 A 
ATOM      7  C7  IND d   1      -1.092   0.411   1.347  0.00  0.00    -0.016 A 
ATOM      8  C8  IND d   1       0.220   0.168   0.967  0.00  0.00    -0.047 A 
ATOM      9  C9  IND d   1       0.643  -1.092   0.524  0.00  0.00    -0.096 A 
ATOM     10  HN1 IND d   1       1.332   1.819   1.209  0.00  0.00     0.298 HD
ENDROOT
TORSDOF 0
ENDMDL
