MODEL 1
REMARK minimizedAffinity -0.437479049
REMARK minimizedRMSD -1
REMARK  0 active torsions:
REMARK  status: ('A' for Active; 'I' for Inactive)
ROOT
ATOM      1  N1  IND d   1       2.853  -3.419  -0.060  0.00  0.00    -0.196 N 
ATOM      2  C2  IND d   1       2.043  -4.397  -0.565  0.00  0.00     0.054 A 
ATOM      3  C3  IND d   1       0.747  -4.021  -0.486  0.00  0.00    -0.031 A 
ATOM      4  C4  IND d   1      -0.266  -1.804   0.342  0.00  0.00     0.051 A 
ATOM      5  C5  IND d   1       0.074  -0.619   0.933  0.00  0.00    -0.031 A 
ATOM      6  C6  IND d   1       1.384  -0.299   1.226  0.00  0.00     0.015 A 
ATOM      7  C7  IND d   1       2.409  -1.152   0.928  0.00  0.00    -0.016 A 
ATOM      8  C8  IND d   1       2.067  -2.359   0.335  0.00  0.00    -0.047 A 
ATOM      9  C9  IND d   1       0.736  -2.707   0.074  0.00  0.00    -0.096 A 
ATOM     10  HN1 IND d   1       3.710  -3.459   0.001  0.00  0.00     0.298 HD
ENDROOT
TORSDOF 0
ENDMDL
