MODEL 1
REMARK minimizedAffinity 13.4364958
REMARK minimizedRMSD -1
REMARK  0 active torsions:
REMARK  status: ('A' for Active; 'I' for Inactive)
ROOT
ATOM      1  N1  IND d   1       4.705   2.268  -3.331  0.00  0.00    -0.196 N 
ATOM      2  C2  IND d   1       3.557   1.543  -3.175  0.00  0.00     0.054 A 
ATOM      3  C3  IND d   1       2.800   2.068  -2.186  0.00  0.00    -0.031 A 
ATOM      4  C4  IND d   1       3.201   4.174  -0.761  0.00  0.00     0.051 A 
ATOM      5  C5  IND d   1       4.129   5.147  -0.514  0.00  0.00    -0.031 A 
ATOM      6  C6  IND d   1       5.319   5.212  -1.210  0.00  0.00     0.015 A 
ATOM      7  C7  IND d   1       5.622   4.311  -2.190  0.00  0.00    -0.016 A 
ATOM      8  C8  IND d   1       4.685   3.317  -2.439  0.00  0.00    -0.047 A 
ATOM      9  C9  IND d   1       3.495   3.220  -1.707  0.00  0.00    -0.096 A 
ATOM     10  HN1 IND d   1       5.333   2.098  -3.893  0.00  0.00     0.298 HD
ENDROOT
TORSDOF 0
ENDMDL
