MODEL 1
REMARK minimizedAffinity 3.2655983
REMARK minimizedRMSD -1
REMARK  0 active torsions:
REMARK  status: ('A' for Active; 'I' for Inactive)
ROOT
ATOM      1  N1  IND d   1       2.288  -2.715  -0.553  0.00  0.00    -0.196 N 
ATOM      2  C2  IND d   1       1.462  -3.748  -0.901  0.00  0.00     0.054 A 
ATOM      3  C3  IND d   1       0.204  -3.510  -0.467  0.00  0.00    -0.031 A 
ATOM      4  C4  IND d   1      -0.746  -1.447   0.745  0.00  0.00     0.051 A 
ATOM      5  C5  IND d   1      -0.369  -0.261   1.309  0.00  0.00    -0.031 A 
ATOM      6  C6  IND d   1       0.939   0.178   1.279  0.00  0.00     0.015 A 
ATOM      7  C7  IND d   1       1.921  -0.551   0.670  0.00  0.00    -0.016 A 
ATOM      8  C8  IND d   1       1.543  -1.760   0.102  0.00  0.00    -0.047 A 
ATOM      9  C9  IND d   1       0.225  -2.230   0.167  0.00  0.00    -0.096 A 
ATOM     10  HN1 IND d   1       3.131  -2.671  -0.716  0.00  0.00     0.298 HD
ENDROOT
TORSDOF 0
ENDMDL
