MODEL 1
REMARK minimizedAffinity -0.558957934
REMARK minimizedRMSD -1
REMARK  0 active torsions:
REMARK  status: ('A' for Active; 'I' for Inactive)
ROOT
ATOM      1  N1  IND d   1       5.872   2.212  -2.540  0.00  0.00    -0.196 N 
ATOM      2  C2  IND d   1       5.862   3.575  -2.425  0.00  0.00     0.054 A 
ATOM      3  C3  IND d   1       4.710   4.080  -2.919  0.00  0.00    -0.031 A 
ATOM      4  C4  IND d   1       2.659   2.849  -3.870  0.00  0.00     0.051 A 
ATOM      5  C5  IND d   1       2.213   1.603  -4.212  0.00  0.00    -0.031 A 
ATOM      6  C6  IND d   1       2.979   0.473  -4.007  0.00  0.00     0.015 A 
ATOM      7  C7  IND d   1       4.220   0.547  -3.440  0.00  0.00    -0.016 A 
ATOM      8  C8  IND d   1       4.678   1.811  -3.098  0.00  0.00    -0.047 A 
ATOM      9  C9  IND d   1       3.923   2.965  -3.343  0.00  0.00    -0.096 A 
ATOM     10  HN1 IND d   1       6.516   1.694  -2.304  0.00  0.00     0.298 HD
ENDROOT
TORSDOF 0
ENDMDL
