MODEL 1
REMARK minimizedAffinity 0.513931453
REMARK minimizedRMSD -1
REMARK  0 active torsions:
REMARK  status: ('A' for Active; 'I' for Inactive)
ROOT
ATOM      1  N1  IND d   1       2.721  -2.720  -0.239  0.00  0.00    -0.196 N 
ATOM      2  C2  IND d   1       1.989  -3.788  -0.677  0.00  0.00     0.054 A 
ATOM      3  C3  IND d   1       0.671  -3.571  -0.473  0.00  0.00    -0.031 A 
ATOM      4  C4  IND d   1      -0.517  -1.492   0.473  0.00  0.00     0.051 A 
ATOM      5  C5  IND d   1      -0.267  -0.275   1.043  0.00  0.00    -0.031 A 
ATOM      6  C6  IND d   1       1.017   0.200   1.216  0.00  0.00     0.015 A 
ATOM      7  C7  IND d   1       2.104  -0.523   0.813  0.00  0.00    -0.016 A 
ATOM      8  C8  IND d   1       1.855  -1.762   0.240  0.00  0.00    -0.047 A 
ATOM      9  C9  IND d   1       0.556  -2.268   0.101  0.00  0.00    -0.096 A 
ATOM     10  HN1 IND d   1       3.578  -2.657  -0.259  0.00  0.00     0.298 HD
ENDROOT
TORSDOF 0
ENDMDL
