MODEL 1
REMARK minimizedAffinity 1.34814012
REMARK minimizedRMSD -1
REMARK  0 active torsions:
REMARK  status: ('A' for Active; 'I' for Inactive)
ROOT
ATOM      1  N1  IND d   1      -0.756   0.464   2.414  0.00  0.00    -0.196 N 
ATOM      2  C2  IND d   1      -2.032   0.042   2.162  0.00  0.00     0.054 A 
ATOM      3  C3  IND d   1      -2.051  -0.791   1.097  0.00  0.00    -0.031 A 
ATOM      4  C4  IND d   1      -0.093  -1.679  -0.318  0.00  0.00     0.051 A 
ATOM      5  C5  IND d   1       1.256  -1.549  -0.493  0.00  0.00    -0.031 A 
ATOM      6  C6  IND d   1       2.019  -0.727   0.310  0.00  0.00     0.015 A 
ATOM      7  C7  IND d   1       1.461  -0.010   1.330  0.00  0.00    -0.016 A 
ATOM      8  C8  IND d   1       0.090  -0.134   1.506  0.00  0.00    -0.047 A 
ATOM      9  C9  IND d   1      -0.696  -0.934   0.667  0.00  0.00    -0.096 A 
ATOM     10  HN1 IND d   1      -0.522   1.010   3.035  0.00  0.00     0.298 HD
ENDROOT
TORSDOF 0
ENDMDL
