MODEL 1
REMARK minimizedAffinity 8.32110405
REMARK minimizedRMSD -1
REMARK  0 active torsions:
REMARK  status: ('A' for Active; 'I' for Inactive)
ROOT
ATOM      1  N1  IND d   1      -1.520  -3.949  -0.296  0.00  0.00    -0.196 N 
ATOM      2  C2  IND d   1      -2.672  -3.474   0.265  0.00  0.00     0.054 A 
ATOM      3  C3  IND d   1      -2.433  -2.316   0.921  0.00  0.00    -0.031 A 
ATOM      4  C4  IND d   1      -0.249  -0.968   1.118  0.00  0.00     0.051 A 
ATOM      5  C5  IND d   1       1.080  -1.018   0.803  0.00  0.00    -0.031 A 
ATOM      6  C6  IND d   1       1.621  -2.068   0.089  0.00  0.00     0.015 A 
ATOM      7  C7  IND d   1       0.847  -3.106  -0.349  0.00  0.00    -0.016 A 
ATOM      8  C8  IND d   1      -0.502  -3.061  -0.025  0.00  0.00    -0.047 A 
ATOM      9  C9  IND d   1      -1.048  -2.020   0.736  0.00  0.00    -0.096 A 
ATOM     10  HN1 IND d   1      -1.443  -4.680  -0.743  0.00  0.00     0.298 HD
ENDROOT
TORSDOF 0
ENDMDL
