MODEL 1
REMARK minimizedAffinity 4.10502481
REMARK minimizedRMSD -1
REMARK  0 active torsions:
REMARK  status: ('A' for Active; 'I' for Inactive)
ROOT
ATOM      1  N1  IND d   1       1.904   0.310   1.718  0.00  0.00    -0.196 N 
ATOM      2  C2  IND d   1       3.195  -0.132   1.786  0.00  0.00     0.054 A 
ATOM      3  C3  IND d   1       3.299  -1.366   1.243  0.00  0.00    -0.031 A 
ATOM      4  C4  IND d   1       1.498  -2.804   0.095  0.00  0.00     0.051 A 
ATOM      5  C5  IND d   1       0.159  -2.840  -0.175  0.00  0.00    -0.031 A 
ATOM      6  C6  IND d   1      -0.684  -1.805   0.176  0.00  0.00     0.015 A 
ATOM      7  C7  IND d   1      -0.214  -0.686   0.804  0.00  0.00    -0.016 A 
ATOM      8  C8  IND d   1       1.144  -0.650   1.087  0.00  0.00    -0.047 A 
ATOM      9  C9  IND d   1       1.996  -1.715   0.771  0.00  0.00    -0.096 A 
ATOM     10  HN1 IND d   1       1.614   1.062   2.020  0.00  0.00     0.298 HD
ENDROOT
TORSDOF 0
ENDMDL
