MODEL 1
REMARK minimizedAffinity -0.607024133
REMARK minimizedRMSD -1
REMARK  0 active torsions:
REMARK  status: ('A' for Active; 'I' for Inactive)
ROOT
ATOM      1  N1  IND d   1      -0.525   0.726   1.614  0.00  0.00    -0.196 N 
ATOM      2  C2  IND d   1      -1.852   0.467   1.413  0.00  0.00     0.054 A 
ATOM      3  C3  IND d   1      -2.006  -0.671   0.699  0.00  0.00    -0.031 A 
ATOM      4  C4  IND d   1      -0.223  -2.320  -0.155  0.00  0.00     0.051 A 
ATOM      5  C5  IND d   1       1.130  -2.491  -0.248  0.00  0.00    -0.031 A 
ATOM      6  C6  IND d   1       2.018  -1.581   0.289  0.00  0.00     0.015 A 
ATOM      7  C7  IND d   1       1.585  -0.468   0.951  0.00  0.00    -0.016 A 
ATOM      8  C8  IND d   1       0.212  -0.287   1.041  0.00  0.00    -0.047 A 
ATOM      9  C9  IND d   1      -0.694  -1.185   0.461  0.00  0.00    -0.096 A 
ATOM     10  HN1 IND d   1      -0.204   1.407   2.029  0.00  0.00     0.298 HD
ENDROOT
TORSDOF 0
ENDMDL
