MODEL 1
REMARK minimizedAffinity 2.78301001
REMARK minimizedRMSD -1
REMARK  0 active torsions:
REMARK  status: ('A' for Active; 'I' for Inactive)
ROOT
ATOM      1  N1  IND d   1      -0.916  -2.222   0.225  0.00  0.00    -0.196 N 
ATOM      2  C2  IND d   1       0.321  -2.284   0.806  0.00  0.00     0.054 A 
ATOM      3  C3  IND d   1       0.531  -1.197   1.583  0.00  0.00    -0.031 A 
ATOM      4  C4  IND d   1      -1.056   0.755   2.127  0.00  0.00     0.051 A 
ATOM      5  C5  IND d   1      -2.280   1.271   1.805  0.00  0.00    -0.031 A 
ATOM      6  C6  IND d   1      -3.130   0.634   0.924  0.00  0.00     0.015 A 
ATOM      7  C7  IND d   1      -2.791  -0.553   0.338  0.00  0.00    -0.016 A 
ATOM      8  C8  IND d   1      -1.546  -1.076   0.658  0.00  0.00    -0.047 A 
ATOM      9  C9  IND d   1      -0.661  -0.413   1.518  0.00  0.00    -0.096 A 
ATOM     10  HN1 IND d   1      -1.244  -2.801  -0.319  0.00  0.00     0.298 HD
ENDROOT
TORSDOF 0
ENDMDL
