MODEL 1
REMARK minimizedAffinity 4.87652016
REMARK minimizedRMSD -1
REMARK  0 active torsions:
REMARK  status: ('A' for Active; 'I' for Inactive)
ROOT
ATOM      1  N1  IND d   1      -0.349   4.894  -2.626  0.00  0.00    -0.196 N 
ATOM      2  C2  IND d   1      -1.059   5.808  -3.355  0.00  0.00     0.054 A 
ATOM      3  C3  IND d   1      -0.481   6.000  -4.561  0.00  0.00    -0.031 A 
ATOM      4  C4  IND d   1       1.578   4.846  -5.590  0.00  0.00     0.051 A 
ATOM      5  C5  IND d   1       2.581   3.967  -5.292  0.00  0.00    -0.031 A 
ATOM      6  C6  IND d   1       2.658   3.336  -4.067  0.00  0.00     0.015 A 
ATOM      7  C7  IND d   1       1.725   3.555  -3.094  0.00  0.00    -0.016 A 
ATOM      8  C8  IND d   1       0.709   4.453  -3.390  0.00  0.00    -0.047 A 
ATOM      9  C9  IND d   1       0.650   5.128  -4.616  0.00  0.00    -0.096 A 
ATOM     10  HN1 IND d   1      -0.533   4.639  -1.826  0.00  0.00     0.298 HD
ENDROOT
TORSDOF 0
ENDMDL
