MODEL 1
REMARK minimizedAffinity -0.957021117
REMARK minimizedRMSD -1
REMARK  0 active torsions:
REMARK  status: ('A' for Active; 'I' for Inactive)
ROOT
ATOM      1  N1  IND d   1       2.451  -2.136  -0.271  0.00  0.00    -0.196 N 
ATOM      2  C2  IND d   1       3.172  -1.023   0.062  0.00  0.00     0.054 A 
ATOM      3  C3  IND d   1       2.370  -0.098   0.637  0.00  0.00    -0.031 A 
ATOM      4  C4  IND d   1      -0.133  -0.240   1.222  0.00  0.00     0.051 A 
ATOM      5  C5  IND d   1      -1.228  -1.044   1.080  0.00  0.00    -0.031 A 
ATOM      6  C6  IND d   1      -1.151  -2.280   0.469  0.00  0.00     0.015 A 
ATOM      7  C7  IND d   1       0.032  -2.764  -0.013  0.00  0.00    -0.016 A 
ATOM      8  C8  IND d   1       1.145  -1.947   0.124  0.00  0.00    -0.047 A 
ATOM      9  C9  IND d   1       1.065  -0.674   0.704  0.00  0.00    -0.096 A 
ATOM     10  HN1 IND d   1       2.761  -2.836  -0.662  0.00  0.00     0.298 HD
ENDROOT
TORSDOF 0
ENDMDL
