MODEL 1
REMARK minimizedAffinity -2.45770597
REMARK minimizedRMSD -1
REMARK  0 active torsions:
REMARK  status: ('A' for Active; 'I' for Inactive)
ROOT
ATOM      1  N1  IND d   1       2.251  -2.837  -0.765  0.00  0.00    -0.196 N 
ATOM      2  C2  IND d   1       1.295  -3.750  -1.111  0.00  0.00     0.054 A 
ATOM      3  C3  IND d   1       0.106  -3.418  -0.560  0.00  0.00    -0.031 A 
ATOM      4  C4  IND d   1      -0.522  -1.365   0.861  0.00  0.00     0.051 A 
ATOM      5  C5  IND d   1       0.023  -0.269   1.470  0.00  0.00    -0.031 A 
ATOM      6  C6  IND d   1       1.364   0.034   1.361  0.00  0.00     0.015 A 
ATOM      7  C7  IND d   1       2.213  -0.744   0.625  0.00  0.00    -0.016 A 
ATOM      8  C8  IND d   1       1.665  -1.861   0.011  0.00  0.00    -0.047 A 
ATOM      9  C9  IND d   1       0.313  -2.198   0.154  0.00  0.00    -0.096 A 
ATOM     10  HN1 IND d   1       3.079  -2.866  -0.994  0.00  0.00     0.298 HD
ENDROOT
TORSDOF 0
ENDMDL
