MODEL 1
REMARK minimizedAffinity 0.644312382
REMARK minimizedRMSD -1
REMARK  0 active torsions:
REMARK  status: ('A' for Active; 'I' for Inactive)
ROOT
ATOM      1  N1  IND d   1      -1.625  -1.463   1.412  0.00  0.00    -0.196 N 
ATOM      2  C2  IND d   1      -1.690  -0.309   2.143  0.00  0.00     0.054 A 
ATOM      3  C3  IND d   1      -0.493   0.319   2.137  0.00  0.00    -0.031 A 
ATOM      4  C4  IND d   1       1.681  -0.313   0.910  0.00  0.00     0.051 A 
ATOM      5  C5  IND d   1       2.239  -1.300   0.147  0.00  0.00    -0.031 A 
ATOM      6  C6  IND d   1       1.522  -2.413  -0.244  0.00  0.00     0.015 A 
ATOM      7  C7  IND d   1       0.211  -2.575   0.106  0.00  0.00    -0.016 A 
ATOM      8  C8  IND d   1      -0.356  -1.578   0.887  0.00  0.00    -0.047 A 
ATOM      9  C9  IND d   1       0.378  -0.468   1.322  0.00  0.00    -0.096 A 
ATOM     10  HN1 IND d   1      -2.268  -2.022   1.299  0.00  0.00     0.298 HD
ENDROOT
TORSDOF 0
ENDMDL
