MODEL 1
REMARK minimizedAffinity 0.843711674
REMARK minimizedRMSD -1
REMARK  0 active torsions:
REMARK  status: ('A' for Active; 'I' for Inactive)
ROOT
ATOM      1  N1  IND d   1       2.483  -2.492  -0.100  0.00  0.00    -0.196 N 
ATOM      2  C2  IND d   1       1.737  -3.594  -0.412  0.00  0.00     0.054 A 
ATOM      3  C3  IND d   1       0.427  -3.358  -0.174  0.00  0.00    -0.031 A 
ATOM      4  C4  IND d   1      -0.726  -1.201   0.630  0.00  0.00     0.051 A 
ATOM      5  C5  IND d   1      -0.457   0.061   1.079  0.00  0.00    -0.031 A 
ATOM      6  C6  IND d   1       0.832   0.548   1.156  0.00  0.00     0.015 A 
ATOM      7  C7  IND d   1       1.904  -0.210   0.776  0.00  0.00    -0.016 A 
ATOM      8  C8  IND d   1       1.634  -1.495   0.326  0.00  0.00    -0.047 A 
ATOM      9  C9  IND d   1       0.332  -2.009   0.285  0.00  0.00    -0.096 A 
ATOM     10  HN1 IND d   1       3.339  -2.433  -0.161  0.00  0.00     0.298 HD
ENDROOT
TORSDOF 0
ENDMDL
