MODEL 1
REMARK minimizedAffinity 0.104687482
REMARK minimizedRMSD -1
REMARK  0 active torsions:
REMARK  status: ('A' for Active; 'I' for Inactive)
ROOT
ATOM      1  N1  IND d   1       0.740  -1.385   1.855  0.00  0.00    -0.196 N 
ATOM      2  C2  IND d   1       0.551  -2.402   0.961  0.00  0.00     0.054 A 
ATOM      3  C3  IND d   1      -0.638  -2.263   0.334  0.00  0.00    -0.031 A 
ATOM      4  C4  IND d   1      -2.389  -0.388   0.546  0.00  0.00     0.051 A 
ATOM      5  C5  IND d   1      -2.679   0.740   1.261  0.00  0.00    -0.031 A 
ATOM      6  C6  IND d   1      -1.825   1.229   2.228  0.00  0.00     0.015 A 
ATOM      7  C7  IND d   1      -0.639   0.611   2.510  0.00  0.00    -0.016 A 
ATOM      8  C8  IND d   1      -0.345  -0.538   1.791  0.00  0.00    -0.047 A 
ATOM      9  C9  IND d   1      -1.228  -1.063   0.837  0.00  0.00    -0.096 A 
ATOM     10  HN1 IND d   1       1.421  -1.290   2.371  0.00  0.00     0.298 HD
ENDROOT
TORSDOF 0
ENDMDL
