MODEL 1
REMARK minimizedAffinity 4.97845936
REMARK minimizedRMSD -1
REMARK  0 active torsions:
REMARK  status: ('A' for Active; 'I' for Inactive)
ROOT
ATOM      1  N1  IND d   1       2.105  -3.083  -0.378  0.00  0.00    -0.196 N 
ATOM      2  C2  IND d   1       1.094  -3.908  -0.785  0.00  0.00     0.054 A 
ATOM      3  C3  IND d   1      -0.104  -3.401  -0.417  0.00  0.00    -0.031 A 
ATOM      4  C4  IND d   1      -0.645  -1.182   0.770  0.00  0.00     0.051 A 
ATOM      5  C5  IND d   1      -0.050  -0.109   1.372  0.00  0.00    -0.031 A 
ATOM      6  C6  IND d   1       1.322   0.032   1.420  0.00  0.00     0.015 A 
ATOM      7  C7  IND d   1       2.153  -0.894   0.855  0.00  0.00    -0.016 A 
ATOM      8  C8  IND d   1       1.552  -1.989   0.249  0.00  0.00    -0.047 A 
ATOM      9  C9  IND d   1       0.161  -2.158   0.235  0.00  0.00    -0.096 A 
ATOM     10  HN1 IND d   1       2.945  -3.225  -0.494  0.00  0.00     0.298 HD
ENDROOT
TORSDOF 0
ENDMDL
