MODEL 1
REMARK minimizedAffinity 2.83439088
REMARK minimizedRMSD -1
REMARK  0 active torsions:
REMARK  status: ('A' for Active; 'I' for Inactive)
ROOT
ATOM      1  N1  IND d   1       4.321  -1.923   0.278  0.00  0.00    -0.196 N 
ATOM      2  C2  IND d   1       3.997  -0.725   0.851  0.00  0.00     0.054 A 
ATOM      3  C3  IND d   1       2.660  -0.635   1.028  0.00  0.00    -0.031 A 
ATOM      4  C4  IND d   1       0.825  -2.375   0.544  0.00  0.00     0.051 A 
ATOM      5  C5  IND d   1       0.629  -3.606  -0.015  0.00  0.00    -0.031 A 
ATOM      6  C6  IND d   1       1.676  -4.356  -0.513  0.00  0.00     0.015 A 
ATOM      7  C7  IND d   1       2.964  -3.905  -0.459  0.00  0.00    -0.016 A 
ATOM      8  C8  IND d   1       3.166  -2.652   0.102  0.00  0.00    -0.047 A 
ATOM      9  C9  IND d   1       2.103  -1.868   0.569  0.00  0.00    -0.096 A 
ATOM     10  HN1 IND d   1       5.114  -2.178   0.064  0.00  0.00     0.298 HD
ENDROOT
TORSDOF 0
ENDMDL
