MODEL 1
REMARK minimizedAffinity -1.79622066
REMARK minimizedRMSD -1
REMARK  0 active torsions:
REMARK  status: ('A' for Active; 'I' for Inactive)
ROOT
ATOM      1  N1  IND d   1      -4.507   0.431  -5.975  0.00  0.00    -0.196 N 
ATOM      2  C2  IND d   1      -3.313  -0.235  -5.976  0.00  0.00     0.054 A 
ATOM      3  C3  IND d   1      -2.285   0.643  -6.000  0.00  0.00    -0.031 A 
ATOM      4  C4  IND d   1      -2.330   3.216  -5.937  0.00  0.00     0.051 A 
ATOM      5  C5  IND d   1      -3.188   4.280  -5.967  0.00  0.00    -0.031 A 
ATOM      6  C6  IND d   1      -4.558   4.111  -5.999  0.00  0.00     0.015 A 
ATOM      7  C7  IND d   1      -5.122   2.867  -5.991  0.00  0.00    -0.016 A 
ATOM      8  C8  IND d   1      -4.254   1.785  -5.968  0.00  0.00    -0.047 A 
ATOM      9  C9  IND d   1      -2.863   1.949  -5.978  0.00  0.00    -0.096 A 
ATOM     10  HN1 IND d   1      -5.285   0.065  -5.978  0.00  0.00     0.298 HD
ENDROOT
TORSDOF 0
ENDMDL
