MODEL 1
REMARK minimizedAffinity -1.14733946
REMARK minimizedRMSD -1
REMARK  0 active torsions:
REMARK  status: ('A' for Active; 'I' for Inactive)
ROOT
ATOM      1  N1  IND d   1      -5.433   2.936  -5.999  0.00  0.00    -0.196 N 
ATOM      2  C2  IND d   1      -4.682   4.079  -5.996  0.00  0.00     0.054 A 
ATOM      3  C3  IND d   1      -3.365   3.775  -5.959  0.00  0.00    -0.031 A 
ATOM      4  C4  IND d   1      -2.214   1.473  -6.000  0.00  0.00     0.051 A 
ATOM      5  C5  IND d   1      -2.484   0.133  -5.966  0.00  0.00    -0.031 A 
ATOM      6  C6  IND d   1      -3.776  -0.350  -5.943  0.00  0.00     0.015 A 
ATOM      7  C7  IND d   1      -4.852   0.492  -5.965  0.00  0.00    -0.016 A 
ATOM      8  C8  IND d   1      -4.582   1.853  -5.993  0.00  0.00    -0.047 A 
ATOM      9  C9  IND d   1      -3.273   2.350  -5.973  0.00  0.00    -0.096 A 
ATOM     10  HN1 IND d   1      -6.292   2.901  -6.003  0.00  0.00     0.298 HD
ENDROOT
TORSDOF 0
ENDMDL
