MODEL 1
REMARK minimizedAffinity 0.503715515
REMARK minimizedRMSD -1
REMARK  0 active torsions:
REMARK  status: ('A' for Active; 'I' for Inactive)
ROOT
ATOM      1  N1  IND d   1      -4.916   3.688  -5.916  0.00  0.00    -0.196 N 
ATOM      2  C2  IND d   1      -3.805   4.481  -5.990  0.00  0.00     0.054 A 
ATOM      3  C3  IND d   1      -2.685   3.724  -5.997  0.00  0.00    -0.031 A 
ATOM      4  C4  IND d   1      -2.444   1.161  -5.998  0.00  0.00     0.051 A 
ATOM      5  C5  IND d   1      -3.175   0.010  -5.900  0.00  0.00    -0.031 A 
ATOM      6  C6  IND d   1      -4.551   0.027  -5.803  0.00  0.00     0.015 A 
ATOM      7  C7  IND d   1      -5.252   1.200  -5.813  0.00  0.00    -0.016 A 
ATOM      8  C8  IND d   1      -4.513   2.370  -5.905  0.00  0.00    -0.047 A 
ATOM      9  C9  IND d   1      -3.113   2.362  -5.960  0.00  0.00    -0.096 A 
ATOM     10  HN1 IND d   1      -5.729   3.965  -5.883  0.00  0.00     0.298 HD
ENDROOT
TORSDOF 0
ENDMDL
