MODEL 1
REMARK minimizedAffinity 10.4783421
REMARK minimizedRMSD -1
REMARK  0 active torsions:
REMARK  status: ('A' for Active; 'I' for Inactive)
ROOT
ATOM      1  N1  IND d   1      -4.842  -2.641  -3.921  0.00  0.00    -0.196 N 
ATOM      2  C2  IND d   1      -3.731  -2.037  -3.403  0.00  0.00     0.054 A 
ATOM      3  C3  IND d   1      -2.617  -2.713  -3.764  0.00  0.00    -0.031 A 
ATOM      4  C4  IND d   1      -2.376  -4.777  -5.283  0.00  0.00     0.051 A 
ATOM      5  C5  IND d   1      -3.112  -5.706  -5.963  0.00  0.00    -0.031 A 
ATOM      6  C6  IND d   1      -4.491  -5.659  -6.000  0.00  0.00     0.015 A 
ATOM      7  C7  IND d   1      -5.187  -4.669  -5.365  0.00  0.00    -0.016 A 
ATOM      8  C8  IND d   1      -4.442  -3.728  -4.668  0.00  0.00    -0.047 A 
ATOM      9  C9  IND d   1      -3.045  -3.795  -4.592  0.00  0.00    -0.096 A 
ATOM     10  HN1 IND d   1      -5.654  -2.386  -3.801  0.00  0.00     0.298 HD
ENDROOT
TORSDOF 0
ENDMDL
