MODEL 1
REMARK minimizedAffinity -1.45642006
REMARK minimizedRMSD -1
REMARK  0 active torsions:
REMARK  status: ('A' for Active; 'I' for Inactive)
ROOT
ATOM      1  N1  IND d   1      -5.251   1.946  -5.979  0.00  0.00    -0.196 N 
ATOM      2  C2  IND d   1      -4.169   1.110  -5.979  0.00  0.00     0.054 A 
ATOM      3  C3  IND d   1      -3.022   1.825  -6.000  0.00  0.00    -0.031 A 
ATOM      4  C4  IND d   1      -2.683   4.376  -5.934  0.00  0.00     0.051 A 
ATOM      5  C5  IND d   1      -3.373   5.555  -5.965  0.00  0.00    -0.031 A 
ATOM      6  C6  IND d   1      -4.752   5.593  -6.000  0.00  0.00     0.015 A 
ATOM      7  C7  IND d   1      -5.496   4.447  -5.994  0.00  0.00    -0.016 A 
ATOM      8  C8  IND d   1      -4.799   3.247  -5.970  0.00  0.00    -0.047 A 
ATOM      9  C9  IND d   1      -3.399   3.203  -5.977  0.00  0.00    -0.096 A 
ATOM     10  HN1 IND d   1      -6.075   1.701  -5.984  0.00  0.00     0.298 HD
ENDROOT
TORSDOF 0
ENDMDL
