MODEL 1
REMARK minimizedAffinity 2.96727347
REMARK minimizedRMSD -1
REMARK  0 active torsions:
REMARK  status: ('A' for Active; 'I' for Inactive)
ROOT
ATOM      1  N1  IND d   1       2.617  -2.172  -1.102  0.00  0.00    -0.196 N 
ATOM      2  C2  IND d   1       3.929  -2.044  -1.464  0.00  0.00     0.054 A 
ATOM      3  C3  IND d   1       4.310  -0.748  -1.403  0.00  0.00    -0.031 A 
ATOM      4  C4  IND d   1       2.973   1.315  -0.637  0.00  0.00     0.051 A 
ATOM      5  C5  IND d   1       1.722   1.704  -0.248  0.00  0.00    -0.031 A 
ATOM      6  C6  IND d   1       0.685   0.803  -0.119  0.00  0.00     0.015 A 
ATOM      7  C7  IND d   1       0.865  -0.529  -0.364  0.00  0.00    -0.016 A 
ATOM      8  C8  IND d   1       2.132  -0.927  -0.766  0.00  0.00    -0.047 A 
ATOM      9  C9  IND d   1       3.177  -0.011  -0.940  0.00  0.00    -0.096 A 
ATOM     10  HN1 IND d   1       2.170  -2.906  -1.088  0.00  0.00     0.298 HD
ENDROOT
TORSDOF 0
ENDMDL
