MODEL 1
REMARK minimizedAffinity -3.82004857
REMARK minimizedRMSD -1
REMARK  0 active torsions:
REMARK  status: ('A' for Active; 'I' for Inactive)
ROOT
ATOM      1  N1  IND d   1      -2.344   2.921  -5.970  0.00  0.00    -0.196 N 
ATOM      2  C2  IND d   1      -3.105   4.057  -5.973  0.00  0.00     0.054 A 
ATOM      3  C3  IND d   1      -4.420   3.741  -6.000  0.00  0.00    -0.031 A 
ATOM      4  C4  IND d   1      -5.549   1.428  -5.938  0.00  0.00     0.051 A 
ATOM      5  C5  IND d   1      -5.267   0.091  -5.968  0.00  0.00    -0.031 A 
ATOM      6  C6  IND d   1      -3.971  -0.380  -5.997  0.00  0.00     0.015 A 
ATOM      7  C7  IND d   1      -2.902   0.471  -5.986  0.00  0.00    -0.016 A 
ATOM      8  C8  IND d   1      -3.185   1.830  -5.964  0.00  0.00    -0.047 A 
ATOM      9  C9  IND d   1      -4.499   2.315  -5.977  0.00  0.00    -0.096 A 
ATOM     10  HN1 IND d   1      -1.485   2.894  -5.971  0.00  0.00     0.298 HD
ENDROOT
TORSDOF 0
ENDMDL
