MODEL 1
REMARK minimizedAffinity -3.30891681
REMARK minimizedRMSD -1
REMARK  0 active torsions:
REMARK  status: ('A' for Active; 'I' for Inactive)
ROOT
ATOM      1  N1  IND d   1      -3.883  -0.445  -5.996  0.00  0.00    -0.196 N 
ATOM      2  C2  IND d   1      -5.007  -1.152  -5.670  0.00  0.00     0.054 A 
ATOM      3  C3  IND d   1      -5.987  -0.315  -5.262  0.00  0.00    -0.031 A 
ATOM      4  C4  IND d   1      -6.000   2.257  -5.148  0.00  0.00     0.051 A 
ATOM      5  C5  IND d   1      -5.191   3.347  -5.310  0.00  0.00    -0.031 A 
ATOM      6  C6  IND d   1      -3.879   3.226  -5.720  0.00  0.00     0.015 A 
ATOM      7  C7  IND d   1      -3.328   2.006  -5.995  0.00  0.00    -0.016 A 
ATOM      8  C8  IND d   1      -4.144   0.897  -5.825  0.00  0.00    -0.047 A 
ATOM      9  C9  IND d   1      -5.464   1.010  -5.368  0.00  0.00    -0.096 A 
ATOM     10  HN1 IND d   1      -3.138  -0.781  -6.263  0.00  0.00     0.298 HD
ENDROOT
TORSDOF 0
ENDMDL
