MODEL 1
REMARK minimizedAffinity -1.89167178
REMARK minimizedRMSD -1
REMARK  0 active torsions:
REMARK  status: ('A' for Active; 'I' for Inactive)
ROOT
ATOM      1  N1  IND d   1      -3.320  -4.879  -5.905  0.00  0.00    -0.196 N 
ATOM      2  C2  IND d   1      -1.955  -4.932  -5.921  0.00  0.00     0.054 A 
ATOM      3  C3  IND d   1      -1.436  -3.685  -5.986  0.00  0.00    -0.031 A 
ATOM      4  C4  IND d   1      -2.641  -1.410  -5.970  0.00  0.00     0.051 A 
ATOM      5  C5  IND d   1      -3.887  -0.851  -6.000  0.00  0.00    -0.031 A 
ATOM      6  C6  IND d   1      -5.032  -1.622  -5.997  0.00  0.00     0.015 A 
ATOM      7  C7  IND d   1      -4.972  -2.986  -5.952  0.00  0.00    -0.016 A 
ATOM      8  C8  IND d   1      -3.708  -3.557  -5.929  0.00  0.00    -0.047 A 
ATOM      9  C9  IND d   1      -2.542  -2.782  -5.974  0.00  0.00    -0.096 A 
ATOM     10  HN1 IND d   1      -3.849  -5.557  -5.883  0.00  0.00     0.298 HD
ENDROOT
TORSDOF 0
ENDMDL
