MODEL 1
REMARK minimizedAffinity 3.98922753
REMARK minimizedRMSD -1
REMARK  0 active torsions:
REMARK  status: ('A' for Active; 'I' for Inactive)
ROOT
ATOM      1  N1  IND d   1      -3.182   2.332  -5.915  0.00  0.00    -0.196 N 
ATOM      2  C2  IND d   1      -4.228   3.211  -5.935  0.00  0.00     0.054 A 
ATOM      3  C3  IND d   1      -5.402   2.543  -5.998  0.00  0.00    -0.031 A 
ATOM      4  C4  IND d   1      -5.844   0.007  -5.974  0.00  0.00     0.051 A 
ATOM      5  C5  IND d   1      -5.201  -1.199  -5.999  0.00  0.00    -0.031 A 
ATOM      6  C6  IND d   1      -3.825  -1.291  -5.995  0.00  0.00     0.015 A 
ATOM      7  C7  IND d   1      -3.036  -0.176  -5.953  0.00  0.00    -0.016 A 
ATOM      8  C8  IND d   1      -3.685   1.050  -5.935  0.00  0.00    -0.047 A 
ATOM      9  C9  IND d   1      -5.082   1.151  -5.982  0.00  0.00    -0.096 A 
ATOM     10  HN1 IND d   1      -2.349   2.544  -5.893  0.00  0.00     0.298 HD
ENDROOT
TORSDOF 0
ENDMDL
