MODEL 1
REMARK minimizedAffinity -3.25962996
REMARK minimizedRMSD -1
REMARK  0 active torsions:
REMARK  status: ('A' for Active; 'I' for Inactive)
ROOT
ATOM      1  N1  IND d   1      -2.599   2.175  -5.978  0.00  0.00    -0.196 N 
ATOM      2  C2  IND d   1      -3.171   3.416  -5.972  0.00  0.00     0.054 A 
ATOM      3  C3  IND d   1      -4.519   3.313  -5.987  0.00  0.00    -0.031 A 
ATOM      4  C4  IND d   1      -5.999   1.208  -5.920  0.00  0.00     0.051 A 
ATOM      5  C5  IND d   1      -5.934  -0.156  -5.954  0.00  0.00    -0.031 A 
ATOM      6  C6  IND d   1      -4.729  -0.827  -5.996  0.00  0.00     0.015 A 
ATOM      7  C7  IND d   1      -3.539  -0.156  -5.994  0.00  0.00    -0.016 A 
ATOM      8  C8  IND d   1      -3.602   1.230  -5.966  0.00  0.00    -0.047 A 
ATOM      9  C9  IND d   1      -4.823   1.918  -5.967  0.00  0.00    -0.096 A 
ATOM     10  HN1 IND d   1      -1.755   2.011  -5.987  0.00  0.00     0.298 HD
ENDROOT
TORSDOF 0
ENDMDL
