MODEL 1
REMARK minimizedAffinity -0.0176017247
REMARK minimizedRMSD -1
REMARK  0 active torsions:
REMARK  status: ('A' for Active; 'I' for Inactive)
ROOT
ATOM      1  N1  IND d   1      -2.410   0.768  -5.995  0.00  0.00    -0.196 N 
ATOM      2  C2  IND d   1      -3.166  -0.371  -5.972  0.00  0.00     0.054 A 
ATOM      3  C3  IND d   1      -4.481  -0.062  -5.933  0.00  0.00    -0.031 A 
ATOM      4  C4  IND d   1      -5.622   2.244  -6.000  0.00  0.00     0.051 A 
ATOM      5  C5  IND d   1      -5.347   3.583  -5.985  0.00  0.00    -0.031 A 
ATOM      6  C6  IND d   1      -4.053   4.061  -5.976  0.00  0.00     0.015 A 
ATOM      7  C7  IND d   1      -2.980   3.215  -5.992  0.00  0.00    -0.016 A 
ATOM      8  C8  IND d   1      -3.256   1.855  -6.000  0.00  0.00    -0.047 A 
ATOM      9  C9  IND d   1      -4.567   1.363  -5.966  0.00  0.00    -0.096 A 
ATOM     10  HN1 IND d   1      -1.551   0.800  -6.004  0.00  0.00     0.298 HD
ENDROOT
TORSDOF 0
ENDMDL
