MODEL 1
REMARK minimizedAffinity -3.77283287
REMARK minimizedRMSD -1
REMARK  0 active torsions:
REMARK  status: ('A' for Active; 'I' for Inactive)
ROOT
ATOM      1  N1  IND d   1      -5.960   0.313  -5.991  0.00  0.00    -0.196 N 
ATOM      2  C2  IND d   1      -5.232  -0.844  -5.999  0.00  0.00     0.054 A 
ATOM      3  C3  IND d   1      -3.909  -0.568  -5.970  0.00  0.00    -0.031 A 
ATOM      4  C4  IND d   1      -2.717   1.708  -5.803  0.00  0.00     0.051 A 
ATOM      5  C5  IND d   1      -2.958   3.053  -5.804  0.00  0.00    -0.031 A 
ATOM      6  C6  IND d   1      -4.239   3.564  -5.866  0.00  0.00     0.015 A 
ATOM      7  C7  IND d   1      -5.331   2.745  -5.918  0.00  0.00    -0.016 A 
ATOM      8  C8  IND d   1      -5.089   1.378  -5.924  0.00  0.00    -0.047 A 
ATOM      9  C9  IND d   1      -3.790   0.854  -5.904  0.00  0.00    -0.096 A 
ATOM     10  HN1 IND d   1      -6.818   0.366  -6.022  0.00  0.00     0.298 HD
ENDROOT
TORSDOF 0
ENDMDL
