MODEL 1
REMARK minimizedAffinity -3.76125383
REMARK minimizedRMSD -1
REMARK  0 active torsions:
REMARK  status: ('A' for Active; 'I' for Inactive)
ROOT
ATOM      1  N1  IND d   1      -5.237  -0.177  -5.884  0.00  0.00    -0.196 N 
ATOM      2  C2  IND d   1      -4.452  -1.290  -5.999  0.00  0.00     0.054 A 
ATOM      3  C3  IND d   1      -3.145  -0.956  -5.906  0.00  0.00    -0.031 A 
ATOM      4  C4  IND d   1      -2.072   1.341  -5.462  0.00  0.00     0.051 A 
ATOM      5  C5  IND d   1      -2.380   2.665  -5.323  0.00  0.00    -0.031 A 
ATOM      6  C6  IND d   1      -3.683   3.118  -5.362  0.00  0.00     0.015 A 
ATOM      7  C7  IND d   1      -4.732   2.259  -5.530  0.00  0.00    -0.016 A 
ATOM      8  C8  IND d   1      -4.422   0.914  -5.679  0.00  0.00    -0.047 A 
ATOM      9  C9  IND d   1      -3.099   0.454  -5.683  0.00  0.00    -0.096 A 
ATOM     10  HN1 IND d   1      -6.095  -0.161  -5.931  0.00  0.00     0.298 HD
ENDROOT
TORSDOF 0
ENDMDL
