MODEL 1
REMARK minimizedAffinity -3.49439764
REMARK minimizedRMSD -1
REMARK  0 active torsions:
REMARK  status: ('A' for Active; 'I' for Inactive)
ROOT
ATOM      1  N1  IND d   1      -5.408  -0.731  -5.947  0.00  0.00    -0.196 N 
ATOM      2  C2  IND d   1      -4.221  -1.407  -6.000  0.00  0.00     0.054 A 
ATOM      3  C3  IND d   1      -3.185  -0.538  -5.999  0.00  0.00    -0.031 A 
ATOM      4  C4  IND d   1      -3.203   2.030  -5.814  0.00  0.00     0.051 A 
ATOM      5  C5  IND d   1      -4.051   3.101  -5.780  0.00  0.00    -0.031 A 
ATOM      6  C6  IND d   1      -5.423   2.947  -5.797  0.00  0.00     0.015 A 
ATOM      7  C7  IND d   1      -5.999   1.709  -5.838  0.00  0.00    -0.016 A 
ATOM      8  C8  IND d   1      -5.141   0.619  -5.880  0.00  0.00    -0.047 A 
ATOM      9  C9  IND d   1      -3.749   0.771  -5.906  0.00  0.00    -0.096 A 
ATOM     10  HN1 IND d   1      -6.190  -1.089  -5.955  0.00  0.00     0.298 HD
ENDROOT
TORSDOF 0
ENDMDL
