MODEL 1
REMARK minimizedAffinity -3.75406814
REMARK minimizedRMSD -1
REMARK  0 active torsions:
REMARK  status: ('A' for Active; 'I' for Inactive)
ROOT
ATOM      1  N1  IND d   1      -5.648   3.015  -5.959  0.00  0.00    -0.196 N 
ATOM      2  C2  IND d   1      -4.539   3.812  -5.917  0.00  0.00     0.054 A 
ATOM      3  C3  IND d   1      -3.418   3.057  -5.883  0.00  0.00    -0.031 A 
ATOM      4  C4  IND d   1      -3.166   0.498  -5.991  0.00  0.00     0.051 A 
ATOM      5  C5  IND d   1      -3.897  -0.657  -6.000  0.00  0.00    -0.031 A 
ATOM      6  C6  IND d   1      -5.277  -0.647  -5.998  0.00  0.00     0.015 A 
ATOM      7  C7  IND d   1      -5.980   0.524  -5.999  0.00  0.00    -0.016 A 
ATOM      8  C8  IND d   1      -5.242   1.699  -5.983  0.00  0.00    -0.047 A 
ATOM      9  C9  IND d   1      -3.841   1.694  -5.941  0.00  0.00    -0.096 A 
ATOM     10  HN1 IND d   1      -6.463   3.289  -5.968  0.00  0.00     0.298 HD
ENDROOT
TORSDOF 0
ENDMDL
