MODEL 1
REMARK minimizedAffinity -5.04324436
REMARK minimizedRMSD -1
REMARK  1 active torsions:
REMARK  status: ('A' for Active; 'I' for Inactive)
REMARK    1  A    between atoms: C1_2  and  C2_3 
ROOT
ATOM      1  C2  UNL d   1       1.364  -0.242   0.587  0.00  0.00    -0.081 A 
ATOM      2  C3  UNL d   1       0.121  -0.305   1.228  0.00  0.00     0.006 A 
ATOM      3  C4  UNL d   1      -1.061  -0.180   0.495  0.00  0.00     0.002 A 
ATOM      4  C5  UNL d   1      -1.021   0.003  -0.892  0.00  0.00    -0.080 A 
ATOM      5  C6  UNL d   1      -2.283   0.108  -1.695  0.00  0.00     0.076 C 
ATOM      6  C7  UNL d   1       0.222   0.084  -1.530  0.00  0.00     0.002 A 
ATOM      7  C8  UNL d   1       1.404  -0.041  -0.797  0.00  0.00     0.006 A 
ENDROOT
BRANCH   1   8
ATOM      8  C1  UNL d   1       2.639  -0.441   1.366  0.00  0.00     0.054 C 
ATOM      9  C   UNL d   1       2.749  -1.865   1.892  0.00  0.00     0.018 C 
ENDBRANCH   1   8
TORSDOF 1
ENDMDL
