MODEL 1
REMARK minimizedAffinity -5.1397953
REMARK minimizedRMSD -1
REMARK  1 active torsions:
REMARK  status: ('A' for Active; 'I' for Inactive)
REMARK    1  A    between atoms: C1_2  and  C2_3 
ROOT
ATOM      1  C2  UNL d   1      -0.484   0.381  -0.145  0.00  0.00    -0.081 A 
ATOM      2  C3  UNL d   1       0.538   1.309  -0.379  0.00  0.00     0.006 A 
ATOM      3  C4  UNL d   1       1.856   1.017  -0.020  0.00  0.00     0.002 A 
ATOM      4  C5  UNL d   1       2.175  -0.209   0.572  0.00  0.00    -0.080 A 
ATOM      5  C6  UNL d   1       3.591  -0.547   0.935  0.00  0.00     0.076 C 
ATOM      6  C7  UNL d   1       1.152  -1.130   0.823  0.00  0.00     0.002 A 
ATOM      7  C8  UNL d   1      -0.166  -0.838   0.464  0.00  0.00     0.006 A 
ENDROOT
BRANCH   1   8
ATOM      8  C1  UNL d   1      -1.896   0.666  -0.590  0.00  0.00     0.054 C 
ATOM      9  C   UNL d   1      -2.137   0.177  -2.011  0.00  0.00     0.018 C 
ENDBRANCH   1   8
TORSDOF 1
ENDMDL
