MODEL 1
REMARK minimizedAffinity -4.4682579
REMARK minimizedRMSD -1
REMARK  0 active torsions:
REMARK  status: ('A' for Active; 'I' for Inactive)
ROOT
ATOM      1  C   UNL d   1       1.420  -1.174   2.473  0.00  0.00     0.124 A 
ATOM      2  C1  UNL d   1       0.106  -0.727   2.475  0.00  0.00     0.062 A 
ATOM      3  C2  UNL d   1      -0.473  -0.247   1.304  0.00  0.00     0.162 A 
ATOM      4  C3  UNL d   1       0.263  -0.211   0.119  0.00  0.00    -0.034 A 
ATOM      5  C4  UNL d   1       1.584  -0.661   0.125  0.00  0.00     0.162 A 
ATOM      6  C5  UNL d   1       2.158  -1.140   1.298  0.00  0.00     0.062 A 
ATOM      7  F   UNL d   1       3.427  -1.572   1.294  0.00  0.00    -0.097 F 
ATOM      8  F1  UNL d   1       2.320  -0.641  -0.997  0.00  0.00    -0.096 F 
ATOM      9  I   UNL d   1      -0.598   0.506  -1.635  0.00  0.00    -0.060 I 
ATOM     10  F2  UNL d   1      -1.744   0.179   1.335  0.00  0.00    -0.096 F 
ATOM     11  F3  UNL d   1      -0.609  -0.757   3.609  0.00  0.00    -0.097 F 
ATOM     12  F4  UNL d   1       1.974  -1.635   3.601  0.00  0.00    -0.092 F 
ENDROOT
TORSDOF 0
ENDMDL
