MODEL 1
REMARK minimizedAffinity -4.33617973
REMARK minimizedRMSD -1
REMARK  0 active torsions:
REMARK  status: ('A' for Active; 'I' for Inactive)
ROOT
ATOM      1  C   UNL d   1      -0.712   0.712  -0.319  0.00  0.00     0.124 A 
ATOM      2  C1  UNL d   1       0.609   0.521  -0.700  0.00  0.00     0.062 A 
ATOM      3  C2  UNL d   1       1.455  -0.262   0.080  0.00  0.00     0.162 A 
ATOM      4  C3  UNL d   1       0.983  -0.861   1.248  0.00  0.00    -0.034 A 
ATOM      5  C4  UNL d   1      -0.346  -0.663   1.625  0.00  0.00     0.162 A 
ATOM      6  C5  UNL d   1      -1.188   0.121   0.842  0.00  0.00     0.062 A 
ATOM      7  F   UNL d   1      -2.464   0.305   1.212  0.00  0.00    -0.097 F 
ATOM      8  F1  UNL d   1      -0.832  -1.223   2.742  0.00  0.00    -0.096 F 
ATOM      9  I   UNL d   1       2.246  -2.032   2.416  0.00  0.00    -0.060 I 
ATOM     10  F2  UNL d   1       2.727  -0.430  -0.312  0.00  0.00    -0.096 F 
ATOM     11  F3  UNL d   1       1.071   1.092  -1.821  0.00  0.00    -0.097 F 
ATOM     12  F4  UNL d   1      -1.524   1.467  -1.070  0.00  0.00    -0.092 F 
ENDROOT
TORSDOF 0
ENDMDL
