MODEL 1
REMARK minimizedAffinity -6.36314631
REMARK minimizedRMSD -1
REMARK  0 active torsions:
REMARK  status: ('A' for Active; 'I' for Inactive)
ROOT
ATOM      1  C   UNL d   1       1.478  -1.591   1.967  0.00  0.00     0.124 A 
ATOM      2  C1  UNL d   1       2.016  -1.693   0.692  0.00  0.00     0.062 A 
ATOM      3  C2  UNL d   1       1.451  -0.985  -0.365  0.00  0.00     0.162 A 
ATOM      4  C3  UNL d   1       0.342  -0.167  -0.151  0.00  0.00    -0.034 A 
ATOM      5  C4  UNL d   1      -0.194  -0.070   1.135  0.00  0.00     0.162 A 
ATOM      6  C5  UNL d   1       0.374  -0.780   2.187  0.00  0.00     0.062 A 
ATOM      7  F   UNL d   1      -0.147  -0.680   3.419  0.00  0.00    -0.097 F 
ATOM      8  F1  UNL d   1      -1.260   0.708   1.376  0.00  0.00    -0.096 F 
ATOM      9  I   UNL d   1      -0.505   0.894  -1.728  0.00  0.00    -0.060 I 
ATOM     10  F2  UNL d   1       1.992  -1.103  -1.587  0.00  0.00    -0.096 F 
ATOM     11  F3  UNL d   1       3.082  -2.477   0.476  0.00  0.00    -0.097 F 
ATOM     12  F4  UNL d   1       2.023  -2.274   2.982  0.00  0.00    -0.092 F 
ENDROOT
TORSDOF 0
ENDMDL
