MODEL 1
REMARK minimizedAffinity -2.81936955
REMARK minimizedRMSD -1
REMARK  0 active torsions:
REMARK  status: ('A' for Active; 'I' for Inactive)
ROOT
ATOM      1  C   UNL d   1      -0.230  -0.724   1.633  0.00  0.00     0.124 A 
ATOM      2  C1  UNL d   1      -1.213  -0.484   0.683  0.00  0.00     0.062 A 
ATOM      3  C2  UNL d   1      -0.909   0.223  -0.477  0.00  0.00     0.162 A 
ATOM      4  C3  UNL d   1       0.386   0.694  -0.694  0.00  0.00    -0.034 A 
ATOM      5  C4  UNL d   1       1.369   0.450   0.266  0.00  0.00     0.162 A 
ATOM      6  C5  UNL d   1       1.060  -0.257   1.423  0.00  0.00     0.062 A 
ATOM      7  F   UNL d   1       2.012  -0.487   2.339  0.00  0.00    -0.097 F 
ATOM      8  F1  UNL d   1       2.624   0.889   0.088  0.00  0.00    -0.096 F 
ATOM      9  I   UNL d   1       0.845   1.751  -2.427  0.00  0.00    -0.060 I 
ATOM     10  F2  UNL d   1      -1.879   0.440  -1.377  0.00  0.00    -0.096 F 
ATOM     11  F3  UNL d   1      -2.461  -0.933   0.884  0.00  0.00    -0.097 F 
ATOM     12  F4  UNL d   1      -0.526  -1.403   2.748  0.00  0.00    -0.092 F 
ENDROOT
TORSDOF 0
ENDMDL
