MODEL 1
REMARK minimizedAffinity -4.30380058
REMARK minimizedRMSD -1
REMARK  0 active torsions:
REMARK  status: ('A' for Active; 'I' for Inactive)
ROOT
ATOM      1  C   UNL d   1       1.259  -2.327   1.768  0.00  0.00     0.124 A 
ATOM      2  C1  UNL d   1       0.284  -1.382   2.055  0.00  0.00     0.062 A 
ATOM      3  C2  UNL d   1      -0.207  -0.555   1.049  0.00  0.00     0.162 A 
ATOM      4  C3  UNL d   1       0.276  -0.669  -0.254  0.00  0.00    -0.034 A 
ATOM      5  C4  UNL d   1       1.258  -1.621  -0.535  0.00  0.00     0.162 A 
ATOM      6  C5  UNL d   1       1.745  -2.446   0.474  0.00  0.00     0.062 A 
ATOM      7  F   UNL d   1       2.687  -3.358   0.195  0.00  0.00    -0.097 F 
ATOM      8  F1  UNL d   1       1.744  -1.758  -1.777  0.00  0.00    -0.096 F 
ATOM      9  I   UNL d   1      -0.455   0.566  -1.761  0.00  0.00    -0.060 I 
ATOM     10  F2  UNL d   1      -1.150   0.349   1.356  0.00  0.00    -0.096 F 
ATOM     11  F3  UNL d   1      -0.187  -1.265   3.305  0.00  0.00    -0.097 F 
ATOM     12  F4  UNL d   1       1.730  -3.121   2.738  0.00  0.00    -0.092 F 
ENDROOT
TORSDOF 0
ENDMDL
