MODEL 1
REMARK minimizedAffinity -3.76980758
REMARK minimizedRMSD -1
REMARK  0 active torsions:
REMARK  status: ('A' for Active; 'I' for Inactive)
ROOT
ATOM      1  C   UNL d   1       1.789  -1.724   1.736  0.00  0.00     0.124 A 
ATOM      2  C1  UNL d   1       2.161  -1.899   0.410  0.00  0.00     0.062 A 
ATOM      3  C2  UNL d   1       1.491  -1.215  -0.600  0.00  0.00     0.162 A 
ATOM      4  C3  UNL d   1       0.443  -0.348  -0.289  0.00  0.00    -0.034 A 
ATOM      5  C4  UNL d   1       0.074  -0.179   1.047  0.00  0.00     0.162 A 
ATOM      6  C5  UNL d   1       0.746  -0.865   2.053  0.00  0.00     0.062 A 
ATOM      7  F   UNL d   1       0.385  -0.695   3.333  0.00  0.00    -0.097 F 
ATOM      8  F1  UNL d   1      -0.929   0.646   1.381  0.00  0.00    -0.096 F 
ATOM      9  I   UNL d   1      -0.560   0.676  -1.797  0.00  0.00    -0.060 I 
ATOM     10  F2  UNL d   1       1.872  -1.402  -1.873  0.00  0.00    -0.096 F 
ATOM     11  F3  UNL d   1       3.167  -2.729   0.102  0.00  0.00    -0.097 F 
ATOM     12  F4  UNL d   1       2.434  -2.384   2.707  0.00  0.00    -0.092 F 
ENDROOT
TORSDOF 0
ENDMDL
