MODEL 1
REMARK minimizedAffinity -4.38708115
REMARK minimizedRMSD -1
REMARK  0 active torsions:
REMARK  status: ('A' for Active; 'I' for Inactive)
ROOT
ATOM      1  C   UNL d   1       2.276  -1.330   2.085  0.00  0.00     0.124 A 
ATOM      2  C1  UNL d   1       2.356  -1.826   0.791  0.00  0.00     0.062 A 
ATOM      3  C2  UNL d   1       1.498  -1.350  -0.196  0.00  0.00     0.162 A 
ATOM      4  C3  UNL d   1       0.552  -0.370   0.107  0.00  0.00    -0.034 A 
ATOM      5  C4  UNL d   1       0.477   0.124   1.410  0.00  0.00     0.162 A 
ATOM      6  C5  UNL d   1       1.337  -0.355   2.393  0.00  0.00     0.062 A 
ATOM      7  F   UNL d   1       1.259   0.126   3.642  0.00  0.00    -0.097 F 
ATOM      8  F1  UNL d   1      -0.420   1.067   1.736  0.00  0.00    -0.096 F 
ATOM      9  I   UNL d   1      -0.733   0.345  -1.366  0.00  0.00    -0.060 I 
ATOM     10  F2  UNL d   1       1.597  -1.848  -1.437  0.00  0.00    -0.096 F 
ATOM     11  F3  UNL d   1       3.261  -2.769   0.491  0.00  0.00    -0.097 F 
ATOM     12  F4  UNL d   1       3.102  -1.791   3.033  0.00  0.00    -0.092 F 
ENDROOT
TORSDOF 0
ENDMDL
