MODEL 1
REMARK minimizedAffinity -3.64990854
REMARK minimizedRMSD -1
REMARK  0 active torsions:
REMARK  status: ('A' for Active; 'I' for Inactive)
ROOT
ATOM      1  C   UNL d   1       2.377  -1.963   1.003  0.00  0.00     0.124 A 
ATOM      2  C1  UNL d   1       1.753  -1.449  -0.125  0.00  0.00     0.062 A 
ATOM      3  C2  UNL d   1       0.587  -0.699  -0.000  0.00  0.00     0.162 A 
ATOM      4  C3  UNL d   1       0.038  -0.457   1.259  0.00  0.00    -0.034 A 
ATOM      5  C4  UNL d   1       0.671  -0.977   2.389  0.00  0.00     0.162 A 
ATOM      6  C5  UNL d   1       1.836  -1.726   2.259  0.00  0.00     0.062 A 
ATOM      7  F   UNL d   1       2.438  -2.222   3.350  0.00  0.00    -0.097 F 
ATOM      8  F1  UNL d   1       0.170  -0.763   3.615  0.00  0.00    -0.096 F 
ATOM      9  I   UNL d   1      -1.705   0.664   1.451  0.00  0.00    -0.060 I 
ATOM     10  F2  UNL d   1       0.005  -0.215  -1.108  0.00  0.00    -0.096 F 
ATOM     11  F3  UNL d   1       2.273  -1.677  -1.340  0.00  0.00    -0.097 F 
ATOM     12  F4  UNL d   1       3.498  -2.685   0.880  0.00  0.00    -0.092 F 
ENDROOT
TORSDOF 0
ENDMDL
