MODEL 1
REMARK minimizedAffinity 2.61612725
REMARK minimizedRMSD -1
REMARK  1 active torsions:
REMARK  status: ('A' for Active; 'I' for Inactive)
REMARK    1  A    between atoms: N_2  and  C1_3 
ROOT
ATOM      1  C1  UNL d   1      -2.324   1.635   0.019  0.00  0.00     0.143 A 
ATOM      2  C2  UNL d   1      -1.046   2.181  -0.141  0.00  0.00    -0.057 A 
ATOM      3  C3  UNL d   1       0.082   1.564   0.414  0.00  0.00     0.033 A 
ATOM      4  C4  UNL d   1      -0.053   0.401   1.165  0.00  0.00    -0.042 A 
ATOM      5  C5  UNL d   1      -1.317  -0.145   1.358  0.00  0.00     0.033 A 
ATOM      6  C6  UNL d   1      -2.438   0.472   0.796  0.00  0.00    -0.057 A 
ENDROOT
BRANCH   1   7
ATOM      7  N   UNL d   1      -3.495   2.254  -0.425  0.00  0.00    -0.732 N 
ATOM      8  C   UNL d   1      -4.780   1.886   0.131  0.00  0.00     0.284 C 
ATOM      9  H3  UNL d   1      -3.376   3.255  -0.567  0.00  0.00     0.395 HD
ENDBRANCH   1   7
TORSDOF 1
ENDMDL
