MODEL 1
REMARK minimizedAffinity 0.678928256
REMARK minimizedRMSD -1
REMARK  1 active torsions:
REMARK  status: ('A' for Active; 'I' for Inactive)
REMARK    1  A    between atoms: N_2  and  C1_3 
ROOT
ATOM      1  C1  UNL d   1      -0.654  -5.582  -2.638  0.00  0.00     0.143 A 
ATOM      2  C2  UNL d   1      -1.941  -6.000  -2.995  0.00  0.00    -0.057 A 
ATOM      3  C3  UNL d   1      -3.055  -5.666  -2.216  0.00  0.00     0.033 A 
ATOM      4  C4  UNL d   1      -2.898  -4.931  -1.046  0.00  0.00    -0.042 A 
ATOM      5  C5  UNL d   1      -1.626  -4.525  -0.658  0.00  0.00     0.033 A 
ATOM      6  C6  UNL d   1      -0.518  -4.856  -1.444  0.00  0.00    -0.057 A 
ENDROOT
BRANCH   1   7
ATOM      7  N   UNL d   1       0.505  -5.964  -3.318  0.00  0.00    -0.732 N 
ATOM      8  C   UNL d   1       1.787  -5.966  -2.646  0.00  0.00     0.284 C 
ATOM      9  H3  UNL d   1       0.352  -6.767  -3.924  0.00  0.00     0.395 HD
ENDBRANCH   1   7
TORSDOF 1
ENDMDL
