MODEL 1
REMARK minimizedAffinity 8.54273605
REMARK minimizedRMSD -1
REMARK  1 active torsions:
REMARK  status: ('A' for Active; 'I' for Inactive)
REMARK    1  A    between atoms: N_2  and  C1_3 
ROOT
ATOM      1  C1  UNL d   1       3.449   1.517   0.055  0.00  0.00     0.143 A 
ATOM      2  C2  UNL d   1       3.881   2.528   0.919  0.00  0.00    -0.057 A 
ATOM      3  C3  UNL d   1       3.142   2.877   2.056  0.00  0.00     0.033 A 
ATOM      4  C4  UNL d   1       1.939   2.237   2.334  0.00  0.00    -0.042 A 
ATOM      5  C5  UNL d   1       1.477   1.246   1.475  0.00  0.00     0.033 A 
ATOM      6  C6  UNL d   1       2.223   0.898   0.345  0.00  0.00    -0.057 A 
ENDROOT
BRANCH   1   7
ATOM      7  N   UNL d   1       4.088   1.192  -1.144  0.00  0.00    -0.732 N 
ATOM      8  C   UNL d   1       3.334   0.670  -2.264  0.00  0.00     0.284 C 
ATOM      9  H3  UNL d   1       4.798   1.873  -1.403  0.00  0.00     0.395 HD
ENDBRANCH   1   7
TORSDOF 1
ENDMDL
