MODEL 1
REMARK minimizedAffinity 2.29583502
REMARK minimizedRMSD -1
REMARK  1 active torsions:
REMARK  status: ('A' for Active; 'I' for Inactive)
REMARK    1  A    between atoms: N_2  and  C1_3 
ROOT
ATOM      1  C1  UNL d   1       1.458   1.622   1.039  0.00  0.00     0.143 A 
ATOM      2  C2  UNL d   1       0.980   1.264  -0.227  0.00  0.00    -0.057 A 
ATOM      3  C3  UNL d   1      -0.386   1.319  -0.529  0.00  0.00     0.033 A 
ATOM      4  C4  UNL d   1      -1.304   1.707   0.441  0.00  0.00    -0.042 A 
ATOM      5  C5  UNL d   1      -0.854   2.044   1.713  0.00  0.00     0.033 A 
ATOM      6  C6  UNL d   1       0.512   1.993   2.007  0.00  0.00    -0.057 A 
ENDROOT
BRANCH   1   7
ATOM      7  N   UNL d   1       2.793   1.494   1.431  0.00  0.00    -0.732 N 
ATOM      8  C   UNL d   1       3.569   2.659   1.795  0.00  0.00     0.284 C 
ATOM      9  H3  UNL d   1       2.945   0.688   2.034  0.00  0.00     0.395 HD
ENDBRANCH   1   7
TORSDOF 1
ENDMDL
