MODEL 1
REMARK minimizedAffinity -1.87935472
REMARK minimizedRMSD -1
REMARK  1 active torsions:
REMARK  status: ('A' for Active; 'I' for Inactive)
REMARK    1  A    between atoms: N_2  and  C1_3 
ROOT
ATOM      1  C1  UNL d   1       1.689   2.849   2.320  0.00  0.00     0.143 A 
ATOM      2  C2  UNL d   1       0.302   3.022   2.255  0.00  0.00    -0.057 A 
ATOM      3  C3  UNL d   1      -0.504   2.155   1.507  0.00  0.00     0.033 A 
ATOM      4  C4  UNL d   1       0.068   1.113   0.785  0.00  0.00    -0.042 A 
ATOM      5  C5  UNL d   1       1.447   0.937   0.814  0.00  0.00     0.033 A 
ATOM      6  C6  UNL d   1       2.246   1.802   1.568  0.00  0.00    -0.057 A 
ENDROOT
BRANCH   1   7
ATOM      7  N   UNL d   1       2.554   3.735   2.966  0.00  0.00    -0.732 N 
ATOM      8  C   UNL d   1       2.949   4.974   2.331  0.00  0.00     0.284 C 
ATOM      9  H3  UNL d   1       2.350   3.823   3.959  0.00  0.00     0.395 HD
ENDBRANCH   1   7
TORSDOF 1
ENDMDL
