MODEL 1
REMARK minimizedAffinity 2.22933865
REMARK minimizedRMSD -1
REMARK  1 active torsions:
REMARK  status: ('A' for Active; 'I' for Inactive)
REMARK    1  A    between atoms: N_2  and  C1_3 
ROOT
ATOM      1  C1  UNL d   1       4.007   5.908   3.163  0.00  0.00     0.143 A 
ATOM      2  C2  UNL d   1       3.012   5.991   2.183  0.00  0.00    -0.057 A 
ATOM      3  C3  UNL d   1       3.335   5.999   0.821  0.00  0.00     0.033 A 
ATOM      4  C4  UNL d   1       4.664   5.954   0.414  0.00  0.00    -0.042 A 
ATOM      5  C5  UNL d   1       5.671   5.896   1.371  0.00  0.00     0.033 A 
ATOM      6  C6  UNL d   1       5.342   5.881   2.730  0.00  0.00    -0.057 A 
ENDROOT
BRANCH   1   7
ATOM      7  N   UNL d   1       3.757   5.995   4.535  0.00  0.00    -0.732 N 
ATOM      8  C   UNL d   1       4.848   5.996   5.485  0.00  0.00     0.284 C 
ATOM      9  H3  UNL d   1       3.015   6.656   4.753  0.00  0.00     0.395 HD
ENDBRANCH   1   7
TORSDOF 1
ENDMDL
