MODEL 1
REMARK minimizedAffinity 2.95770335
REMARK minimizedRMSD -1
REMARK  1 active torsions:
REMARK  status: ('A' for Active; 'I' for Inactive)
REMARK    1  A    between atoms: N_2  and  C1_3 
ROOT
ATOM      1  C1  UNL d   1       1.310   1.166   0.752  0.00  0.00     0.143 A 
ATOM      2  C2  UNL d   1       2.129   1.899   1.618  0.00  0.00    -0.057 A 
ATOM      3  C3  UNL d   1       1.585   2.696   2.632  0.00  0.00     0.033 A 
ATOM      4  C4  UNL d   1       0.206   2.798   2.779  0.00  0.00    -0.042 A 
ATOM      5  C5  UNL d   1      -0.628   2.098   1.915  0.00  0.00     0.033 A 
ATOM      6  C6  UNL d   1      -0.078   1.299   0.908  0.00  0.00    -0.057 A 
ENDROOT
BRANCH   1   7
ATOM      7  N   UNL d   1       1.788   0.434  -0.338  0.00  0.00    -0.732 N 
ATOM      8  C   UNL d   1       2.083   1.089  -1.594  0.00  0.00     0.284 C 
ATOM      9  H3  UNL d   1       2.473  -0.268  -0.064  0.00  0.00     0.395 HD
ENDBRANCH   1   7
TORSDOF 1
ENDMDL
