MODEL 1
REMARK minimizedAffinity 0.323750079
REMARK minimizedRMSD -1
REMARK  1 active torsions:
REMARK  status: ('A' for Active; 'I' for Inactive)
REMARK    1  A    between atoms: N_2  and  C1_3 
ROOT
ATOM      1  C1  UNL d   1      -4.110   1.507  -3.411  0.00  0.00     0.143 A 
ATOM      2  C2  UNL d   1      -3.615   0.617  -2.452  0.00  0.00    -0.057 A 
ATOM      3  C3  UNL d   1      -4.095   0.626  -1.137  0.00  0.00     0.033 A 
ATOM      4  C4  UNL d   1      -5.061   1.548  -0.749  0.00  0.00    -0.042 A 
ATOM      5  C5  UNL d   1      -5.550   2.459  -1.679  0.00  0.00     0.033 A 
ATOM      6  C6  UNL d   1      -5.071   2.440  -2.992  0.00  0.00    -0.057 A 
ENDROOT
BRANCH   1   7
ATOM      7  N   UNL d   1      -3.604   1.613  -4.709  0.00  0.00    -0.732 N 
ATOM      8  C   UNL d   1      -3.351   2.911  -5.297  0.00  0.00     0.284 C 
ATOM      9  H3  UNL d   1      -2.883   0.921  -4.902  0.00  0.00     0.395 HD
ENDBRANCH   1   7
TORSDOF 1
ENDMDL
