MODEL 1
REMARK minimizedAffinity -0.724710226
REMARK minimizedRMSD -1
REMARK  1 active torsions:
REMARK  status: ('A' for Active; 'I' for Inactive)
REMARK    1  A    between atoms: N_2  and  C1_3 
ROOT
ATOM      1  C1  UNL d   1       1.391   2.254   1.773  0.00  0.00     0.143 A 
ATOM      2  C2  UNL d   1       0.401   2.573   2.709  0.00  0.00    -0.057 A 
ATOM      3  C3  UNL d   1      -0.935   2.207   2.506  0.00  0.00     0.033 A 
ATOM      4  C4  UNL d   1      -1.311   1.539   1.345  0.00  0.00    -0.042 A 
ATOM      5  C5  UNL d   1      -0.348   1.234   0.389  0.00  0.00     0.033 A 
ATOM      6  C6  UNL d   1       0.986   1.597   0.601  0.00  0.00    -0.057 A 
ENDROOT
BRANCH   1   7
ATOM      7  N   UNL d   1       2.719   2.677   1.872  0.00  0.00    -0.732 N 
ATOM      8  C   UNL d   1       3.042   4.086   1.922  0.00  0.00     0.284 C 
ATOM      9  H3  UNL d   1       3.263   2.102   2.511  0.00  0.00     0.395 HD
ENDBRANCH   1   7
TORSDOF 1
ENDMDL
