MODEL 1
REMARK minimizedAffinity 3.88905692
REMARK minimizedRMSD -1
REMARK  1 active torsions:
REMARK  status: ('A' for Active; 'I' for Inactive)
REMARK    1  A    between atoms: N_2  and  C1_3 
ROOT
ATOM      1  C1  UNL d   1       0.833   1.949   1.218  0.00  0.00     0.143 A 
ATOM      2  C2  UNL d   1      -0.433   1.910   1.812  0.00  0.00    -0.057 A 
ATOM      3  C3  UNL d   1      -0.679   2.544   3.036  0.00  0.00     0.033 A 
ATOM      4  C4  UNL d   1       0.347   3.205   3.704  0.00  0.00    -0.042 A 
ATOM      5  C5  UNL d   1       1.619   3.234   3.143  0.00  0.00     0.033 A 
ATOM      6  C6  UNL d   1       1.857   2.605   1.917  0.00  0.00    -0.057 A 
ENDROOT
BRANCH   1   7
ATOM      7  N   UNL d   1       1.165   1.255   0.051  0.00  0.00    -0.732 N 
ATOM      8  C   UNL d   1       2.339   0.410   0.006  0.00  0.00     0.284 C 
ATOM      9  H3  UNL d   1       0.350   0.860  -0.412  0.00  0.00     0.395 HD
ENDBRANCH   1   7
TORSDOF 1
ENDMDL
