MODEL 1
REMARK minimizedAffinity 3.88899851
REMARK minimizedRMSD -1
REMARK  1 active torsions:
REMARK  status: ('A' for Active; 'I' for Inactive)
REMARK    1  A    between atoms: N_2  and  C1_3 
ROOT
ATOM      1  C1  UNL d   1       1.374   1.393   1.071  0.00  0.00     0.143 A 
ATOM      2  C2  UNL d   1      -0.017   1.504   1.175  0.00  0.00    -0.057 A 
ATOM      3  C3  UNL d   1      -0.609   2.407   2.067  0.00  0.00     0.033 A 
ATOM      4  C4  UNL d   1       0.183   3.195   2.895  0.00  0.00    -0.042 A 
ATOM      5  C5  UNL d   1       1.567   3.083   2.827  0.00  0.00     0.033 A 
ATOM      6  C6  UNL d   1       2.152   2.185   1.930  0.00  0.00    -0.057 A 
ENDROOT
BRANCH   1   7
ATOM      7  N   UNL d   1       2.021   0.445   0.274  0.00  0.00    -0.732 N 
ATOM      8  C   UNL d   1       2.222   0.684  -1.139  0.00  0.00     0.284 C 
ATOM      9  H3  UNL d   1       2.821   0.025   0.743  0.00  0.00     0.395 HD
ENDBRANCH   1   7
TORSDOF 1
ENDMDL
