MODEL 1
REMARK minimizedAffinity 1.33571398
REMARK minimizedRMSD -1
REMARK  1 active torsions:
REMARK  status: ('A' for Active; 'I' for Inactive)
REMARK    1  A    between atoms: N_2  and  C1_3 
ROOT
ATOM      1  C1  UNL d   1       0.519   1.951   1.274  0.00  0.00     0.143 A 
ATOM      2  C2  UNL d   1      -0.676   2.287   1.919  0.00  0.00    -0.057 A 
ATOM      3  C3  UNL d   1      -0.685   3.130   3.037  0.00  0.00     0.033 A 
ATOM      4  C4  UNL d   1       0.508   3.631   3.548  0.00  0.00    -0.042 A 
ATOM      5  C5  UNL d   1       1.710   3.290   2.937  0.00  0.00     0.033 A 
ATOM      6  C6  UNL d   1       1.712   2.453   1.818  0.00  0.00    -0.057 A 
ENDROOT
BRANCH   1   7
ATOM      7  N   UNL d   1       0.603   1.039   0.219  0.00  0.00    -0.732 N 
ATOM      8  C   UNL d   1       1.825   0.301  -0.022  0.00  0.00     0.284 C 
ATOM      9  H3  UNL d   1      -0.244   0.485   0.115  0.00  0.00     0.395 HD
ENDBRANCH   1   7
TORSDOF 1
ENDMDL
