MODEL 1
REMARK minimizedAffinity -4.64667511
REMARK minimizedRMSD -1
REMARK  0 active torsions:
REMARK  status: ('A' for Active; 'I' for Inactive)
ROOT
ATOM      1  C   UNL d   1      -1.007  -3.144  -0.381  0.00  0.00     0.020 A 
ATOM      2  C1  UNL d   1      -0.281  -2.538  -1.406  0.00  0.00     0.020 A 
ATOM      3  C2  UNL d   1       0.021  -1.176  -1.337  0.00  0.00     0.034 A 
ATOM      4  C3  UNL d   1      -0.402  -0.417  -0.240  0.00  0.00     0.017 A 
ATOM      5  C4  UNL d   1      -1.130  -1.026   0.788  0.00  0.00     0.017 A 
ATOM      6  C5  UNL d   1      -1.430  -2.390   0.713  0.00  0.00     0.034 A 
ATOM      7 Cl   UNL d   1      -1.686  -0.154   2.173  0.00  0.00    -0.070 Cl
ATOM      8 Cl1  UNL d   1       0.008   1.262  -0.219  0.00  0.00    -0.070 Cl
ENDROOT
TORSDOF 0
ENDMDL
