MODEL 1
REMARK minimizedAffinity -5.18273878
REMARK minimizedRMSD -1
REMARK  0 active torsions:
REMARK  status: ('A' for Active; 'I' for Inactive)
ROOT
ATOM      1  C   UNL d   1      -0.614  -2.842   0.647  0.00  0.00     0.020 A 
ATOM      2  C1  UNL d   1       0.579  -2.405   0.072  0.00  0.00     0.020 A 
ATOM      3  C2  UNL d   1       0.822  -1.038  -0.079  0.00  0.00     0.034 A 
ATOM      4  C3  UNL d   1      -0.129  -0.103   0.346  0.00  0.00     0.017 A 
ATOM      5  C4  UNL d   1      -1.326  -0.542   0.922  0.00  0.00     0.017 A 
ATOM      6  C5  UNL d   1      -1.564  -1.912   1.071  0.00  0.00     0.034 A 
ATOM      7 Cl   UNL d   1      -2.547   0.551   1.470  0.00  0.00    -0.070 Cl
ATOM      8 Cl1  UNL d   1       0.238   1.572   0.129  0.00  0.00    -0.070 Cl
ENDROOT
TORSDOF 0
ENDMDL
