MODEL 1
REMARK minimizedAffinity -1.71755922
REMARK minimizedRMSD -1
REMARK  0 active torsions:
REMARK  status: ('A' for Active; 'I' for Inactive)
ROOT
ATOM      1  C   UNL d   1      -0.687  -2.367   0.978  0.00  0.00     0.020 A 
ATOM      2  C1  UNL d   1      -0.753  -1.026   1.353  0.00  0.00     0.020 A 
ATOM      3  C2  UNL d   1      -0.579  -0.024   0.396  0.00  0.00     0.034 A 
ATOM      4  C3  UNL d   1      -0.338  -0.361  -0.940  0.00  0.00     0.017 A 
ATOM      5  C4  UNL d   1      -0.272  -1.708  -1.316  0.00  0.00     0.017 A 
ATOM      6  C5  UNL d   1      -0.447  -2.707  -0.354  0.00  0.00     0.034 A 
ATOM      7 Cl   UNL d   1       0.021  -2.202  -2.946  0.00  0.00    -0.070 Cl
ATOM      8 Cl1  UNL d   1      -0.133   0.929  -2.071  0.00  0.00    -0.070 Cl
ENDROOT
TORSDOF 0
ENDMDL
