MODEL 1
REMARK minimizedAffinity -3.53138971
REMARK minimizedRMSD -1
REMARK  0 active torsions:
REMARK  status: ('A' for Active; 'I' for Inactive)
ROOT
ATOM      1  C   UNL d   1      -0.044  -0.564   0.157  0.00  0.00     0.020 A 
ATOM      2  C1  UNL d   1      -1.284  -0.038   0.516  0.00  0.00     0.020 A 
ATOM      3  C2  UNL d   1      -1.419   1.332   0.753  0.00  0.00     0.034 A 
ATOM      4  C3  UNL d   1      -0.313   2.180   0.632  0.00  0.00     0.017 A 
ATOM      5  C4  UNL d   1       0.932   1.651   0.271  0.00  0.00     0.017 A 
ATOM      6  C5  UNL d   1       1.062   0.279   0.034  0.00  0.00     0.034 A 
ATOM      7 Cl   UNL d   1       2.343   2.635   0.101  0.00  0.00    -0.070 Cl
ATOM      8 Cl1  UNL d   1      -0.553   3.863   0.939  0.00  0.00    -0.070 Cl
ENDROOT
TORSDOF 0
ENDMDL
