MODEL 1
REMARK minimizedAffinity -5.12272644
REMARK minimizedRMSD -1
REMARK  0 active torsions:
REMARK  status: ('A' for Active; 'I' for Inactive)
ROOT
ATOM      1  C   UNL d   1       0.843  -2.664  -0.048  0.00  0.00     0.020 A 
ATOM      2  C1  UNL d   1      -0.337  -3.260   0.396  0.00  0.00     0.020 A 
ATOM      3  C2  UNL d   1      -1.411  -2.464   0.801  0.00  0.00     0.034 A 
ATOM      4  C3  UNL d   1      -1.307  -1.069   0.763  0.00  0.00     0.017 A 
ATOM      5  C4  UNL d   1      -0.122  -0.472   0.317  0.00  0.00     0.017 A 
ATOM      6  C5  UNL d   1       0.950  -1.274  -0.087  0.00  0.00     0.034 A 
ATOM      7 Cl   UNL d   1       0.081   1.242   0.242  0.00  0.00    -0.070 Cl
ATOM      8 Cl1  UNL d   1      -2.674  -0.147   1.278  0.00  0.00    -0.070 Cl
ENDROOT
TORSDOF 0
ENDMDL
