MODEL 1
REMARK minimizedAffinity -2.97813082
REMARK minimizedRMSD -1
REMARK  0 active torsions:
REMARK  status: ('A' for Active; 'I' for Inactive)
ROOT
ATOM      1  C   UNL d   1       1.889   3.674   0.422  0.00  0.00     0.020 A 
ATOM      2  C1  UNL d   1       1.833   2.812   1.517  0.00  0.00     0.020 A 
ATOM      3  C2  UNL d   1       1.071   1.644   1.448  0.00  0.00     0.034 A 
ATOM      4  C3  UNL d   1       0.362   1.334   0.282  0.00  0.00     0.017 A 
ATOM      5  C4  UNL d   1       0.419   2.199  -0.817  0.00  0.00     0.017 A 
ATOM      6  C5  UNL d   1       1.184   3.368  -0.743  0.00  0.00     0.034 A 
ATOM      7 Cl   UNL d   1      -0.429   1.884  -2.290  0.00  0.00    -0.070 Cl
ATOM      8 Cl1  UNL d   1      -0.559  -0.128   0.266  0.00  0.00    -0.070 Cl
ENDROOT
TORSDOF 0
ENDMDL
