MODEL 1
REMARK minimizedAffinity -4.54581976
REMARK minimizedRMSD -1
REMARK  0 active torsions:
REMARK  status: ('A' for Active; 'I' for Inactive)
ROOT
ATOM      1  C   UNL d   1       0.731  -3.053   0.219  0.00  0.00     0.020 A 
ATOM      2  C1  UNL d   1       1.391  -2.273  -0.730  0.00  0.00     0.020 A 
ATOM      3  C2  UNL d   1       1.000  -0.948  -0.939  0.00  0.00     0.034 A 
ATOM      4  C3  UNL d   1      -0.053  -0.400  -0.197  0.00  0.00     0.017 A 
ATOM      5  C4  UNL d   1      -0.714  -1.184   0.755  0.00  0.00     0.017 A 
ATOM      6  C5  UNL d   1      -0.319  -2.509   0.960  0.00  0.00     0.034 A 
ATOM      7 Cl   UNL d   1      -2.022  -0.577   1.708  0.00  0.00    -0.070 Cl
ATOM      8 Cl1  UNL d   1      -0.482   1.245  -0.507  0.00  0.00    -0.070 Cl
ENDROOT
TORSDOF 0
ENDMDL
