MODEL 1
REMARK minimizedAffinity -4.92040586
REMARK minimizedRMSD -1
REMARK  0 active torsions:
REMARK  status: ('A' for Active; 'I' for Inactive)
ROOT
ATOM      1  C   UNL d   1      -0.930   0.994   0.215  0.00  0.00     0.020 A 
ATOM      2  C1  UNL d   1      -1.257   0.167   1.289  0.00  0.00     0.020 A 
ATOM      3  C2  UNL d   1      -0.850  -1.168   1.292  0.00  0.00     0.034 A 
ATOM      4  C3  UNL d   1      -0.114  -1.682   0.218  0.00  0.00     0.017 A 
ATOM      5  C4  UNL d   1       0.214  -0.852  -0.860  0.00  0.00     0.017 A 
ATOM      6  C5  UNL d   1      -0.196   0.485  -0.858  0.00  0.00     0.034 A 
ATOM      7 Cl   UNL d   1       1.120  -1.414  -2.221  0.00  0.00    -0.070 Cl
ATOM      8 Cl1  UNL d   1       0.356  -3.343   0.288  0.00  0.00    -0.070 Cl
ENDROOT
TORSDOF 0
ENDMDL
