MODEL 1
REMARK minimizedAffinity -5.25013065
REMARK minimizedRMSD -1
REMARK  0 active torsions:
REMARK  status: ('A' for Active; 'I' for Inactive)
ROOT
ATOM      1  C   UNL d   1       0.012  -3.158  -0.016  0.00  0.00     0.020 A 
ATOM      2  C1  UNL d   1       0.746  -2.421  -0.944  0.00  0.00     0.020 A 
ATOM      3  C2  UNL d   1       0.795  -1.029  -0.849  0.00  0.00     0.034 A 
ATOM      4  C3  UNL d   1       0.108  -0.369   0.176  0.00  0.00     0.017 A 
ATOM      5  C4  UNL d   1      -0.628  -1.110   1.108  0.00  0.00     0.017 A 
ATOM      6  C5  UNL d   1      -0.673  -2.504   1.008  0.00  0.00     0.034 A 
ATOM      7 Cl   UNL d   1      -1.502  -0.367   2.401  0.00  0.00    -0.070 Cl
ATOM      8 Cl1  UNL d   1       0.212   1.354   0.234  0.00  0.00    -0.070 Cl
ENDROOT
TORSDOF 0
ENDMDL
