MODEL 1
REMARK minimizedAffinity 0.459420592
REMARK minimizedRMSD -1
REMARK  0 active torsions:
REMARK  status: ('A' for Active; 'I' for Inactive)
ROOT
ATOM      1  C   UNL d   1       0.286  -0.124  -0.825  0.00  0.00     0.020 A 
ATOM      2  C1  UNL d   1      -0.507   0.773  -0.112  0.00  0.00     0.020 A 
ATOM      3  C2  UNL d   1      -1.240   0.333   0.992  0.00  0.00     0.034 A 
ATOM      4  C3  UNL d   1      -1.181  -1.009   1.386  0.00  0.00     0.017 A 
ATOM      5  C4  UNL d   1      -0.384  -1.909   0.670  0.00  0.00     0.017 A 
ATOM      6  C5  UNL d   1       0.348  -1.463  -0.434  0.00  0.00     0.034 A 
ATOM      7 Cl   UNL d   1      -0.261  -3.579   1.096  0.00  0.00    -0.070 Cl
ATOM      8 Cl1  UNL d   1      -2.114  -1.484   2.761  0.00  0.00    -0.070 Cl
ENDROOT
TORSDOF 0
ENDMDL
