MODEL 1
REMARK minimizedAffinity 1.04873657
REMARK minimizedRMSD -1
REMARK  0 active torsions:
REMARK  status: ('A' for Active; 'I' for Inactive)
ROOT
ATOM      1  C   UNL d   1       0.254  -0.914  -1.758  0.00  0.00     0.020 A 
ATOM      2  C1  UNL d   1      -0.069   0.301  -2.361  0.00  0.00     0.020 A 
ATOM      3  C2  UNL d   1       0.158   1.500  -1.681  0.00  0.00     0.034 A 
ATOM      4  C3  UNL d   1       0.711   1.486  -0.395  0.00  0.00     0.017 A 
ATOM      5  C4  UNL d   1       1.035   0.266   0.208  0.00  0.00     0.017 A 
ATOM      6  C5  UNL d   1       0.805  -0.931  -0.476  0.00  0.00     0.034 A 
ATOM      7 Cl   UNL d   1       1.720   0.169   1.792  0.00  0.00    -0.070 Cl
ATOM      8 Cl1  UNL d   1       0.965   3.006   0.386  0.00  0.00    -0.070 Cl
ENDROOT
TORSDOF 0
ENDMDL
