MODEL 1
REMARK minimizedAffinity -3.76327682
REMARK minimizedRMSD -1
REMARK  0 active torsions:
REMARK  status: ('A' for Active; 'I' for Inactive)
ROOT
ATOM      1  C   UNL d   1       2.299   2.803  -0.398  0.00  0.00     0.020 A 
ATOM      2  C1  UNL d   1       2.291   3.994   0.327  0.00  0.00     0.020 A 
ATOM      3  C2  UNL d   1       1.238   4.274   1.200  0.00  0.00     0.034 A 
ATOM      4  C3  UNL d   1       0.188   3.361   1.352  0.00  0.00     0.017 A 
ATOM      5  C4  UNL d   1       0.197   2.165   0.624  0.00  0.00     0.017 A 
ATOM      6  C5  UNL d   1       1.254   1.890  -0.249  0.00  0.00     0.034 A 
ATOM      7 Cl   UNL d   1      -1.063   0.989   0.758  0.00  0.00    -0.070 Cl
ATOM      8 Cl1  UNL d   1      -1.081   3.771   2.450  0.00  0.00    -0.070 Cl
ENDROOT
TORSDOF 0
ENDMDL
