MODEL 1
REMARK minimizedAffinity -6.15199947
REMARK minimizedRMSD -1
REMARK  0 active torsions:
REMARK  status: ('A' for Active; 'I' for Inactive)
ROOT
ATOM      1  C   UNL d   1      -0.284  -3.746   0.023  0.00  0.00     0.020 A 
ATOM      2  C1  UNL d   1      -0.506  -2.884   1.096  0.00  0.00     0.020 A 
ATOM      3  C2  UNL d   1      -0.509  -1.502   0.892  0.00  0.00     0.034 A 
ATOM      4  C3  UNL d   1      -0.289  -0.979  -0.387  0.00  0.00     0.017 A 
ATOM      5  C4  UNL d   1      -0.067  -1.846  -1.463  0.00  0.00     0.017 A 
ATOM      6  C5  UNL d   1      -0.065  -3.228  -1.254  0.00  0.00     0.034 A 
ATOM      7 Cl   UNL d   1       0.211  -1.275  -3.071  0.00  0.00    -0.070 Cl
ATOM      8 Cl1  UNL d   1      -0.307   0.739  -0.566  0.00  0.00    -0.070 Cl
ENDROOT
TORSDOF 0
ENDMDL
