MODEL 1
REMARK minimizedAffinity -3.40179515
REMARK minimizedRMSD -1
REMARK  0 active torsions:
REMARK  status: ('A' for Active; 'I' for Inactive)
ROOT
ATOM      1  C   UNL d   1      -0.362  -3.143   0.629  0.00  0.00     0.020 A 
ATOM      2  C1  UNL d   1       0.780  -2.764  -0.075  0.00  0.00     0.020 A 
ATOM      3  C2  UNL d   1       1.129  -1.415  -0.165  0.00  0.00     0.034 A 
ATOM      4  C3  UNL d   1       0.335  -0.440   0.450  0.00  0.00     0.017 A 
ATOM      5  C4  UNL d   1      -0.811  -0.822   1.157  0.00  0.00     0.017 A 
ATOM      6  C5  UNL d   1      -1.156  -2.174   1.244  0.00  0.00     0.034 A 
ATOM      7 Cl   UNL d   1      -1.839   0.324   1.943  0.00  0.00    -0.070 Cl
ATOM      8 Cl1  UNL d   1       0.827   1.209   0.299  0.00  0.00    -0.070 Cl
ENDROOT
TORSDOF 0
ENDMDL
