MODEL 1
REMARK minimizedAffinity -0.182028472
REMARK minimizedRMSD -1
REMARK  0 active torsions:
REMARK  status: ('A' for Active; 'I' for Inactive)
ROOT
ATOM      1  C   UNL d   1       1.193   3.505   2.642  0.00  0.00     0.020 A 
ATOM      2  C1  UNL d   1      -0.070   3.047   2.269  0.00  0.00     0.020 A 
ATOM      3  C2  UNL d   1      -0.311   2.662   0.949  0.00  0.00     0.034 A 
ATOM      4  C3  UNL d   1       0.712   2.734  -0.003  0.00  0.00     0.017 A 
ATOM      5  C4  UNL d   1       1.979   3.194   0.372  0.00  0.00     0.017 A 
ATOM      6  C5  UNL d   1       2.215   3.579   1.695  0.00  0.00     0.034 A 
ATOM      7 Cl   UNL d   1       3.292   3.311  -0.747  0.00  0.00    -0.070 Cl
ATOM      8 Cl1  UNL d   1       0.343   2.241  -1.618  0.00  0.00    -0.070 Cl
ENDROOT
TORSDOF 0
ENDMDL
