MODEL 1
REMARK minimizedAffinity -5.20049572
REMARK minimizedRMSD -1
REMARK  0 active torsions:
REMARK  status: ('A' for Active; 'I' for Inactive)
ROOT
ATOM      1  C   UNL d   1      -0.219   0.640  -0.686  0.00  0.00     0.020 A 
ATOM      2  C1  UNL d   1      -0.538   0.037   0.529  0.00  0.00     0.020 A 
ATOM      3  C2  UNL d   1      -0.438  -1.349   0.668  0.00  0.00     0.034 A 
ATOM      4  C3  UNL d   1      -0.018  -2.136  -0.411  0.00  0.00     0.017 A 
ATOM      5  C4  UNL d   1       0.302  -1.529  -1.631  0.00  0.00     0.017 A 
ATOM      6  C5  UNL d   1       0.200  -0.141  -1.764  0.00  0.00     0.034 A 
ATOM      7 Cl   UNL d   1       0.826  -2.434  -3.006  0.00  0.00    -0.070 Cl
ATOM      8 Cl1  UNL d   1       0.083  -3.844  -0.168  0.00  0.00    -0.070 Cl
ENDROOT
TORSDOF 0
ENDMDL
