MODEL 1
REMARK minimizedAffinity -2.45331383
REMARK minimizedRMSD -1
REMARK  0 active torsions:
REMARK  status: ('A' for Active; 'I' for Inactive)
ROOT
ATOM      1  C   UNL d   1      -0.928   0.877   0.485  0.00  0.00     0.020 A 
ATOM      2  C1  UNL d   1      -0.549   1.382  -0.758  0.00  0.00     0.020 A 
ATOM      3  C2  UNL d   1       0.024   0.535  -1.710  0.00  0.00     0.034 A 
ATOM      4  C3  UNL d   1       0.219  -0.820  -1.420  0.00  0.00     0.017 A 
ATOM      5  C4  UNL d   1      -0.162  -1.326  -0.171  0.00  0.00     0.017 A 
ATOM      6  C5  UNL d   1      -0.735  -0.474   0.778  0.00  0.00     0.034 A 
ATOM      7 Cl   UNL d   1       0.048  -2.986   0.259  0.00  0.00    -0.070 Cl
ATOM      8 Cl1  UNL d   1       0.933  -1.809  -2.644  0.00  0.00    -0.070 Cl
ENDROOT
TORSDOF 0
ENDMDL
