MODEL 1
REMARK minimizedAffinity -4.7119298
REMARK minimizedRMSD -1
REMARK  0 active torsions:
REMARK  status: ('A' for Active; 'I' for Inactive)
ROOT
ATOM      1  C   UNL d   1      -0.901   0.358   0.343  0.00  0.00     0.020 A 
ATOM      2  C1  UNL d   1      -0.398   0.711  -0.909  0.00  0.00     0.020 A 
ATOM      3  C2  UNL d   1      -0.012  -0.282  -1.812  0.00  0.00     0.034 A 
ATOM      4  C3  UNL d   1      -0.129  -1.633  -1.465  0.00  0.00     0.017 A 
ATOM      5  C4  UNL d   1      -0.634  -1.986  -0.209  0.00  0.00     0.017 A 
ATOM      6  C5  UNL d   1      -1.019  -0.988   0.692  0.00  0.00     0.034 A 
ATOM      7 Cl   UNL d   1      -0.808  -3.632   0.290  0.00  0.00    -0.070 Cl
ATOM      8 Cl1  UNL d   1       0.367  -2.807  -2.631  0.00  0.00    -0.070 Cl
ENDROOT
TORSDOF 0
ENDMDL
