MODEL 1
REMARK minimizedAffinity -3.62473345
REMARK minimizedRMSD -1
REMARK  0 active torsions:
REMARK  status: ('A' for Active; 'I' for Inactive)
ROOT
ATOM      1  O1  BZF d   1       1.601   0.657  -0.148  0.00  0.00    -0.204 OA
ATOM      2  C2  BZF d   1       0.636   1.597  -0.456  0.00  0.00     0.174 A 
ATOM      3  C3  BZF d   1      -0.421   1.017  -1.060  0.00  0.00    -0.012 A 
ATOM      4  C3A BZF d   1      -0.137  -0.385  -1.052  0.00  0.00    -0.107 A 
ATOM      5  C4  BZF d   1      -0.817  -1.483  -1.495  0.00  0.00     0.055 A 
ATOM      6  C5  BZF d   1      -0.230  -2.706  -1.402  0.00  0.00    -0.016 A 
ATOM      7  C6  BZF d   1       1.036  -2.865  -0.877  0.00  0.00     0.022 A 
ATOM      8  C7  BZF d   1       1.747  -1.806  -0.419  0.00  0.00     0.029 A 
ATOM      9  C7A BZF d   1       1.143  -0.574  -0.482  0.00  0.00     0.058 A 
ENDROOT
TORSDOF 0
ENDMDL
