MODEL 1
REMARK minimizedAffinity 10.5564232
REMARK minimizedRMSD -1
REMARK  0 active torsions:
REMARK  status: ('A' for Active; 'I' for Inactive)
ROOT
ATOM      1  O1  BZF d   1       3.541  -1.313  -2.641  0.00  0.00    -0.204 OA
ATOM      2  C2  BZF d   1       4.199  -0.330  -1.927  0.00  0.00     0.174 A 
ATOM      3  C3  BZF d   1       3.666  -0.196  -0.695  0.00  0.00    -0.012 A 
ATOM      4  C3A BZF d   1       2.670  -1.219  -0.602  0.00  0.00    -0.107 A 
ATOM      5  C4  BZF d   1       1.809  -1.605   0.385  0.00  0.00     0.055 A 
ATOM      6  C5  BZF d   1       0.913  -2.594   0.131  0.00  0.00    -0.016 A 
ATOM      7  C6  BZF d   1       0.846  -3.215  -1.099  0.00  0.00     0.022 A 
ATOM      8  C7  BZF d   1       1.683  -2.870  -2.108  0.00  0.00     0.029 A 
ATOM      9  C7A BZF d   1       2.612  -1.894  -1.844  0.00  0.00     0.058 A 
ENDROOT
TORSDOF 0
ENDMDL
