MODEL 1
REMARK minimizedAffinity 0.933318257
REMARK minimizedRMSD -1
REMARK  0 active torsions:
REMARK  status: ('A' for Active; 'I' for Inactive)
ROOT
ATOM      1  O1  BZF d   1       0.745  -0.210   0.519  0.00  0.00    -0.204 OA
ATOM      2  C2  BZF d   1       0.443   1.134   0.408  0.00  0.00     0.174 A 
ATOM      3  C3  BZF d   1      -0.317   1.365  -0.682  0.00  0.00    -0.012 A 
ATOM      4  C3A BZF d   1      -0.579   0.073  -1.239  0.00  0.00    -0.107 A 
ATOM      5  C4  BZF d   1      -1.292  -0.355  -2.321  0.00  0.00     0.055 A 
ATOM      6  C5  BZF d   1      -1.289  -1.677  -2.634  0.00  0.00    -0.016 A 
ATOM      7  C6  BZF d   1      -0.580  -2.597  -1.889  0.00  0.00     0.022 A 
ATOM      8  C7  BZF d   1       0.139  -2.221  -0.803  0.00  0.00     0.029 A 
ATOM      9  C7A BZF d   1       0.111  -0.890  -0.466  0.00  0.00     0.058 A 
ENDROOT
TORSDOF 0
ENDMDL
