MODEL 1
REMARK minimizedAffinity -1.49746311
REMARK minimizedRMSD -1
REMARK  0 active torsions:
REMARK  status: ('A' for Active; 'I' for Inactive)
ROOT
ATOM      1  O1  BZF d   1       0.609  -2.184  -1.197  0.00  0.00    -0.204 OA
ATOM      2  C2  BZF d   1      -0.075  -1.167  -0.559  0.00  0.00     0.174 A 
ATOM      3  C3  BZF d   1       0.729  -0.102  -0.360  0.00  0.00    -0.012 A 
ATOM      4  C3A BZF d   1       1.967  -0.442  -0.992  0.00  0.00    -0.107 A 
ATOM      5  C4  BZF d   1       3.153   0.217  -1.148  0.00  0.00     0.055 A 
ATOM      6  C5  BZF d   1       4.189  -0.423  -1.751  0.00  0.00    -0.016 A 
ATOM      7  C6  BZF d   1       4.076  -1.721  -2.204  0.00  0.00     0.022 A 
ATOM      8  C7  BZF d   1       2.918  -2.414  -2.076  0.00  0.00     0.029 A 
ATOM      9  C7A BZF d   1       1.859  -1.758  -1.497  0.00  0.00     0.058 A 
ENDROOT
TORSDOF 0
ENDMDL
