MODEL 1
REMARK minimizedAffinity 1.44053948
REMARK minimizedRMSD -1
REMARK  0 active torsions:
REMARK  status: ('A' for Active; 'I' for Inactive)
ROOT
ATOM      1  O1  BZF d   1       3.291   0.859  -1.181  0.00  0.00    -0.204 OA
ATOM      2  C2  BZF d   1       4.492   0.304  -1.579  0.00  0.00     0.174 A 
ATOM      3  C3  BZF d   1       4.376  -1.032  -1.725  0.00  0.00    -0.012 A 
ATOM      4  C3A BZF d   1       2.994  -1.318  -1.486  0.00  0.00    -0.107 A 
ATOM      5  C4  BZF d   1       2.257  -2.468  -1.500  0.00  0.00     0.055 A 
ATOM      6  C5  BZF d   1       0.945  -2.415  -1.151  0.00  0.00    -0.016 A 
ATOM      7  C6  BZF d   1       0.340  -1.233  -0.777  0.00  0.00     0.022 A 
ATOM      8  C7  BZF d   1       1.028  -0.066  -0.753  0.00  0.00     0.029 A 
ATOM      9  C7A BZF d   1       2.346  -0.110  -1.138  0.00  0.00     0.058 A 
ENDROOT
TORSDOF 0
ENDMDL
