MODEL 1
REMARK minimizedAffinity 0.563422859
REMARK minimizedRMSD -1
REMARK  0 active torsions:
REMARK  status: ('A' for Active; 'I' for Inactive)
ROOT
ATOM      1  O1  BZF d   1      -0.470   4.917   3.168  0.00  0.00    -0.204 OA
ATOM      2  C2  BZF d   1      -0.474   5.827   2.129  0.00  0.00     0.174 A 
ATOM      3  C3  BZF d   1      -1.510   5.599   1.296  0.00  0.00    -0.012 A 
ATOM      4  C3A BZF d   1      -2.251   4.533   1.901  0.00  0.00    -0.107 A 
ATOM      5  C4  BZF d   1      -3.394   3.872   1.556  0.00  0.00     0.055 A 
ATOM      6  C5  BZF d   1      -3.812   2.831   2.324  0.00  0.00    -0.016 A 
ATOM      7  C6  BZF d   1      -3.108   2.422   3.438  0.00  0.00     0.022 A 
ATOM      8  C7  BZF d   1      -1.971   3.051   3.822  0.00  0.00     0.029 A 
ATOM      9  C7A BZF d   1      -1.564   4.124   3.067  0.00  0.00     0.058 A 
ENDROOT
TORSDOF 0
ENDMDL
