MODEL 1
REMARK minimizedAffinity 4.65011406
REMARK minimizedRMSD -1
REMARK  0 active torsions:
REMARK  status: ('A' for Active; 'I' for Inactive)
ROOT
ATOM      1  O1  BZF d   1       2.479   1.113  -0.659  0.00  0.00    -0.204 OA
ATOM      2  C2  BZF d   1       3.698   0.630  -1.093  0.00  0.00     0.174 A 
ATOM      3  C3  BZF d   1       3.619  -0.686  -1.376  0.00  0.00    -0.012 A 
ATOM      4  C3A BZF d   1       2.242  -1.028  -1.190  0.00  0.00    -0.107 A 
ATOM      5  C4  BZF d   1       1.536  -2.188  -1.333  0.00  0.00     0.055 A 
ATOM      6  C5  BZF d   1       0.218  -2.204  -1.002  0.00  0.00    -0.016 A 
ATOM      7  C6  BZF d   1      -0.423  -1.081  -0.521  0.00  0.00     0.022 A 
ATOM      8  C7  BZF d   1       0.235   0.094  -0.366  0.00  0.00     0.029 A 
ATOM      9  C7A BZF d   1       1.558   0.121  -0.731  0.00  0.00     0.058 A 
ENDROOT
TORSDOF 0
ENDMDL
