MODEL 1
REMARK minimizedAffinity -2.57027078
REMARK minimizedRMSD -1
REMARK  0 active torsions:
REMARK  status: ('A' for Active; 'I' for Inactive)
ROOT
ATOM      1  O1  BZF d   1      -0.367  -1.569  -1.081  0.00  0.00    -0.204 OA
ATOM      2  C2  BZF d   1       0.706  -2.264  -0.559  0.00  0.00     0.174 A 
ATOM      3  C3  BZF d   1       1.422  -1.483   0.275  0.00  0.00    -0.012 A 
ATOM      4  C3A BZF d   1       0.701  -0.249   0.346  0.00  0.00    -0.107 A 
ATOM      5  C4  BZF d   1       0.902   0.918   1.027  0.00  0.00     0.055 A 
ATOM      6  C5  BZF d   1       0.052   1.958   0.821  0.00  0.00    -0.016 A 
ATOM      7  C6  BZF d   1      -1.005   1.868  -0.062  0.00  0.00     0.022 A 
ATOM      8  C7  BZF d   1      -1.247   0.729  -0.756  0.00  0.00     0.029 A 
ATOM      9  C7A BZF d   1      -0.410  -0.335  -0.525  0.00  0.00     0.058 A 
ENDROOT
TORSDOF 0
ENDMDL
