MODEL 1
REMARK minimizedAffinity 3.41163373
REMARK minimizedRMSD -1
REMARK  0 active torsions:
REMARK  status: ('A' for Active; 'I' for Inactive)
ROOT
ATOM      1  C   UNL d   1       1.638  -1.328   2.562  0.00  0.00     0.172 C 
ATOM      2  N   UNL d   1       2.463  -2.365   3.135  0.00  0.00    -0.070 N 
ATOM      3  C1  UNL d   1       3.780  -2.235   3.486  0.00  0.00    -0.004 A 
ATOM      4  C2  UNL d   1       4.203  -3.444   3.995  0.00  0.00    -0.047 A 
ATOM      5  C3  UNL d   1       3.102  -4.331   3.948  0.00  0.00    -0.047 A 
ATOM      6  C4  UNL d   1       2.038  -3.638   3.411  0.00  0.00    -0.004 A 
ENDROOT
TORSDOF 0
ENDMDL
