MODEL 1
REMARK minimizedAffinity -1.79069924
REMARK minimizedRMSD -1
REMARK  0 active torsions:
REMARK  status: ('A' for Active; 'I' for Inactive)
ROOT
ATOM      1  C   UNL d   1       2.178  -6.000  -5.940  0.00  0.00     0.172 C 
ATOM      2  N   UNL d   1       3.366  -6.000  -5.120  0.00  0.00    -0.070 N 
ATOM      3  C1  UNL d   1       3.392  -5.999  -3.751  0.00  0.00    -0.004 A 
ATOM      4  C2  UNL d   1       4.712  -5.999  -3.354  0.00  0.00    -0.047 A 
ATOM      5  C3  UNL d   1       5.507  -6.000  -4.525  0.00  0.00    -0.047 A 
ATOM      6  C4  UNL d   1       4.648  -6.000  -5.604  0.00  0.00    -0.004 A 
ENDROOT
TORSDOF 0
ENDMDL
