MODEL 1
REMARK minimizedAffinity 0.0690927505
REMARK minimizedRMSD -1
REMARK  0 active torsions:
REMARK  status: ('A' for Active; 'I' for Inactive)
ROOT
ATOM      1  C   UNL d   1       2.599  -5.293  -1.978  0.00  0.00     0.172 C 
ATOM      2  N   UNL d   1       3.474  -5.542  -3.099  0.00  0.00    -0.070 N 
ATOM      3  C1  UNL d   1       4.843  -5.535  -3.060  0.00  0.00    -0.004 A 
ATOM      4  C2  UNL d   1       5.303  -5.817  -4.328  0.00  0.00    -0.047 A 
ATOM      5  C3  UNL d   1       4.172  -5.999  -5.158  0.00  0.00    -0.047 A 
ATOM      6  C4  UNL d   1       3.053  -5.823  -4.372  0.00  0.00    -0.004 A 
ENDROOT
TORSDOF 0
ENDMDL
