MODEL 1
REMARK minimizedAffinity 2.02965069
REMARK minimizedRMSD -1
REMARK  0 active torsions:
REMARK  status: ('A' for Active; 'I' for Inactive)
ROOT
ATOM      1  C   UNL d   1       0.505  -5.898   6.000  0.00  0.00     0.172 C 
ATOM      2  N   UNL d   1       1.255  -5.052   5.102  0.00  0.00    -0.070 N 
ATOM      3  C1  UNL d   1       2.603  -5.129   4.873  0.00  0.00    -0.004 A 
ATOM      4  C2  UNL d   1       2.932  -4.155   3.955  0.00  0.00    -0.047 A 
ATOM      5  C3  UNL d   1       1.740  -3.467   3.623  0.00  0.00    -0.047 A 
ATOM      6  C4  UNL d   1       0.718  -4.043   4.347  0.00  0.00    -0.004 A 
ENDROOT
TORSDOF 0
ENDMDL
