MODEL 1
REMARK minimizedAffinity 12.4235916
REMARK minimizedRMSD -1
REMARK  0 active torsions:
REMARK  status: ('A' for Active; 'I' for Inactive)
ROOT
ATOM      1  C   UNL d   1       1.848  -1.186   2.608  0.00  0.00     0.172 C 
ATOM      2  N   UNL d   1       2.362   0.060   2.089  0.00  0.00    -0.070 N 
ATOM      3  C1  UNL d   1       3.071   0.208   0.927  0.00  0.00    -0.004 A 
ATOM      4  C2  UNL d   1       3.376   1.545   0.787  0.00  0.00    -0.047 A 
ATOM      5  C3  UNL d   1       2.832   2.223   1.903  0.00  0.00    -0.047 A 
ATOM      6  C4  UNL d   1       2.210   1.280   2.693  0.00  0.00    -0.004 A 
ENDROOT
TORSDOF 0
ENDMDL
