MODEL 1
REMARK minimizedAffinity 6.27143478
REMARK minimizedRMSD -1
REMARK  0 active torsions:
REMARK  status: ('A' for Active; 'I' for Inactive)
ROOT
ATOM      1  C   UNL d   1       1.978  -1.032   2.608  0.00  0.00     0.172 C 
ATOM      2  N   UNL d   1       2.425   0.300   2.272  0.00  0.00    -0.070 N 
ATOM      3  C1  UNL d   1       3.059   0.660   1.113  0.00  0.00    -0.004 A 
ATOM      4  C2  UNL d   1       3.318   2.012   1.176  0.00  0.00    -0.047 A 
ATOM      5  C3  UNL d   1       2.822   2.480   2.416  0.00  0.00    -0.047 A 
ATOM      6  C4  UNL d   1       2.275   1.399   3.074  0.00  0.00    -0.004 A 
ENDROOT
TORSDOF 0
ENDMDL
