MODEL 1
REMARK minimizedAffinity 7.52113962
REMARK minimizedRMSD -1
REMARK  0 active torsions:
REMARK  status: ('A' for Active; 'I' for Inactive)
ROOT
ATOM      1  C   UNL d   1       1.965  -5.984  -3.091  0.00  0.00     0.172 C 
ATOM      2  N   UNL d   1       3.035  -5.987  -2.121  0.00  0.00    -0.070 N 
ATOM      3  C1  UNL d   1       4.373  -5.999  -2.409  0.00  0.00    -0.004 A 
ATOM      4  C2  UNL d   1       5.062  -5.997  -1.215  0.00  0.00    -0.047 A 
ATOM      5  C3  UNL d   1       4.104  -5.983  -0.174  0.00  0.00    -0.047 A 
ATOM      6  C4  UNL d   1       2.857  -5.977  -0.763  0.00  0.00    -0.004 A 
ENDROOT
TORSDOF 0
ENDMDL
