MODEL 1
REMARK minimizedAffinity 3.12782359
REMARK minimizedRMSD -1
REMARK  0 active torsions:
REMARK  status: ('A' for Active; 'I' for Inactive)
ROOT
ATOM      1  C   UNL d   1       1.111   2.349   0.737  0.00  0.00     0.172 C 
ATOM      2  N   UNL d   1       1.024   3.653   0.123  0.00  0.00    -0.070 N 
ATOM      3  C1  UNL d   1       2.079   4.487  -0.134  0.00  0.00    -0.004 A 
ATOM      4  C2  UNL d   1       1.581   5.629  -0.723  0.00  0.00    -0.047 A 
ATOM      5  C3  UNL d   1       0.178   5.477  -0.822  0.00  0.00    -0.047 A 
ATOM      6  C4  UNL d   1      -0.140   4.245  -0.291  0.00  0.00    -0.004 A 
ENDROOT
TORSDOF 0
ENDMDL
