MODEL 1
REMARK minimizedAffinity 4.75301552
REMARK minimizedRMSD -1
REMARK  0 active torsions:
REMARK  status: ('A' for Active; 'I' for Inactive)
ROOT
ATOM      1  C   UNL d   1      -2.883   4.876  -3.837  0.00  0.00     0.172 C 
ATOM      2  N   UNL d   1      -4.149   4.662  -4.497  0.00  0.00    -0.070 N 
ATOM      3  C1  UNL d   1      -4.836   5.593  -5.228  0.00  0.00    -0.004 A 
ATOM      4  C2  UNL d   1      -5.992   5.000  -5.689  0.00  0.00    -0.047 A 
ATOM      5  C3  UNL d   1      -6.000   3.666  -5.218  0.00  0.00    -0.047 A 
ATOM      6  C4  UNL d   1      -4.848   3.483  -4.482  0.00  0.00    -0.004 A 
ENDROOT
TORSDOF 0
ENDMDL
