MODEL 1
REMARK minimizedAffinity 0.9366135
REMARK minimizedRMSD -1
REMARK  0 active torsions:
REMARK  status: ('A' for Active; 'I' for Inactive)
ROOT
ATOM      1  C   UNL d   1       0.632   2.377   0.319  0.00  0.00     0.172 C 
ATOM      2  N   UNL d   1       0.876   1.024  -0.123  0.00  0.00    -0.070 N 
ATOM      3  C1  UNL d   1       1.109  -0.052   0.692  0.00  0.00    -0.004 A 
ATOM      4  C2  UNL d   1       1.293  -1.157  -0.111  0.00  0.00    -0.047 A 
ATOM      5  C3  UNL d   1       1.168  -0.730  -1.455  0.00  0.00    -0.047 A 
ATOM      6  C4  UNL d   1       0.910   0.624  -1.433  0.00  0.00    -0.004 A 
ENDROOT
TORSDOF 0
ENDMDL
