MODEL 1
REMARK minimizedAffinity 0.761946917
REMARK minimizedRMSD -1
REMARK  0 active torsions:
REMARK  status: ('A' for Active; 'I' for Inactive)
ROOT
ATOM      1  C   UNL d   1      -5.999   2.295  -3.983  0.00  0.00     0.172 C 
ATOM      2  N   UNL d   1      -5.446   3.482  -4.591  0.00  0.00    -0.070 N 
ATOM      3  C1  UNL d   1      -5.993   4.171  -5.640  0.00  0.00    -0.004 A 
ATOM      4  C2  UNL d   1      -5.168   5.238  -5.922  0.00  0.00    -0.047 A 
ATOM      5  C3  UNL d   1      -4.086   5.188  -5.011  0.00  0.00    -0.047 A 
ATOM      6  C4  UNL d   1      -4.283   4.092  -4.198  0.00  0.00    -0.004 A 
ENDROOT
TORSDOF 0
ENDMDL
