MODEL 1
REMARK minimizedAffinity 3.88293719
REMARK minimizedRMSD -1
REMARK  0 active torsions:
REMARK  status: ('A' for Active; 'I' for Inactive)
ROOT
ATOM      1  C   UNL d   1      -6.000   2.833  -2.938  0.00  0.00     0.172 C 
ATOM      2  N   UNL d   1      -5.496   3.726  -3.955  0.00  0.00    -0.070 N 
ATOM      3  C1  UNL d   1      -6.000   3.859  -5.222  0.00  0.00    -0.004 A 
ATOM      4  C2  UNL d   1      -5.246   4.808  -5.878  0.00  0.00    -0.047 A 
ATOM      5  C3  UNL d   1      -4.255   5.260  -4.975  0.00  0.00    -0.047 A 
ATOM      6  C4  UNL d   1      -4.433   4.574  -3.793  0.00  0.00    -0.004 A 
ENDROOT
TORSDOF 0
ENDMDL
