MODEL 1
REMARK minimizedAffinity 6.67231894
REMARK minimizedRMSD -1
REMARK  0 active torsions:
REMARK  status: ('A' for Active; 'I' for Inactive)
ROOT
ATOM      1  C   UNL d   1      -2.954   4.758  -3.809  0.00  0.00     0.172 C 
ATOM      2  N   UNL d   1      -4.191   4.230  -4.332  0.00  0.00    -0.070 N 
ATOM      3  C1  UNL d   1      -4.865   3.143  -3.844  0.00  0.00    -0.004 A 
ATOM      4  C2  UNL d   1      -5.994   2.965  -4.614  0.00  0.00    -0.047 A 
ATOM      5  C3  UNL d   1      -5.999   3.980  -5.600  0.00  0.00    -0.047 A 
ATOM      6  C4  UNL d   1      -4.872   4.749  -5.402  0.00  0.00    -0.004 A 
ENDROOT
TORSDOF 0
ENDMDL
