MODEL 1
REMARK minimizedAffinity 3.3358922
REMARK minimizedRMSD -1
REMARK  0 active torsions:
REMARK  status: ('A' for Active; 'I' for Inactive)
ROOT
ATOM      1  C   UNL d   1       2.974  -3.056   1.068  0.00  0.00     0.172 C 
ATOM      2  N   UNL d   1       3.806  -4.236   1.061  0.00  0.00    -0.070 N 
ATOM      3  C1  UNL d   1       4.166  -4.952  -0.050  0.00  0.00    -0.004 A 
ATOM      4  C2  UNL d   1       4.961  -5.999   0.363  0.00  0.00    -0.047 A 
ATOM      5  C3  UNL d   1       5.083  -5.909   1.770  0.00  0.00    -0.047 A 
ATOM      6  C4  UNL d   1       4.358  -4.809   2.176  0.00  0.00    -0.004 A 
ENDROOT
TORSDOF 0
ENDMDL
