MODEL 1
REMARK minimizedAffinity -0.862455368
REMARK minimizedRMSD -1
REMARK  0 active torsions:
REMARK  status: ('A' for Active; 'I' for Inactive)
ROOT
ATOM      1  C   UNL d   1       3.815   5.988   2.929  0.00  0.00     0.172 C 
ATOM      2  N   UNL d   1       2.815   5.991   3.971  0.00  0.00    -0.070 N 
ATOM      3  C1  UNL d   1       1.460   6.000   3.777  0.00  0.00    -0.004 A 
ATOM      4  C2  UNL d   1       0.856   6.000   5.016  0.00  0.00    -0.047 A 
ATOM      5  C3  UNL d   1       1.884   5.992   5.988  0.00  0.00    -0.047 A 
ATOM      6  C4  UNL d   1       3.087   5.987   5.314  0.00  0.00    -0.004 A 
ENDROOT
TORSDOF 0
ENDMDL
