MODEL 1
REMARK minimizedAffinity -0.0917068571
REMARK minimizedRMSD -1
REMARK  0 active torsions:
REMARK  status: ('A' for Active; 'I' for Inactive)
ROOT
ATOM      1  C   UNL d   1       0.066   0.533   0.788  0.00  0.00     0.172 C 
ATOM      2  N   UNL d   1       1.289   0.463   0.024  0.00  0.00    -0.070 N 
ATOM      3  C1  UNL d   1       1.968   1.532  -0.496  0.00  0.00    -0.004 A 
ATOM      4  C2  UNL d   1       3.079   1.048  -1.153  0.00  0.00    -0.047 A 
ATOM      5  C3  UNL d   1       3.066  -0.361  -1.024  0.00  0.00    -0.047 A 
ATOM      6  C4  UNL d   1       1.948  -0.697  -0.291  0.00  0.00    -0.004 A 
ENDROOT
TORSDOF 0
ENDMDL
