MODEL 1
REMARK minimizedAffinity -0.040480949
REMARK minimizedRMSD -1
REMARK  0 active torsions:
REMARK  status: ('A' for Active; 'I' for Inactive)
ROOT
ATOM      1  C   UNL d   1      -2.679  -2.578   3.490  0.00  0.00     0.172 C 
ATOM      2  N   UNL d   1      -2.173  -1.588   2.569  0.00  0.00    -0.070 N 
ATOM      3  C1  UNL d   1      -2.934  -0.795   1.752  0.00  0.00    -0.004 A 
ATOM      4  C2  UNL d   1      -2.080   0.012   1.032  0.00  0.00    -0.047 A 
ATOM      5  C3  UNL d   1      -0.760  -0.306   1.430  0.00  0.00    -0.047 A 
ATOM      6  C4  UNL d   1      -0.847  -1.300   2.383  0.00  0.00    -0.004 A 
ENDROOT
TORSDOF 0
ENDMDL
