MODEL 1
REMARK minimizedAffinity 5.8057642
REMARK minimizedRMSD -1
REMARK  0 active torsions:
REMARK  status: ('A' for Active; 'I' for Inactive)
ROOT
ATOM      1  C   UNL d   1      -1.042  -1.587   2.741  0.00  0.00     0.172 C 
ATOM      2  N   UNL d   1      -0.324  -1.219   1.543  0.00  0.00    -0.070 N 
ATOM      3  C1  UNL d   1      -0.868  -0.616   0.440  0.00  0.00    -0.004 A 
ATOM      4  C2  UNL d   1       0.140  -0.433  -0.481  0.00  0.00    -0.047 A 
ATOM      5  C3  UNL d   1       1.331  -0.944   0.087  0.00  0.00    -0.047 A 
ATOM      6  C4  UNL d   1       1.015  -1.424   1.340  0.00  0.00    -0.004 A 
ENDROOT
TORSDOF 0
ENDMDL
