MODEL 1
REMARK minimizedAffinity 0.359954089
REMARK minimizedRMSD -1
REMARK  0 active torsions:
REMARK  status: ('A' for Active; 'I' for Inactive)
ROOT
ATOM      1  C   UNL d   1      -0.639   5.515   5.976  0.00  0.00     0.172 C 
ATOM      2  N   UNL d   1       0.644   5.691   5.335  0.00  0.00    -0.070 N 
ATOM      3  C1  UNL d   1       0.866   5.703   3.984  0.00  0.00    -0.004 A 
ATOM      4  C2  UNL d   1       2.215   5.895   3.780  0.00  0.00    -0.047 A 
ATOM      5  C3  UNL d   1       2.825   6.000   5.053  0.00  0.00    -0.047 A 
ATOM      6  C4  UNL d   1       1.829   5.870   5.998  0.00  0.00    -0.004 A 
ENDROOT
TORSDOF 0
ENDMDL
