MODEL 1
REMARK minimizedAffinity 1.3727597
REMARK minimizedRMSD -1
REMARK  0 active torsions:
REMARK  status: ('A' for Active; 'I' for Inactive)
ROOT
ATOM      1  C   UNL d   1       4.370   5.999   2.276  0.00  0.00     0.172 C 
ATOM      2  N   UNL d   1       3.375   5.998   3.322  0.00  0.00    -0.070 N 
ATOM      3  C1  UNL d   1       3.631   5.995   4.668  0.00  0.00    -0.004 A 
ATOM      4  C2  UNL d   1       2.421   5.995   5.328  0.00  0.00    -0.047 A 
ATOM      5  C3  UNL d   1       1.403   5.997   4.345  0.00  0.00    -0.047 A 
ATOM      6  C4  UNL d   1       2.021   5.999   3.113  0.00  0.00    -0.004 A 
ENDROOT
TORSDOF 0
ENDMDL
