MODEL 1
REMARK minimizedAffinity -1.57666409
REMARK minimizedRMSD -1
REMARK  0 active torsions:
REMARK  status: ('A' for Active; 'I' for Inactive)
ROOT
ATOM      1  C   UNL d   1       0.737  -0.743   2.957  0.00  0.00     0.172 C 
ATOM      2  N   UNL d   1      -0.114  -0.583   1.801  0.00  0.00    -0.070 N 
ATOM      3  C1  UNL d   1       0.287  -0.681   0.495  0.00  0.00    -0.004 A 
ATOM      4  C2  UNL d   1      -0.816  -0.465  -0.302  0.00  0.00    -0.047 A 
ATOM      5  C3  UNL d   1      -1.918  -0.227   0.554  0.00  0.00    -0.047 A 
ATOM      6  C4  UNL d   1      -1.454  -0.306   1.850  0.00  0.00    -0.004 A 
ENDROOT
TORSDOF 0
ENDMDL
