MODEL 1
REMARK minimizedAffinity -3.46033621
REMARK minimizedRMSD -1
REMARK  0 active torsions:
REMARK  status: ('A' for Active; 'I' for Inactive)
ROOT
ATOM      1  C   UNL d   1       5.962  -4.451   1.077  0.00  0.00     0.077 C 
ATOM      2  C1  UNL d   1       5.850  -3.908   2.471  0.00  0.00    -0.074 A 
ATOM      3  C2  UNL d   1       5.901  -2.532   2.712  0.00  0.00    -0.005 A 
ATOM      4  C3  UNL d   1       5.785  -2.041   4.013  0.00  0.00     0.006 A 
ATOM      5  C4  UNL d   1       5.617  -2.920   5.083  0.00  0.00    -0.005 A 
ATOM      6  C5  UNL d   1       5.563  -4.300   4.861  0.00  0.00    -0.074 A 
ATOM      7  C6  UNL d   1       5.373  -5.258   5.999  0.00  0.00     0.077 C 
ATOM      8  C7  UNL d   1       5.673  -4.785   3.551  0.00  0.00    -0.001 A 
ENDROOT
TORSDOF 0
ENDMDL
