MODEL 1
REMARK minimizedAffinity -2.62915134
REMARK minimizedRMSD -1
REMARK  0 active torsions:
REMARK  status: ('A' for Active; 'I' for Inactive)
ROOT
ATOM      1  C   UNL d   1       5.982  -3.552   1.552  0.00  0.00     0.077 C 
ATOM      2  C1  UNL d   1       5.965  -3.516   3.051  0.00  0.00    -0.074 A 
ATOM      3  C2  UNL d   1       5.915  -2.300   3.741  0.00  0.00    -0.005 A 
ATOM      4  C3  UNL d   1       5.891  -2.283   5.135  0.00  0.00     0.006 A 
ATOM      5  C4  UNL d   1       5.916  -3.479   5.853  0.00  0.00    -0.005 A 
ATOM      6  C5  UNL d   1       5.966  -4.705   5.181  0.00  0.00    -0.074 A 
ATOM      7  C6  UNL d   1       5.983  -6.000   5.937  0.00  0.00     0.077 C 
ATOM      8  C7  UNL d   1       5.983  -4.714   3.779  0.00  0.00    -0.001 A 
ENDROOT
TORSDOF 0
ENDMDL
