MODEL 1
REMARK minimizedAffinity -2.93175435
REMARK minimizedRMSD -1
REMARK  0 active torsions:
REMARK  status: ('A' for Active; 'I' for Inactive)
ROOT
ATOM      1  C   UNL d   1       4.449  -5.997   5.991  0.00  0.00     0.077 C 
ATOM      2  C1  UNL d   1       4.984  -4.872   5.156  0.00  0.00    -0.074 A 
ATOM      3  C2  UNL d   1       5.267  -3.626   5.726  0.00  0.00    -0.005 A 
ATOM      4  C3  UNL d   1       5.772  -2.592   4.938  0.00  0.00     0.006 A 
ATOM      5  C4  UNL d   1       5.999  -2.792   3.576  0.00  0.00    -0.005 A 
ATOM      6  C5  UNL d   1       5.723  -4.031   2.990  0.00  0.00    -0.074 A 
ATOM      7  C6  UNL d   1       5.970  -4.266   1.529  0.00  0.00     0.077 C 
ATOM      8  C7  UNL d   1       5.221  -5.068   3.789  0.00  0.00    -0.001 A 
ENDROOT
TORSDOF 0
ENDMDL
