MODEL 1
REMARK minimizedAffinity -2.77713895
REMARK minimizedRMSD -1
REMARK  0 active torsions:
REMARK  status: ('A' for Active; 'I' for Inactive)
ROOT
ATOM      1  C   UNL d   1       6.000  -4.523   1.271  0.00  0.00     0.077 C 
ATOM      2  C1  UNL d   1       5.768  -4.041   2.672  0.00  0.00    -0.074 A 
ATOM      3  C2  UNL d   1       5.980  -2.702   3.015  0.00  0.00    -0.005 A 
ATOM      4  C3  UNL d   1       5.751  -2.265   4.320  0.00  0.00     0.006 A 
ATOM      5  C4  UNL d   1       5.308  -3.162   5.293  0.00  0.00    -0.005 A 
ATOM      6  C5  UNL d   1       5.090  -4.505   4.968  0.00  0.00    -0.074 A 
ATOM      7  C6  UNL d   1       4.604  -5.479   6.000  0.00  0.00     0.077 C 
ATOM      8  C7  UNL d   1       5.315  -4.934   3.653  0.00  0.00    -0.001 A 
ENDROOT
TORSDOF 0
ENDMDL
