MODEL 1
REMARK minimizedAffinity -2.53283787
REMARK minimizedRMSD -1
REMARK  0 active torsions:
REMARK  status: ('A' for Active; 'I' for Inactive)
ROOT
ATOM      1  C   UNL d   1       4.588  -5.971   5.999  0.00  0.00     0.077 C 
ATOM      2  C1  UNL d   1       5.051  -4.913   5.042  0.00  0.00    -0.074 A 
ATOM      3  C2  UNL d   1       5.255  -3.597   5.469  0.00  0.00    -0.005 A 
ATOM      4  C3  UNL d   1       5.695  -2.626   4.569  0.00  0.00     0.006 A 
ATOM      5  C4  UNL d   1       5.935  -2.960   3.236  0.00  0.00    -0.005 A 
ATOM      6  C5  UNL d   1       5.737  -4.271   2.791  0.00  0.00    -0.074 A 
ATOM      7  C6  UNL d   1       6.000  -4.650   1.364  0.00  0.00     0.077 C 
ATOM      8  C7  UNL d   1       5.302  -5.243   3.703  0.00  0.00    -0.001 A 
ENDROOT
TORSDOF 0
ENDMDL
