MODEL 1
REMARK minimizedAffinity -3.48093534
REMARK minimizedRMSD -1
REMARK  0 active torsions:
REMARK  status: ('A' for Active; 'I' for Inactive)
ROOT
ATOM      1  C   UNL d   1       5.716  -5.924   5.566  0.00  0.00     0.077 C 
ATOM      2  C1  UNL d   1       5.534  -4.506   5.114  0.00  0.00    -0.074 A 
ATOM      3  C2  UNL d   1       5.086  -3.521   6.000  0.00  0.00    -0.005 A 
ATOM      4  C3  UNL d   1       4.931  -2.204   5.568  0.00  0.00     0.006 A 
ATOM      5  C4  UNL d   1       5.222  -1.859   4.247  0.00  0.00    -0.005 A 
ATOM      6  C5  UNL d   1       5.673  -2.830   3.347  0.00  0.00    -0.074 A 
ATOM      7  C6  UNL d   1       6.000  -2.474   1.928  0.00  0.00     0.077 C 
ATOM      8  C7  UNL d   1       5.832  -4.150   3.791  0.00  0.00    -0.001 A 
ENDROOT
TORSDOF 0
ENDMDL
