MODEL 1
REMARK minimizedAffinity 0.385341048
REMARK minimizedRMSD -1
REMARK  0 active torsions:
REMARK  status: ('A' for Active; 'I' for Inactive)
ROOT
ATOM      1  C   UNL d   1       5.999  -5.145   0.510  0.00  0.00     0.077 C 
ATOM      2  C1  UNL d   1       6.000  -4.568   1.894  0.00  0.00    -0.074 A 
ATOM      3  C2  UNL d   1       5.996  -3.184   2.096  0.00  0.00    -0.005 A 
ATOM      4  C3  UNL d   1       5.987  -2.662   3.389  0.00  0.00     0.006 A 
ATOM      5  C4  UNL d   1       5.982  -3.516   4.492  0.00  0.00    -0.005 A 
ATOM      6  C5  UNL d   1       5.985  -4.903   4.310  0.00  0.00    -0.074 A 
ATOM      7  C6  UNL d   1       5.970  -5.835   5.484  0.00  0.00     0.077 C 
ATOM      8  C7  UNL d   1       5.987  -5.420   3.007  0.00  0.00    -0.001 A 
ENDROOT
TORSDOF 0
ENDMDL
