MODEL 1
REMARK minimizedAffinity -2.92001128
REMARK minimizedRMSD -1
REMARK  0 active torsions:
REMARK  status: ('A' for Active; 'I' for Inactive)
ROOT
ATOM      1  C   UNL d   1       5.756  -3.657   1.347  0.00  0.00     0.077 C 
ATOM      2  C1  UNL d   1       5.703  -3.595   2.845  0.00  0.00    -0.074 A 
ATOM      3  C2  UNL d   1       5.473  -2.385   3.507  0.00  0.00    -0.005 A 
ATOM      4  C3  UNL d   1       5.417  -2.345   4.900  0.00  0.00     0.006 A 
ATOM      5  C4  UNL d   1       5.590  -3.512   5.644  0.00  0.00    -0.005 A 
ATOM      6  C5  UNL d   1       5.820  -4.732   5.000  0.00  0.00    -0.074 A 
ATOM      7  C6  UNL d   1       5.999  -5.998   5.784  0.00  0.00     0.077 C 
ATOM      8  C7  UNL d   1       5.869  -4.765   3.599  0.00  0.00    -0.001 A 
ENDROOT
TORSDOF 0
ENDMDL
