MODEL 1
REMARK minimizedAffinity -2.05701184
REMARK minimizedRMSD -1
REMARK  0 active torsions:
REMARK  status: ('A' for Active; 'I' for Inactive)
ROOT
ATOM      1  C   UNL d   1       5.826  -6.000   5.936  0.00  0.00     0.077 C 
ATOM      2  C1  UNL d   1       5.417  -4.699   5.311  0.00  0.00    -0.074 A 
ATOM      3  C2  UNL d   1       4.600  -3.796   5.999  0.00  0.00    -0.005 A 
ATOM      4  C3  UNL d   1       4.236  -2.586   5.409  0.00  0.00     0.006 A 
ATOM      5  C4  UNL d   1       4.684  -2.267   4.126  0.00  0.00    -0.005 A 
ATOM      6  C5  UNL d   1       5.502  -3.157   3.423  0.00  0.00    -0.074 A 
ATOM      7  C6  UNL d   1       6.000  -2.825   2.048  0.00  0.00     0.077 C 
ATOM      8  C7  UNL d   1       5.869  -4.368   4.026  0.00  0.00    -0.001 A 
ENDROOT
TORSDOF 0
ENDMDL
