MODEL 1
REMARK minimizedAffinity -3.4158752
REMARK minimizedRMSD -1
REMARK  0 active torsions:
REMARK  status: ('A' for Active; 'I' for Inactive)
ROOT
ATOM      1  C   UNL d   1       3.722  -5.583   5.999  0.00  0.00     0.077 C 
ATOM      2  C1  UNL d   1       4.494  -4.495   5.314  0.00  0.00    -0.074 A 
ATOM      3  C2  UNL d   1       4.857  -3.331   5.999  0.00  0.00    -0.005 A 
ATOM      4  C3  UNL d   1       5.584  -2.332   5.351  0.00  0.00     0.006 A 
ATOM      5  C4  UNL d   1       5.955  -2.487   4.015  0.00  0.00    -0.005 A 
ATOM      6  C5  UNL d   1       5.601  -3.644   3.314  0.00  0.00    -0.074 A 
ATOM      7  C6  UNL d   1       6.000  -3.831   1.881  0.00  0.00     0.077 C 
ATOM      8  C7  UNL d   1       4.877  -4.647   3.974  0.00  0.00    -0.001 A 
ENDROOT
TORSDOF 0
ENDMDL
