MODEL 1
REMARK minimizedAffinity -3.70792627
REMARK minimizedRMSD -1
REMARK  0 active torsions:
REMARK  status: ('A' for Active; 'I' for Inactive)
ROOT
ATOM      1  C   UNL d   1       5.999  -4.384   1.483  0.00  0.00     0.077 C 
ATOM      2  C1  UNL d   1       5.939  -4.413   2.982  0.00  0.00    -0.074 A 
ATOM      3  C2  UNL d   1       5.916  -5.626   3.677  0.00  0.00    -0.005 A 
ATOM      4  C3  UNL d   1       5.869  -5.637   5.071  0.00  0.00     0.006 A 
ATOM      5  C4  UNL d   1       5.845  -4.436   5.783  0.00  0.00    -0.005 A 
ATOM      6  C5  UNL d   1       5.868  -3.214   5.104  0.00  0.00    -0.074 A 
ATOM      7  C6  UNL d   1       5.853  -1.915   5.854  0.00  0.00     0.077 C 
ATOM      8  C7  UNL d   1       5.922  -3.211   3.704  0.00  0.00    -0.001 A 
ENDROOT
TORSDOF 0
ENDMDL
