MODEL 1
REMARK minimizedAffinity -0.602259278
REMARK minimizedRMSD -1
REMARK  0 active torsions:
REMARK  status: ('A' for Active; 'I' for Inactive)
ROOT
ATOM      1  C   UNL d   1       6.000  -1.335   4.918  0.00  0.00     0.077 C 
ATOM      2  C1  UNL d   1       5.507  -2.750   4.980  0.00  0.00    -0.074 A 
ATOM      3  C2  UNL d   1       4.590  -3.150   5.957  0.00  0.00    -0.005 A 
ATOM      4  C3  UNL d   1       4.133  -4.468   5.996  0.00  0.00     0.006 A 
ATOM      5  C4  UNL d   1       4.589  -5.397   5.060  0.00  0.00    -0.005 A 
ATOM      6  C5  UNL d   1       5.506  -5.015   4.076  0.00  0.00    -0.074 A 
ATOM      7  C6  UNL d   1       5.998  -5.999   3.056  0.00  0.00     0.077 C 
ATOM      8  C7  UNL d   1       5.954  -3.688   4.039  0.00  0.00    -0.001 A 
ENDROOT
TORSDOF 0
ENDMDL
