MODEL 1
REMARK minimizedAffinity -2.42624712
REMARK minimizedRMSD -1
REMARK  0 active torsions:
REMARK  status: ('A' for Active; 'I' for Inactive)
ROOT
ATOM      1  C   UNL d   1       5.993  -5.223   1.899  0.00  0.00     0.077 C 
ATOM      2  C1  UNL d   1       5.890  -4.788   3.331  0.00  0.00    -0.074 A 
ATOM      3  C2  UNL d   1       5.717  -5.724   4.356  0.00  0.00    -0.005 A 
ATOM      4  C3  UNL d   1       5.631  -5.305   5.683  0.00  0.00     0.006 A 
ATOM      5  C4  UNL d   1       5.719  -3.949   5.999  0.00  0.00    -0.005 A 
ATOM      6  C5  UNL d   1       5.893  -2.999   4.988  0.00  0.00    -0.074 A 
ATOM      7  C6  UNL d   1       5.998  -1.538   5.311  0.00  0.00     0.077 C 
ATOM      8  C7  UNL d   1       5.984  -3.428   3.657  0.00  0.00    -0.001 A 
ENDROOT
TORSDOF 0
ENDMDL
