MODEL 1
REMARK minimizedAffinity -4.05830669
REMARK minimizedRMSD -1
REMARK  0 active torsions:
REMARK  status: ('A' for Active; 'I' for Inactive)
ROOT
ATOM      1  C   UNL d   1       4.496  -2.594   5.949  0.00  0.00     0.077 C 
ATOM      2  C1  UNL d   1       5.013  -2.913   4.578  0.00  0.00    -0.074 A 
ATOM      3  C2  UNL d   1       5.273  -1.897   3.652  0.00  0.00    -0.005 A 
ATOM      4  C3  UNL d   1       5.762  -2.209   2.384  0.00  0.00     0.006 A 
ATOM      5  C4  UNL d   1       5.997  -3.538   2.029  0.00  0.00    -0.005 A 
ATOM      6  C5  UNL d   1       5.744  -4.567   2.941  0.00  0.00    -0.074 A 
ATOM      7  C6  UNL d   1       6.000  -6.000   2.578  0.00  0.00     0.077 C 
ATOM      8  C7  UNL d   1       5.259  -4.245   4.216  0.00  0.00    -0.001 A 
ENDROOT
TORSDOF 0
ENDMDL
