MODEL 1
REMARK minimizedAffinity -3.18347597
REMARK minimizedRMSD -1
REMARK  0 active torsions:
REMARK  status: ('A' for Active; 'I' for Inactive)
ROOT
ATOM      1  C   UNL d   1       4.319  -5.999   6.000  0.00  0.00     0.077 C 
ATOM      2  C1  UNL d   1       4.777  -4.992   4.987  0.00  0.00    -0.074 A 
ATOM      3  C2  UNL d   1       4.845  -3.632   5.305  0.00  0.00    -0.005 A 
ATOM      4  C3  UNL d   1       5.281  -2.708   4.356  0.00  0.00     0.006 A 
ATOM      5  C4  UNL d   1       5.654  -3.135   3.080  0.00  0.00    -0.005 A 
ATOM      6  C5  UNL d   1       5.594  -4.491   2.744  0.00  0.00    -0.074 A 
ATOM      7  C6  UNL d   1       6.000  -4.967   1.381  0.00  0.00     0.077 C 
ATOM      8  C7  UNL d   1       5.160  -5.414   3.706  0.00  0.00    -0.001 A 
ENDROOT
TORSDOF 0
ENDMDL
