MODEL 1
REMARK minimizedAffinity -3.41766715
REMARK minimizedRMSD -1
REMARK  0 active torsions:
REMARK  status: ('A' for Active; 'I' for Inactive)
ROOT
ATOM      1  C   UNL d   1       6.000  -3.718   1.508  0.00  0.00     0.077 C 
ATOM      2  C1  UNL d   1       5.716  -3.497   2.964  0.00  0.00    -0.074 A 
ATOM      3  C2  UNL d   1       5.896  -2.240   3.549  0.00  0.00    -0.005 A 
ATOM      4  C3  UNL d   1       5.619  -2.048   4.903  0.00  0.00     0.006 A 
ATOM      5  C4  UNL d   1       5.160  -3.109   5.684  0.00  0.00    -0.005 A 
ATOM      6  C5  UNL d   1       4.973  -4.373   5.116  0.00  0.00    -0.074 A 
ATOM      7  C6  UNL d   1       4.471  -5.522   5.939  0.00  0.00     0.077 C 
ATOM      8  C7  UNL d   1       5.247  -4.557   3.754  0.00  0.00    -0.001 A 
ENDROOT
TORSDOF 0
ENDMDL
