MODEL 1
REMARK minimizedAffinity -2.93857145
REMARK minimizedRMSD -1
REMARK  0 active torsions:
REMARK  status: ('A' for Active; 'I' for Inactive)
ROOT
ATOM      1  C   UNL d   1       5.002  -5.994   5.909  0.00  0.00     0.077 C 
ATOM      2  C1  UNL d   1       5.198  -4.684   5.205  0.00  0.00    -0.074 A 
ATOM      3  C2  UNL d   1       5.108  -3.474   5.900  0.00  0.00    -0.005 A 
ATOM      4  C3  UNL d   1       5.303  -2.264   5.233  0.00  0.00     0.006 A 
ATOM      5  C4  UNL d   1       5.589  -2.252   3.867  0.00  0.00    -0.005 A 
ATOM      6  C5  UNL d   1       5.683  -3.453   3.156  0.00  0.00    -0.074 A 
ATOM      7  C6  UNL d   1       5.999  -3.458   1.690  0.00  0.00     0.077 C 
ATOM      8  C7  UNL d   1       5.494  -4.665   3.834  0.00  0.00    -0.001 A 
ENDROOT
TORSDOF 0
ENDMDL
