MODEL 1
REMARK minimizedAffinity -3.34283304
REMARK minimizedRMSD -1
REMARK  0 active torsions:
REMARK  status: ('A' for Active; 'I' for Inactive)
ROOT
ATOM      1  C   UNL d   1       5.997  -4.358   1.051  0.00  0.00     0.077 C 
ATOM      2  C1  UNL d   1       5.652  -4.042   2.476  0.00  0.00    -0.074 A 
ATOM      3  C2  UNL d   1       5.008  -2.847   2.812  0.00  0.00    -0.005 A 
ATOM      4  C3  UNL d   1       4.685  -2.571   4.141  0.00  0.00     0.006 A 
ATOM      5  C4  UNL d   1       5.004  -3.485   5.146  0.00  0.00    -0.005 A 
ATOM      6  C5  UNL d   1       5.648  -4.685   4.829  0.00  0.00    -0.074 A 
ATOM      7  C6  UNL d   1       5.989  -5.683   5.896  0.00  0.00     0.077 C 
ATOM      8  C7  UNL d   1       5.962  -4.959   3.491  0.00  0.00    -0.001 A 
ENDROOT
TORSDOF 0
ENDMDL
