MODEL 1
REMARK minimizedAffinity -3.81879497
REMARK minimizedRMSD -1
REMARK  0 active torsions:
REMARK  status: ('A' for Active; 'I' for Inactive)
ROOT
ATOM      1  C   UNL d   1       5.999  -4.870   1.014  0.00  0.00     0.077 C 
ATOM      2  C1  UNL d   1       5.884  -3.986   2.221  0.00  0.00    -0.074 A 
ATOM      3  C2  UNL d   1       5.908  -2.593   2.096  0.00  0.00    -0.005 A 
ATOM      4  C3  UNL d   1       5.790  -1.784   3.226  0.00  0.00     0.006 A 
ATOM      5  C4  UNL d   1       5.647  -2.359   4.490  0.00  0.00    -0.005 A 
ATOM      6  C5  UNL d   1       5.619  -3.749   4.634  0.00  0.00    -0.074 A 
ATOM      7  C6  UNL d   1       5.455  -4.383   5.983  0.00  0.00     0.077 C 
ATOM      8  C7  UNL d   1       5.731  -4.556   3.493  0.00  0.00    -0.001 A 
ENDROOT
TORSDOF 0
ENDMDL
