MODEL 1
REMARK minimizedAffinity 3.17201185
REMARK minimizedRMSD -1
REMARK  0 active torsions:
REMARK  status: ('A' for Active; 'I' for Inactive)
ROOT
ATOM      1  C   UNL d   1       1.310  -2.543   3.457  0.00  0.00     0.020 A 
ATOM      2  C1  UNL d   1       2.228  -1.630   2.938  0.00  0.00     0.020 A 
ATOM      3  C2  UNL d   1       3.562  -1.671   3.350  0.00  0.00     0.034 A 
ATOM      4  C3  UNL d   1       3.981  -2.626   4.283  0.00  0.00     0.017 A 
ATOM      5  C4  UNL d   1       3.059  -3.542   4.803  0.00  0.00     0.017 A 
ATOM      6  C5  UNL d   1       1.725  -3.496   4.387  0.00  0.00     0.034 A 
ATOM      7 Cl   UNL d   1       3.503  -4.749   5.957  0.00  0.00    -0.070 Cl
ATOM      8 Cl1  UNL d   1       5.646  -2.619   4.746  0.00  0.00    -0.070 Cl
ENDROOT
TORSDOF 0
ENDMDL
