MODEL 1
REMARK minimizedAffinity -0.468795538
REMARK minimizedRMSD -1
REMARK  0 active torsions:
REMARK  status: ('A' for Active; 'I' for Inactive)
ROOT
ATOM      1  C   UNL d   1       1.564  -2.049   4.075  0.00  0.00     0.020 A 
ATOM      2  C1  UNL d   1       2.345  -0.907   4.250  0.00  0.00     0.020 A 
ATOM      3  C2  UNL d   1       2.315   0.113   3.296  0.00  0.00     0.034 A 
ATOM      4  C3  UNL d   1       1.503  -0.007   2.163  0.00  0.00     0.017 A 
ATOM      5  C4  UNL d   1       0.719  -1.153   1.988  0.00  0.00     0.017 A 
ATOM      6  C5  UNL d   1       0.753  -2.171   2.946  0.00  0.00     0.034 A 
ATOM      7 Cl   UNL d   1      -0.309  -1.373   0.616  0.00  0.00    -0.070 Cl
ATOM      8 Cl1  UNL d   1       1.515   1.293   1.025  0.00  0.00    -0.070 Cl
ENDROOT
TORSDOF 0
ENDMDL
