MODEL 1
REMARK minimizedAffinity 0.825324893
REMARK minimizedRMSD -1
REMARK  0 active torsions:
REMARK  status: ('A' for Active; 'I' for Inactive)
ROOT
ATOM      1  C   UNL d   1       1.899   1.328   0.089  0.00  0.00     0.020 A 
ATOM      2  C1  UNL d   1       2.686   1.438   1.235  0.00  0.00     0.020 A 
ATOM      3  C2  UNL d   1       2.567   0.493   2.256  0.00  0.00     0.034 A 
ATOM      4  C3  UNL d   1       1.659  -0.565   2.134  0.00  0.00     0.017 A 
ATOM      5  C4  UNL d   1       0.870  -0.674   0.984  0.00  0.00     0.017 A 
ATOM      6  C5  UNL d   1       0.993   0.275  -0.036  0.00  0.00     0.034 A 
ATOM      7 Cl   UNL d   1      -0.272  -1.952   0.761  0.00  0.00    -0.070 Cl
ATOM      8 Cl1  UNL d   1       1.565  -1.698   3.436  0.00  0.00    -0.070 Cl
ENDROOT
TORSDOF 0
ENDMDL
