MODEL 1
REMARK minimizedAffinity 1.44495487
REMARK minimizedRMSD -1
REMARK  0 active torsions:
REMARK  status: ('A' for Active; 'I' for Inactive)
ROOT
ATOM      1  C   UNL d   1       2.067  -2.744   5.131  0.00  0.00     0.020 A 
ATOM      2  C1  UNL d   1       1.257  -3.593   4.377  0.00  0.00     0.020 A 
ATOM      3  C2  UNL d   1       0.716  -3.150   3.169  0.00  0.00     0.034 A 
ATOM      4  C3  UNL d   1       0.983  -1.855   2.710  0.00  0.00     0.017 A 
ATOM      5  C4  UNL d   1       1.797  -1.004   3.467  0.00  0.00     0.017 A 
ATOM      6  C5  UNL d   1       2.336  -1.453   4.676  0.00  0.00     0.034 A 
ATOM      7 Cl   UNL d   1       2.172   0.607   2.966  0.00  0.00    -0.070 Cl
ATOM      8 Cl1  UNL d   1       0.281  -1.374   1.206  0.00  0.00    -0.070 Cl
ENDROOT
TORSDOF 0
ENDMDL
