MODEL 1
REMARK minimizedAffinity 4.51526546
REMARK minimizedRMSD -1
REMARK  0 active torsions:
REMARK  status: ('A' for Active; 'I' for Inactive)
ROOT
ATOM      1  C   UNL d   1       0.337   3.520  -0.003  0.00  0.00     0.020 A 
ATOM      2  C1  UNL d   1      -0.815   3.004   0.590  0.00  0.00     0.020 A 
ATOM      3  C2  UNL d   1      -0.822   1.697   1.079  0.00  0.00     0.034 A 
ATOM      4  C3  UNL d   1       0.324   0.900   0.977  0.00  0.00     0.017 A 
ATOM      5  C4  UNL d   1       1.480   1.419   0.382  0.00  0.00     0.017 A 
ATOM      6  C5  UNL d   1       1.482   2.729  -0.106  0.00  0.00     0.034 A 
ATOM      7 Cl   UNL d   1       2.933   0.497   0.219  0.00  0.00    -0.070 Cl
ATOM      8 Cl1  UNL d   1       0.244  -0.708   1.604  0.00  0.00    -0.070 Cl
ENDROOT
TORSDOF 0
ENDMDL
