MODEL 1
REMARK minimizedAffinity -0.302369922
REMARK minimizedRMSD -1
REMARK  0 active torsions:
REMARK  status: ('A' for Active; 'I' for Inactive)
ROOT
ATOM      1  C   UNL d   1       1.471  -2.282   4.233  0.00  0.00     0.020 A 
ATOM      2  C1  UNL d   1       2.374  -1.245   4.462  0.00  0.00     0.020 A 
ATOM      3  C2  UNL d   1       2.554  -0.250   3.498  0.00  0.00     0.034 A 
ATOM      4  C3  UNL d   1       1.829  -0.291   2.301  0.00  0.00     0.017 A 
ATOM      5  C4  UNL d   1       0.923  -1.332   2.073  0.00  0.00     0.017 A 
ATOM      6  C5  UNL d   1       0.747  -2.326   3.041  0.00  0.00     0.034 A 
ATOM      7 Cl   UNL d   1      -0.007  -1.450   0.621  0.00  0.00    -0.070 Cl
ATOM      8 Cl1  UNL d   1       2.101   0.972   1.154  0.00  0.00    -0.070 Cl
ENDROOT
TORSDOF 0
ENDMDL
