MODEL 1
REMARK minimizedAffinity 5.99503994
REMARK minimizedRMSD -1
REMARK  0 active torsions:
REMARK  status: ('A' for Active; 'I' for Inactive)
ROOT
ATOM      1  C   UNL d   1       0.354  -3.168   0.383  0.00  0.00     0.020 A 
ATOM      2  C1  UNL d   1      -0.052  -3.692  -0.844  0.00  0.00     0.020 A 
ATOM      3  C2  UNL d   1      -0.685  -2.870  -1.779  0.00  0.00     0.034 A 
ATOM      4  C3  UNL d   1      -0.913  -1.520  -1.489  0.00  0.00     0.017 A 
ATOM      5  C4  UNL d   1      -0.504  -0.995  -0.258  0.00  0.00     0.017 A 
ATOM      6  C5  UNL d   1       0.129  -1.823   0.675  0.00  0.00     0.034 A 
ATOM      7 Cl   UNL d   1      -0.751   0.661   0.171  0.00  0.00    -0.070 Cl
ATOM      8 Cl1  UNL d   1      -1.700  -0.562  -2.692  0.00  0.00    -0.070 Cl
ENDROOT
TORSDOF 0
ENDMDL
