MODEL 1
REMARK minimizedAffinity -0.479242027
REMARK minimizedRMSD -1
REMARK  3 active torsions:
REMARK  status: ('A' for Active; 'I' for Inactive)
REMARK    1  A    between atoms: C3'_2  and  C2'_3 
REMARK    2  A    between atoms: C2'_3  and  C1'_4 
REMARK    3  A    between atoms: C1'_4  and  C1_5 
ROOT
ATOM      1  C1  N4B d   1       3.741   3.490  -4.998  0.00  0.00    -0.075 A 
ATOM      2  C2  N4B d   1       4.118   3.002  -3.728  0.00  0.00     0.002 A 
ATOM      3  C3  N4B d   1       4.168   1.648  -3.499  0.00  0.00     0.002 A 
ATOM      4  C4  N4B d   1       3.828   0.768  -4.516  0.00  0.00    -0.004 A 
ATOM      5  C5  N4B d   1       3.490   1.248  -5.748  0.00  0.00     0.002 A 
ATOM      6  C6  N4B d   1       3.440   2.605  -5.992  0.00  0.00     0.002 A 
ENDROOT
BRANCH   1   7
ATOM      7  C1' N4B d   1       3.590   4.962  -5.270  0.00  0.00     0.057 C 
BRANCH   7   8
ATOM      8  C2' N4B d   1       2.268   5.204  -5.993  0.00  0.00     0.009 C 
BRANCH   8   9
ATOM      9  C3' N4B d   1       1.077   4.752  -5.165  0.00  0.00     0.004 C 
ATOM     10  C4' N4B d   1      -0.161   4.553  -5.988  0.00  0.00     0.003 C 
ENDBRANCH   8   9
ENDBRANCH   7   8
ENDBRANCH   1   7
TORSDOF 3
ENDMDL
