MODEL 1
REMARK minimizedAffinity -1.69409215
REMARK minimizedRMSD -1
REMARK  3 active torsions:
REMARK  status: ('A' for Active; 'I' for Inactive)
REMARK    1  A    between atoms: C3'_2  and  C2'_3 
REMARK    2  A    between atoms: C2'_3  and  C1'_4 
REMARK    3  A    between atoms: C1'_4  and  C1_5 
ROOT
ATOM      1  C1  N4B d   1       2.891   4.934  -5.585  0.00  0.00    -0.075 A 
ATOM      2  C2  N4B d   1       2.251   3.825  -4.988  0.00  0.00     0.002 A 
ATOM      3  C3  N4B d   1       0.889   3.830  -4.815  0.00  0.00     0.002 A 
ATOM      4  C4  N4B d   1       0.151   4.935  -5.212  0.00  0.00    -0.004 A 
ATOM      5  C5  N4B d   1       0.773   5.991  -5.811  0.00  0.00     0.002 A 
ATOM      6  C6  N4B d   1       2.141   5.998  -5.995  0.00  0.00     0.002 A 
ENDROOT
BRANCH   1   7
ATOM      7  C1' N4B d   1       4.387   5.011  -5.718  0.00  0.00     0.057 C 
BRANCH   7   8
ATOM      8  C2' N4B d   1       4.951   3.600  -5.853  0.00  0.00     0.009 C 
BRANCH   8   9
ATOM      9  C3' N4B d   1       4.665   2.753  -4.625  0.00  0.00     0.004 C 
ATOM     10  C4' N4B d   1       3.995   1.453  -4.958  0.00  0.00     0.003 C 
ENDBRANCH   8   9
ENDBRANCH   7   8
ENDBRANCH   1   7
TORSDOF 3
ENDMDL
