MODEL 1
REMARK minimizedAffinity 6.80148315
REMARK minimizedRMSD -1
REMARK  3 active torsions:
REMARK  status: ('A' for Active; 'I' for Inactive)
REMARK    1  A    between atoms: C3'_2  and  C2'_3 
REMARK    2  A    between atoms: C2'_3  and  C1'_4 
REMARK    3  A    between atoms: C1'_4  and  C1_5 
ROOT
ATOM      1  C1  N4B d   1       3.505   3.549  -5.847  0.00  0.00    -0.075 A 
ATOM      2  C2  N4B d   1       4.904   3.741  -5.854  0.00  0.00     0.002 A 
ATOM      3  C3  N4B d   1       5.746   2.659  -5.778  0.00  0.00     0.002 A 
ATOM      4  C4  N4B d   1       5.214   1.382  -5.676  0.00  0.00    -0.004 A 
ATOM      5  C5  N4B d   1       3.862   1.203  -5.695  0.00  0.00     0.002 A 
ATOM      6  C6  N4B d   1       3.004   2.282  -5.775  0.00  0.00     0.002 A 
ENDROOT
BRANCH   1   7
ATOM      7  C1' N4B d   1       2.544   4.707  -5.841  0.00  0.00     0.057 C 
BRANCH   7   8
ATOM      8  C2' N4B d   1       1.116   4.172  -5.820  0.00  0.00     0.009 C 
BRANCH   8   9
ATOM      9  C3' N4B d   1       0.133   5.197  -5.279  0.00  0.00     0.004 C 
ATOM     10  C4' N4B d   1      -1.181   5.178  -6.000  0.00  0.00     0.003 C 
ENDBRANCH   8   9
ENDBRANCH   7   8
ENDBRANCH   1   7
TORSDOF 3
ENDMDL
