MODEL 1
REMARK minimizedAffinity -0.564678431
REMARK minimizedRMSD -1
REMARK  3 active torsions:
REMARK  status: ('A' for Active; 'I' for Inactive)
REMARK    1  A    between atoms: C3'_2  and  C2'_3 
REMARK    2  A    between atoms: C2'_3  and  C1'_4 
REMARK    3  A    between atoms: C1'_4  and  C1_5 
ROOT
ATOM      1  C1  N4B d   1       3.267   4.287  -5.935  0.00  0.00    -0.075 A 
ATOM      2  C2  N4B d   1       2.896   5.650  -5.905  0.00  0.00     0.002 A 
ATOM      3  C3  N4B d   1       1.568   6.000  -5.927  0.00  0.00     0.002 A 
ATOM      4  C4  N4B d   1       0.599   5.011  -5.997  0.00  0.00    -0.004 A 
ATOM      5  C5  N4B d   1       0.965   3.696  -5.999  0.00  0.00     0.002 A 
ATOM      6  C6  N4B d   1       2.296   3.330  -5.974  0.00  0.00     0.002 A 
ENDROOT
BRANCH   1   7
ATOM      7  C1' N4B d   1       4.707   3.858  -5.999  0.00  0.00     0.057 C 
BRANCH   7   8
ATOM      8  C2' N4B d   1       4.801   2.369  -5.679  0.00  0.00     0.009 C 
BRANCH   8   9
ATOM      9  C3' N4B d   1       4.157   2.033  -4.345  0.00  0.00     0.004 C 
ATOM     10  C4' N4B d   1       4.694   0.770  -3.742  0.00  0.00     0.003 C 
ENDBRANCH   8   9
ENDBRANCH   7   8
ENDBRANCH   1   7
TORSDOF 3
ENDMDL
