MODEL 1
REMARK minimizedAffinity 6.01320648
REMARK minimizedRMSD -1
REMARK  3 active torsions:
REMARK  status: ('A' for Active; 'I' for Inactive)
REMARK    1  A    between atoms: C3'_2  and  C2'_3 
REMARK    2  A    between atoms: C2'_3  and  C1'_4 
REMARK    3  A    between atoms: C1'_4  and  C1_5 
ROOT
ATOM      1  C1  N4B d   1       2.734   3.262  -5.759  0.00  0.00    -0.075 A 
ATOM      2  C2  N4B d   1       1.886   4.387  -5.856  0.00  0.00     0.002 A 
ATOM      3  C3  N4B d   1       2.425   5.644  -5.980  0.00  0.00     0.002 A 
ATOM      4  C4  N4B d   1       3.803   5.802  -5.988  0.00  0.00    -0.004 A 
ATOM      5  C5  N4B d   1       4.615   4.708  -5.919  0.00  0.00     0.002 A 
ATOM      6  C6  N4B d   1       4.087   3.438  -5.799  0.00  0.00     0.002 A 
ENDROOT
BRANCH   1   7
ATOM      7  C1' N4B d   1       2.192   1.877  -5.536  0.00  0.00     0.057 C 
BRANCH   7   8
ATOM      8  C2' N4B d   1       3.344   0.876  -5.574  0.00  0.00     0.009 C 
BRANCH   8   9
ATOM      9  C3' N4B d   1       2.929  -0.487  -5.048  0.00  0.00     0.004 C 
ATOM     10  C4' N4B d   1       1.578  -0.913  -5.540  0.00  0.00     0.003 C 
ENDBRANCH   8   9
ENDBRANCH   7   8
ENDBRANCH   1   7
TORSDOF 3
ENDMDL
