MODEL 1
REMARK minimizedAffinity -1.90091407
REMARK minimizedRMSD -1
REMARK  3 active torsions:
REMARK  status: ('A' for Active; 'I' for Inactive)
REMARK    1  A    between atoms: C3'_2  and  C2'_3 
REMARK    2  A    between atoms: C2'_3  and  C1'_4 
REMARK    3  A    between atoms: C1'_4  and  C1_5 
ROOT
ATOM      1  C1  N4B d   1       3.219   0.858   2.012  0.00  0.00    -0.075 A 
ATOM      2  C2  N4B d   1       3.565   2.167   1.613  0.00  0.00     0.002 A 
ATOM      3  C3  N4B d   1       4.884   2.551   1.588  0.00  0.00     0.002 A 
ATOM      4  C4  N4B d   1       5.867   1.653   1.973  0.00  0.00    -0.004 A 
ATOM      5  C5  N4B d   1       5.526   0.382   2.333  0.00  0.00     0.002 A 
ATOM      6  C6  N4B d   1       4.205  -0.019   2.360  0.00  0.00     0.002 A 
ENDROOT
BRANCH   1   7
ATOM      7  C1' N4B d   1       1.785   0.419   2.139  0.00  0.00     0.057 C 
BRANCH   7   8
ATOM      8  C2' N4B d   1       1.096   1.260   3.209  0.00  0.00     0.009 C 
BRANCH   8   9
ATOM      9  C3' N4B d   1       1.070   0.557   4.555  0.00  0.00     0.004 C 
ATOM     10  C4' N4B d   1      -0.313   0.148   4.969  0.00  0.00     0.003 C 
ENDBRANCH   8   9
ENDBRANCH   7   8
ENDBRANCH   1   7
TORSDOF 3
ENDMDL
