MODEL 1
REMARK minimizedAffinity 2.47525001
REMARK minimizedRMSD -1
REMARK  3 active torsions:
REMARK  status: ('A' for Active; 'I' for Inactive)
REMARK    1  A    between atoms: C3'_2  and  C2'_3 
REMARK    2  A    between atoms: C2'_3  and  C1'_4 
REMARK    3  A    between atoms: C1'_4  and  C1_5 
ROOT
ATOM      1  C1  N4B d   1       3.837   2.485  -5.012  0.00  0.00    -0.075 A 
ATOM      2  C2  N4B d   1       2.495   2.896  -5.164  0.00  0.00     0.002 A 
ATOM      3  C3  N4B d   1       2.212   4.143  -5.665  0.00  0.00     0.002 A 
ATOM      4  C4  N4B d   1       3.249   5.000  -6.000  0.00  0.00    -0.004 A 
ATOM      5  C5  N4B d   1       4.543   4.586  -5.874  0.00  0.00     0.002 A 
ATOM      6  C6  N4B d   1       4.843   3.333  -5.376  0.00  0.00     0.002 A 
ENDROOT
BRANCH   1   7
ATOM      7  C1' N4B d   1       4.198   1.164  -4.389  0.00  0.00     0.057 C 
BRANCH   7   8
ATOM      8  C2' N4B d   1       4.116   1.288  -2.870  0.00  0.00     0.009 C 
BRANCH   8   9
ATOM      9  C3' N4B d   1       4.883   0.180  -2.168  0.00  0.00     0.004 C 
ATOM     10  C4' N4B d   1       5.996  -0.377  -3.005  0.00  0.00     0.003 C 
ENDBRANCH   8   9
ENDBRANCH   7   8
ENDBRANCH   1   7
TORSDOF 3
ENDMDL
