MODEL 1
REMARK minimizedAffinity 3.64447069
REMARK minimizedRMSD -1
REMARK  3 active torsions:
REMARK  status: ('A' for Active; 'I' for Inactive)
REMARK    1  A    between atoms: C3'_2  and  C2'_3 
REMARK    2  A    between atoms: C2'_3  and  C1'_4 
REMARK    3  A    between atoms: C1'_4  and  C1_5 
ROOT
ATOM      1  C1  N4B d   1       2.889   4.703  -5.864  0.00  0.00    -0.075 A 
ATOM      2  C2  N4B d   1       2.120   3.554  -5.577  0.00  0.00     0.002 A 
ATOM      3  C3  N4B d   1       0.759   3.658  -5.426  0.00  0.00     0.002 A 
ATOM      4  C4  N4B d   1       0.150   4.899  -5.539  0.00  0.00    -0.004 A 
ATOM      5  C5  N4B d   1       0.896   6.000  -5.842  0.00  0.00     0.002 A 
ATOM      6  C6  N4B d   1       2.264   5.909  -6.000  0.00  0.00     0.002 A 
ENDROOT
BRANCH   1   7
ATOM      7  C1' N4B d   1       4.390   4.653  -5.952  0.00  0.00     0.057 C 
BRANCH   7   8
ATOM      8  C2' N4B d   1       4.848   3.200  -5.871  0.00  0.00     0.009 C 
BRANCH   8   9
ATOM      9  C3' N4B d   1       4.537   2.581  -4.518  0.00  0.00     0.004 C 
ATOM     10  C4' N4B d   1       4.134   1.140  -4.618  0.00  0.00     0.003 C 
ENDBRANCH   8   9
ENDBRANCH   7   8
ENDBRANCH   1   7
TORSDOF 3
ENDMDL
