MODEL 1
REMARK minimizedAffinity 5.16936445
REMARK minimizedRMSD -1
REMARK  3 active torsions:
REMARK  status: ('A' for Active; 'I' for Inactive)
REMARK    1  A    between atoms: C3'_2  and  C2'_3 
REMARK    2  A    between atoms: C2'_3  and  C1'_4 
REMARK    3  A    between atoms: C1'_4  and  C1_5 
ROOT
ATOM      1  C1  N4B d   1       3.204   4.799  -5.907  0.00  0.00    -0.075 A 
ATOM      2  C2  N4B d   1       2.480   3.587  -5.945  0.00  0.00     0.002 A 
ATOM      3  C3  N4B d   1       1.108   3.609  -5.997  0.00  0.00     0.002 A 
ATOM      4  C4  N4B d   1       0.441   4.825  -5.993  0.00  0.00    -0.004 A 
ATOM      5  C5  N4B d   1       1.149   5.991  -5.982  0.00  0.00     0.002 A 
ATOM      6  C6  N4B d   1       2.528   5.984  -5.933  0.00  0.00     0.002 A 
ENDROOT
BRANCH   1   7
ATOM      7  C1' N4B d   1       4.702   4.825  -5.762  0.00  0.00     0.057 C 
BRANCH   7   8
ATOM      8  C2' N4B d   1       5.237   3.398  -5.838  0.00  0.00     0.009 C 
BRANCH   8   9
ATOM      9  C3' N4B d   1       4.752   2.547  -4.678  0.00  0.00     0.004 C 
ATOM     10  C4' N4B d   1       4.336   1.170  -5.102  0.00  0.00     0.003 C 
ENDBRANCH   8   9
ENDBRANCH   7   8
ENDBRANCH   1   7
TORSDOF 3
ENDMDL
