MODEL 1
REMARK minimizedAffinity 2.70887256
REMARK minimizedRMSD -1
REMARK  3 active torsions:
REMARK  status: ('A' for Active; 'I' for Inactive)
REMARK    1  A    between atoms: C3'_2  and  C2'_3 
REMARK    2  A    between atoms: C2'_3  and  C1'_4 
REMARK    3  A    between atoms: C1'_4  and  C1_5 
ROOT
ATOM      1  C1  N4B d   1       3.766   4.002  -5.899  0.00  0.00    -0.075 A 
ATOM      2  C2  N4B d   1       3.129   2.741  -5.913  0.00  0.00     0.002 A 
ATOM      3  C3  N4B d   1       3.880   1.592  -5.952  0.00  0.00     0.002 A 
ATOM      4  C4  N4B d   1       5.263   1.679  -5.997  0.00  0.00    -0.004 A 
ATOM      5  C5  N4B d   1       5.872   2.899  -5.958  0.00  0.00     0.002 A 
ATOM      6  C6  N4B d   1       5.129   4.062  -5.915  0.00  0.00     0.002 A 
ENDROOT
BRANCH   1   7
ATOM      7  C1' N4B d   1       2.985   5.287  -5.944  0.00  0.00     0.057 C 
BRANCH   7   8
ATOM      8  C2' N4B d   1       2.186   5.432  -4.652  0.00  0.00     0.009 C 
BRANCH   8   9
ATOM      9  C3' N4B d   1       0.934   4.572  -4.659  0.00  0.00     0.004 C 
ATOM     10  C4' N4B d   1       0.236   4.574  -5.987  0.00  0.00     0.003 C 
ENDBRANCH   8   9
ENDBRANCH   7   8
ENDBRANCH   1   7
TORSDOF 3
ENDMDL
