MODEL 1
REMARK minimizedAffinity 6.24759007
REMARK minimizedRMSD -1
REMARK  3 active torsions:
REMARK  status: ('A' for Active; 'I' for Inactive)
REMARK    1  A    between atoms: C3'_2  and  C2'_3 
REMARK    2  A    between atoms: C2'_3  and  C1'_4 
REMARK    3  A    between atoms: C1'_4  and  C1_5 
ROOT
ATOM      1  C1  N4B d   1      -1.619   4.078   0.479  0.00  0.00    -0.075 A 
ATOM      2  C2  N4B d   1      -2.656   3.896   1.421  0.00  0.00     0.002 A 
ATOM      3  C3  N4B d   1      -2.376   3.362   2.655  0.00  0.00     0.002 A 
ATOM      4  C4  N4B d   1      -1.077   2.985   2.960  0.00  0.00    -0.004 A 
ATOM      5  C5  N4B d   1      -0.077   3.187   2.054  0.00  0.00     0.002 A 
ATOM      6  C6  N4B d   1      -0.343   3.727   0.812  0.00  0.00     0.002 A 
ENDROOT
BRANCH   1   7
ATOM      7  C1' N4B d   1      -1.891   4.578  -0.914  0.00  0.00     0.057 C 
BRANCH   7   8
ATOM      8  C2' N4B d   1      -2.452   5.995  -0.836  0.00  0.00     0.009 C 
BRANCH   8   9
ATOM      9  C3' N4B d   1      -3.948   6.000  -0.572  0.00  0.00     0.004 C 
ATOM     10  C4' N4B d   1      -4.760   5.999  -1.832  0.00  0.00     0.003 C 
ENDBRANCH   8   9
ENDBRANCH   7   8
ENDBRANCH   1   7
TORSDOF 3
ENDMDL
