MODEL 1
REMARK minimizedAffinity 3.22745824
REMARK minimizedRMSD -1
REMARK  3 active torsions:
REMARK  status: ('A' for Active; 'I' for Inactive)
REMARK    1  A    between atoms: C3'_2  and  C2'_3 
REMARK    2  A    between atoms: C2'_3  and  C1'_4 
REMARK    3  A    between atoms: C1'_4  and  C1_5 
ROOT
ATOM      1  C1  N4B d   1       2.384   1.096   1.810  0.00  0.00    -0.075 A 
ATOM      2  C2  N4B d   1       2.143   2.391   1.301  0.00  0.00     0.002 A 
ATOM      3  C3  N4B d   1       1.009   3.073   1.667  0.00  0.00     0.002 A 
ATOM      4  C4  N4B d   1       0.096   2.476   2.523  0.00  0.00    -0.004 A 
ATOM      5  C5  N4B d   1       0.348   1.235   3.031  0.00  0.00     0.002 A 
ATOM      6  C6  N4B d   1       1.485   0.539   2.674  0.00  0.00     0.002 A 
ENDROOT
BRANCH   1   7
ATOM      7  C1' N4B d   1       3.566   0.277   1.372  0.00  0.00     0.057 C 
BRANCH   7   8
ATOM      8  C2' N4B d   1       4.728   0.522   2.329  0.00  0.00     0.009 C 
BRANCH   8   9
ATOM      9  C3' N4B d   1       5.799   1.405   1.711  0.00  0.00     0.004 C 
ATOM     10  C4' N4B d   1       5.745   2.818   2.209  0.00  0.00     0.003 C 
ENDBRANCH   8   9
ENDBRANCH   7   8
ENDBRANCH   1   7
TORSDOF 3
ENDMDL
