MODEL 1
REMARK minimizedAffinity 9.33130264
REMARK minimizedRMSD -1
REMARK  3 active torsions:
REMARK  status: ('A' for Active; 'I' for Inactive)
REMARK    1  A    between atoms: C3'_2  and  C2'_3 
REMARK    2  A    between atoms: C2'_3  and  C1'_4 
REMARK    3  A    between atoms: C1'_4  and  C1_5 
ROOT
ATOM      1  C1  N4B d   1       3.471   1.204  -5.747  0.00  0.00    -0.075 A 
ATOM      2  C2  N4B d   1       2.283   0.482  -5.997  0.00  0.00     0.002 A 
ATOM      3  C3  N4B d   1       2.259  -0.881  -5.829  0.00  0.00     0.002 A 
ATOM      4  C4  N4B d   1       3.411  -1.543  -5.431  0.00  0.00    -0.004 A 
ATOM      5  C5  N4B d   1       4.547  -0.836  -5.167  0.00  0.00     0.002 A 
ATOM      6  C6  N4B d   1       4.584   0.535  -5.328  0.00  0.00     0.002 A 
ENDROOT
BRANCH   1   7
ATOM      7  C1' N4B d   1       3.569   2.683  -5.999  0.00  0.00     0.057 C 
BRANCH   7   8
ATOM      8  C2' N4B d   1       2.233   3.339  -5.662  0.00  0.00     0.009 C 
BRANCH   8   9
ATOM      9  C3' N4B d   1       2.342   4.853  -5.606  0.00  0.00     0.004 C 
ATOM     10  C4' N4B d   1       3.752   5.340  -5.756  0.00  0.00     0.003 C 
ENDBRANCH   8   9
ENDBRANCH   7   8
ENDBRANCH   1   7
TORSDOF 3
ENDMDL
