MODEL 1
REMARK minimizedAffinity 3.41840577
REMARK minimizedRMSD -1
REMARK  0 active torsions:
REMARK  status: ('A' for Active; 'I' for Inactive)
ROOT
ATOM      1  C   UNL d   1      -3.432  -3.741  -0.111  0.00  0.00     0.023 A 
ATOM      2  C1  UNL d   1      -3.686  -2.404   0.193  0.00  0.00     0.003 A 
ATOM      3  C2  UNL d   1      -2.745  -1.423  -0.124  0.00  0.00     0.048 A 
ATOM      4  C3  UNL d   1      -1.551  -1.786  -0.748  0.00  0.00     0.023 A 
ATOM      5  C4  UNL d   1      -1.293  -3.123  -1.055  0.00  0.00     0.048 A 
ATOM      6  C5  UNL d   1      -2.237  -4.100  -0.735  0.00  0.00     0.003 A 
ATOM      7  I   UNL d   1      -0.148  -0.328  -1.222  0.00  0.00    -0.146 I 
ENDROOT
TORSDOF 0
ENDMDL
