MODEL 1
REMARK minimizedAffinity 3.39749336
REMARK minimizedRMSD -1
REMARK  0 active torsions:
REMARK  status: ('A' for Active; 'I' for Inactive)
ROOT
ATOM      1  C   UNL d   1      -3.592  -2.135  -0.018  0.00  0.00     0.023 A 
ATOM      2  C1  UNL d   1      -2.854  -2.594  -1.108  0.00  0.00     0.003 A 
ATOM      3  C2  UNL d   1      -1.635  -1.993  -1.431  0.00  0.00     0.048 A 
ATOM      4  C3  UNL d   1      -1.161  -0.933  -0.659  0.00  0.00     0.023 A 
ATOM      5  C4  UNL d   1      -1.897  -0.471   0.433  0.00  0.00     0.048 A 
ATOM      6  C5  UNL d   1      -3.114  -1.074   0.752  0.00  0.00     0.003 A 
ATOM      7  I   UNL d   1       0.652  -0.037  -1.138  0.00  0.00    -0.146 I 
ENDROOT
TORSDOF 0
ENDMDL
