MODEL 1
REMARK minimizedAffinity 1.24269545
REMARK minimizedRMSD -1
REMARK  0 active torsions:
REMARK  status: ('A' for Active; 'I' for Inactive)
ROOT
ATOM      1  C   UNL d   1      -3.570  -2.522  -0.405  0.00  0.00     0.023 A 
ATOM      2  C1  UNL d   1      -3.379  -1.355   0.335  0.00  0.00     0.003 A 
ATOM      3  C2  UNL d   1      -2.225  -0.591   0.149  0.00  0.00     0.048 A 
ATOM      4  C3  UNL d   1      -1.268  -0.998  -0.779  0.00  0.00     0.023 A 
ATOM      5  C4  UNL d   1      -1.456  -2.165  -1.523  0.00  0.00     0.048 A 
ATOM      6  C5  UNL d   1      -2.610  -2.926  -1.333  0.00  0.00     0.003 A 
ATOM      7  I   UNL d   1       0.450   0.138  -1.058  0.00  0.00    -0.146 I 
ENDROOT
TORSDOF 0
ENDMDL
