MODEL 1
REMARK minimizedAffinity -1.51516008
REMARK minimizedRMSD -1
REMARK  0 active torsions:
REMARK  status: ('A' for Active; 'I' for Inactive)
ROOT
ATOM      1  C   UNL d   1      -3.798  -2.506  -0.229  0.00  0.00     0.023 A 
ATOM      2  C1  UNL d   1      -2.912  -2.993  -1.191  0.00  0.00     0.003 A 
ATOM      3  C2  UNL d   1      -1.647  -2.419  -1.331  0.00  0.00     0.048 A 
ATOM      4  C3  UNL d   1      -1.273  -1.360  -0.506  0.00  0.00     0.023 A 
ATOM      5  C4  UNL d   1      -2.155  -0.869   0.458  0.00  0.00     0.048 A 
ATOM      6  C5  UNL d   1      -3.419  -1.445   0.594  0.00  0.00     0.003 A 
ATOM      7  I   UNL d   1       0.610  -0.505  -0.713  0.00  0.00    -0.146 I 
ENDROOT
TORSDOF 0
ENDMDL
