MODEL 1
REMARK minimizedAffinity -0.805690646
REMARK minimizedRMSD -1
REMARK  0 active torsions:
REMARK  status: ('A' for Active; 'I' for Inactive)
ROOT
ATOM      1  C   UNL d   1      -3.919  -1.988   0.242  0.00  0.00     0.023 A 
ATOM      2  C1  UNL d   1      -3.241  -2.398  -0.907  0.00  0.00     0.003 A 
ATOM      3  C2  UNL d   1      -1.980  -1.873  -1.199  0.00  0.00     0.048 A 
ATOM      4  C3  UNL d   1      -1.402  -0.941  -0.338  0.00  0.00     0.023 A 
ATOM      5  C4  UNL d   1      -2.077  -0.529   0.813  0.00  0.00     0.048 A 
ATOM      6  C5  UNL d   1      -3.337  -1.055   1.100  0.00  0.00     0.003 A 
ATOM      7  I   UNL d   1       0.474  -0.159  -0.771  0.00  0.00    -0.146 I 
ENDROOT
TORSDOF 0
ENDMDL
