MODEL 1
REMARK minimizedAffinity 1.72569406
REMARK minimizedRMSD -1
REMARK  0 active torsions:
REMARK  status: ('A' for Active; 'I' for Inactive)
ROOT
ATOM      1  C   UNL d   1      -2.723  -2.712   0.375  0.00  0.00     0.023 A 
ATOM      2  C1  UNL d   1      -2.072  -3.479  -0.591  0.00  0.00     0.003 A 
ATOM      3  C2  UNL d   1      -1.471  -2.859  -1.688  0.00  0.00     0.048 A 
ATOM      4  C3  UNL d   1      -1.523  -1.472  -1.813  0.00  0.00     0.023 A 
ATOM      5  C4  UNL d   1      -2.173  -0.700  -0.848  0.00  0.00     0.048 A 
ATOM      6  C5  UNL d   1      -2.774  -1.324   0.247  0.00  0.00     0.003 A 
ATOM      7  I   UNL d   1      -0.629  -0.546  -3.445  0.00  0.00    -0.146 I 
ENDROOT
TORSDOF 0
ENDMDL
