MODEL 1
REMARK minimizedAffinity 2.91152906
REMARK minimizedRMSD -1
REMARK  0 active torsions:
REMARK  status: ('A' for Active; 'I' for Inactive)
ROOT
ATOM      1  C   UNL d   1      -2.800  -1.947  -0.887  0.00  0.00     0.023 A 
ATOM      2  C1  UNL d   1      -2.188  -1.694  -2.115  0.00  0.00     0.003 A 
ATOM      3  C2  UNL d   1      -0.922  -1.107  -2.158  0.00  0.00     0.048 A 
ATOM      4  C3  UNL d   1      -0.272  -0.777  -0.969  0.00  0.00     0.023 A 
ATOM      5  C4  UNL d   1      -0.879  -1.030   0.262  0.00  0.00     0.048 A 
ATOM      6  C5  UNL d   1      -2.146  -1.616   0.300  0.00  0.00     0.003 A 
ATOM      7  I   UNL d   1       1.613   0.096  -1.030  0.00  0.00    -0.146 I 
ENDROOT
TORSDOF 0
ENDMDL
