MODEL 1
REMARK minimizedAffinity -3.43842912
REMARK minimizedRMSD -1
REMARK  0 active torsions:
REMARK  status: ('A' for Active; 'I' for Inactive)
ROOT
ATOM      1  C   UNL d   1      -5.754   5.981   3.316  0.00  0.00     0.023 A 
ATOM      2  C1  UNL d   1      -5.997   5.999   4.689  0.00  0.00     0.003 A 
ATOM      3  C2  UNL d   1      -5.737   4.865   5.461  0.00  0.00     0.048 A 
ATOM      4  C3  UNL d   1      -5.232   3.716   4.853  0.00  0.00     0.023 A 
ATOM      5  C4  UNL d   1      -4.986   3.693   3.479  0.00  0.00     0.048 A 
ATOM      6  C5  UNL d   1      -5.249   4.829   2.712  0.00  0.00     0.003 A 
ATOM      7  I   UNL d   1      -4.844   2.027   6.000  0.00  0.00    -0.146 I 
ENDROOT
TORSDOF 0
ENDMDL
