MODEL 1
REMARK minimizedAffinity -3.61702085
REMARK minimizedRMSD -1
REMARK  0 active torsions:
REMARK  status: ('A' for Active; 'I' for Inactive)
ROOT
ATOM      1  C   UNL d   1      -4.443   3.003   5.325  0.00  0.00     0.023 A 
ATOM      2  C1  UNL d   1      -3.741   4.149   4.950  0.00  0.00     0.003 A 
ATOM      3  C2  UNL d   1      -4.165   4.902   3.853  0.00  0.00     0.048 A 
ATOM      4  C3  UNL d   1      -5.293   4.504   3.137  0.00  0.00     0.023 A 
ATOM      5  C4  UNL d   1      -6.000   3.359   3.509  0.00  0.00     0.048 A 
ATOM      6  C5  UNL d   1      -5.571   2.609   4.605  0.00  0.00     0.003 A 
ATOM      7  I   UNL d   1      -5.927   5.624   1.504  0.00  0.00    -0.146 I 
ENDROOT
TORSDOF 0
ENDMDL
