MODEL 1
REMARK minimizedAffinity -1.57482314
REMARK minimizedRMSD -1
REMARK  0 active torsions:
REMARK  status: ('A' for Active; 'I' for Inactive)
ROOT
ATOM      1  C   UNL d   1      -5.476   5.248   1.491  0.00  0.00     0.023 A 
ATOM      2  C1  UNL d   1      -4.967   3.970   1.719  0.00  0.00     0.003 A 
ATOM      3  C2  UNL d   1      -4.971   3.435   3.009  0.00  0.00     0.048 A 
ATOM      4  C3  UNL d   1      -5.488   4.183   4.066  0.00  0.00     0.023 A 
ATOM      5  C4  UNL d   1      -6.000   5.462   3.842  0.00  0.00     0.048 A 
ATOM      6  C5  UNL d   1      -5.992   5.993   2.551  0.00  0.00     0.003 A 
ATOM      7  I   UNL d   1      -5.497   3.389   5.986  0.00  0.00    -0.146 I 
ENDROOT
TORSDOF 0
ENDMDL
