MODEL 1
REMARK minimizedAffinity -3.28911495
REMARK minimizedRMSD -1
REMARK  0 active torsions:
REMARK  status: ('A' for Active; 'I' for Inactive)
ROOT
ATOM      1  C   UNL d   1      -4.523   3.762   5.999  0.00  0.00     0.023 A 
ATOM      2  C1  UNL d   1      -3.629   4.462   5.188  0.00  0.00     0.003 A 
ATOM      3  C2  UNL d   1      -3.901   4.627   3.828  0.00  0.00     0.048 A 
ATOM      4  C3  UNL d   1      -5.068   4.090   3.286  0.00  0.00     0.023 A 
ATOM      5  C4  UNL d   1      -5.965   3.390   4.094  0.00  0.00     0.048 A 
ATOM      6  C5  UNL d   1      -5.689   3.227   5.453  0.00  0.00     0.003 A 
ATOM      7  I   UNL d   1      -5.475   4.334   1.263  0.00  0.00    -0.146 I 
ENDROOT
TORSDOF 0
ENDMDL
