MODEL 1
REMARK minimizedAffinity -3.1739943
REMARK minimizedRMSD -1
REMARK  0 active torsions:
REMARK  status: ('A' for Active; 'I' for Inactive)
ROOT
ATOM      1  C   UNL d   1      -4.493   4.070   5.882  0.00  0.00     0.023 A 
ATOM      2  C1  UNL d   1      -3.640   3.877   4.795  0.00  0.00     0.003 A 
ATOM      3  C2  UNL d   1      -3.955   4.430   3.552  0.00  0.00     0.048 A 
ATOM      4  C3  UNL d   1      -5.124   5.176   3.403  0.00  0.00     0.023 A 
ATOM      5  C4  UNL d   1      -5.980   5.372   4.487  0.00  0.00     0.048 A 
ATOM      6  C5  UNL d   1      -5.661   4.817   5.728  0.00  0.00     0.003 A 
ATOM      7  I   UNL d   1      -5.594   6.000   1.553  0.00  0.00    -0.146 I 
ENDROOT
TORSDOF 0
ENDMDL
