MODEL 1
REMARK minimizedAffinity -2.48685622
REMARK minimizedRMSD -1
REMARK  0 active torsions:
REMARK  status: ('A' for Active; 'I' for Inactive)
ROOT
ATOM      1  C   UNL d   1      -5.438   2.244   4.937  0.00  0.00     0.023 A 
ATOM      2  C1  UNL d   1      -5.992   3.494   5.213  0.00  0.00     0.003 A 
ATOM      3  C2  UNL d   1      -5.997   4.489   4.233  0.00  0.00     0.048 A 
ATOM      4  C3  UNL d   1      -5.447   4.227   2.979  0.00  0.00     0.023 A 
ATOM      5  C4  UNL d   1      -4.892   2.978   2.698  0.00  0.00     0.048 A 
ATOM      6  C5  UNL d   1      -4.888   1.986   3.682  0.00  0.00     0.003 A 
ATOM      7  I   UNL d   1      -5.453   5.706   1.519  0.00  0.00    -0.146 I 
ENDROOT
TORSDOF 0
ENDMDL
