MODEL 1
REMARK minimizedAffinity -2.97453594
REMARK minimizedRMSD -1
REMARK  0 active torsions:
REMARK  status: ('A' for Active; 'I' for Inactive)
ROOT
ATOM      1  C   UNL d   1      -5.371   5.682   2.187  0.00  0.00     0.023 A 
ATOM      2  C1  UNL d   1      -4.626   4.510   2.057  0.00  0.00     0.003 A 
ATOM      3  C2  UNL d   1      -4.473   3.654   3.150  0.00  0.00     0.048 A 
ATOM      4  C3  UNL d   1      -5.069   3.975   4.369  0.00  0.00     0.023 A 
ATOM      5  C4  UNL d   1      -5.816   5.147   4.503  0.00  0.00     0.048 A 
ATOM      6  C5  UNL d   1      -5.965   6.000   3.408  0.00  0.00     0.003 A 
ATOM      7  I   UNL d   1      -4.842   2.703   5.996  0.00  0.00    -0.146 I 
ENDROOT
TORSDOF 0
ENDMDL
