MODEL 1
REMARK minimizedAffinity -1.49272335
REMARK minimizedRMSD -1
REMARK  0 active torsions:
REMARK  status: ('A' for Active; 'I' for Inactive)
ROOT
ATOM      1  C   UNL d   1      -5.985   4.828   6.000  0.00  0.00     0.023 A 
ATOM      2  C1  UNL d   1      -5.855   3.585   5.380  0.00  0.00     0.003 A 
ATOM      3  C2  UNL d   1      -5.739   3.505   3.991  0.00  0.00     0.048 A 
ATOM      4  C3  UNL d   1      -5.752   4.672   3.228  0.00  0.00     0.023 A 
ATOM      5  C4  UNL d   1      -5.881   5.918   3.843  0.00  0.00     0.048 A 
ATOM      6  C5  UNL d   1      -5.998   5.993   5.232  0.00  0.00     0.003 A 
ATOM      7  I   UNL d   1      -5.580   4.555   1.160  0.00  0.00    -0.146 I 
ENDROOT
TORSDOF 0
ENDMDL
