MODEL 1
REMARK minimizedAffinity -0.702695966
REMARK minimizedRMSD -1
REMARK  0 active torsions:
REMARK  status: ('A' for Active; 'I' for Inactive)
ROOT
ATOM      1  C   UNL d   1      -5.985   4.089   4.602  0.00  0.00     0.023 A 
ATOM      2  C1  UNL d   1      -5.970   3.221   3.509  0.00  0.00     0.003 A 
ATOM      3  C2  UNL d   1      -5.967   3.733   2.210  0.00  0.00     0.048 A 
ATOM      4  C3  UNL d   1      -5.978   5.113   2.010  0.00  0.00     0.023 A 
ATOM      5  C4  UNL d   1      -5.992   5.985   3.100  0.00  0.00     0.048 A 
ATOM      6  C5  UNL d   1      -5.996   5.469   4.397  0.00  0.00     0.003 A 
ATOM      7  I   UNL d   1      -5.973   5.876   0.077  0.00  0.00    -0.146 I 
ENDROOT
TORSDOF 0
ENDMDL
