MODEL 1
REMARK minimizedAffinity -2.84666872
REMARK minimizedRMSD -1
REMARK  0 active torsions:
REMARK  status: ('A' for Active; 'I' for Inactive)
ROOT
ATOM      1  C   UNL d   1      -4.990   3.001   5.998  0.00  0.00     0.023 A 
ATOM      2  C1  UNL d   1      -4.133   2.723   4.934  0.00  0.00     0.003 A 
ATOM      3  C2  UNL d   1      -4.207   3.476   3.760  0.00  0.00     0.048 A 
ATOM      4  C3  UNL d   1      -5.140   4.507   3.658  0.00  0.00     0.023 A 
ATOM      5  C4  UNL d   1      -6.000   4.789   4.721  0.00  0.00     0.048 A 
ATOM      6  C5  UNL d   1      -5.923   4.033   5.892  0.00  0.00     0.003 A 
ATOM      7  I   UNL d   1      -5.253   5.629   1.913  0.00  0.00    -0.146 I 
ENDROOT
TORSDOF 0
ENDMDL
