MODEL 1
REMARK minimizedAffinity -3.3368423
REMARK minimizedRMSD -1
REMARK  0 active torsions:
REMARK  status: ('A' for Active; 'I' for Inactive)
ROOT
ATOM      1  C   UNL d   1      -4.950   5.322   1.722  0.00  0.00     0.023 A 
ATOM      2  C1  UNL d   1      -4.673   5.999   2.910  0.00  0.00     0.003 A 
ATOM      3  C2  UNL d   1      -4.876   5.368   4.138  0.00  0.00     0.048 A 
ATOM      4  C3  UNL d   1      -5.354   4.058   4.172  0.00  0.00     0.023 A 
ATOM      5  C4  UNL d   1      -5.632   3.376   2.986  0.00  0.00     0.048 A 
ATOM      6  C5  UNL d   1      -5.428   4.012   1.760  0.00  0.00     0.003 A 
ATOM      7  I   UNL d   1      -5.656   3.116   6.000  0.00  0.00    -0.146 I 
ENDROOT
TORSDOF 0
ENDMDL
