MODEL 1
REMARK minimizedAffinity -2.54272556
REMARK minimizedRMSD -1
REMARK  0 active torsions:
REMARK  status: ('A' for Active; 'I' for Inactive)
ROOT
ATOM      1  C   UNL d   1      -5.589   4.924   1.158  0.00  0.00     0.023 A 
ATOM      2  C1  UNL d   1      -5.978   3.716   1.736  0.00  0.00     0.003 A 
ATOM      3  C2  UNL d   1      -6.000   3.581   3.126  0.00  0.00     0.048 A 
ATOM      4  C3  UNL d   1      -5.633   4.658   3.931  0.00  0.00     0.023 A 
ATOM      5  C4  UNL d   1      -5.245   5.870   3.357  0.00  0.00     0.048 A 
ATOM      6  C5  UNL d   1      -5.223   6.000   1.967  0.00  0.00     0.003 A 
ATOM      7  I   UNL d   1      -5.666   4.460   6.000  0.00  0.00    -0.146 I 
ENDROOT
TORSDOF 0
ENDMDL
