MODEL 1
REMARK minimizedAffinity 9.59971523
REMARK minimizedRMSD -1
REMARK  0 active torsions:
REMARK  status: ('A' for Active; 'I' for Inactive)
ROOT
ATOM      1  C   UNL d   1       1.421   1.916   1.590  0.00  0.00     0.124 A 
ATOM      2  C1  UNL d   1       1.802   1.248   2.746  0.00  0.00     0.062 A 
ATOM      3  C2  UNL d   1       2.781   0.260   2.694  0.00  0.00     0.162 A 
ATOM      4  C3  UNL d   1       3.388  -0.066   1.481  0.00  0.00    -0.034 A 
ATOM      5  C4  UNL d   1       2.999   0.609   0.322  0.00  0.00     0.162 A 
ATOM      6  C5  UNL d   1       2.020   1.596   0.380  0.00  0.00     0.062 A 
ATOM      7  F   UNL d   1       1.654   2.239  -0.738  0.00  0.00    -0.097 F 
ATOM      8  F1  UNL d   1       3.562   0.320  -0.860  0.00  0.00    -0.096 F 
ATOM      9  I   UNL d   1       4.852  -1.543   1.399  0.00  0.00    -0.060 I 
ATOM     10  F2  UNL d   1       3.129  -0.368   3.827  0.00  0.00    -0.096 F 
ATOM     11  F3  UNL d   1       1.224   1.555   3.917  0.00  0.00    -0.097 F 
ATOM     12  F4  UNL d   1       0.479   2.865   1.643  0.00  0.00    -0.092 F 
ENDROOT
TORSDOF 0
ENDMDL
