MODEL 1
REMARK minimizedAffinity 12.9962673
REMARK minimizedRMSD -1
REMARK  0 active torsions:
REMARK  status: ('A' for Active; 'I' for Inactive)
ROOT
ATOM      1  C   UNL d   1       2.831  -4.433   3.477  0.00  0.00     0.124 A 
ATOM      2  C1  UNL d   1       2.115  -3.786   2.479  0.00  0.00     0.062 A 
ATOM      3  C2  UNL d   1       1.941  -2.406   2.527  0.00  0.00     0.162 A 
ATOM      4  C3  UNL d   1       2.484  -1.663   3.575  0.00  0.00    -0.034 A 
ATOM      5  C4  UNL d   1       3.202  -2.322   4.575  0.00  0.00     0.162 A 
ATOM      6  C5  UNL d   1       3.373  -3.701   4.523  0.00  0.00     0.062 A 
ATOM      7  F   UNL d   1       4.065  -4.325   5.488  0.00  0.00    -0.097 F 
ATOM      8  F1  UNL d   1       3.738  -1.638   5.597  0.00  0.00    -0.096 F 
ATOM      9  I   UNL d   1       2.225   0.401   3.649  0.00  0.00    -0.060 I 
ATOM     10  F2  UNL d   1       1.244  -1.806   1.549  0.00  0.00    -0.096 F 
ATOM     11  F3  UNL d   1       1.589  -4.491   1.468  0.00  0.00    -0.097 F 
ATOM     12  F4  UNL d   1       2.996  -5.762   3.429  0.00  0.00    -0.092 F 
ENDROOT
TORSDOF 0
ENDMDL
