MODEL 1
REMARK minimizedAffinity 25.5644875
REMARK minimizedRMSD -1
REMARK  0 active torsions:
REMARK  status: ('A' for Active; 'I' for Inactive)
ROOT
ATOM      1  C   UNL d   1      -3.127   0.683  -3.077  0.00  0.00     0.124 A 
ATOM      2  C1  UNL d   1      -2.943  -0.118  -1.958  0.00  0.00     0.062 A 
ATOM      3  C2  UNL d   1      -2.452   0.431  -0.777  0.00  0.00     0.162 A 
ATOM      4  C3  UNL d   1      -2.141   1.789  -0.708  0.00  0.00    -0.034 A 
ATOM      5  C4  UNL d   1      -2.327   2.588  -1.838  0.00  0.00     0.162 A 
ATOM      6  C5  UNL d   1      -2.819   2.034  -3.016  0.00  0.00     0.062 A 
ATOM      7  F   UNL d   1      -2.995   2.810  -4.096  0.00  0.00    -0.097 F 
ATOM      8  F1  UNL d   1      -2.039   3.897  -1.806  0.00  0.00    -0.096 F 
ATOM      9  I   UNL d   1      -1.406   2.613   1.055  0.00  0.00    -0.060 I 
ATOM     10  F2  UNL d   1      -2.284  -0.367   0.288  0.00  0.00    -0.096 F 
ATOM     11  F3  UNL d   1      -3.239  -1.425  -2.015  0.00  0.00    -0.097 F 
ATOM     12  F4  UNL d   1      -3.599   0.152  -4.212  0.00  0.00    -0.092 F 
ENDROOT
TORSDOF 0
ENDMDL
