MODEL 1
REMARK minimizedAffinity 12.541235
REMARK minimizedRMSD -1
REMARK  0 active torsions:
REMARK  status: ('A' for Active; 'I' for Inactive)
ROOT
ATOM      1  C   UNL d   1       1.824   2.297   1.528  0.00  0.00     0.124 A 
ATOM      2  C1  UNL d   1       2.429   1.370   0.691  0.00  0.00     0.062 A 
ATOM      3  C2  UNL d   1       1.651   0.539  -0.110  0.00  0.00     0.162 A 
ATOM      4  C3  UNL d   1       0.260   0.632  -0.079  0.00  0.00    -0.034 A 
ATOM      5  C4  UNL d   1      -0.341   1.567   0.766  0.00  0.00     0.162 A 
ATOM      6  C5  UNL d   1       0.440   2.395   1.564  0.00  0.00     0.062 A 
ATOM      7  F   UNL d   1      -0.145   3.291   2.372  0.00  0.00    -0.097 F 
ATOM      8  F1  UNL d   1      -1.676   1.683   0.820  0.00  0.00    -0.096 F 
ATOM      9  I   UNL d   1      -0.907  -0.609  -1.276  0.00  0.00    -0.060 I 
ATOM     10  F2  UNL d   1       2.262  -0.349  -0.909  0.00  0.00    -0.096 F 
ATOM     11  F3  UNL d   1       3.765   1.273   0.654  0.00  0.00    -0.097 F 
ATOM     12  F4  UNL d   1       2.575   3.095   2.298  0.00  0.00    -0.092 F 
ENDROOT
TORSDOF 0
ENDMDL
