MODEL 1
REMARK minimizedAffinity -0.789516568
REMARK minimizedRMSD -1
REMARK  0 active torsions:
REMARK  status: ('A' for Active; 'I' for Inactive)
ROOT
ATOM      1  C   UNL d   1      -1.748  -0.853  -0.268  0.00  0.00     0.124 A 
ATOM      2  C1  UNL d   1      -1.346  -0.399  -1.516  0.00  0.00     0.062 A 
ATOM      3  C2  UNL d   1      -0.126   0.255  -1.664  0.00  0.00     0.162 A 
ATOM      4  C3  UNL d   1       0.701   0.459  -0.560  0.00  0.00    -0.034 A 
ATOM      5  C4  UNL d   1       0.290   0.001   0.693  0.00  0.00     0.162 A 
ATOM      6  C5  UNL d   1      -0.930  -0.653   0.835  0.00  0.00     0.062 A 
ATOM      7  F   UNL d   1      -1.317  -1.090   2.043  0.00  0.00    -0.097 F 
ATOM      8  F1  UNL d   1       1.061   0.180   1.776  0.00  0.00    -0.096 F 
ATOM      9  I   UNL d   1       2.526   1.437  -0.776  0.00  0.00    -0.060 I 
ATOM     10  F2  UNL d   1       0.237   0.683  -2.882  0.00  0.00    -0.096 F 
ATOM     11  F3  UNL d   1      -2.134  -0.590  -2.584  0.00  0.00    -0.097 F 
ATOM     12  F4  UNL d   1      -2.922  -1.481  -0.128  0.00  0.00    -0.092 F 
ENDROOT
TORSDOF 0
ENDMDL
