MODEL 1
REMARK minimizedAffinity -0.0938760489
REMARK minimizedRMSD -1
REMARK  0 active torsions:
REMARK  status: ('A' for Active; 'I' for Inactive)
ROOT
ATOM      1  C   UNL d   1      -1.229  -1.345  -0.156  0.00  0.00     0.124 A 
ATOM      2  C1  UNL d   1      -0.169  -1.663   0.682  0.00  0.00     0.062 A 
ATOM      3  C2  UNL d   1       0.917  -0.801   0.794  0.00  0.00     0.162 A 
ATOM      4  C3  UNL d   1       0.950   0.389   0.067  0.00  0.00    -0.034 A 
ATOM      5  C4  UNL d   1      -0.119   0.702  -0.775  0.00  0.00     0.162 A 
ATOM      6  C5  UNL d   1      -1.203  -0.164  -0.884  0.00  0.00     0.062 A 
ATOM      7  F   UNL d   1      -2.225   0.145  -1.694  0.00  0.00    -0.097 F 
ATOM      8  F1  UNL d   1      -0.120   1.837  -1.488  0.00  0.00    -0.096 F 
ATOM      9  I   UNL d   1       2.573   1.681   0.233  0.00  0.00    -0.060 I 
ATOM     10  F2  UNL d   1       1.927  -1.133   1.612  0.00  0.00    -0.096 F 
ATOM     11  F3  UNL d   1      -0.192  -2.805   1.385  0.00  0.00    -0.097 F 
ATOM     12  F4  UNL d   1      -2.273  -2.177  -0.264  0.00  0.00    -0.092 F 
ENDROOT
TORSDOF 0
ENDMDL
