MODEL 1
REMARK minimizedAffinity -1.97109854
REMARK minimizedRMSD -1
REMARK  0 active torsions:
REMARK  status: ('A' for Active; 'I' for Inactive)
ROOT
ATOM      1  C   UNL d   1      -1.067  -0.285  -0.819  0.00  0.00     0.124 A 
ATOM      2  C1  UNL d   1      -1.414  -0.177   0.520  0.00  0.00     0.062 A 
ATOM      3  C2  UNL d   1      -0.510   0.349   1.438  0.00  0.00     0.162 A 
ATOM      4  C3  UNL d   1       0.751   0.773   1.019  0.00  0.00    -0.034 A 
ATOM      5  C4  UNL d   1       1.094   0.661  -0.329  0.00  0.00     0.162 A 
ATOM      6  C5  UNL d   1       0.187   0.134  -1.243  0.00  0.00     0.062 A 
ATOM      7  F   UNL d   1       0.524   0.031  -2.536  0.00  0.00    -0.097 F 
ATOM      8  F1  UNL d   1       2.298   1.060  -0.766  0.00  0.00    -0.096 F 
ATOM      9  I   UNL d   1       2.106   1.561   2.388  0.00  0.00    -0.060 I 
ATOM     10  F2  UNL d   1      -0.873   0.441   2.726  0.00  0.00    -0.096 F 
ATOM     11  F3  UNL d   1      -2.624  -0.583   0.932  0.00  0.00    -0.097 F 
ATOM     12  F4  UNL d   1      -1.938  -0.793  -1.700  0.00  0.00    -0.092 F 
ENDROOT
TORSDOF 0
ENDMDL
