MODEL 1
REMARK minimizedAffinity 0.0366952904
REMARK minimizedRMSD -1
REMARK  0 active torsions:
REMARK  status: ('A' for Active; 'I' for Inactive)
ROOT
ATOM      1  C   UNL d   1       2.615   2.083   0.554  0.00  0.00     0.124 A 
ATOM      2  C1  UNL d   1       2.804   0.718   0.383  0.00  0.00     0.062 A 
ATOM      3  C2  UNL d   1       1.714  -0.116   0.151  0.00  0.00     0.162 A 
ATOM      4  C3  UNL d   1       0.425   0.412   0.087  0.00  0.00    -0.034 A 
ATOM      5  C4  UNL d   1       0.242   1.785   0.261  0.00  0.00     0.162 A 
ATOM      6  C5  UNL d   1       1.335   2.615   0.492  0.00  0.00     0.062 A 
ATOM      7  F   UNL d   1       1.150   3.933   0.657  0.00  0.00    -0.097 F 
ATOM      8  F1  UNL d   1      -0.984   2.326   0.205  0.00  0.00    -0.096 F 
ATOM      9  I   UNL d   1      -1.207  -0.832  -0.260  0.00  0.00    -0.060 I 
ATOM     10  F2  UNL d   1       1.927  -1.430  -0.011  0.00  0.00    -0.096 F 
ATOM     11  F3  UNL d   1       4.040   0.202   0.443  0.00  0.00    -0.097 F 
ATOM     12  F4  UNL d   1       3.665   2.883   0.778  0.00  0.00    -0.092 F 
ENDROOT
TORSDOF 0
ENDMDL
