MODEL 1
REMARK minimizedAffinity 0.288732767
REMARK minimizedRMSD -1
REMARK  0 active torsions:
REMARK  status: ('A' for Active; 'I' for Inactive)
ROOT
ATOM      1  C   UNL d   1       0.631   0.043  -0.561  0.00  0.00     0.124 A 
ATOM      2  C1  UNL d   1       0.299  -0.495   0.675  0.00  0.00     0.062 A 
ATOM      3  C2  UNL d   1      -0.981  -0.993   0.901  0.00  0.00     0.162 A 
ATOM      4  C3  UNL d   1      -1.939  -0.955  -0.112  0.00  0.00    -0.034 A 
ATOM      5  C4  UNL d   1      -1.598  -0.412  -1.352  0.00  0.00     0.162 A 
ATOM      6  C5  UNL d   1      -0.318   0.084  -1.573  0.00  0.00     0.062 A 
ATOM      7  F   UNL d   1       0.001   0.604  -2.767  0.00  0.00    -0.097 F 
ATOM      8  F1  UNL d   1      -2.496  -0.360  -2.348  0.00  0.00    -0.096 F 
ATOM      9  I   UNL d   1      -3.855  -1.698   0.222  0.00  0.00    -0.060 I 
ATOM     10  F2  UNL d   1      -1.274  -1.507   2.104  0.00  0.00    -0.096 F 
ATOM     11  F3  UNL d   1       1.214  -0.535   1.654  0.00  0.00    -0.097 F 
ATOM     12  F4  UNL d   1       1.863   0.522  -0.775  0.00  0.00    -0.092 F 
ENDROOT
TORSDOF 0
ENDMDL
