MODEL 1
REMARK minimizedAffinity 1.42849314
REMARK minimizedRMSD -1
REMARK  0 active torsions:
REMARK  status: ('A' for Active; 'I' for Inactive)
ROOT
ATOM      1  C   UNL d   1       2.326   1.691   0.746  0.00  0.00     0.124 A 
ATOM      2  C1  UNL d   1       2.216   1.231  -0.559  0.00  0.00     0.062 A 
ATOM      3  C2  UNL d   1       1.064   0.569  -0.973  0.00  0.00     0.162 A 
ATOM      4  C3  UNL d   1       0.011   0.364  -0.081  0.00  0.00    -0.034 A 
ATOM      5  C4  UNL d   1       0.129   0.829   1.230  0.00  0.00     0.162 A 
ATOM      6  C5  UNL d   1       1.283   1.490   1.639  0.00  0.00     0.062 A 
ATOM      7  F   UNL d   1       1.388   1.934   2.900  0.00  0.00    -0.097 F 
ATOM      8  F1  UNL d   1      -0.864   0.649   2.113  0.00  0.00    -0.096 F 
ATOM      9  I   UNL d   1      -1.713  -0.625  -0.696  0.00  0.00    -0.060 I 
ATOM     10  F2  UNL d   1       0.985   0.135  -2.239  0.00  0.00    -0.096 F 
ATOM     11  F3  UNL d   1       3.223   1.424  -1.423  0.00  0.00    -0.097 F 
ATOM     12  F4  UNL d   1       3.436   2.327   1.142  0.00  0.00    -0.092 F 
ENDROOT
TORSDOF 0
ENDMDL
