MODEL 1
REMARK minimizedAffinity -0.918781877
REMARK minimizedRMSD -1
REMARK  0 active torsions:
REMARK  status: ('A' for Active; 'I' for Inactive)
ROOT
ATOM      1  C   UNL d   1      -0.657  -0.959   1.852  0.00  0.00     0.124 A 
ATOM      2  C1  UNL d   1       0.659  -1.360   2.031  0.00  0.00     0.062 A 
ATOM      3  C2  UNL d   1       1.689  -0.697   1.370  0.00  0.00     0.162 A 
ATOM      4  C3  UNL d   1       1.407   0.377   0.525  0.00  0.00    -0.034 A 
ATOM      5  C4  UNL d   1       0.080   0.774   0.350  0.00  0.00     0.162 A 
ATOM      6  C5  UNL d   1      -0.946   0.107   1.012  0.00  0.00     0.062 A 
ATOM      7  F   UNL d   1      -2.217   0.496   0.838  0.00  0.00    -0.097 F 
ATOM      8  F1  UNL d   1      -0.227   1.802  -0.455  0.00  0.00    -0.096 F 
ATOM      9  I   UNL d   1       2.944   1.372  -0.464  0.00  0.00    -0.060 I 
ATOM     10  F2  UNL d   1       2.952  -1.106   1.562  0.00  0.00    -0.096 F 
ATOM     11  F3  UNL d   1       0.941  -2.391   2.841  0.00  0.00    -0.097 F 
ATOM     12  F4  UNL d   1      -1.646  -1.600   2.488  0.00  0.00    -0.092 F 
ENDROOT
TORSDOF 0
ENDMDL
