MODEL 1
REMARK minimizedAffinity 18.4069157
REMARK minimizedRMSD -1
REMARK  0 active torsions:
REMARK  status: ('A' for Active; 'I' for Inactive)
ROOT
ATOM      1  C   UNL d   1       2.750   2.840   3.386  0.00  0.00     0.124 A 
ATOM      2  C1  UNL d   1       3.670   1.801   3.425  0.00  0.00     0.062 A 
ATOM      3  C2  UNL d   1       4.463   1.526   2.315  0.00  0.00     0.162 A 
ATOM      4  C3  UNL d   1       4.342   2.292   1.156  0.00  0.00    -0.034 A 
ATOM      5  C4  UNL d   1       3.414   3.335   1.124  0.00  0.00     0.162 A 
ATOM      6  C5  UNL d   1       2.623   3.605   2.235  0.00  0.00     0.062 A 
ATOM      7  F   UNL d   1       1.735   4.610   2.195  0.00  0.00    -0.097 F 
ATOM      8  F1  UNL d   1       3.271   4.091   0.025  0.00  0.00    -0.096 F 
ATOM      9  I   UNL d   1       5.526   1.885  -0.506  0.00  0.00    -0.060 I 
ATOM     10  F2  UNL d   1       5.344   0.516   2.381  0.00  0.00    -0.096 F 
ATOM     11  F3  UNL d   1       3.794   1.059   4.535  0.00  0.00    -0.097 F 
ATOM     12  F4  UNL d   1       1.987   3.101   4.455  0.00  0.00    -0.092 F 
ENDROOT
TORSDOF 0
ENDMDL
