MODEL 1
REMARK minimizedAffinity -3.74699378
REMARK minimizedRMSD -1
REMARK  0 active torsions:
REMARK  status: ('A' for Active; 'I' for Inactive)
ROOT
ATOM      1  C   UNL d   1       4.051   4.178  -0.486  0.00  0.00     0.124 A 
ATOM      2  C1  UNL d   1       3.657   3.386  -1.556  0.00  0.00     0.062 A 
ATOM      3  C2  UNL d   1       2.804   2.306  -1.351  0.00  0.00     0.162 A 
ATOM      4  C3  UNL d   1       2.337   2.011  -0.070  0.00  0.00    -0.034 A 
ATOM      5  C4  UNL d   1       2.738   2.812   1.001  0.00  0.00     0.162 A 
ATOM      6  C5  UNL d   1       3.591   3.890   0.791  0.00  0.00     0.062 A 
ATOM      7  F   UNL d   1       3.970   4.654   1.826  0.00  0.00    -0.097 F 
ATOM      8  F1  UNL d   1       2.308   2.557   2.246  0.00  0.00    -0.096 F 
ATOM      9  I   UNL d   1       1.061   0.397   0.241  0.00  0.00    -0.060 I 
ATOM     10  F2  UNL d   1       2.440   1.558  -2.403  0.00  0.00    -0.096 F 
ATOM     11  F3  UNL d   1       4.101   3.662  -2.791  0.00  0.00    -0.097 F 
ATOM     12  F4  UNL d   1       4.873   5.216  -0.687  0.00  0.00    -0.092 F 
ENDROOT
TORSDOF 0
ENDMDL
