MODEL 1
REMARK minimizedAffinity 0.125211477
REMARK minimizedRMSD -1
REMARK  0 active torsions:
REMARK  status: ('A' for Active; 'I' for Inactive)
ROOT
ATOM      1  C   UNL d   1       1.727  -0.157  -0.050  0.00  0.00     0.124 A 
ATOM      2  C1  UNL d   1       0.980   0.400  -1.078  0.00  0.00     0.062 A 
ATOM      3  C2  UNL d   1      -0.409   0.301  -1.067  0.00  0.00     0.162 A 
ATOM      4  C3  UNL d   1      -1.059  -0.358  -0.024  0.00  0.00    -0.034 A 
ATOM      5  C4  UNL d   1      -0.300  -0.917   1.006  0.00  0.00     0.162 A 
ATOM      6  C5  UNL d   1       1.087  -0.814   0.991  0.00  0.00     0.062 A 
ATOM      7  F   UNL d   1       1.808  -1.353   1.985  0.00  0.00    -0.097 F 
ATOM      8  F1  UNL d   1      -0.893  -1.557   2.025  0.00  0.00    -0.096 F 
ATOM      9  I   UNL d   1      -3.134  -0.510  -0.004  0.00  0.00    -0.060 I 
ATOM     10  F2  UNL d   1      -1.106   0.848  -2.074  0.00  0.00    -0.096 F 
ATOM     11  F3  UNL d   1       1.596   1.036  -2.085  0.00  0.00    -0.097 F 
ATOM     12  F4  UNL d   1       3.063  -0.060  -0.063  0.00  0.00    -0.092 F 
ENDROOT
TORSDOF 0
ENDMDL
