MODEL 1
REMARK minimizedAffinity -2.3233335
REMARK minimizedRMSD -1
REMARK  0 active torsions:
REMARK  status: ('A' for Active; 'I' for Inactive)
ROOT
ATOM      1  C   UNL d   1       1.091   0.215  -0.352  0.00  0.00     0.124 A 
ATOM      2  C1  UNL d   1       0.176   0.454  -1.369  0.00  0.00     0.062 A 
ATOM      3  C2  UNL d   1      -1.100  -0.097  -1.306  0.00  0.00     0.162 A 
ATOM      4  C3  UNL d   1      -1.471  -0.892  -0.222  0.00  0.00    -0.034 A 
ATOM      5  C4  UNL d   1      -0.545  -1.129   0.796  0.00  0.00     0.162 A 
ATOM      6  C5  UNL d   1       0.729  -0.576   0.729  0.00  0.00     0.062 A 
ATOM      7  F   UNL d   1       1.611  -0.808   1.712  0.00  0.00    -0.097 F 
ATOM      8  F1  UNL d   1      -0.869  -1.889   1.853  0.00  0.00    -0.096 F 
ATOM      9  I   UNL d   1      -3.379  -1.718  -0.124  0.00  0.00    -0.060 I 
ATOM     10  F2  UNL d   1      -1.964   0.151  -2.302  0.00  0.00    -0.096 F 
ATOM     11  F3  UNL d   1       0.523   1.218  -2.415  0.00  0.00    -0.097 F 
ATOM     12  F4  UNL d   1       2.319   0.746  -0.416  0.00  0.00    -0.092 F 
ENDROOT
TORSDOF 0
ENDMDL
