MODEL 1
REMARK minimizedAffinity 0.952497363
REMARK minimizedRMSD -1
REMARK  0 active torsions:
REMARK  status: ('A' for Active; 'I' for Inactive)
ROOT
ATOM      1  C   UNL d   1       1.684  -0.391   0.597  0.00  0.00     0.124 A 
ATOM      2  C1  UNL d   1       1.036   0.423  -0.323  0.00  0.00     0.062 A 
ATOM      3  C2  UNL d   1      -0.308   0.212  -0.619  0.00  0.00     0.162 A 
ATOM      4  C3  UNL d   1      -1.013  -0.816   0.005  0.00  0.00    -0.034 A 
ATOM      5  C4  UNL d   1      -0.355  -1.631   0.928  0.00  0.00     0.162 A 
ATOM      6  C5  UNL d   1       0.988  -1.416   1.221  0.00  0.00     0.062 A 
ATOM      7  F   UNL d   1       1.612  -2.204   2.109  0.00  0.00    -0.097 F 
ATOM      8  F1  UNL d   1      -1.003  -2.629   1.546  0.00  0.00    -0.096 F 
ATOM      9  I   UNL d   1      -3.022  -1.134  -0.436  0.00  0.00    -0.060 I 
ATOM     10  F2  UNL d   1      -0.908   1.014  -1.512  0.00  0.00    -0.096 F 
ATOM     11  F3  UNL d   1       1.706   1.414  -0.928  0.00  0.00    -0.097 F 
ATOM     12  F4  UNL d   1       2.977  -0.186   0.880  0.00  0.00    -0.092 F 
ENDROOT
TORSDOF 0
ENDMDL
