MODEL 1
REMARK minimizedAffinity 0.0156970229
REMARK minimizedRMSD -1
REMARK  0 active torsions:
REMARK  status: ('A' for Active; 'I' for Inactive)
ROOT
ATOM      1  C   UNL d   1       1.385  -0.854  -0.028  0.00  0.00     0.124 A 
ATOM      2  C1  UNL d   1       0.628  -1.197   1.084  0.00  0.00     0.062 A 
ATOM      3  C2  UNL d   1      -0.729  -0.891   1.128  0.00  0.00     0.162 A 
ATOM      4  C3  UNL d   1      -1.339  -0.239   0.056  0.00  0.00    -0.034 A 
ATOM      5  C4  UNL d   1      -0.571   0.103  -1.059  0.00  0.00     0.162 A 
ATOM      6  C5  UNL d   1       0.785  -0.204  -1.098  0.00  0.00     0.062 A 
ATOM      7  F   UNL d   1       1.514   0.128  -2.173  0.00  0.00    -0.097 F 
ATOM      8  F1  UNL d   1      -1.126   0.730  -2.107  0.00  0.00    -0.096 F 
ATOM      9  I   UNL d   1      -3.368   0.219   0.118  0.00  0.00    -0.060 I 
ATOM     10  F2  UNL d   1      -1.436  -1.234   2.215  0.00  0.00    -0.096 F 
ATOM     11  F3  UNL d   1       1.205  -1.823   2.119  0.00  0.00    -0.097 F 
ATOM     12  F4  UNL d   1       2.691  -1.148  -0.068  0.00  0.00    -0.092 F 
ENDROOT
TORSDOF 0
ENDMDL
