MODEL 1
REMARK minimizedAffinity -1.38036573
REMARK minimizedRMSD -1
REMARK  0 active torsions:
REMARK  status: ('A' for Active; 'I' for Inactive)
ROOT
ATOM      1  C   UNL d   1       0.832   0.010   3.614  0.00  0.00     0.077 C 
ATOM      2  C1  UNL d   1      -0.386   0.816   3.271  0.00  0.00    -0.074 A 
ATOM      3  C2  UNL d   1      -0.447   2.183   3.561  0.00  0.00    -0.005 A 
ATOM      4  C3  UNL d   1      -1.582   2.922   3.228  0.00  0.00     0.006 A 
ATOM      5  C4  UNL d   1      -2.665   2.303   2.602  0.00  0.00    -0.005 A 
ATOM      6  C5  UNL d   1      -2.621   0.938   2.304  0.00  0.00    -0.074 A 
ATOM      7  C6  UNL d   1      -3.773   0.259   1.623  0.00  0.00     0.077 C 
ATOM      8  C7  UNL d   1      -1.475   0.203   2.635  0.00  0.00    -0.001 A 
ENDROOT
TORSDOF 0
ENDMDL
