MODEL 1
REMARK minimizedAffinity 3.73265719
REMARK minimizedRMSD -1
REMARK  0 active torsions:
REMARK  status: ('A' for Active; 'I' for Inactive)
ROOT
ATOM      1  C   UNL d   1      -3.076  -1.110  -5.995  0.00  0.00     0.077 C 
ATOM      2  C1  UNL d   1      -2.843  -2.591  -5.997  0.00  0.00    -0.074 A 
ATOM      3  C2  UNL d   1      -1.546  -3.115  -5.999  0.00  0.00    -0.005 A 
ATOM      4  C3  UNL d   1      -1.345  -4.495  -5.991  0.00  0.00     0.006 A 
ATOM      5  C4  UNL d   1      -2.437  -5.364  -5.980  0.00  0.00    -0.005 A 
ATOM      6  C5  UNL d   1      -3.741  -4.859  -5.977  0.00  0.00    -0.074 A 
ATOM      7  C6  UNL d   1      -4.925  -5.779  -5.955  0.00  0.00     0.077 C 
ATOM      8  C7  UNL d   1      -3.935  -3.471  -5.978  0.00  0.00    -0.001 A 
ENDROOT
TORSDOF 0
ENDMDL
