MODEL 1
REMARK minimizedAffinity 10.1110287
REMARK minimizedRMSD -1
REMARK  0 active torsions:
REMARK  status: ('A' for Active; 'I' for Inactive)
ROOT
ATOM      1  C   UNL d   1      -4.575  -1.785  -5.608  0.00  0.00     0.077 C 
ATOM      2  C1  UNL d   1      -4.251  -3.244  -5.731  0.00  0.00    -0.074 A 
ATOM      3  C2  UNL d   1      -5.267  -4.203  -5.798  0.00  0.00    -0.005 A 
ATOM      4  C3  UNL d   1      -4.950  -5.556  -5.922  0.00  0.00     0.006 A 
ATOM      5  C4  UNL d   1      -3.617  -5.963  -5.981  0.00  0.00    -0.005 A 
ATOM      6  C5  UNL d   1      -2.587  -5.018  -5.916  0.00  0.00    -0.074 A 
ATOM      7  C6  UNL d   1      -1.149  -5.438  -5.987  0.00  0.00     0.077 C 
ATOM      8  C7  UNL d   1      -2.914  -3.660  -5.799  0.00  0.00    -0.001 A 
ENDROOT
TORSDOF 0
ENDMDL
