MODEL 1
REMARK minimizedAffinity 1.74990785
REMARK minimizedRMSD -1
REMARK  0 active torsions:
REMARK  status: ('A' for Active; 'I' for Inactive)
ROOT
ATOM      1  C   UNL d   1       0.249  -0.663   3.224  0.00  0.00     0.077 C 
ATOM      2  C1  UNL d   1      -0.652   0.496   2.917  0.00  0.00    -0.074 A 
ATOM      3  C2  UNL d   1      -0.363   1.777   3.397  0.00  0.00    -0.005 A 
ATOM      4  C3  UNL d   1      -1.205   2.847   3.095  0.00  0.00     0.006 A 
ATOM      5  C4  UNL d   1      -2.343   2.647   2.311  0.00  0.00    -0.005 A 
ATOM      6  C5  UNL d   1      -2.647   1.373   1.822  0.00  0.00    -0.074 A 
ATOM      7  C6  UNL d   1      -3.859   1.142   0.970  0.00  0.00     0.077 C 
ATOM      8  C7  UNL d   1      -1.792   0.304   2.124  0.00  0.00    -0.001 A 
ENDROOT
TORSDOF 0
ENDMDL
