MODEL 1
REMARK minimizedAffinity 9.71337223
REMARK minimizedRMSD -1
REMARK  0 active torsions:
REMARK  status: ('A' for Active; 'I' for Inactive)
ROOT
ATOM      1  C   UNL d   1      -4.661   0.052   4.783  0.00  0.00     0.077 C 
ATOM      2  C1  UNL d   1      -4.010   0.299   3.455  0.00  0.00    -0.074 A 
ATOM      3  C2  UNL d   1      -4.776   0.592   2.322  0.00  0.00    -0.005 A 
ATOM      4  C3  UNL d   1      -4.156   0.829   1.095  0.00  0.00     0.006 A 
ATOM      5  C4  UNL d   1      -2.766   0.774   0.989  0.00  0.00    -0.005 A 
ATOM      6  C5  UNL d   1      -1.983   0.483   2.110  0.00  0.00    -0.074 A 
ATOM      7  C6  UNL d   1      -0.487   0.431   2.015  0.00  0.00     0.077 C 
ATOM      8  C7  UNL d   1      -2.613   0.254   3.341  0.00  0.00    -0.001 A 
ENDROOT
TORSDOF 0
ENDMDL
