MODEL 1
REMARK minimizedAffinity 4.59230232
REMARK minimizedRMSD -1
REMARK  0 active torsions:
REMARK  status: ('A' for Active; 'I' for Inactive)
ROOT
ATOM      1  C   UNL d   1      -0.447   0.544   2.370  0.00  0.00     0.077 C 
ATOM      2  C1  UNL d   1      -1.842   0.271   1.892  0.00  0.00    -0.074 A 
ATOM      3  C2  UNL d   1      -2.898   1.123   2.234  0.00  0.00    -0.005 A 
ATOM      4  C3  UNL d   1      -4.189   0.861   1.774  0.00  0.00     0.006 A 
ATOM      5  C4  UNL d   1      -4.436  -0.252   0.970  0.00  0.00    -0.005 A 
ATOM      6  C5  UNL d   1      -3.393  -1.114   0.618  0.00  0.00    -0.074 A 
ATOM      7  C6  UNL d   1      -3.640  -2.309  -0.254  0.00  0.00     0.077 C 
ATOM      8  C7  UNL d   1      -2.097  -0.840   1.077  0.00  0.00    -0.001 A 
ENDROOT
TORSDOF 0
ENDMDL
