MODEL 1
REMARK minimizedAffinity 11.6904411
REMARK minimizedRMSD -1
REMARK  0 active torsions:
REMARK  status: ('A' for Active; 'I' for Inactive)
ROOT
ATOM      1  C   UNL d   1      -1.263   1.059   1.671  0.00  0.00     0.077 C 
ATOM      2  C1  UNL d   1      -2.412   0.332   1.040  0.00  0.00    -0.074 A 
ATOM      3  C2  UNL d   1      -3.516   1.030   0.539  0.00  0.00    -0.005 A 
ATOM      4  C3  UNL d   1      -4.574   0.340  -0.054  0.00  0.00     0.006 A 
ATOM      5  C4  UNL d   1      -4.539  -1.051  -0.153  0.00  0.00    -0.005 A 
ATOM      6  C5  UNL d   1      -3.443  -1.766   0.342  0.00  0.00    -0.074 A 
ATOM      7  C6  UNL d   1      -3.384  -3.261   0.235  0.00  0.00     0.077 C 
ATOM      8  C7  UNL d   1      -2.381  -1.065   0.930  0.00  0.00    -0.001 A 
ENDROOT
TORSDOF 0
ENDMDL
