MODEL 1
REMARK minimizedAffinity 5.55114794
REMARK minimizedRMSD -1
REMARK  0 active torsions:
REMARK  status: ('A' for Active; 'I' for Inactive)
ROOT
ATOM      1  C   UNL d   1      -4.819   0.761  -0.083  0.00  0.00     0.077 C 
ATOM      2  C1  UNL d   1      -4.045   0.627   1.194  0.00  0.00    -0.074 A 
ATOM      3  C2  UNL d   1      -4.699   0.572   2.429  0.00  0.00    -0.005 A 
ATOM      4  C3  UNL d   1      -3.966   0.437   3.608  0.00  0.00     0.006 A 
ATOM      5  C4  UNL d   1      -2.573   0.356   3.564  0.00  0.00    -0.005 A 
ATOM      6  C5  UNL d   1      -1.902   0.409   2.338  0.00  0.00    -0.074 A 
ATOM      7  C6  UNL d   1      -0.406   0.313   2.272  0.00  0.00     0.077 C 
ATOM      8  C7  UNL d   1      -2.646   0.537   1.157  0.00  0.00    -0.001 A 
ENDROOT
TORSDOF 0
ENDMDL
