MODEL 1
REMARK minimizedAffinity 2.69231677
REMARK minimizedRMSD -1
REMARK  0 active torsions:
REMARK  status: ('A' for Active; 'I' for Inactive)
ROOT
ATOM      1  C   UNL d   1       0.017   0.293   2.584  0.00  0.00     0.077 C 
ATOM      2  C1  UNL d   1      -1.438   0.376   2.230  0.00  0.00    -0.074 A 
ATOM      3  C2  UNL d   1      -2.223   1.451   2.660  0.00  0.00    -0.005 A 
ATOM      4  C3  UNL d   1      -3.572   1.520   2.314  0.00  0.00     0.006 A 
ATOM      5  C4  UNL d   1      -4.150   0.515   1.537  0.00  0.00    -0.005 A 
ATOM      6  C5  UNL d   1      -3.382  -0.567   1.097  0.00  0.00    -0.074 A 
ATOM      7  C6  UNL d   1      -3.985  -1.650   0.252  0.00  0.00     0.077 C 
ATOM      8  C7  UNL d   1      -2.024  -0.625   1.442  0.00  0.00    -0.001 A 
ENDROOT
TORSDOF 0
ENDMDL
