MODEL 1
REMARK minimizedAffinity 5.76718092
REMARK minimizedRMSD -1
REMARK  0 active torsions:
REMARK  status: ('A' for Active; 'I' for Inactive)
ROOT
ATOM      1  C   UNL d   1       5.803  -5.974   0.952  0.00  0.00     0.077 C 
ATOM      2  C1  UNL d   1       4.556  -5.986   1.784  0.00  0.00    -0.074 A 
ATOM      3  C2  UNL d   1       4.624  -5.982   3.181  0.00  0.00    -0.005 A 
ATOM      4  C3  UNL d   1       3.455  -5.984   3.942  0.00  0.00     0.006 A 
ATOM      5  C4  UNL d   1       2.208  -5.991   3.315  0.00  0.00    -0.005 A 
ATOM      6  C5  UNL d   1       2.121  -5.994   1.919  0.00  0.00    -0.074 A 
ATOM      7  C6  UNL d   1       0.789  -5.991   1.229  0.00  0.00     0.077 C 
ATOM      8  C7  UNL d   1       3.300  -5.985   1.162  0.00  0.00    -0.001 A 
ENDROOT
TORSDOF 0
ENDMDL
