MODEL 1
REMARK minimizedAffinity 5.14262533
REMARK minimizedRMSD -1
REMARK  0 active torsions:
REMARK  status: ('A' for Active; 'I' for Inactive)
ROOT
ATOM      1  C   UNL d   1       1.547  -5.999   1.885  0.00  0.00     0.077 C 
ATOM      2  C1  UNL d   1       0.337  -5.241   1.427  0.00  0.00    -0.074 A 
ATOM      3  C2  UNL d   1       0.374  -3.851   1.278  0.00  0.00    -0.005 A 
ATOM      4  C3  UNL d   1      -0.757  -3.160   0.842  0.00  0.00     0.006 A 
ATOM      5  C4  UNL d   1      -1.934  -3.851   0.552  0.00  0.00    -0.005 A 
ATOM      6  C5  UNL d   1      -1.989  -5.241   0.695  0.00  0.00    -0.074 A 
ATOM      7  C6  UNL d   1      -3.244  -6.000   0.377  0.00  0.00     0.077 C 
ATOM      8  C7  UNL d   1      -0.847  -5.929   1.126  0.00  0.00    -0.001 A 
ENDROOT
TORSDOF 0
ENDMDL
