MODEL 1
REMARK minimizedAffinity 2.34466028
REMARK minimizedRMSD -1
REMARK  0 active torsions:
REMARK  status: ('A' for Active; 'I' for Inactive)
ROOT
ATOM      1  C   UNL d   1       1.879  -5.989   5.367  0.00  0.00     0.077 C 
ATOM      2  C1  UNL d   1       2.257  -5.995   3.915  0.00  0.00    -0.074 A 
ATOM      3  C2  UNL d   1       1.277  -5.982   2.917  0.00  0.00    -0.005 A 
ATOM      4  C3  UNL d   1       1.644  -5.977   1.572  0.00  0.00     0.006 A 
ATOM      5  C4  UNL d   1       2.992  -5.985   1.211  0.00  0.00    -0.005 A 
ATOM      6  C5  UNL d   1       3.986  -5.997   2.195  0.00  0.00    -0.074 A 
ATOM      7  C6  UNL d   1       5.439  -5.996   1.824  0.00  0.00     0.077 C 
ATOM      8  C7  UNL d   1       3.609  -5.995   3.545  0.00  0.00    -0.001 A 
ENDROOT
TORSDOF 0
ENDMDL
