MODEL 1
REMARK minimizedAffinity 4.49685287
REMARK minimizedRMSD -1
REMARK  0 active torsions:
REMARK  status: ('A' for Active; 'I' for Inactive)
ROOT
ATOM      1  C   UNL d   1      -0.533  -3.745   0.868  0.00  0.00     0.077 C 
ATOM      2  C1  UNL d   1       0.493  -4.525   1.635  0.00  0.00    -0.074 A 
ATOM      3  C2  UNL d   1       0.246  -4.942   2.947  0.00  0.00    -0.005 A 
ATOM      4  C3  UNL d   1       1.206  -5.676   3.644  0.00  0.00     0.006 A 
ATOM      5  C4  UNL d   1       2.421  -5.999   3.037  0.00  0.00    -0.005 A 
ATOM      6  C5  UNL d   1       2.684  -5.592   1.726  0.00  0.00    -0.074 A 
ATOM      7  C6  UNL d   1       3.980  -5.940   1.055  0.00  0.00     0.077 C 
ATOM      8  C7  UNL d   1       1.712  -4.861   1.029  0.00  0.00    -0.001 A 
ENDROOT
TORSDOF 0
ENDMDL
