MODEL 1
REMARK minimizedAffinity 5.28254461
REMARK minimizedRMSD -1
REMARK  0 active torsions:
REMARK  status: ('A' for Active; 'I' for Inactive)
ROOT
ATOM      1  C   UNL d   1       1.196  -0.032   3.662  0.00  0.00     0.077 C 
ATOM      2  C1  UNL d   1       0.028   0.783   3.192  0.00  0.00    -0.074 A 
ATOM      3  C2  UNL d   1      -0.161   2.094   3.641  0.00  0.00    -0.005 A 
ATOM      4  C3  UNL d   1      -1.247   2.843   3.188  0.00  0.00     0.006 A 
ATOM      5  C4  UNL d   1      -2.153   2.289   2.283  0.00  0.00    -0.005 A 
ATOM      6  C5  UNL d   1      -1.980   0.980   1.822  0.00  0.00    -0.074 A 
ATOM      7  C6  UNL d   1      -2.939   0.374   0.841  0.00  0.00     0.077 C 
ATOM      8  C7  UNL d   1      -0.883   0.237   2.277  0.00  0.00    -0.001 A 
ENDROOT
TORSDOF 0
ENDMDL
