MODEL 1
REMARK minimizedAffinity 1.58267546
REMARK minimizedRMSD -1
REMARK  0 active torsions:
REMARK  status: ('A' for Active; 'I' for Inactive)
ROOT
ATOM      1  C   UNL d   1      -5.002   0.567   4.427  0.00  0.00     0.077 C 
ATOM      2  C1  UNL d   1      -3.906   0.535   3.404  0.00  0.00    -0.074 A 
ATOM      3  C2  UNL d   1      -4.194   0.358   2.047  0.00  0.00    -0.005 A 
ATOM      4  C3  UNL d   1      -3.164   0.340   1.106  0.00  0.00     0.006 A 
ATOM      5  C4  UNL d   1      -1.839   0.499   1.512  0.00  0.00    -0.005 A 
ATOM      6  C5  UNL d   1      -1.531   0.678   2.864  0.00  0.00    -0.074 A 
ATOM      7  C6  UNL d   1      -0.113   0.860   3.316  0.00  0.00     0.077 C 
ATOM      8  C7  UNL d   1      -2.572   0.702   3.803  0.00  0.00    -0.001 A 
ENDROOT
TORSDOF 0
ENDMDL
