MODEL 1
REMARK minimizedAffinity 8.83202553
REMARK minimizedRMSD -1
REMARK  0 active torsions:
REMARK  status: ('A' for Active; 'I' for Inactive)
ROOT
ATOM      1  C   UNL d   1       2.156   0.508   2.056  0.00  0.00     0.077 C 
ATOM      2  C1  UNL d   1       0.803   1.019   2.454  0.00  0.00    -0.074 A 
ATOM      3  C2  UNL d   1       0.619   1.698   3.663  0.00  0.00    -0.005 A 
ATOM      4  C3  UNL d   1      -0.643   2.176   4.016  0.00  0.00     0.006 A 
ATOM      5  C4  UNL d   1      -1.731   1.981   3.165  0.00  0.00    -0.005 A 
ATOM      6  C5  UNL d   1      -1.566   1.306   1.952  0.00  0.00    -0.074 A 
ATOM      7  C6  UNL d   1      -2.723   1.096   1.021  0.00  0.00     0.077 C 
ATOM      8  C7  UNL d   1      -0.293   0.834   1.601  0.00  0.00    -0.001 A 
ENDROOT
TORSDOF 0
ENDMDL
