MODEL 1
REMARK minimizedAffinity -3.13174796
REMARK minimizedRMSD -1
REMARK  2 active torsions:
REMARK  status: ('A' for Active; 'I' for Inactive)
REMARK    1  A    between atoms: C2'_3  and  C1'_4 
REMARK    2  A    between atoms: C1'_4  and  C1_5 
ROOT
ATOM      1  C1  I4B d   1      -0.056   0.391  -0.307  0.00  0.00    -0.075 A 
ATOM      2  C2  I4B d   1       0.275  -0.941  -0.304  0.00  0.00     0.003 A 
ATOM      3  C3  I4B d   1       1.535  -1.364  -0.793  0.00  0.00     0.002 A 
ATOM      4  C4  I4B d   1       2.407  -0.433  -1.319  0.00  0.00    -0.004 A 
ATOM      5  C5  I4B d   1       2.079   0.920  -1.301  0.00  0.00     0.002 A 
ATOM      6  C6  I4B d   1       0.845   1.336  -0.780  0.00  0.00     0.003 A 
ENDROOT
BRANCH   1   7
ATOM      7  C1' I4B d   1      -1.408   0.799   0.186  0.00  0.00     0.060 C 
BRANCH   7   8
ATOM      8  C2' I4B d   1      -1.375   0.785   1.701  0.00  0.00    -0.013 C 
ATOM      9  C4' I4B d   1      -1.252   2.179   2.257  0.00  0.00     0.013 C 
ATOM     10  C3' I4B d   1      -2.628   0.118   2.185  0.00  0.00     0.013 C 
ENDBRANCH   7   8
ENDBRANCH   1   7
TORSDOF 2
ENDMDL
