MODEL 1
REMARK minimizedAffinity -1.1621654
REMARK minimizedRMSD -1
REMARK  2 active torsions:
REMARK  status: ('A' for Active; 'I' for Inactive)
REMARK    1  A    between atoms: C2'_3  and  C1'_4 
REMARK    2  A    between atoms: C1'_4  and  C1_5 
ROOT
ATOM      1  C1  I4B d   1      -0.490  -0.060   0.553  0.00  0.00    -0.075 A 
ATOM      2  C2  I4B d   1       0.563   0.603  -0.026  0.00  0.00     0.003 A 
ATOM      3  C3  I4B d   1       1.660  -0.121  -0.550  0.00  0.00     0.002 A 
ATOM      4  C4  I4B d   1       1.687  -1.496  -0.430  0.00  0.00    -0.004 A 
ATOM      5  C5  I4B d   1       0.608  -2.168   0.137  0.00  0.00     0.002 A 
ATOM      6  C6  I4B d   1      -0.493  -1.447   0.620  0.00  0.00     0.003 A 
ENDROOT
BRANCH   1   7
ATOM      7  C1' I4B d   1      -1.618   0.738   1.126  0.00  0.00     0.060 C 
BRANCH   7   8
ATOM      8  C2' I4B d   1      -1.400   0.848   2.621  0.00  0.00    -0.013 C 
ATOM      9  C4' I4B d   1      -1.063   2.260   3.021  0.00  0.00     0.013 C 
ATOM     10  C3' I4B d   1      -2.646   0.373   3.307  0.00  0.00     0.013 C 
ENDBRANCH   7   8
ENDBRANCH   1   7
TORSDOF 2
ENDMDL
