MODEL 1
REMARK minimizedAffinity -4.03268766
REMARK minimizedRMSD -1
REMARK  2 active torsions:
REMARK  status: ('A' for Active; 'I' for Inactive)
REMARK    1  A    between atoms: C2'_3  and  C1'_4 
REMARK    2  A    between atoms: C1'_4  and  C1_5 
ROOT
ATOM      1  C1  I4B d   1      -0.244   0.111  -0.025  0.00  0.00    -0.075 A 
ATOM      2  C2  I4B d   1       0.748   0.951  -0.466  0.00  0.00     0.003 A 
ATOM      3  C3  I4B d   1       1.978   0.421  -0.926  0.00  0.00     0.002 A 
ATOM      4  C4  I4B d   1       2.192  -0.941  -0.880  0.00  0.00    -0.004 A 
ATOM      5  C5  I4B d   1       1.177  -1.793  -0.453  0.00  0.00     0.002 A 
ATOM      6  C6  I4B d   1      -0.053  -1.265  -0.035  0.00  0.00     0.003 A 
ENDROOT
BRANCH   1   7
ATOM      7  C1' I4B d   1      -1.518   0.705   0.484  0.00  0.00     0.060 C 
BRANCH   7   8
ATOM      8  C2' I4B d   1      -1.588   0.451   1.976  0.00  0.00    -0.013 C 
ATOM      9  C4' I4B d   1      -1.371   1.721   2.757  0.00  0.00     0.013 C 
ATOM     10  C3' I4B d   1      -2.928  -0.149   2.281  0.00  0.00     0.013 C 
ENDBRANCH   7   8
ENDBRANCH   1   7
TORSDOF 2
ENDMDL
