MODEL 1
REMARK minimizedAffinity -5.32322693
REMARK minimizedRMSD -1
REMARK  2 active torsions:
REMARK  status: ('A' for Active; 'I' for Inactive)
REMARK    1  A    between atoms: C2'_3  and  C1'_4 
REMARK    2  A    between atoms: C1'_4  and  C1_5 
ROOT
ATOM      1  C1  I4B d   1      -0.079   0.065   0.212  0.00  0.00    -0.075 A 
ATOM      2  C2  I4B d   1       0.098  -1.296   0.256  0.00  0.00     0.003 A 
ATOM      3  C3  I4B d   1       1.293  -1.875  -0.235  0.00  0.00     0.002 A 
ATOM      4  C4  I4B d   1       2.257  -1.067  -0.802  0.00  0.00    -0.004 A 
ATOM      5  C5  I4B d   1       2.086   0.314  -0.824  0.00  0.00     0.002 A 
ATOM      6  C6  I4B d   1       0.916   0.885  -0.303  0.00  0.00     0.003 A 
ENDROOT
BRANCH   1   7
ATOM      7  C1' I4B d   1      -1.367   0.640   0.709  0.00  0.00     0.060 C 
BRANCH   7   8
ATOM      8  C2' I4B d   1      -1.375   0.533   2.220  0.00  0.00    -0.013 C 
ATOM      9  C4' I4B d   1      -0.918   1.818   2.860  0.00  0.00     0.013 C 
ATOM     10  C3' I4B d   1      -2.766   0.178   2.652  0.00  0.00     0.013 C 
ENDBRANCH   7   8
ENDBRANCH   1   7
TORSDOF 2
ENDMDL
