MODEL 1
REMARK minimizedAffinity -3.75898218
REMARK minimizedRMSD -1
REMARK  2 active torsions:
REMARK  status: ('A' for Active; 'I' for Inactive)
REMARK    1  A    between atoms: C2'_3  and  C1'_4 
REMARK    2  A    between atoms: C1'_4  and  C1_5 
ROOT
ATOM      1  C1  I4B d   1      -1.394   0.791   1.301  0.00  0.00    -0.075 A 
ATOM      2  C2  I4B d   1      -0.712   1.696   2.075  0.00  0.00     0.003 A 
ATOM      3  C3  I4B d   1      -1.130   1.957   3.403  0.00  0.00     0.002 A 
ATOM      4  C4  I4B d   1      -2.258   1.333   3.895  0.00  0.00    -0.004 A 
ATOM      5  C5  I4B d   1      -2.935   0.398   3.117  0.00  0.00     0.002 A 
ATOM      6  C6  I4B d   1      -2.493   0.116   1.816  0.00  0.00     0.003 A 
ENDROOT
BRANCH   1   7
ATOM      7  C1' I4B d   1      -0.945   0.564  -0.107  0.00  0.00     0.060 C 
BRANCH   7   8
ATOM      8  C2' I4B d   1       0.391  -0.150  -0.062  0.00  0.00    -0.013 C 
ATOM      9  C4' I4B d   1       0.276  -1.555  -0.591  0.00  0.00     0.013 C 
ATOM     10  C3' I4B d   1       1.372   0.652  -0.864  0.00  0.00     0.013 C 
ENDBRANCH   7   8
ENDBRANCH   1   7
TORSDOF 2
ENDMDL
