MODEL 1
REMARK minimizedAffinity -3.34051657
REMARK minimizedRMSD -1
REMARK  2 active torsions:
REMARK  status: ('A' for Active; 'I' for Inactive)
REMARK    1  A    between atoms: C2'_3  and  C1'_4 
REMARK    2  A    between atoms: C1'_4  and  C1_5 
ROOT
ATOM      1  C1  I4B d   1      -0.364   0.349   0.615  0.00  0.00    -0.075 A 
ATOM      2  C2  I4B d   1      -0.268   1.310  -0.359  0.00  0.00     0.003 A 
ATOM      3  C3  I4B d   1       0.873   1.364  -1.197  0.00  0.00     0.002 A 
ATOM      4  C4  I4B d   1       1.908   0.475  -0.994  0.00  0.00    -0.004 A 
ATOM      5  C5  I4B d   1       1.798  -0.514  -0.020  0.00  0.00     0.002 A 
ATOM      6  C6  I4B d   1       0.650  -0.586   0.781  0.00  0.00     0.003 A 
ENDROOT
BRANCH   1   7
ATOM      7  C1' I4B d   1      -1.568   0.341   1.504  0.00  0.00     0.060 C 
BRANCH   7   8
ATOM      8  C2' I4B d   1      -1.162   0.920   2.844  0.00  0.00    -0.013 C 
ATOM      9  C4' I4B d   1      -1.242   2.424   2.835  0.00  0.00     0.013 C 
ATOM     10  C3' I4B d   1      -2.062   0.336   3.892  0.00  0.00     0.013 C 
ENDBRANCH   7   8
ENDBRANCH   1   7
TORSDOF 2
ENDMDL
