MODEL 1
REMARK minimizedAffinity -6.15874481
REMARK minimizedRMSD -1
REMARK  2 active torsions:
REMARK  status: ('A' for Active; 'I' for Inactive)
REMARK    1  A    between atoms: C2'_3  and  C1'_4 
REMARK    2  A    between atoms: C1'_4  and  C1_5 
ROOT
ATOM      1  C1  I4B d   1       0.006  -0.210   0.670  0.00  0.00    -0.075 A 
ATOM      2  C2  I4B d   1      -0.253   0.422   1.861  0.00  0.00     0.003 A 
ATOM      3  C3  I4B d   1      -1.589   0.623   2.286  0.00  0.00     0.002 A 
ATOM      4  C4  I4B d   1      -2.628   0.223   1.471  0.00  0.00    -0.004 A 
ATOM      5  C5  I4B d   1      -2.364  -0.438   0.275  0.00  0.00     0.002 A 
ATOM      6  C6  I4B d   1      -1.039  -0.667  -0.123  0.00  0.00     0.003 A 
ENDROOT
BRANCH   1   7
ATOM      7  C1' I4B d   1       1.428  -0.376   0.236  0.00  0.00     0.060 C 
BRANCH   7   8
ATOM      8  C2' I4B d   1       1.494  -0.119  -1.255  0.00  0.00    -0.013 C 
ATOM      9  C4' I4B d   1       1.512   1.357  -1.554  0.00  0.00     0.013 C 
ATOM     10  C3' I4B d   1       2.722  -0.794  -1.788  0.00  0.00     0.013 C 
ENDBRANCH   7   8
ENDBRANCH   1   7
TORSDOF 2
ENDMDL
