MODEL 1
REMARK minimizedAffinity -4.68906307
REMARK minimizedRMSD -1
REMARK  2 active torsions:
REMARK  status: ('A' for Active; 'I' for Inactive)
REMARK    1  A    between atoms: C2'_3  and  C1'_4 
REMARK    2  A    between atoms: C1'_4  and  C1_5 
ROOT
ATOM      1  C1  I4B d   1       0.732  -0.358  -0.470  0.00  0.00    -0.075 A 
ATOM      2  C2  I4B d   1       1.496  -1.462  -0.755  0.00  0.00     0.003 A 
ATOM      3  C3  I4B d   1       2.595  -1.358  -1.642  0.00  0.00     0.002 A 
ATOM      4  C4  I4B d   1       2.861  -0.152  -2.256  0.00  0.00    -0.004 A 
ATOM      5  C5  I4B d   1       2.100   0.972  -1.948  0.00  0.00     0.002 A 
ATOM      6  C6  I4B d   1       1.036   0.871  -1.040  0.00  0.00     0.003 A 
ENDROOT
BRANCH   1   7
ATOM      7  C1' I4B d   1      -0.441  -0.511   0.446  0.00  0.00     0.060 C 
BRANCH   7   8
ATOM      8  C2' I4B d   1      -1.067   0.856   0.634  0.00  0.00    -0.013 C 
ATOM      9  C4' I4B d   1      -2.066   1.153  -0.454  0.00  0.00     0.013 C 
ATOM     10  C3' I4B d   1      -1.715   0.887   1.986  0.00  0.00     0.013 C 
ENDBRANCH   7   8
ENDBRANCH   1   7
TORSDOF 2
ENDMDL
