MODEL 1
REMARK minimizedAffinity -3.46795869
REMARK minimizedRMSD -1
REMARK  2 active torsions:
REMARK  status: ('A' for Active; 'I' for Inactive)
REMARK    1  A    between atoms: C2'_3  and  C1'_4 
REMARK    2  A    between atoms: C1'_4  and  C1_5 
ROOT
ATOM      1  C1  I4B d   1      -0.219   0.258   0.012  0.00  0.00    -0.075 A 
ATOM      2  C2  I4B d   1       0.039  -1.089   0.085  0.00  0.00     0.003 A 
ATOM      3  C3  I4B d   1       1.264  -1.607  -0.401  0.00  0.00     0.002 A 
ATOM      4  C4  I4B d   1       2.174  -0.756  -0.994  0.00  0.00    -0.004 A 
ATOM      5  C5  I4B d   1       1.920   0.612  -1.046  0.00  0.00     0.002 A 
ATOM      6  C6  I4B d   1       0.722   1.124  -0.529  0.00  0.00     0.003 A 
ENDROOT
BRANCH   1   7
ATOM      7  C1' I4B d   1      -1.537   0.767   0.505  0.00  0.00     0.060 C 
BRANCH   7   8
ATOM      8  C2' I4B d   1      -1.639   0.444   1.982  0.00  0.00    -0.013 C 
ATOM      9  C4' I4B d   1      -1.262   1.631   2.827  0.00  0.00     0.013 C 
ATOM     10  C3' I4B d   1      -3.045   0.003   2.263  0.00  0.00     0.013 C 
ENDBRANCH   7   8
ENDBRANCH   1   7
TORSDOF 2
ENDMDL
