MODEL 1
REMARK minimizedAffinity -3.90861583
REMARK minimizedRMSD -1
REMARK  2 active torsions:
REMARK  status: ('A' for Active; 'I' for Inactive)
REMARK    1  A    between atoms: C2'_3  and  C1'_4 
REMARK    2  A    between atoms: C1'_4  and  C1_5 
ROOT
ATOM      1  C1  I4B d   1      -0.467   0.036   0.106  0.00  0.00    -0.075 A 
ATOM      2  C2  I4B d   1      -0.411  -1.314   0.348  0.00  0.00     0.003 A 
ATOM      3  C3  I4B d   1       0.639  -2.092  -0.197  0.00  0.00     0.002 A 
ATOM      4  C4  I4B d   1       1.575  -1.493  -1.014  0.00  0.00    -0.004 A 
ATOM      5  C5  I4B d   1       1.530  -0.121  -1.240  0.00  0.00     0.002 A 
ATOM      6  C6  I4B d   1       0.509   0.652  -0.667  0.00  0.00     0.003 A 
ENDROOT
BRANCH   1   7
ATOM      7  C1' I4B d   1      -1.608   0.823   0.670  0.00  0.00     0.060 C 
BRANCH   7   8
ATOM      8  C2' I4B d   1      -1.523   0.749   2.181  0.00  0.00    -0.013 C 
ATOM      9  C4' I4B d   1      -1.358   2.119   2.785  0.00  0.00     0.013 C 
ATOM     10  C3' I4B d   1      -2.770   0.083   2.683  0.00  0.00     0.013 C 
ENDBRANCH   7   8
ENDBRANCH   1   7
TORSDOF 2
ENDMDL
