MODEL 1
REMARK minimizedAffinity -3.81651378
REMARK minimizedRMSD -1
REMARK  2 active torsions:
REMARK  status: ('A' for Active; 'I' for Inactive)
REMARK    1  A    between atoms: C2'_3  and  C1'_4 
REMARK    2  A    between atoms: C1'_4  and  C1_5 
ROOT
ATOM      1  C1  I4B d   1      -0.528   0.641   0.530  0.00  0.00    -0.075 A 
ATOM      2  C2  I4B d   1      -0.478   1.244  -0.702  0.00  0.00     0.003 A 
ATOM      3  C3  I4B d   1       0.668   1.099  -1.521  0.00  0.00     0.002 A 
ATOM      4  C4  I4B d   1       1.754   0.389  -1.051  0.00  0.00    -0.004 A 
ATOM      5  C5  I4B d   1       1.692  -0.242   0.189  0.00  0.00     0.002 A 
ATOM      6  C6  I4B d   1       0.540  -0.125   0.979  0.00  0.00     0.003 A 
ENDROOT
BRANCH   1   7
ATOM      7  C1' I4B d   1      -1.740   0.842   1.383  0.00  0.00     0.060 C 
BRANCH   7   8
ATOM      8  C2' I4B d   1      -1.323   0.690   2.831  0.00  0.00    -0.013 C 
ATOM      9  C4' I4B d   1      -1.476   1.987   3.581  0.00  0.00     0.013 C 
ATOM     10  C3' I4B d   1      -2.161  -0.392   3.443  0.00  0.00     0.013 C 
ENDBRANCH   7   8
ENDBRANCH   1   7
TORSDOF 2
ENDMDL
