MODEL 1
REMARK minimizedAffinity -3.7032907
REMARK minimizedRMSD -1
REMARK  1 active torsions:
REMARK  status: ('A' for Active; 'I' for Inactive)
REMARK    1  A    between atoms: C3_4  and  O_7 
ROOT
ATOM      1  C   UNL d   1      -0.642  -2.701  -1.324  0.00  0.00    -0.033 A 
ATOM      2  C1  UNL d   1      -0.591  -1.363  -1.721  0.00  0.00     0.039 A 
ATOM      3  C2  UNL d   1      -0.313  -1.038  -3.050  0.00  0.00    -0.080 A 
ATOM      4  C3  UNL d   1      -0.088  -2.057  -3.971  0.00  0.00     0.150 A 
ATOM      5  C4  UNL d   1      -0.141  -3.392  -3.583  0.00  0.00    -0.007 A 
ATOM      6  C5  UNL d   1      -0.419  -3.716  -2.256  0.00  0.00     0.039 A 
ENDROOT
BRANCH   4   7
ATOM      7  O   UNL d   1       0.193  -1.788  -5.277  0.00  0.00    -0.526 OA
ATOM      8  H5  UNL d   1       0.225  -0.824  -5.393  0.00  0.00     0.418 HD
ENDBRANCH   4   7
TORSDOF 1
ENDMDL
