MODEL 1
REMARK minimizedAffinity -3.92614651
REMARK minimizedRMSD -1
REMARK  1 active torsions:
REMARK  status: ('A' for Active; 'I' for Inactive)
REMARK    1  A    between atoms: C3_4  and  O_7 
ROOT
ATOM      1  C   UNL d   1      -0.039   2.312   0.546  0.00  0.00    -0.033 A 
ATOM      2  C1  UNL d   1      -0.773   1.373   1.273  0.00  0.00     0.039 A 
ATOM      3  C2  UNL d   1      -0.908   0.068   0.796  0.00  0.00    -0.080 A 
ATOM      4  C3  UNL d   1      -0.304  -0.285  -0.408  0.00  0.00     0.150 A 
ATOM      5  C4  UNL d   1       0.432   0.644  -1.136  0.00  0.00    -0.007 A 
ATOM      6  C5  UNL d   1       0.565   1.947  -0.658  0.00  0.00     0.039 A 
ENDROOT
BRANCH   4   7
ATOM      7  O   UNL d   1      -0.411  -1.545  -0.917  0.00  0.00    -0.526 OA
ATOM      8  H5  UNL d   1      -0.972  -2.071  -0.322  0.00  0.00     0.418 HD
ENDBRANCH   4   7
TORSDOF 1
ENDMDL
