MODEL 1
REMARK minimizedAffinity -3.52832341
REMARK minimizedRMSD -1
REMARK  1 active torsions:
REMARK  status: ('A' for Active; 'I' for Inactive)
REMARK    1  A    between atoms: C3_4  and  O_7 
ROOT
ATOM      1  C   UNL d   1      -0.494  -0.807   0.330  0.00  0.00    -0.033 A 
ATOM      2  C1  UNL d   1       0.712  -0.271  -0.127  0.00  0.00     0.039 A 
ATOM      3  C2  UNL d   1       0.894   1.113  -0.162  0.00  0.00    -0.080 A 
ATOM      4  C3  UNL d   1      -0.136   1.948   0.262  0.00  0.00     0.150 A 
ATOM      5  C4  UNL d   1      -1.338   1.421   0.721  0.00  0.00    -0.007 A 
ATOM      6  C5  UNL d   1      -1.518   0.039   0.755  0.00  0.00     0.039 A 
ENDROOT
BRANCH   4   7
ATOM      7  O   UNL d   1      -0.007   3.305   0.241  0.00  0.00    -0.526 OA
ATOM      8  H5  UNL d   1       0.865   3.526  -0.127  0.00  0.00     0.418 HD
ENDBRANCH   4   7
TORSDOF 1
ENDMDL
