MODEL 1
REMARK minimizedAffinity -1.56455076
REMARK minimizedRMSD -1
REMARK  1 active torsions:
REMARK  status: ('A' for Active; 'I' for Inactive)
REMARK    1  A    between atoms: C3_4  and  O_7 
ROOT
ATOM      1  C   UNL d   1      -0.193   1.743   0.956  0.00  0.00    -0.033 A 
ATOM      2  C1  UNL d   1       0.886   0.857   0.996  0.00  0.00     0.039 A 
ATOM      3  C2  UNL d   1       0.788  -0.393   0.383  0.00  0.00    -0.080 A 
ATOM      4  C3  UNL d   1      -0.392  -0.744  -0.268  0.00  0.00     0.150 A 
ATOM      5  C4  UNL d   1      -1.469   0.135  -0.315  0.00  0.00    -0.007 A 
ATOM      6  C5  UNL d   1      -1.369   1.383   0.299  0.00  0.00     0.039 A 
ENDROOT
BRANCH   4   7
ATOM      7  O   UNL d   1      -0.536  -1.955  -0.877  0.00  0.00    -0.526 OA
ATOM      8  H5  UNL d   1       0.277  -2.469  -0.738  0.00  0.00     0.418 HD
ENDBRANCH   4   7
TORSDOF 1
ENDMDL
