MODEL 1
REMARK minimizedAffinity -3.4153285
REMARK minimizedRMSD -1
REMARK  1 active torsions:
REMARK  status: ('A' for Active; 'I' for Inactive)
REMARK    1  A    between atoms: C3_4  and  O_7 
ROOT
ATOM      1  C   UNL d   1       0.097  -1.008   0.329  0.00  0.00    -0.033 A 
ATOM      2  C1  UNL d   1      -1.118  -0.375   0.601  0.00  0.00     0.039 A 
ATOM      3  C2  UNL d   1      -1.226   1.012   0.488  0.00  0.00    -0.080 A 
ATOM      4  C3  UNL d   1      -0.113   1.754   0.100  0.00  0.00     0.150 A 
ATOM      5  C4  UNL d   1       1.099   1.131  -0.176  0.00  0.00    -0.007 A 
ATOM      6  C5  UNL d   1       1.205  -0.255  -0.061  0.00  0.00     0.039 A 
ENDROOT
BRANCH   4   7
ATOM      7  O   UNL d   1      -0.169   3.111  -0.020  0.00  0.00    -0.526 OA
ATOM      8  H5  UNL d   1      -1.060   3.406   0.231  0.00  0.00     0.418 HD
ENDBRANCH   4   7
TORSDOF 1
ENDMDL
