MODEL 1
REMARK minimizedAffinity -4.30808592
REMARK minimizedRMSD -1
REMARK  1 active torsions:
REMARK  status: ('A' for Active; 'I' for Inactive)
REMARK    1  A    between atoms: C3_4  and  O_7 
ROOT
ATOM      1  C   UNL d   1      -0.155   3.118   0.371  0.00  0.00    -0.033 A 
ATOM      2  C1  UNL d   1      -1.303   2.406   0.726  0.00  0.00     0.039 A 
ATOM      3  C2  UNL d   1      -1.306   1.011   0.671  0.00  0.00    -0.080 A 
ATOM      4  C3  UNL d   1      -0.156   0.341   0.261  0.00  0.00     0.150 A 
ATOM      5  C4  UNL d   1       0.992   1.044  -0.089  0.00  0.00    -0.007 A 
ATOM      6  C5  UNL d   1       0.993   2.437  -0.035  0.00  0.00     0.039 A 
ENDROOT
BRANCH   4   7
ATOM      7  O   UNL d   1      -0.112  -1.020   0.187  0.00  0.00    -0.526 OA
ATOM      8  H5  UNL d   1      -0.986  -1.369   0.431  0.00  0.00     0.418 HD
ENDBRANCH   4   7
TORSDOF 1
ENDMDL
