MODEL 1
REMARK minimizedAffinity -4.97421646
REMARK minimizedRMSD -1
REMARK  1 active torsions:
REMARK  status: ('A' for Active; 'I' for Inactive)
REMARK    1  A    between atoms: C3_4  and  O_7 
ROOT
ATOM      1  C   UNL d   1      -0.409  -0.129   0.713  0.00  0.00    -0.033 A 
ATOM      2  C1  UNL d   1       0.737   0.388   0.106  0.00  0.00     0.039 A 
ATOM      3  C2  UNL d   1       0.754   1.708  -0.349  0.00  0.00    -0.080 A 
ATOM      4  C3  UNL d   1      -0.380   2.500  -0.190  0.00  0.00     0.150 A 
ATOM      5  C4  UNL d   1      -1.524   1.993   0.417  0.00  0.00    -0.007 A 
ATOM      6  C5  UNL d   1      -1.539   0.674   0.870  0.00  0.00     0.039 A 
ENDROOT
BRANCH   4   7
ATOM      7  O   UNL d   1      -0.412   3.793  -0.622  0.00  0.00    -0.526 OA
ATOM      8  H5  UNL d   1       0.438   3.997  -1.046  0.00  0.00     0.418 HD
ENDBRANCH   4   7
TORSDOF 1
ENDMDL
