MODEL 1
REMARK minimizedAffinity -0.088696681
REMARK minimizedRMSD -1
REMARK  1 active torsions:
REMARK  status: ('A' for Active; 'I' for Inactive)
REMARK    1  A    between atoms: C3_4  and  O_7 
ROOT
ATOM      1  C   UNL d   1      -1.123  -3.552  -2.140  0.00  0.00    -0.033 A 
ATOM      2  C1  UNL d   1      -1.907  -4.522  -2.769  0.00  0.00     0.039 A 
ATOM      3  C2  UNL d   1      -2.944  -5.144  -2.071  0.00  0.00    -0.080 A 
ATOM      4  C3  UNL d   1      -3.187  -4.788  -0.747  0.00  0.00     0.150 A 
ATOM      5  C4  UNL d   1      -2.412  -3.821  -0.116  0.00  0.00    -0.007 A 
ATOM      6  C5  UNL d   1      -1.377  -3.201  -0.814  0.00  0.00     0.039 A 
ENDROOT
BRANCH   4   7
ATOM      7  O   UNL d   1      -4.185  -5.371  -0.024  0.00  0.00    -0.526 OA
ATOM      8  H5  UNL d   1      -4.617  -6.040  -0.580  0.00  0.00     0.418 HD
ENDBRANCH   4   7
TORSDOF 1
ENDMDL
