MODEL 1
REMARK minimizedAffinity -3.62695813
REMARK minimizedRMSD -1
REMARK  1 active torsions:
REMARK  status: ('A' for Active; 'I' for Inactive)
REMARK    1  A    between atoms: C3_4  and  O_7 
ROOT
ATOM      1  C   UNL d   1      -0.959  -3.691  -2.502  0.00  0.00    -0.033 A 
ATOM      2  C1  UNL d   1      -1.922  -3.697  -1.492  0.00  0.00     0.039 A 
ATOM      3  C2  UNL d   1      -1.785  -2.853  -0.389  0.00  0.00    -0.080 A 
ATOM      4  C3  UNL d   1      -0.681  -2.008  -0.308  0.00  0.00     0.150 A 
ATOM      5  C4  UNL d   1       0.281  -1.994  -1.313  0.00  0.00    -0.007 A 
ATOM      6  C5  UNL d   1       0.142  -2.839  -2.414  0.00  0.00     0.039 A 
ENDROOT
BRANCH   4   7
ATOM      7  O   UNL d   1      -0.501  -1.170   0.752  0.00  0.00    -0.526 OA
ATOM      8  H5  UNL d   1      -1.229  -1.309   1.381  0.00  0.00     0.418 HD
ENDBRANCH   4   7
TORSDOF 1
ENDMDL
