MODEL 1
REMARK minimizedAffinity -4.14658308
REMARK minimizedRMSD -1
REMARK  1 active torsions:
REMARK  status: ('A' for Active; 'I' for Inactive)
REMARK    1  A    between atoms: C3_4  and  O_7 
ROOT
ATOM      1  C   UNL d   1      -0.480  -0.332   0.223  0.00  0.00    -0.033 A 
ATOM      2  C1  UNL d   1       0.703   0.222  -0.271  0.00  0.00     0.039 A 
ATOM      3  C2  UNL d   1       0.819   1.606  -0.421  0.00  0.00    -0.080 A 
ATOM      4  C3  UNL d   1      -0.254   2.423  -0.073  0.00  0.00     0.150 A 
ATOM      5  C4  UNL d   1      -1.433   1.878   0.423  0.00  0.00    -0.007 A 
ATOM      6  C5  UNL d   1      -1.547   0.496   0.571  0.00  0.00     0.039 A 
ENDROOT
BRANCH   4   7
ATOM      7  O   UNL d   1      -0.190   3.778  -0.207  0.00  0.00    -0.526 OA
ATOM      8  H5  UNL d   1       0.674   4.009  -0.588  0.00  0.00     0.418 HD
ENDBRANCH   4   7
TORSDOF 1
ENDMDL
