MODEL 1
REMARK minimizedAffinity -5.02686834
REMARK minimizedRMSD -1
REMARK  1 active torsions:
REMARK  status: ('A' for Active; 'I' for Inactive)
REMARK    1  A    between atoms: C3_4  and  O_7 
ROOT
ATOM      1  C   UNL d   1       1.159   3.189   0.611  0.00  0.00    -0.033 A 
ATOM      2  C1  UNL d   1       2.159   2.221   0.503  0.00  0.00     0.039 A 
ATOM      3  C2  UNL d   1       1.823   0.898   0.208  0.00  0.00    -0.080 A 
ATOM      4  C3  UNL d   1       0.486   0.557   0.024  0.00  0.00     0.150 A 
ATOM      5  C4  UNL d   1      -0.515   1.517   0.127  0.00  0.00    -0.007 A 
ATOM      6  C5  UNL d   1      -0.178   2.838   0.422  0.00  0.00     0.039 A 
ENDROOT
BRANCH   4   7
ATOM      7  O   UNL d   1       0.110  -0.722  -0.260  0.00  0.00    -0.526 OA
ATOM      8  H5  UNL d   1       0.905  -1.281  -0.272  0.00  0.00     0.418 HD
ENDBRANCH   4   7
TORSDOF 1
ENDMDL
