MODEL 1
REMARK minimizedAffinity -4.23520088
REMARK minimizedRMSD -1
REMARK  1 active torsions:
REMARK  status: ('A' for Active; 'I' for Inactive)
REMARK    1  A    between atoms: C3_4  and  O_7 
ROOT
ATOM      1  C   UNL d   1       1.407   3.183  -0.162  0.00  0.00    -0.033 A 
ATOM      2  C1  UNL d   1       2.243   2.224   0.413  0.00  0.00     0.039 A 
ATOM      3  C2  UNL d   1       2.405   2.177   1.799  0.00  0.00    -0.080 A 
ATOM      4  C3  UNL d   1       1.725   3.094   2.597  0.00  0.00     0.150 A 
ATOM      5  C4  UNL d   1       0.888   4.049   2.031  0.00  0.00    -0.007 A 
ATOM      6  C5  UNL d   1       0.728   4.095   0.647  0.00  0.00     0.039 A 
ENDROOT
BRANCH   4   7
ATOM      7  O   UNL d   1       1.855   3.090   3.954  0.00  0.00    -0.526 OA
ATOM      8  H5  UNL d   1       2.487   2.395   4.201  0.00  0.00     0.418 HD
ENDBRANCH   4   7
TORSDOF 1
ENDMDL
