MODEL 1
REMARK minimizedAffinity -3.32986927
REMARK minimizedRMSD -1
REMARK  1 active torsions:
REMARK  status: ('A' for Active; 'I' for Inactive)
REMARK    1  A    between atoms: C3_4  and  O_7 
ROOT
ATOM      1  C   UNL d   1       0.707  -1.055   0.407  0.00  0.00    -0.033 A 
ATOM      2  C1  UNL d   1      -0.631  -0.656   0.357  0.00  0.00     0.039 A 
ATOM      3  C2  UNL d   1      -0.955   0.700   0.292  0.00  0.00    -0.080 A 
ATOM      4  C3  UNL d   1       0.065   1.647   0.277  0.00  0.00     0.150 A 
ATOM      5  C4  UNL d   1       1.400   1.257   0.323  0.00  0.00    -0.007 A 
ATOM      6  C5  UNL d   1       1.722  -0.098   0.388  0.00  0.00     0.039 A 
ENDROOT
BRANCH   4   7
ATOM      7  O   UNL d   1      -0.203   2.982   0.220  0.00  0.00    -0.526 OA
ATOM      8  H5  UNL d   1      -1.167   3.103   0.222  0.00  0.00     0.418 HD
ENDBRANCH   4   7
TORSDOF 1
ENDMDL
