MODEL 1
REMARK minimizedAffinity -4.45845556
REMARK minimizedRMSD -1
REMARK  1 active torsions:
REMARK  status: ('A' for Active; 'I' for Inactive)
REMARK    1  A    between atoms: C3_4  and  O_7 
ROOT
ATOM      1  C   UNL d   1       0.112   2.552   0.486  0.00  0.00    -0.033 A 
ATOM      2  C1  UNL d   1       1.237   1.731   0.389  0.00  0.00     0.039 A 
ATOM      3  C2  UNL d   1       1.085   0.359   0.175  0.00  0.00    -0.080 A 
ATOM      4  C3  UNL d   1      -0.194  -0.177   0.058  0.00  0.00     0.150 A 
ATOM      5  C4  UNL d   1      -1.319   0.636   0.149  0.00  0.00    -0.007 A 
ATOM      6  C5  UNL d   1      -1.166   2.005   0.364  0.00  0.00     0.039 A 
ENDROOT
BRANCH   4   7
ATOM      7  O   UNL d   1      -0.392  -1.510  -0.146  0.00  0.00    -0.526 OA
ATOM      8  H5  UNL d   1       0.474  -1.952  -0.159  0.00  0.00     0.418 HD
ENDBRANCH   4   7
TORSDOF 1
ENDMDL
