MODEL 1
REMARK minimizedAffinity -4.82184362
REMARK minimizedRMSD -1
REMARK  0 active torsions:
REMARK  status: ('A' for Active; 'I' for Inactive)
ROOT
ATOM      1  C1  BNZ d   1       0.753   0.771   1.406  0.00  0.00     0.000 A 
ATOM      2  C2  BNZ d   1       0.375   0.408   2.672  0.00  0.00     0.000 A 
ATOM      3  C3  BNZ d   1      -0.513  -0.611   2.872  0.00  0.00     0.000 A 
ATOM      4  C4  BNZ d   1      -1.053  -1.239   1.807  0.00  0.00     0.000 A 
ATOM      5  C5  BNZ d   1      -0.689  -0.879   0.525  0.00  0.00     0.000 A 
ATOM      6  C6  BNZ d   1       0.235   0.122   0.328  0.00  0.00     0.000 A 
ENDROOT
TORSDOF 0
ENDMDL
