MODEL 1
REMARK minimizedAffinity -4.14667988
REMARK minimizedRMSD -1
REMARK  0 active torsions:
REMARK  status: ('A' for Active; 'I' for Inactive)
ROOT
ATOM      1  C1  BNZ d   1       1.484   0.523   1.720  0.00  0.00     0.000 A 
ATOM      2  C2  BNZ d   1       0.728   0.579   2.861  0.00  0.00     0.000 A 
ATOM      3  C3  BNZ d   1      -0.536   0.058   2.889  0.00  0.00     0.000 A 
ATOM      4  C4  BNZ d   1      -1.056  -0.481   1.767  0.00  0.00     0.000 A 
ATOM      5  C5  BNZ d   1      -0.309  -0.536   0.607  0.00  0.00     0.000 A 
ATOM      6  C6  BNZ d   1       0.977  -0.046   0.593  0.00  0.00     0.000 A 
ENDROOT
TORSDOF 0
ENDMDL
