MODEL 1
REMARK minimizedAffinity -4.09348917
REMARK minimizedRMSD -1
REMARK  0 active torsions:
REMARK  status: ('A' for Active; 'I' for Inactive)
ROOT
ATOM      1  C1  BNZ d   1      -1.120  -0.476   2.010  0.00  0.00     0.000 A 
ATOM      2  C2  BNZ d   1      -0.591  -0.405   0.749  0.00  0.00     0.000 A 
ATOM      3  C3  BNZ d   1       0.601   0.225   0.525  0.00  0.00     0.000 A 
ATOM      4  C4  BNZ d   1       1.242   0.817   1.553  0.00  0.00     0.000 A 
ATOM      5  C5  BNZ d   1       0.717   0.763   2.829  0.00  0.00     0.000 A 
ATOM      6  C6  BNZ d   1      -0.464   0.094   3.058  0.00  0.00     0.000 A 
ENDROOT
TORSDOF 0
ENDMDL
