MODEL 1
REMARK minimizedAffinity -4.55540419
REMARK minimizedRMSD -1
REMARK  0 active torsions:
REMARK  status: ('A' for Active; 'I' for Inactive)
ROOT
ATOM      1  C1  BNZ d   1      -1.264  -0.336   1.018  0.00  0.00     0.000 A 
ATOM      2  C2  BNZ d   1      -0.554  -0.221  -0.147  0.00  0.00     0.000 A 
ATOM      3  C3  BNZ d   1       0.757   0.165  -0.133  0.00  0.00     0.000 A 
ATOM      4  C4  BNZ d   1       1.345   0.474   1.041  0.00  0.00     0.000 A 
ATOM      5  C5  BNZ d   1       0.640   0.373   2.224  0.00  0.00     0.000 A 
ATOM      6  C6  BNZ d   1      -0.669  -0.054   2.209  0.00  0.00     0.000 A 
ENDROOT
TORSDOF 0
ENDMDL
