MODEL 1
REMARK minimizedAffinity -4.77492237
REMARK minimizedRMSD -1
REMARK  0 active torsions:
REMARK  status: ('A' for Active; 'I' for Inactive)
ROOT
ATOM      1  C1  BNZ d   1      -0.649  -0.466   1.223  0.00  0.00     0.000 A 
ATOM      2  C2  BNZ d   1      -1.021  -0.541   2.539  0.00  0.00     0.000 A 
ATOM      3  C3  BNZ d   1      -0.223  -0.025   3.522  0.00  0.00     0.000 A 
ATOM      4  C4  BNZ d   1       0.962   0.528   3.192  0.00  0.00     0.000 A 
ATOM      5  C5  BNZ d   1       1.356   0.602   1.871  0.00  0.00     0.000 A 
ATOM      6  C6  BNZ d   1       0.532   0.117   0.881  0.00  0.00     0.000 A 
ENDROOT
TORSDOF 0
ENDMDL
