MODEL 1
REMARK minimizedAffinity -4.17684269
REMARK minimizedRMSD -1
REMARK  0 active torsions:
REMARK  status: ('A' for Active; 'I' for Inactive)
ROOT
ATOM      1  C1  BNZ d   1      -0.098  -0.705  -2.489  0.00  0.00     0.000 A 
ATOM      2  C2  BNZ d   1       0.840   0.291  -2.547  0.00  0.00     0.000 A 
ATOM      3  C3  BNZ d   1       1.965   0.150  -3.311  0.00  0.00     0.000 A 
ATOM      4  C4  BNZ d   1       2.169  -1.002  -3.984  0.00  0.00     0.000 A 
ATOM      5  C5  BNZ d   1       1.237  -2.019  -3.927  0.00  0.00     0.000 A 
ATOM      6  C6  BNZ d   1       0.088  -1.858  -3.188  0.00  0.00     0.000 A 
ENDROOT
TORSDOF 0
ENDMDL
