MODEL 1
REMARK minimizedAffinity -4.27969503
REMARK minimizedRMSD -1
REMARK  0 active torsions:
REMARK  status: ('A' for Active; 'I' for Inactive)
ROOT
ATOM      1  C1  BNZ d   1      -0.643  -0.358   0.636  0.00  0.00     0.000 A 
ATOM      2  C2  BNZ d   1      -1.199  -0.751   1.825  0.00  0.00     0.000 A 
ATOM      3  C3  BNZ d   1      -0.462  -0.750   2.976  0.00  0.00     0.000 A 
ATOM      4  C4  BNZ d   1       0.838  -0.396   2.931  0.00  0.00     0.000 A 
ATOM      5  C5  BNZ d   1       1.416  -0.007   1.738  0.00  0.00     0.000 A 
ATOM      6  C6  BNZ d   1       0.661   0.028   0.589  0.00  0.00     0.000 A 
ENDROOT
TORSDOF 0
ENDMDL
