MODEL 1
REMARK minimizedAffinity -4.16286755
REMARK minimizedRMSD -1
REMARK  0 active torsions:
REMARK  status: ('A' for Active; 'I' for Inactive)
ROOT
ATOM      1  C1  BNZ d   1      -0.677  -0.760   0.543  0.00  0.00     0.000 A 
ATOM      2  C2  BNZ d   1      -0.951  -0.898   1.877  0.00  0.00     0.000 A 
ATOM      3  C3  BNZ d   1      -0.208  -0.240   2.817  0.00  0.00     0.000 A 
ATOM      4  C4  BNZ d   1       0.833   0.522   2.424  0.00  0.00     0.000 A 
ATOM      5  C5  BNZ d   1       1.128   0.664   1.083  0.00  0.00     0.000 A 
ATOM      6  C6  BNZ d   1       0.354   0.032   0.138  0.00  0.00     0.000 A 
ENDROOT
TORSDOF 0
ENDMDL
