MODEL 1
REMARK minimizedAffinity -4.60386705
REMARK minimizedRMSD -1
REMARK  0 active torsions:
REMARK  status: ('A' for Active; 'I' for Inactive)
ROOT
ATOM      1  C1  BNZ d   1      -1.337  -0.457   1.012  0.00  0.00     0.000 A 
ATOM      2  C2  BNZ d   1      -0.674  -0.472   2.210  0.00  0.00     0.000 A 
ATOM      3  C3  BNZ d   1       0.658  -0.169   2.276  0.00  0.00     0.000 A 
ATOM      4  C4  BNZ d   1       1.332   0.108   1.141  0.00  0.00     0.000 A 
ATOM      5  C5  BNZ d   1       0.679   0.118  -0.075  0.00  0.00     0.000 A 
ATOM      6  C6  BNZ d   1      -0.670  -0.149  -0.133  0.00  0.00     0.000 A 
ENDROOT
TORSDOF 0
ENDMDL
