MODEL 1
REMARK minimizedAffinity -4.40796709
REMARK minimizedRMSD -1
REMARK  0 active torsions:
REMARK  status: ('A' for Active; 'I' for Inactive)
ROOT
ATOM      1  C1  BNZ d   1       0.921   0.469   2.394  0.00  0.00     0.000 A 
ATOM      2  C2  BNZ d   1      -0.205  -0.214   2.772  0.00  0.00     0.000 A 
ATOM      3  C3  BNZ d   1      -0.942  -0.910   1.856  0.00  0.00     0.000 A 
ATOM      4  C4  BNZ d   1      -0.576  -0.890   0.558  0.00  0.00     0.000 A 
ATOM      5  C5  BNZ d   1       0.551  -0.199   0.159  0.00  0.00     0.000 A 
ATOM      6  C6  BNZ d   1       1.312   0.469   1.091  0.00  0.00     0.000 A 
ENDROOT
TORSDOF 0
ENDMDL
