MODEL 1
REMARK minimizedAffinity -4.91659451
REMARK minimizedRMSD -1
REMARK  0 active torsions:
REMARK  status: ('A' for Active; 'I' for Inactive)
ROOT
ATOM      1  C1  BNZ d   1       1.220   0.360   0.994  0.00  0.00     0.000 A 
ATOM      2  C2  BNZ d   1       1.072   0.172   2.343  0.00  0.00     0.000 A 
ATOM      3  C3  BNZ d   1      -0.060  -0.402   2.849  0.00  0.00     0.000 A 
ATOM      4  C4  BNZ d   1      -1.059  -0.750   2.012  0.00  0.00     0.000 A 
ATOM      5  C5  BNZ d   1      -0.929  -0.558   0.651  0.00  0.00     0.000 A 
ATOM      6  C6  BNZ d   1       0.228  -0.016   0.141  0.00  0.00     0.000 A 
ENDROOT
TORSDOF 0
ENDMDL
