MODEL 1
REMARK minimizedAffinity -4.14191341
REMARK minimizedRMSD -1
REMARK  0 active torsions:
REMARK  status: ('A' for Active; 'I' for Inactive)
ROOT
ATOM      1  C1  BNZ d   1      -0.486  -0.157   0.451  0.00  0.00     0.000 A 
ATOM      2  C2  BNZ d   1      -1.115  -0.319   1.656  0.00  0.00     0.000 A 
ATOM      3  C3  BNZ d   1      -0.425  -0.187   2.829  0.00  0.00     0.000 A 
ATOM      4  C4  BNZ d   1       0.899   0.068   2.795  0.00  0.00     0.000 A 
ATOM      5  C5  BNZ d   1       1.549   0.225   1.587  0.00  0.00     0.000 A 
ATOM      6  C6  BNZ d   1       0.844   0.130   0.409  0.00  0.00     0.000 A 
ENDROOT
TORSDOF 0
ENDMDL
