MODEL 1
REMARK minimizedAffinity -3.91068769
REMARK minimizedRMSD -1
REMARK  0 active torsions:
REMARK  status: ('A' for Active; 'I' for Inactive)
ROOT
ATOM      1  C1  BNZ d   1      -1.411  -0.628   1.917  0.00  0.00     0.000 A 
ATOM      2  C2  BNZ d   1      -0.839  -0.513   0.678  0.00  0.00     0.000 A 
ATOM      3  C3  BNZ d   1       0.400   0.045   0.529  0.00  0.00     0.000 A 
ATOM      4  C4  BNZ d   1       1.048   0.522   1.611  0.00  0.00     0.000 A 
ATOM      5  C5  BNZ d   1       0.480   0.422   2.866  0.00  0.00     0.000 A 
ATOM      6  C6  BNZ d   1      -0.750  -0.175   3.018  0.00  0.00     0.000 A 
ENDROOT
TORSDOF 0
ENDMDL
