MODEL 1
REMARK minimizedAffinity -1.387339
REMARK minimizedRMSD -1
REMARK  0 active torsions:
REMARK  status: ('A' for Active; 'I' for Inactive)
ROOT
ATOM      1  C1  BNZ d   1      -0.152   0.012   0.007  0.00  0.00     0.000 A 
ATOM      2  C2  BNZ d   1       0.533  -0.023   1.192  0.00  0.00     0.000 A 
ATOM      3  C3  BNZ d   1      -0.131   0.035   2.386  0.00  0.00     0.000 A 
ATOM      4  C4  BNZ d   1      -1.473   0.169   2.392  0.00  0.00     0.000 A 
ATOM      5  C5  BNZ d   1      -2.177   0.215   1.206  0.00  0.00     0.000 A 
ATOM      6  C6  BNZ d   1      -1.509   0.117   0.007  0.00  0.00     0.000 A 
ENDROOT
TORSDOF 0
ENDMDL
