MODEL 1
REMARK minimizedAffinity -4.10247707
REMARK minimizedRMSD -1
REMARK  0 active torsions:
REMARK  status: ('A' for Active; 'I' for Inactive)
ROOT
ATOM      1  C1  BNZ d   1       1.287   0.242   1.508  0.00  0.00     0.000 A 
ATOM      2  C2  BNZ d   1       0.797  -0.097   2.741  0.00  0.00     0.000 A 
ATOM      3  C3  BNZ d   1      -0.366  -0.805   2.861  0.00  0.00     0.000 A 
ATOM      4  C4  BNZ d   1      -1.057  -1.138   1.752  0.00  0.00     0.000 A 
ATOM      5  C5  BNZ d   1      -0.581  -0.796   0.502  0.00  0.00     0.000 A 
ATOM      6  C6  BNZ d   1       0.610  -0.117   0.384  0.00  0.00     0.000 A 
ENDROOT
TORSDOF 0
ENDMDL
