MODEL 1
REMARK minimizedAffinity -4.77238512
REMARK minimizedRMSD -1
REMARK  0 active torsions:
REMARK  status: ('A' for Active; 'I' for Inactive)
ROOT
ATOM      1  C1  BNZ d   1       1.114  -0.056   2.823  0.00  0.00     0.000 A 
ATOM      2  C2  BNZ d   1       1.736   0.178   1.625  0.00  0.00     0.000 A 
ATOM      3  C3  BNZ d   1       1.025   0.182   0.457  0.00  0.00     0.000 A 
ATOM      4  C4  BNZ d   1      -0.296  -0.086   0.484  0.00  0.00     0.000 A 
ATOM      5  C5  BNZ d   1      -0.935  -0.333   1.682  0.00  0.00     0.000 A 
ATOM      6  C6  BNZ d   1      -0.225  -0.298   2.860  0.00  0.00     0.000 A 
ENDROOT
TORSDOF 0
ENDMDL
