MODEL 1
REMARK minimizedAffinity -5.16270304
REMARK minimizedRMSD -1
REMARK  0 active torsions:
REMARK  status: ('A' for Active; 'I' for Inactive)
ROOT
ATOM      1  C1  BNZ d   1      -1.717   0.167   0.712  0.00  0.00     0.000 A 
ATOM      2  C2  BNZ d   1      -2.391   0.300   1.898  0.00  0.00     0.000 A 
ATOM      3  C3  BNZ d   1      -1.754   0.102   3.091  0.00  0.00     0.000 A 
ATOM      4  C4  BNZ d   1      -0.457  -0.268   3.096  0.00  0.00     0.000 A 
ATOM      5  C5  BNZ d   1       0.234  -0.415   1.909  0.00  0.00     0.000 A 
ATOM      6  C6  BNZ d   1      -0.401  -0.177   0.712  0.00  0.00     0.000 A 
ENDROOT
TORSDOF 0
ENDMDL
