MODEL 1
REMARK minimizedAffinity -3.44346619
REMARK minimizedRMSD -1
REMARK  0 active torsions:
REMARK  status: ('A' for Active; 'I' for Inactive)
ROOT
ATOM      1  C1  BNZ d   1       0.838   0.142   2.146  0.00  0.00     0.000 A 
ATOM      2  C2  BNZ d   1       0.299   0.367   3.385  0.00  0.00     0.000 A 
ATOM      3  C3  BNZ d   1      -1.055   0.352   3.572  0.00  0.00     0.000 A 
ATOM      4  C4  BNZ d   1      -1.869   0.154   2.515  0.00  0.00     0.000 A 
ATOM      5  C5  BNZ d   1      -1.341  -0.065   1.258  0.00  0.00     0.000 A 
ATOM      6  C6  BNZ d   1       0.024  -0.088   1.081  0.00  0.00     0.000 A 
ENDROOT
TORSDOF 0
ENDMDL
