MODEL 1
REMARK minimizedAffinity -4.01093006
REMARK minimizedRMSD -1
REMARK  0 active torsions:
REMARK  status: ('A' for Active; 'I' for Inactive)
ROOT
ATOM      1  C1  BNZ d   1      -0.917  -0.252   0.674  0.00  0.00     0.000 A 
ATOM      2  C2  BNZ d   1      -1.440  -0.300   1.939  0.00  0.00     0.000 A 
ATOM      3  C3  BNZ d   1      -0.633  -0.178   3.035  0.00  0.00     0.000 A 
ATOM      4  C4  BNZ d   1       0.699  -0.049   2.867  0.00  0.00     0.000 A 
ATOM      5  C5  BNZ d   1       1.243  -0.008   1.599  0.00  0.00     0.000 A 
ATOM      6  C6  BNZ d   1       0.423  -0.092   0.497  0.00  0.00     0.000 A 
ENDROOT
TORSDOF 0
ENDMDL
