MODEL 1
REMARK minimizedAffinity -2.44234061
REMARK minimizedRMSD -1
REMARK  1 active torsions:
REMARK  status: ('A' for Active; 'I' for Inactive)
REMARK    1  A    between atoms: N_2  and  C1_3 
ROOT
ATOM      1  C1  UNL d   1       0.218   0.367   0.208  0.00  0.00     0.143 A 
ATOM      2  C2  UNL d   1      -0.418   0.064   1.416  0.00  0.00    -0.057 A 
ATOM      3  C3  UNL d   1      -1.071   1.054   2.162  0.00  0.00     0.033 A 
ATOM      4  C4  UNL d   1      -1.074   2.374   1.724  0.00  0.00    -0.042 A 
ATOM      5  C5  UNL d   1      -0.426   2.703   0.538  0.00  0.00     0.033 A 
ATOM      6  C6  UNL d   1       0.218   1.709  -0.205  0.00  0.00    -0.057 A 
ENDROOT
BRANCH   1   7
ATOM      7  N   UNL d   1       0.968  -0.553  -0.528  0.00  0.00    -0.732 N 
ATOM      8  C   UNL d   1       0.332  -1.697  -1.145  0.00  0.00     0.284 C 
ATOM      9  H3  UNL d   1       1.671  -0.103  -1.112  0.00  0.00     0.395 HD
ENDBRANCH   1   7
TORSDOF 1
ENDMDL
