MODEL 1
REMARK minimizedAffinity -3.77434897
REMARK minimizedRMSD -1
REMARK  1 active torsions:
REMARK  status: ('A' for Active; 'I' for Inactive)
REMARK    1  A    between atoms: N_2  and  C1_3 
ROOT
ATOM      1  C1  UNL d   1       0.475  -1.497  -1.173  0.00  0.00     0.143 A 
ATOM      2  C2  UNL d   1      -0.847  -1.530  -0.717  0.00  0.00    -0.057 A 
ATOM      3  C3  UNL d   1      -1.245  -0.804   0.413  0.00  0.00     0.033 A 
ATOM      4  C4  UNL d   1      -0.317  -0.052   1.126  0.00  0.00    -0.042 A 
ATOM      5  C5  UNL d   1       1.008  -0.024   0.705  0.00  0.00     0.033 A 
ATOM      6  C6  UNL d   1       1.397  -0.746  -0.427  0.00  0.00    -0.057 A 
ENDROOT
BRANCH   1   7
ATOM      7  N   UNL d   1       0.953  -2.274  -2.230  0.00  0.00    -0.732 N 
ATOM      8  C   UNL d   1       0.287  -3.504  -2.601  0.00  0.00     0.284 C 
ATOM      9  H3  UNL d   1       1.255  -1.710  -3.021  0.00  0.00     0.395 HD
ENDBRANCH   1   7
TORSDOF 1
ENDMDL
