MODEL 1
REMARK minimizedAffinity -3.5161345
REMARK minimizedRMSD -1
REMARK  1 active torsions:
REMARK  status: ('A' for Active; 'I' for Inactive)
REMARK    1  A    between atoms: N_2  and  C1_3 
ROOT
ATOM      1  C1  UNL d   1       0.617  -1.088  -0.402  0.00  0.00     0.143 A 
ATOM      2  C2  UNL d   1       1.694  -1.493  -1.197  0.00  0.00    -0.057 A 
ATOM      3  C3  UNL d   1       1.513  -2.373  -2.271  0.00  0.00     0.033 A 
ATOM      4  C4  UNL d   1       0.252  -2.888  -2.551  0.00  0.00    -0.042 A 
ATOM      5  C5  UNL d   1      -0.829  -2.519  -1.759  0.00  0.00     0.033 A 
ATOM      6  C6  UNL d   1      -0.643  -1.634  -0.692  0.00  0.00    -0.057 A 
ENDROOT
BRANCH   1   7
ATOM      7  N   UNL d   1       0.748  -0.293   0.739  0.00  0.00    -0.732 N 
ATOM      8  C   UNL d   1      -0.415   0.306   1.359  0.00  0.00     0.284 C 
ATOM      9  H3  UNL d   1       1.423  -0.672   1.401  0.00  0.00     0.395 HD
ENDBRANCH   1   7
TORSDOF 1
ENDMDL
