MODEL 1
REMARK minimizedAffinity -1.07076108
REMARK minimizedRMSD -1
REMARK  1 active torsions:
REMARK  status: ('A' for Active; 'I' for Inactive)
REMARK    1  A    between atoms: N_2  and  C1_3 
ROOT
ATOM      1  C1  UNL d   1      -0.027  -1.600  -0.605  0.00  0.00     0.143 A 
ATOM      2  C2  UNL d   1      -1.291  -1.558  -0.007  0.00  0.00    -0.057 A 
ATOM      3  C3  UNL d   1      -1.498  -0.889   1.206  0.00  0.00     0.033 A 
ATOM      4  C4  UNL d   1      -0.436  -0.273   1.858  0.00  0.00    -0.042 A 
ATOM      5  C5  UNL d   1       0.835  -0.323   1.294  0.00  0.00     0.033 A 
ATOM      6  C6  UNL d   1       1.034  -0.987   0.080  0.00  0.00    -0.057 A 
ENDROOT
BRANCH   1   7
ATOM      7  N   UNL d   1       0.264  -2.332  -1.758  0.00  0.00    -0.732 N 
ATOM      8  C   UNL d   1       0.653  -3.723  -1.670  0.00  0.00     0.284 C 
ATOM      9  H3  UNL d   1      -0.379  -2.128  -2.520  0.00  0.00     0.395 HD
ENDBRANCH   1   7
TORSDOF 1
ENDMDL
