MODEL 1
REMARK minimizedAffinity -1.22075665
REMARK minimizedRMSD -1
REMARK  1 active torsions:
REMARK  status: ('A' for Active; 'I' for Inactive)
REMARK    1  A    between atoms: N_2  and  C1_3 
ROOT
ATOM      1  C1  UNL d   1       0.356  -1.349  -1.080  0.00  0.00     0.143 A 
ATOM      2  C2  UNL d   1      -0.114  -1.291  -2.396  0.00  0.00    -0.057 A 
ATOM      3  C3  UNL d   1      -0.115  -2.425  -3.217  0.00  0.00     0.033 A 
ATOM      4  C4  UNL d   1       0.383  -3.635  -2.744  0.00  0.00    -0.042 A 
ATOM      5  C5  UNL d   1       0.879  -3.710  -1.447  0.00  0.00     0.033 A 
ATOM      6  C6  UNL d   1       0.871  -2.575  -0.630  0.00  0.00    -0.057 A 
ENDROOT
BRANCH   1   7
ATOM      7  N   UNL d   1       0.475  -0.234  -0.246  0.00  0.00    -0.732 N 
ATOM      8  C   UNL d   1      -0.049  -0.263   1.103  0.00  0.00     0.284 C 
ATOM      9  H3  UNL d   1       1.382   0.219  -0.331  0.00  0.00     0.395 HD
ENDBRANCH   1   7
TORSDOF 1
ENDMDL
