MODEL 1
REMARK minimizedAffinity -3.24115324
REMARK minimizedRMSD -1
REMARK  1 active torsions:
REMARK  status: ('A' for Active; 'I' for Inactive)
REMARK    1  A    between atoms: N_2  and  C1_3 
ROOT
ATOM      1  C1  UNL d   1       0.273  -0.002  -0.031  0.00  0.00     0.143 A 
ATOM      2  C2  UNL d   1      -0.348  -0.360   1.171  0.00  0.00    -0.057 A 
ATOM      3  C3  UNL d   1      -1.001   0.592   1.963  0.00  0.00     0.033 A 
ATOM      4  C4  UNL d   1      -1.020   1.929   1.579  0.00  0.00    -0.042 A 
ATOM      5  C5  UNL d   1      -0.388   2.312   0.401  0.00  0.00     0.033 A 
ATOM      6  C6  UNL d   1       0.257   1.355  -0.388  0.00  0.00    -0.057 A 
ENDROOT
BRANCH   1   7
ATOM      7  N   UNL d   1       1.023  -0.885  -0.812  0.00  0.00    -0.732 N 
ATOM      8  C   UNL d   1       0.370  -1.903  -1.607  0.00  0.00     0.284 C 
ATOM      9  H3  UNL d   1       1.798  -0.424  -1.282  0.00  0.00     0.395 HD
ENDBRANCH   1   7
TORSDOF 1
ENDMDL
