MODEL 1
REMARK minimizedAffinity -4.33258104
REMARK minimizedRMSD -1
REMARK  1 active torsions:
REMARK  status: ('A' for Active; 'I' for Inactive)
REMARK    1  A    between atoms: N_2  and  C1_3 
ROOT
ATOM      1  C1  UNL d   1       0.132   0.058   0.259  0.00  0.00     0.143 A 
ATOM      2  C2  UNL d   1       0.139   1.288  -0.407  0.00  0.00    -0.057 A 
ATOM      3  C3  UNL d   1      -0.382   2.441   0.191  0.00  0.00     0.033 A 
ATOM      4  C4  UNL d   1      -0.949   2.378   1.460  0.00  0.00    -0.042 A 
ATOM      5  C5  UNL d   1      -0.990   1.161   2.131  0.00  0.00     0.033 A 
ATOM      6  C6  UNL d   1      -0.461   0.015   1.531  0.00  0.00    -0.057 A 
ENDROOT
BRANCH   1   7
ATOM      7  N   UNL d   1       0.546  -1.144  -0.321  0.00  0.00    -0.732 N 
ATOM      8  C   UNL d   1      -0.393  -1.975  -1.043  0.00  0.00     0.284 C 
ATOM      9  H3  UNL d   1       1.459  -1.068  -0.763  0.00  0.00     0.395 HD
ENDBRANCH   1   7
TORSDOF 1
ENDMDL
