MODEL 1
REMARK minimizedAffinity -3.17948747
REMARK minimizedRMSD -1
REMARK  1 active torsions:
REMARK  status: ('A' for Active; 'I' for Inactive)
REMARK    1  A    between atoms: N_2  and  C1_3 
ROOT
ATOM      1  C1  UNL d   1       0.026  -1.598  -1.148  0.00  0.00     0.143 A 
ATOM      2  C2  UNL d   1      -1.114  -1.490  -0.345  0.00  0.00    -0.057 A 
ATOM      3  C3  UNL d   1      -1.184  -0.555   0.695  0.00  0.00     0.033 A 
ATOM      4  C4  UNL d   1      -0.099   0.270   0.970  0.00  0.00    -0.042 A 
ATOM      5  C5  UNL d   1       1.054   0.163   0.201  0.00  0.00     0.033 A 
ATOM      6  C6  UNL d   1       1.115  -0.767  -0.841  0.00  0.00    -0.057 A 
ENDROOT
BRANCH   1   7
ATOM      7  N   UNL d   1       0.194  -2.574  -2.134  0.00  0.00    -0.732 N 
ATOM      8  C   UNL d   1      -0.458  -3.860  -2.016  0.00  0.00     0.284 C 
ATOM      9  H3  UNL d   1       0.177  -2.183  -3.073  0.00  0.00     0.395 HD
ENDBRANCH   1   7
TORSDOF 1
ENDMDL
