MODEL 1
REMARK minimizedAffinity -2.0672884
REMARK minimizedRMSD -1
REMARK  1 active torsions:
REMARK  status: ('A' for Active; 'I' for Inactive)
REMARK    1  A    between atoms: N_2  and  C1_3 
ROOT
ATOM      1  C1  UNL d   1       0.356   1.221  -0.216  0.00  0.00     0.143 A 
ATOM      2  C2  UNL d   1       0.655  -0.125   0.016  0.00  0.00    -0.057 A 
ATOM      3  C3  UNL d   1       0.220  -0.775   1.178  0.00  0.00     0.033 A 
ATOM      4  C4  UNL d   1      -0.498  -0.079   2.144  0.00  0.00    -0.042 A 
ATOM      5  C5  UNL d   1      -0.785   1.267   1.946  0.00  0.00     0.033 A 
ATOM      6  C6  UNL d   1      -0.354   1.909   0.780  0.00  0.00    -0.057 A 
ENDROOT
BRANCH   1   7
ATOM      7  N   UNL d   1       0.844   1.949  -1.305  0.00  0.00    -0.732 N 
ATOM      8  C   UNL d   1       0.330   3.270  -1.597  0.00  0.00     0.284 C 
ATOM      9  H3  UNL d   1       1.852   1.862  -1.410  0.00  0.00     0.395 HD
ENDBRANCH   1   7
TORSDOF 1
ENDMDL
