MODEL 1
REMARK minimizedAffinity -1.9149611
REMARK minimizedRMSD -1
REMARK  1 active torsions:
REMARK  status: ('A' for Active; 'I' for Inactive)
REMARK    1  A    between atoms: N_2  and  C1_3 
ROOT
ATOM      1  C1  UNL d   1      -0.305  -0.565  -0.208  0.00  0.00     0.143 A 
ATOM      2  C2  UNL d   1       0.252   0.718  -0.189  0.00  0.00    -0.057 A 
ATOM      3  C3  UNL d   1       0.125   1.548   0.931  0.00  0.00     0.033 A 
ATOM      4  C4  UNL d   1      -0.588   1.119   2.046  0.00  0.00    -0.042 A 
ATOM      5  C5  UNL d   1      -1.171  -0.143   2.040  0.00  0.00     0.033 A 
ATOM      6  C6  UNL d   1      -1.035  -0.970   0.920  0.00  0.00    -0.057 A 
ENDROOT
BRANCH   1   7
ATOM      7  N   UNL d   1      -0.298  -1.400  -1.328  0.00  0.00    -0.732 N 
ATOM      8  C   UNL d   1       0.812  -2.297  -1.572  0.00  0.00     0.284 C 
ATOM      9  H3  UNL d   1      -1.211  -1.808  -1.514  0.00  0.00     0.395 HD
ENDBRANCH   1   7
TORSDOF 1
ENDMDL
