MODEL 1
REMARK minimizedAffinity -3.1547761
REMARK minimizedRMSD -1
REMARK  1 active torsions:
REMARK  status: ('A' for Active; 'I' for Inactive)
REMARK    1  A    between atoms: N_2  and  C1_3 
ROOT
ATOM      1  C1  UNL d   1       0.203   1.900   0.216  0.00  0.00     0.143 A 
ATOM      2  C2  UNL d   1       0.796   0.738  -0.290  0.00  0.00    -0.057 A 
ATOM      3  C3  UNL d   1       0.628  -0.498   0.346  0.00  0.00     0.033 A 
ATOM      4  C4  UNL d   1      -0.115  -0.589   1.518  0.00  0.00    -0.042 A 
ATOM      5  C5  UNL d   1      -0.694   0.557   2.052  0.00  0.00     0.033 A 
ATOM      6  C6  UNL d   1      -0.528   1.787   1.409  0.00  0.00    -0.057 A 
ENDROOT
BRANCH   1   7
ATOM      7  N   UNL d   1       0.414   3.175  -0.315  0.00  0.00    -0.732 N 
ATOM      8  C   UNL d   1       0.069   4.357   0.447  0.00  0.00     0.284 C 
ATOM      9  H3  UNL d   1       1.296   3.246  -0.816  0.00  0.00     0.395 HD
ENDBRANCH   1   7
TORSDOF 1
ENDMDL
