MODEL 1
REMARK minimizedAffinity 9.10775757
REMARK minimizedRMSD -1
REMARK  1 active torsions:
REMARK  status: ('A' for Active; 'I' for Inactive)
REMARK    1  A    between atoms: N_2  and  C1_3 
ROOT
ATOM      1  C1  UNL d   1      -4.050   2.996  -3.742  0.00  0.00     0.143 A 
ATOM      2  C2  UNL d   1      -3.665   2.498  -2.493  0.00  0.00    -0.057 A 
ATOM      3  C3  UNL d   1      -3.849   1.151  -2.160  0.00  0.00     0.033 A 
ATOM      4  C4  UNL d   1      -4.452   0.281  -3.062  0.00  0.00    -0.042 A 
ATOM      5  C5  UNL d   1      -4.866   0.759  -4.300  0.00  0.00     0.033 A 
ATOM      6  C6  UNL d   1      -4.673   2.104  -4.630  0.00  0.00    -0.057 A 
ENDROOT
BRANCH   1   7
ATOM      7  N   UNL d   1      -3.983   4.346  -4.097  0.00  0.00    -0.732 N 
ATOM      8  C   UNL d   1      -5.174   5.168  -4.098  0.00  0.00     0.284 C 
ATOM      9  H3  UNL d   1      -3.160   4.807  -3.715  0.00  0.00     0.395 HD
ENDBRANCH   1   7
TORSDOF 1
ENDMDL
