MODEL 1
REMARK minimizedAffinity 5.73510933
REMARK minimizedRMSD -1
REMARK  1 active torsions:
REMARK  status: ('A' for Active; 'I' for Inactive)
REMARK    1  A    between atoms: N_2  and  C1_3 
ROOT
ATOM      1  C1  UNL d   1      -3.753  -0.832   0.871  0.00  0.00     0.143 A 
ATOM      2  C2  UNL d   1      -4.439   0.266   1.401  0.00  0.00    -0.057 A 
ATOM      3  C3  UNL d   1      -4.136   0.768   2.672  0.00  0.00     0.033 A 
ATOM      4  C4  UNL d   1      -3.158   0.159   3.451  0.00  0.00    -0.042 A 
ATOM      5  C5  UNL d   1      -2.480  -0.949   2.956  0.00  0.00     0.033 A 
ATOM      6  C6  UNL d   1      -2.783  -1.441   1.683  0.00  0.00    -0.057 A 
ENDROOT
BRANCH   1   7
ATOM      7  N   UNL d   1      -4.076  -1.438  -0.345  0.00  0.00    -0.732 N 
ATOM      8  C   UNL d   1      -3.194  -1.318  -1.486  0.00  0.00     0.284 C 
ATOM      9  H3  UNL d   1      -4.474  -2.367  -0.223  0.00  0.00     0.395 HD
ENDBRANCH   1   7
TORSDOF 1
ENDMDL
