MODEL 1
REMARK minimizedAffinity 6.55467081
REMARK minimizedRMSD -1
REMARK  1 active torsions:
REMARK  status: ('A' for Active; 'I' for Inactive)
REMARK    1  A    between atoms: N_2  and  C1_3 
ROOT
ATOM      1  C1  UNL d   1       3.009  -3.780   0.706  0.00  0.00     0.143 A 
ATOM      2  C2  UNL d   1       3.453  -4.181  -0.558  0.00  0.00    -0.057 A 
ATOM      3  C3  UNL d   1       4.802  -4.470  -0.796  0.00  0.00     0.033 A 
ATOM      4  C4  UNL d   1       5.739  -4.335   0.224  0.00  0.00    -0.042 A 
ATOM      5  C5  UNL d   1       5.324  -3.914   1.482  0.00  0.00     0.033 A 
ATOM      6  C6  UNL d   1       3.974  -3.633   1.715  0.00  0.00    -0.057 A 
ENDROOT
BRANCH   1   7
ATOM      7  N   UNL d   1       1.697  -3.383   0.980  0.00  0.00    -0.732 N 
ATOM      8  C   UNL d   1       1.369  -1.983   1.141  0.00  0.00     0.284 C 
ATOM      9  H3  UNL d   1       1.012  -3.912   0.446  0.00  0.00     0.395 HD
ENDBRANCH   1   7
TORSDOF 1
ENDMDL
