MODEL 1
REMARK minimizedAffinity 4.27856731
REMARK minimizedRMSD -1
REMARK  1 active torsions:
REMARK  status: ('A' for Active; 'I' for Inactive)
REMARK    1  A    between atoms: N_2  and  C1_3 
ROOT
ATOM      1  C1  UNL d   1       3.129  -4.016   0.688  0.00  0.00     0.143 A 
ATOM      2  C2  UNL d   1       4.220  -3.381   1.291  0.00  0.00    -0.057 A 
ATOM      3  C3  UNL d   1       5.526  -3.587   0.830  0.00  0.00     0.033 A 
ATOM      4  C4  UNL d   1       5.767  -4.458  -0.228  0.00  0.00    -0.042 A 
ATOM      5  C5  UNL d   1       4.701  -5.119  -0.826  0.00  0.00     0.033 A 
ATOM      6  C6  UNL d   1       3.398  -4.904  -0.366  0.00  0.00    -0.057 A 
ENDROOT
BRANCH   1   7
ATOM      7  N   UNL d   1       1.818  -3.929   1.163  0.00  0.00    -0.732 N 
ATOM      8  C   UNL d   1       1.247  -2.647   1.517  0.00  0.00     0.284 C 
ATOM      9  H3  UNL d   1       1.182  -4.544   0.661  0.00  0.00     0.395 HD
ENDBRANCH   1   7
TORSDOF 1
ENDMDL
