MODEL 1
REMARK minimizedAffinity -0.917632699
REMARK minimizedRMSD -1
REMARK  1 active torsions:
REMARK  status: ('A' for Active; 'I' for Inactive)
REMARK    1  A    between atoms: C1_2  and  C2_3 
ROOT
ATOM      1  C2  UNL d   1      -0.355   0.881   0.839  0.00  0.00    -0.081 A 
ATOM      2  C3  UNL d   1       0.904   1.476   0.691  0.00  0.00     0.006 A 
ATOM      3  C4  UNL d   1       2.019   0.702   0.363  0.00  0.00     0.002 A 
ATOM      4  C5  UNL d   1       1.894  -0.678   0.171  0.00  0.00    -0.080 A 
ATOM      5  C6  UNL d   1       3.078  -1.516  -0.211  0.00  0.00     0.076 C 
ATOM      6  C7  UNL d   1       0.640  -1.276   0.336  0.00  0.00     0.002 A 
ATOM      7  C8  UNL d   1      -0.476  -0.502   0.665  0.00  0.00     0.006 A 
ENDROOT
BRANCH   1   8
ATOM      8  C1  UNL d   1      -1.572   1.722   1.129  0.00  0.00     0.054 C 
ATOM      9  C   UNL d   1      -1.253   3.207   1.034  0.00  0.00     0.018 C 
ENDBRANCH   1   8
TORSDOF 1
ENDMDL
