MODEL 1
REMARK minimizedAffinity -0.879124165
REMARK minimizedRMSD -1
REMARK  1 active torsions:
REMARK  status: ('A' for Active; 'I' for Inactive)
REMARK    1  A    between atoms: C1_2  and  C2_3 
ROOT
ATOM      1  C2  UNL d   1      -0.148   0.400   0.476  0.00  0.00    -0.081 A 
ATOM      2  C3  UNL d   1       1.195   0.623   0.803  0.00  0.00     0.006 A 
ATOM      3  C4  UNL d   1       2.208   0.306  -0.106  0.00  0.00     0.002 A 
ATOM      4  C5  UNL d   1       1.894  -0.232  -1.359  0.00  0.00    -0.080 A 
ATOM      5  C6  UNL d   1       2.969  -0.549  -2.355  0.00  0.00     0.076 C 
ATOM      6  C7  UNL d   1       0.553  -0.471  -1.679  0.00  0.00     0.002 A 
ATOM      7  C8  UNL d   1      -0.459  -0.155  -0.770  0.00  0.00     0.006 A 
ENDROOT
BRANCH   1   8
ATOM      8  C1  UNL d   1      -1.245   0.800   1.428  0.00  0.00     0.054 C 
ATOM      9  C   UNL d   1      -1.453   2.308   1.430  0.00  0.00     0.018 C 
ENDBRANCH   1   8
TORSDOF 1
ENDMDL
