MODEL 1
REMARK minimizedAffinity 2.75564718
REMARK minimizedRMSD -1
REMARK  1 active torsions:
REMARK  status: ('A' for Active; 'I' for Inactive)
REMARK    1  A    between atoms: C1_2  and  C2_3 
ROOT
ATOM      1  C2  UNL d   1      -0.703   1.343   0.496  0.00  0.00    -0.081 A 
ATOM      2  C3  UNL d   1       0.465   0.612   0.248  0.00  0.00     0.006 A 
ATOM      3  C4  UNL d   1       1.705   1.091   0.679  0.00  0.00     0.002 A 
ATOM      4  C5  UNL d   1       1.796   2.304   1.370  0.00  0.00    -0.080 A 
ATOM      5  C6  UNL d   1       3.117   2.814   1.864  0.00  0.00     0.076 C 
ATOM      6  C7  UNL d   1       0.631   3.043   1.602  0.00  0.00     0.002 A 
ATOM      7  C8  UNL d   1      -0.608   2.565   1.171  0.00  0.00     0.006 A 
ENDROOT
BRANCH   1   8
ATOM      8  C1  UNL d   1      -2.049   0.798   0.090  0.00  0.00     0.054 C 
ATOM      9  C   UNL d   1      -2.718   0.062   1.242  0.00  0.00     0.018 C 
ENDBRANCH   1   8
TORSDOF 1
ENDMDL
