MODEL 1
REMARK minimizedAffinity -1.00672221
REMARK minimizedRMSD -1
REMARK  1 active torsions:
REMARK  status: ('A' for Active; 'I' for Inactive)
REMARK    1  A    between atoms: C1_2  and  C2_3 
ROOT
ATOM      1  C2  UNL d   1      -0.867   1.305   0.811  0.00  0.00    -0.081 A 
ATOM      2  C3  UNL d   1       0.271   0.515   0.606  0.00  0.00     0.006 A 
ATOM      3  C4  UNL d   1       1.520   0.940   1.064  0.00  0.00     0.002 A 
ATOM      4  C5  UNL d   1       1.651   2.156   1.743  0.00  0.00    -0.080 A 
ATOM      5  C6  UNL d   1       2.981   2.609   2.267  0.00  0.00     0.076 C 
ATOM      6  C7  UNL d   1       0.517   2.954   1.933  0.00  0.00     0.002 A 
ATOM      7  C8  UNL d   1      -0.732   2.530   1.474  0.00  0.00     0.006 A 
ENDROOT
BRANCH   1   8
ATOM      8  C1  UNL d   1      -2.226   0.820   0.375  0.00  0.00     0.054 C 
ATOM      9  C   UNL d   1      -3.013   0.252   1.547  0.00  0.00     0.018 C 
ENDBRANCH   1   8
TORSDOF 1
ENDMDL
