MODEL 1
REMARK minimizedAffinity 4.51534986
REMARK minimizedRMSD -1
REMARK  1 active torsions:
REMARK  status: ('A' for Active; 'I' for Inactive)
REMARK    1  A    between atoms: C1_2  and  C2_3 
ROOT
ATOM      1  C2  UNL d   1       0.609   1.786   1.074  0.00  0.00    -0.081 A 
ATOM      2  C3  UNL d   1      -0.236   2.902   1.024  0.00  0.00     0.006 A 
ATOM      3  C4  UNL d   1      -1.608   2.742   0.811  0.00  0.00     0.002 A 
ATOM      4  C5  UNL d   1      -2.158   1.466   0.654  0.00  0.00    -0.080 A 
ATOM      5  C6  UNL d   1      -3.633   1.279   0.455  0.00  0.00     0.076 C 
ATOM      6  C7  UNL d   1      -1.312   0.353   0.687  0.00  0.00     0.002 A 
ATOM      7  C8  UNL d   1       0.060   0.511   0.898  0.00  0.00     0.006 A 
ENDROOT
BRANCH   1   8
ATOM      8  C1  UNL d   1       2.078   1.950   1.368  0.00  0.00     0.054 C 
ATOM      9  C   UNL d   1       2.307   2.906   2.530  0.00  0.00     0.018 C 
ENDBRANCH   1   8
TORSDOF 1
ENDMDL
