MODEL 1
REMARK minimizedAffinity 4.15501499
REMARK minimizedRMSD -1
REMARK  1 active torsions:
REMARK  status: ('A' for Active; 'I' for Inactive)
REMARK    1  A    between atoms: C1_2  and  C2_3 
ROOT
ATOM      1  C2  UNL d   1       0.816   1.463   1.042  0.00  0.00    -0.081 A 
ATOM      2  C3  UNL d   1      -0.024   2.575   1.174  0.00  0.00     0.006 A 
ATOM      3  C4  UNL d   1      -1.411   2.428   1.104  0.00  0.00     0.002 A 
ATOM      4  C5  UNL d   1      -1.982   1.166   0.909  0.00  0.00    -0.080 A 
ATOM      5  C6  UNL d   1      -3.471   0.990   0.862  0.00  0.00     0.076 C 
ATOM      6  C7  UNL d   1      -1.143   0.057   0.759  0.00  0.00     0.002 A 
ATOM      7  C8  UNL d   1       0.244   0.203   0.828  0.00  0.00     0.006 A 
ENDROOT
BRANCH   1   8
ATOM      8  C1  UNL d   1       2.309   1.608   1.182  0.00  0.00     0.054 C 
ATOM      9  C   UNL d   1       2.670   2.535   2.334  0.00  0.00     0.018 C 
ENDBRANCH   1   8
TORSDOF 1
ENDMDL
