MODEL 1
REMARK minimizedAffinity 1.66749585
REMARK minimizedRMSD -1
REMARK  1 active torsions:
REMARK  status: ('A' for Active; 'I' for Inactive)
REMARK    1  A    between atoms: C1_2  and  C2_3 
ROOT
ATOM      1  C2  UNL d   1       0.886   2.619   1.556  0.00  0.00    -0.081 A 
ATOM      2  C3  UNL d   1      -0.411   3.139   1.648  0.00  0.00     0.006 A 
ATOM      3  C4  UNL d   1      -1.507   2.389   1.214  0.00  0.00     0.002 A 
ATOM      4  C5  UNL d   1      -1.325   1.105   0.688  0.00  0.00    -0.080 A 
ATOM      5  C6  UNL d   1      -2.496   0.278   0.247  0.00  0.00     0.076 C 
ATOM      6  C7  UNL d   1      -0.028   0.593   0.580  0.00  0.00     0.002 A 
ATOM      7  C8  UNL d   1       1.068   1.343   1.013  0.00  0.00     0.006 A 
ENDROOT
BRANCH   1   8
ATOM      8  C1  UNL d   1       2.063   3.399   2.082  0.00  0.00     0.054 C 
ATOM      9  C   UNL d   1       3.159   2.472   2.590  0.00  0.00     0.018 C 
ENDBRANCH   1   8
TORSDOF 1
ENDMDL
