MODEL 1
REMARK minimizedAffinity 2.94856548
REMARK minimizedRMSD -1
REMARK  1 active torsions:
REMARK  status: ('A' for Active; 'I' for Inactive)
REMARK    1  A    between atoms: C1_2  and  C2_3 
ROOT
ATOM      1  C2  UNL d   1       1.137   0.148   0.666  0.00  0.00    -0.081 A 
ATOM      2  C3  UNL d   1       0.295  -0.959   0.828  0.00  0.00     0.006 A 
ATOM      3  C4  UNL d   1      -1.067  -0.781   1.082  0.00  0.00     0.002 A 
ATOM      4  C5  UNL d   1      -1.610   0.505   1.171  0.00  0.00    -0.080 A 
ATOM      5  C6  UNL d   1      -3.076   0.709   1.414  0.00  0.00     0.076 C 
ATOM      6  C7  UNL d   1      -0.766   1.611   1.026  0.00  0.00     0.002 A 
ATOM      7  C8  UNL d   1       0.596   1.433   0.773  0.00  0.00     0.006 A 
ENDROOT
BRANCH   1   8
ATOM      8  C1  UNL d   1       2.594  -0.041   0.327  0.00  0.00     0.054 C 
ATOM      9  C   UNL d   1       2.819  -0.026  -1.178  0.00  0.00     0.018 C 
ENDBRANCH   1   8
TORSDOF 1
ENDMDL
