MODEL 1
REMARK minimizedAffinity 3.03958869
REMARK minimizedRMSD -1
REMARK  1 active torsions:
REMARK  status: ('A' for Active; 'I' for Inactive)
REMARK    1  A    between atoms: C1_2  and  C2_3 
ROOT
ATOM      1  C2  UNL d   1       2.154  -0.265  -1.325  0.00  0.00    -0.081 A 
ATOM      2  C3  UNL d   1       2.280   1.127  -1.406  0.00  0.00     0.006 A 
ATOM      3  C4  UNL d   1       2.167   1.917  -0.259  0.00  0.00     0.002 A 
ATOM      4  C5  UNL d   1       1.934   1.327   0.988  0.00  0.00    -0.080 A 
ATOM      5  C6  UNL d   1       1.840   2.161   2.231  0.00  0.00     0.076 C 
ATOM      6  C7  UNL d   1       1.790  -0.062   1.067  0.00  0.00     0.002 A 
ATOM      7  C8  UNL d   1       1.903  -0.852  -0.080  0.00  0.00     0.006 A 
ENDROOT
BRANCH   1   8
ATOM      8  C1  UNL d   1       2.340  -1.124  -2.549  0.00  0.00     0.054 C 
ATOM      9  C   UNL d   1       2.880  -0.312  -3.718  0.00  0.00     0.018 C 
ENDBRANCH   1   8
TORSDOF 1
ENDMDL
