MODEL 1
REMARK minimizedAffinity 10.6816082
REMARK minimizedRMSD -1
REMARK  1 active torsions:
REMARK  status: ('A' for Active; 'I' for Inactive)
REMARK    1  A    between atoms: C1_2  and  C2_3 
ROOT
ATOM      1  C2  UNL d   1      -0.077   1.135   0.772  0.00  0.00    -0.081 A 
ATOM      2  C3  UNL d   1      -0.824  -0.049   0.746  0.00  0.00     0.006 A 
ATOM      3  C4  UNL d   1      -2.220  -0.005   0.734  0.00  0.00     0.002 A 
ATOM      4  C5  UNL d   1      -2.892   1.222   0.740  0.00  0.00    -0.080 A 
ATOM      5  C6  UNL d   1      -4.390   1.284   0.697  0.00  0.00     0.076 C 
ATOM      6  C7  UNL d   1      -2.145   2.405   0.784  0.00  0.00     0.002 A 
ATOM      7  C8  UNL d   1      -0.749   2.361   0.797  0.00  0.00     0.006 A 
ENDROOT
BRANCH   1   8
ATOM      8  C1  UNL d   1       1.429   1.092   0.719  0.00  0.00     0.054 C 
ATOM      9  C   UNL d   1       1.922   0.639  -0.647  0.00  0.00     0.018 C 
ENDBRANCH   1   8
TORSDOF 1
ENDMDL
