MODEL 1
REMARK minimizedAffinity -1.8756758
REMARK minimizedRMSD -1
REMARK  0 active torsions:
REMARK  status: ('A' for Active; 'I' for Inactive)
ROOT
ATOM      1  C   UNL d   1       2.266  -2.378   2.281  0.00  0.00     0.023 A 
ATOM      2  C1  UNL d   1       0.989  -2.891   2.054  0.00  0.00     0.003 A 
ATOM      3  C2  UNL d   1       0.083  -2.186   1.258  0.00  0.00     0.048 A 
ATOM      4  C3  UNL d   1       0.461  -0.969   0.692  0.00  0.00     0.023 A 
ATOM      5  C4  UNL d   1       1.738  -0.452   0.916  0.00  0.00     0.048 A 
ATOM      6  C5  UNL d   1       2.640  -1.160   1.714  0.00  0.00     0.003 A 
ATOM      7  I   UNL d   1      -0.885   0.081  -0.493  0.00  0.00    -0.146 I 
ENDROOT
TORSDOF 0
ENDMDL
