MODEL 1
REMARK minimizedAffinity -0.858396173
REMARK minimizedRMSD -1
REMARK  0 active torsions:
REMARK  status: ('A' for Active; 'I' for Inactive)
ROOT
ATOM      1  C   UNL d   1       1.126  -0.002   0.986  0.00  0.00     0.023 A 
ATOM      2  C1  UNL d   1       0.280  -1.069   0.679  0.00  0.00     0.003 A 
ATOM      3  C2  UNL d   1      -0.759  -0.896  -0.238  0.00  0.00     0.048 A 
ATOM      4  C3  UNL d   1      -0.946   0.345  -0.845  0.00  0.00     0.023 A 
ATOM      5  C4  UNL d   1      -0.102   1.415  -0.542  0.00  0.00     0.048 A 
ATOM      6  C5  UNL d   1       0.935   1.238   0.376  0.00  0.00     0.003 A 
ATOM      7  I   UNL d   1      -2.492   0.605  -2.210  0.00  0.00    -0.146 I 
ENDROOT
TORSDOF 0
ENDMDL
