MODEL 1
REMARK minimizedAffinity -4.86831713
REMARK minimizedRMSD -1
REMARK  0 active torsions:
REMARK  status: ('A' for Active; 'I' for Inactive)
ROOT
ATOM      1  C   UNL d   1       3.162  -0.012   1.012  0.00  0.00     0.023 A 
ATOM      2  C1  UNL d   1       2.311  -1.006   1.496  0.00  0.00     0.003 A 
ATOM      3  C2  UNL d   1       0.954  -0.986   1.168  0.00  0.00     0.048 A 
ATOM      4  C3  UNL d   1       0.455   0.031   0.355  0.00  0.00     0.023 A 
ATOM      5  C4  UNL d   1       1.302   1.027  -0.132  0.00  0.00     0.048 A 
ATOM      6  C5  UNL d   1       2.658   1.003   0.199  0.00  0.00     0.003 A 
ATOM      7  I   UNL d   1      -1.565   0.063  -0.135  0.00  0.00    -0.146 I 
ENDROOT
TORSDOF 0
ENDMDL
