MODEL 1
REMARK minimizedAffinity -5.43114042
REMARK minimizedRMSD -1
REMARK  0 active torsions:
REMARK  status: ('A' for Active; 'I' for Inactive)
ROOT
ATOM      1  C   UNL d   1       3.347  -1.209   1.527  0.00  0.00     0.023 A 
ATOM      2  C1  UNL d   1       3.024  -0.035   0.845  0.00  0.00     0.003 A 
ATOM      3  C2  UNL d   1       1.714   0.189   0.419  0.00  0.00     0.048 A 
ATOM      4  C3  UNL d   1       0.730  -0.765   0.679  0.00  0.00     0.023 A 
ATOM      5  C4  UNL d   1       1.047  -1.940   1.361  0.00  0.00     0.048 A 
ATOM      6  C5  UNL d   1       2.359  -2.160   1.785  0.00  0.00     0.003 A 
ATOM      7  I   UNL d   1      -1.222  -0.433   0.045  0.00  0.00    -0.146 I 
ENDROOT
TORSDOF 0
ENDMDL
