MODEL 1
REMARK minimizedAffinity -1.28519928
REMARK minimizedRMSD -1
REMARK  0 active torsions:
REMARK  status: ('A' for Active; 'I' for Inactive)
ROOT
ATOM      1  C   UNL d   1      -1.288   0.594   0.576  0.00  0.00     0.023 A 
ATOM      2  C1  UNL d   1      -1.028  -0.766   0.749  0.00  0.00     0.003 A 
ATOM      3  C2  UNL d   1       0.288  -1.217   0.864  0.00  0.00     0.048 A 
ATOM      4  C3  UNL d   1       1.340  -0.304   0.806  0.00  0.00     0.023 A 
ATOM      5  C4  UNL d   1       1.085   1.058   0.635  0.00  0.00     0.048 A 
ATOM      6  C5  UNL d   1      -0.233   1.504   0.519  0.00  0.00     0.003 A 
ATOM      7  I   UNL d   1       3.300  -0.973   0.978  0.00  0.00    -0.146 I 
ENDROOT
TORSDOF 0
ENDMDL
