MODEL 1
REMARK minimizedAffinity -4.94998264
REMARK minimizedRMSD -1
REMARK  0 active torsions:
REMARK  status: ('A' for Active; 'I' for Inactive)
ROOT
ATOM      1  C   UNL d   1       3.499  -0.978   1.656  0.00  0.00     0.023 A 
ATOM      2  C1  UNL d   1       3.233   0.101   0.812  0.00  0.00     0.003 A 
ATOM      3  C2  UNL d   1       1.939   0.310   0.331  0.00  0.00     0.048 A 
ATOM      4  C3  UNL d   1       0.915  -0.562   0.698  0.00  0.00     0.023 A 
ATOM      5  C4  UNL d   1       1.176  -1.642   1.543  0.00  0.00     0.048 A 
ATOM      6  C5  UNL d   1       2.471  -1.848   2.021  0.00  0.00     0.003 A 
ATOM      7  I   UNL d   1      -1.012  -0.252  -0.017  0.00  0.00    -0.146 I 
ENDROOT
TORSDOF 0
ENDMDL
