MODEL 1
REMARK minimizedAffinity -3.1599648
REMARK minimizedRMSD -1
REMARK  0 active torsions:
REMARK  status: ('A' for Active; 'I' for Inactive)
ROOT
ATOM      1  C   UNL d   1      -3.591  -0.324  -3.750  0.00  0.00     0.023 A 
ATOM      2  C1  UNL d   1      -3.065  -1.429  -3.080  0.00  0.00     0.003 A 
ATOM      3  C2  UNL d   1      -2.262  -1.246  -1.952  0.00  0.00     0.048 A 
ATOM      4  C3  UNL d   1      -1.990   0.045  -1.499  0.00  0.00     0.023 A 
ATOM      5  C4  UNL d   1      -2.515   1.153  -2.166  0.00  0.00     0.048 A 
ATOM      6  C5  UNL d   1      -3.316   0.965  -3.294  0.00  0.00     0.003 A 
ATOM      7  I   UNL d   1      -0.796   0.320   0.179  0.00  0.00    -0.146 I 
ENDROOT
TORSDOF 0
ENDMDL
