MODEL 1
REMARK minimizedAffinity -2.74644136
REMARK minimizedRMSD -1
REMARK  0 active torsions:
REMARK  status: ('A' for Active; 'I' for Inactive)
ROOT
ATOM      1  C   UNL d   1       0.379   1.573   0.056  0.00  0.00     0.077 C 
ATOM      2  C1  UNL d   1      -0.066   0.141   0.106  0.00  0.00    -0.074 A 
ATOM      3  C2  UNL d   1      -0.454  -0.449   1.313  0.00  0.00    -0.005 A 
ATOM      4  C3  UNL d   1      -0.875  -1.778   1.343  0.00  0.00     0.006 A 
ATOM      5  C4  UNL d   1      -0.912  -2.530   0.167  0.00  0.00    -0.005 A 
ATOM      6  C5  UNL d   1      -0.529  -1.956  -1.049  0.00  0.00    -0.074 A 
ATOM      7  C6  UNL d   1      -0.573  -2.747  -2.323  0.00  0.00     0.077 C 
ATOM      8  C7  UNL d   1      -0.114  -0.618  -1.071  0.00  0.00    -0.001 A 
ENDROOT
TORSDOF 0
ENDMDL
