MODEL 1
REMARK minimizedAffinity -2.07493711
REMARK minimizedRMSD -1
REMARK  0 active torsions:
REMARK  status: ('A' for Active; 'I' for Inactive)
ROOT
ATOM      1  C   UNL d   1       1.738   3.576   1.823  0.00  0.00     0.077 C 
ATOM      2  C1  UNL d   1       1.102   2.441   1.078  0.00  0.00    -0.074 A 
ATOM      3  C2  UNL d   1       1.105   2.407  -0.320  0.00  0.00    -0.005 A 
ATOM      4  C3  UNL d   1       0.519   1.340  -1.000  0.00  0.00     0.006 A 
ATOM      5  C4  UNL d   1      -0.077   0.297  -0.290  0.00  0.00    -0.005 A 
ATOM      6  C5  UNL d   1      -0.089   0.312   1.109  0.00  0.00    -0.074 A 
ATOM      7  C6  UNL d   1      -0.715  -0.806   1.888  0.00  0.00     0.077 C 
ATOM      8  C7  UNL d   1       0.509   1.385   1.784  0.00  0.00    -0.001 A 
ENDROOT
TORSDOF 0
ENDMDL
