MODEL 1
REMARK minimizedAffinity -3.82559729
REMARK minimizedRMSD -1
REMARK  0 active torsions:
REMARK  status: ('A' for Active; 'I' for Inactive)
ROOT
ATOM      1  C   UNL d   1      -0.400  -2.542  -2.349  0.00  0.00     0.077 C 
ATOM      2  C1  UNL d   1      -0.502  -1.801  -1.049  0.00  0.00    -0.074 A 
ATOM      3  C2  UNL d   1      -1.002  -2.426   0.097  0.00  0.00    -0.005 A 
ATOM      4  C3  UNL d   1      -1.082  -1.727   1.302  0.00  0.00     0.006 A 
ATOM      5  C4  UNL d   1      -0.664  -0.397   1.371  0.00  0.00    -0.005 A 
ATOM      6  C5  UNL d   1      -0.160   0.244   0.236  0.00  0.00    -0.074 A 
ATOM      7  C6  UNL d   1       0.303   1.669   0.296  0.00  0.00     0.077 C 
ATOM      8  C7  UNL d   1      -0.076  -0.467  -0.969  0.00  0.00    -0.001 A 
ENDROOT
TORSDOF 0
ENDMDL
