MODEL 1
REMARK minimizedAffinity -4.47316313
REMARK minimizedRMSD -1
REMARK  0 active torsions:
REMARK  status: ('A' for Active; 'I' for Inactive)
ROOT
ATOM      1  C   UNL d   1       2.667   3.094   0.621  0.00  0.00     0.077 C 
ATOM      2  C1  UNL d   1       1.428   2.305   0.317  0.00  0.00    -0.074 A 
ATOM      3  C2  UNL d   1       0.428   2.827  -0.509  0.00  0.00    -0.005 A 
ATOM      4  C3  UNL d   1      -0.714   2.078  -0.790  0.00  0.00     0.006 A 
ATOM      5  C4  UNL d   1      -0.868   0.801  -0.250  0.00  0.00    -0.005 A 
ATOM      6  C5  UNL d   1       0.123   0.261   0.578  0.00  0.00    -0.074 A 
ATOM      7  C6  UNL d   1      -0.022  -1.114   1.159  0.00  0.00     0.077 C 
ATOM      8  C7  UNL d   1       1.271   1.018   0.850  0.00  0.00    -0.001 A 
ENDROOT
TORSDOF 0
ENDMDL
