MODEL 1
REMARK minimizedAffinity -2.09433651
REMARK minimizedRMSD -1
REMARK  0 active torsions:
REMARK  status: ('A' for Active; 'I' for Inactive)
ROOT
ATOM      1  C   UNL d   1       0.822   3.062   0.236  0.00  0.00     0.077 C 
ATOM      2  C1  UNL d   1       0.385   1.640   0.045  0.00  0.00    -0.074 A 
ATOM      3  C2  UNL d   1       0.457   1.027  -1.210  0.00  0.00    -0.005 A 
ATOM      4  C3  UNL d   1       0.055  -0.299  -1.369  0.00  0.00     0.006 A 
ATOM      5  C4  UNL d   1      -0.421  -1.025  -0.277  0.00  0.00    -0.005 A 
ATOM      6  C5  UNL d   1      -0.498  -0.430   0.986  0.00  0.00    -0.074 A 
ATOM      7  C6  UNL d   1      -0.998  -1.199   2.172  0.00  0.00     0.077 C 
ATOM      8  C7  UNL d   1      -0.087   0.901   1.140  0.00  0.00    -0.001 A 
ENDROOT
TORSDOF 0
ENDMDL
