MODEL 1
REMARK minimizedAffinity -3.36099291
REMARK minimizedRMSD -1
REMARK  0 active torsions:
REMARK  status: ('A' for Active; 'I' for Inactive)
ROOT
ATOM      1  C   UNL d   1      -0.165  -2.693  -2.649  0.00  0.00     0.077 C 
ATOM      2  C1  UNL d   1      -0.347  -1.950  -1.358  0.00  0.00    -0.074 A 
ATOM      3  C2  UNL d   1      -0.793  -2.608  -0.207  0.00  0.00    -0.005 A 
ATOM      4  C3  UNL d   1      -0.948  -1.906   0.988  0.00  0.00     0.006 A 
ATOM      5  C4  UNL d   1      -0.661  -0.542   1.044  0.00  0.00    -0.005 A 
ATOM      6  C5  UNL d   1      -0.213   0.133  -0.096  0.00  0.00    -0.074 A 
ATOM      7  C6  UNL d   1       0.109   1.597  -0.051  0.00  0.00     0.077 C 
ATOM      8  C7  UNL d   1      -0.053  -0.581  -1.292  0.00  0.00    -0.001 A 
ENDROOT
TORSDOF 0
ENDMDL
