MODEL 1
REMARK minimizedAffinity -3.59321427
REMARK minimizedRMSD -1
REMARK  0 active torsions:
REMARK  status: ('A' for Active; 'I' for Inactive)
ROOT
ATOM      1  C   UNL d   1      -0.241  -1.417   1.093  0.00  0.00     0.077 C 
ATOM      2  C1  UNL d   1      -0.036   0.013   0.688  0.00  0.00    -0.074 A 
ATOM      3  C2  UNL d   1      -0.765   0.573  -0.365  0.00  0.00    -0.005 A 
ATOM      4  C3  UNL d   1      -0.571   1.907  -0.724  0.00  0.00     0.006 A 
ATOM      5  C4  UNL d   1       0.353   2.693  -0.034  0.00  0.00    -0.005 A 
ATOM      6  C5  UNL d   1       1.090   2.150   1.023  0.00  0.00    -0.074 A 
ATOM      7  C6  UNL d   1       2.080   2.983   1.781  0.00  0.00     0.077 C 
ATOM      8  C7  UNL d   1       0.885   0.811   1.382  0.00  0.00    -0.001 A 
ENDROOT
TORSDOF 0
ENDMDL
