MODEL 1
REMARK minimizedAffinity -3.92993665
REMARK minimizedRMSD -1
REMARK  0 active torsions:
REMARK  status: ('A' for Active; 'I' for Inactive)
ROOT
ATOM      1  C   UNL d   1       0.524   1.738   0.449  0.00  0.00     0.077 C 
ATOM      2  C1  UNL d   1       0.086   0.303   0.446  0.00  0.00    -0.074 A 
ATOM      3  C2  UNL d   1      -0.229  -0.355   1.639  0.00  0.00    -0.005 A 
ATOM      4  C3  UNL d   1      -0.643  -1.686   1.620  0.00  0.00     0.006 A 
ATOM      5  C4  UNL d   1      -0.747  -2.373   0.410  0.00  0.00    -0.005 A 
ATOM      6  C5  UNL d   1      -0.437  -1.731  -0.794  0.00  0.00    -0.074 A 
ATOM      7  C6  UNL d   1      -0.552  -2.451  -2.104  0.00  0.00     0.077 C 
ATOM      8  C7  UNL d   1      -0.027  -0.391  -0.767  0.00  0.00    -0.001 A 
ENDROOT
TORSDOF 0
ENDMDL
