MODEL 1
REMARK minimizedAffinity -3.46660757
REMARK minimizedRMSD -1
REMARK  0 active torsions:
REMARK  status: ('A' for Active; 'I' for Inactive)
ROOT
ATOM      1  C   UNL d   1      -0.601  -0.956   1.859  0.00  0.00     0.077 C 
ATOM      2  C1  UNL d   1      -0.222   0.202   0.984  0.00  0.00    -0.074 A 
ATOM      3  C2  UNL d   1      -0.763   0.342  -0.297  0.00  0.00    -0.005 A 
ATOM      4  C3  UNL d   1      -0.409   1.430  -1.096  0.00  0.00     0.006 A 
ATOM      5  C4  UNL d   1       0.490   2.386  -0.621  0.00  0.00    -0.005 A 
ATOM      6  C5  UNL d   1       1.041   2.263   0.658  0.00  0.00    -0.074 A 
ATOM      7  C6  UNL d   1       2.000   3.287   1.187  0.00  0.00     0.077 C 
ATOM      8  C7  UNL d   1       0.674   1.171   1.457  0.00  0.00    -0.001 A 
ENDROOT
TORSDOF 0
ENDMDL
