MODEL 1
REMARK minimizedAffinity -2.99103427
REMARK minimizedRMSD -1
REMARK  0 active torsions:
REMARK  status: ('A' for Active; 'I' for Inactive)
ROOT
ATOM      1  C   UNL d   1      -1.336  -2.585   0.333  0.00  0.00     0.077 C 
ATOM      2  C1  UNL d   1      -0.745  -1.207   0.384  0.00  0.00    -0.074 A 
ATOM      3  C2  UNL d   1      -0.835  -0.345  -0.714  0.00  0.00    -0.005 A 
ATOM      4  C3  UNL d   1      -0.289   0.936  -0.648  0.00  0.00     0.006 A 
ATOM      5  C4  UNL d   1       0.351   1.368   0.514  0.00  0.00    -0.005 A 
ATOM      6  C5  UNL d   1       0.450   0.521   1.622  0.00  0.00    -0.074 A 
ATOM      7  C6  UNL d   1       1.127   0.973   2.882  0.00  0.00     0.077 C 
ATOM      8  C7  UNL d   1      -0.107  -0.763   1.551  0.00  0.00    -0.001 A 
ENDROOT
TORSDOF 0
ENDMDL
