MODEL 1
REMARK minimizedAffinity -3.41505289
REMARK minimizedRMSD -1
REMARK  0 active torsions:
REMARK  status: ('A' for Active; 'I' for Inactive)
ROOT
ATOM      1  C   UNL d   1       0.364   1.590   0.319  0.00  0.00     0.077 C 
ATOM      2  C1  UNL d   1      -0.159   0.189   0.209  0.00  0.00    -0.074 A 
ATOM      3  C2  UNL d   1      -0.929  -0.373   1.233  0.00  0.00    -0.005 A 
ATOM      4  C3  UNL d   1      -1.417  -1.674   1.113  0.00  0.00     0.006 A 
ATOM      5  C4  UNL d   1      -1.139  -2.426  -0.030  0.00  0.00    -0.005 A 
ATOM      6  C5  UNL d   1      -0.372  -1.880  -1.064  0.00  0.00    -0.074 A 
ATOM      7  C6  UNL d   1      -0.072  -2.671  -2.303  0.00  0.00     0.077 C 
ATOM      8  C7  UNL d   1       0.109  -0.570  -0.939  0.00  0.00    -0.001 A 
ENDROOT
TORSDOF 0
ENDMDL
