MODEL 1
REMARK minimizedAffinity -3.26877022
REMARK minimizedRMSD -1
REMARK  0 active torsions:
REMARK  status: ('A' for Active; 'I' for Inactive)
ROOT
ATOM      1  C   UNL d   1      -0.001  -1.161   2.225  0.00  0.00     0.077 C 
ATOM      2  C1  UNL d   1      -0.088  -0.009   1.268  0.00  0.00    -0.074 A 
ATOM      3  C2  UNL d   1      -1.249   0.221   0.524  0.00  0.00    -0.005 A 
ATOM      4  C3  UNL d   1      -1.319   1.302  -0.354  0.00  0.00     0.006 A 
ATOM      5  C4  UNL d   1      -0.230   2.162  -0.497  0.00  0.00    -0.005 A 
ATOM      6  C5  UNL d   1       0.940   1.949   0.239  0.00  0.00    -0.074 A 
ATOM      7  C6  UNL d   1       2.116   2.870   0.105  0.00  0.00     0.077 C 
ATOM      8  C7  UNL d   1       1.000   0.864   1.125  0.00  0.00    -0.001 A 
ENDROOT
TORSDOF 0
ENDMDL
