MODEL 1
REMARK minimizedAffinity -4.00664473
REMARK minimizedRMSD -1
REMARK  0 active torsions:
REMARK  status: ('A' for Active; 'I' for Inactive)
ROOT
ATOM      1  C   UNL d   1      -0.910  -3.277  -1.587  0.00  0.00     0.077 C 
ATOM      2  C1  UNL d   1      -0.733  -2.276  -0.484  0.00  0.00    -0.074 A 
ATOM      3  C2  UNL d   1      -0.942  -2.633   0.851  0.00  0.00    -0.005 A 
ATOM      4  C3  UNL d   1      -0.764  -1.694   1.867  0.00  0.00     0.006 A 
ATOM      5  C4  UNL d   1      -0.376  -0.390   1.558  0.00  0.00    -0.005 A 
ATOM      6  C5  UNL d   1      -0.162  -0.014   0.228  0.00  0.00    -0.074 A 
ATOM      7  C6  UNL d   1       0.265   1.381  -0.121  0.00  0.00     0.077 C 
ATOM      8  C7  UNL d   1      -0.335  -0.965  -0.786  0.00  0.00    -0.001 A 
ENDROOT
TORSDOF 0
ENDMDL
