MODEL 1
REMARK minimizedAffinity -2.49142265
REMARK minimizedRMSD -1
REMARK  0 active torsions:
REMARK  status: ('A' for Active; 'I' for Inactive)
ROOT
ATOM      1  C   UNL d   1      -0.522  -2.924  -2.289  0.00  0.00     0.077 C 
ATOM      2  C1  UNL d   1      -0.660  -2.074  -1.061  0.00  0.00    -0.074 A 
ATOM      3  C2  UNL d   1      -0.957  -2.647   0.181  0.00  0.00    -0.005 A 
ATOM      4  C3  UNL d   1      -1.073  -1.844   1.316  0.00  0.00     0.006 A 
ATOM      5  C4  UNL d   1      -0.894  -0.464   1.221  0.00  0.00    -0.005 A 
ATOM      6  C5  UNL d   1      -0.597   0.127  -0.011  0.00  0.00    -0.074 A 
ATOM      7  C6  UNL d   1      -0.392   1.608  -0.128  0.00  0.00     0.077 C 
ATOM      8  C7  UNL d   1      -0.475  -0.687  -1.146  0.00  0.00    -0.001 A 
ENDROOT
TORSDOF 0
ENDMDL
