MODEL 1
REMARK minimizedAffinity -4.16146374
REMARK minimizedRMSD -1
REMARK  0 active torsions:
REMARK  status: ('A' for Active; 'I' for Inactive)
ROOT
ATOM      1  C   UNL d   1      -0.801  -2.907  -1.500  0.00  0.00     0.077 C 
ATOM      2  C1  UNL d   1      -0.836  -1.816  -0.471  0.00  0.00    -0.074 A 
ATOM      3  C2  UNL d   1      -1.428  -2.025   0.779  0.00  0.00    -0.005 A 
ATOM      4  C3  UNL d   1      -1.444  -1.004   1.729  0.00  0.00     0.006 A 
ATOM      5  C4  UNL d   1      -0.871   0.235   1.439  0.00  0.00    -0.005 A 
ATOM      6  C5  UNL d   1      -0.274   0.462   0.195  0.00  0.00    -0.074 A 
ATOM      7  C6  UNL d   1       0.356   1.784  -0.129  0.00  0.00     0.077 C 
ATOM      8  C7  UNL d   1      -0.255  -0.571  -0.752  0.00  0.00    -0.001 A 
ENDROOT
TORSDOF 0
ENDMDL
