MODEL 1
REMARK minimizedAffinity 7.89340734
REMARK minimizedRMSD -1
REMARK  0 active torsions:
REMARK  status: ('A' for Active; 'I' for Inactive)
ROOT
ATOM      1  C1  BNZ d   1       6.000   1.187   1.710  0.00  0.00     0.000 A 
ATOM      2  C2  BNZ d   1       5.245   1.666   2.748  0.00  0.00     0.000 A 
ATOM      3  C3  BNZ d   1       4.476   2.786   2.595  0.00  0.00     0.000 A 
ATOM      4  C4  BNZ d   1       4.493   3.447   1.420  0.00  0.00     0.000 A 
ATOM      5  C5  BNZ d   1       5.256   2.982   0.367  0.00  0.00     0.000 A 
ATOM      6  C6  BNZ d   1       5.999   1.833   0.512  0.00  0.00     0.000 A 
ENDROOT
TORSDOF 0
ENDMDL
