MODEL 1
REMARK minimizedAffinity 7.59006166
REMARK minimizedRMSD -1
REMARK  0 active torsions:
REMARK  status: ('A' for Active; 'I' for Inactive)
ROOT
ATOM      1  C1  BNZ d   1       1.438  -1.867   3.405  0.00  0.00     0.000 A 
ATOM      2  C2  BNZ d   1       0.192  -1.561   2.928  0.00  0.00     0.000 A 
ATOM      3  C3  BNZ d   1      -0.098  -0.299   2.488  0.00  0.00     0.000 A 
ATOM      4  C4  BNZ d   1       0.844   0.662   2.562  0.00  0.00     0.000 A 
ATOM      5  C5  BNZ d   1       2.103   0.371   3.050  0.00  0.00     0.000 A 
ATOM      6  C6  BNZ d   1       2.403  -0.909   3.455  0.00  0.00     0.000 A 
ENDROOT
TORSDOF 0
ENDMDL
