MODEL 1
REMARK minimizedAffinity 5.94043255
REMARK minimizedRMSD -1
REMARK  0 active torsions:
REMARK  status: ('A' for Active; 'I' for Inactive)
ROOT
ATOM      1  C1  BNZ d   1       1.554  -2.234   5.091  0.00  0.00     0.000 A 
ATOM      2  C2  BNZ d   1       0.949  -2.003   3.884  0.00  0.00     0.000 A 
ATOM      3  C3  BNZ d   1       0.972  -0.759   3.317  0.00  0.00     0.000 A 
ATOM      4  C4  BNZ d   1       1.564   0.259   3.974  0.00  0.00     0.000 A 
ATOM      5  C5  BNZ d   1       2.169   0.044   5.196  0.00  0.00     0.000 A 
ATOM      6  C6  BNZ d   1       2.178  -1.218   5.746  0.00  0.00     0.000 A 
ENDROOT
TORSDOF 0
ENDMDL
