MODEL 1
REMARK minimizedAffinity 5.70353889
REMARK minimizedRMSD -1
REMARK  0 active torsions:
REMARK  status: ('A' for Active; 'I' for Inactive)
ROOT
ATOM      1  C1  BNZ d   1      -1.981  -5.998  -3.999  0.00  0.00     0.000 A 
ATOM      2  C2  BNZ d   1      -1.822  -5.211  -2.890  0.00  0.00     0.000 A 
ATOM      3  C3  BNZ d   1      -1.656  -3.860  -3.008  0.00  0.00     0.000 A 
ATOM      4  C4  BNZ d   1      -1.610  -3.303  -4.236  0.00  0.00     0.000 A 
ATOM      5  C5  BNZ d   1      -1.760  -4.084  -5.364  0.00  0.00     0.000 A 
ATOM      6  C6  BNZ d   1      -1.965  -5.439  -5.239  0.00  0.00     0.000 A 
ENDROOT
TORSDOF 0
ENDMDL
