MODEL 1
REMARK minimizedAffinity 6.13904715
REMARK minimizedRMSD -1
REMARK  0 active torsions:
REMARK  status: ('A' for Active; 'I' for Inactive)
ROOT
ATOM      1  C1  BNZ d   1       1.590  -1.929  -5.036  0.00  0.00     0.000 A 
ATOM      2  C2  BNZ d   1       0.439  -2.449  -5.566  0.00  0.00     0.000 A 
ATOM      3  C3  BNZ d   1      -0.750  -1.786  -5.441  0.00  0.00     0.000 A 
ATOM      4  C4  BNZ d   1      -0.794  -0.627  -4.753  0.00  0.00     0.000 A 
ATOM      5  C5  BNZ d   1       0.356  -0.095  -4.205  0.00  0.00     0.000 A 
ATOM      6  C6  BNZ d   1       1.558  -0.745  -4.366  0.00  0.00     0.000 A 
ENDROOT
TORSDOF 0
ENDMDL
