MODEL 1
REMARK minimizedAffinity 4.91465425
REMARK minimizedRMSD -1
REMARK  0 active torsions:
REMARK  status: ('A' for Active; 'I' for Inactive)
ROOT
ATOM      1  C1  BNZ d   1       5.167   3.703   3.557  0.00  0.00     0.000 A 
ATOM      2  C2  BNZ d   1       5.200   2.641   2.693  0.00  0.00     0.000 A 
ATOM      3  C3  BNZ d   1       4.712   2.760   1.421  0.00  0.00     0.000 A 
ATOM      4  C4  BNZ d   1       4.157   3.925   1.029  0.00  0.00     0.000 A 
ATOM      5  C5  BNZ d   1       4.108   5.001   1.893  0.00  0.00     0.000 A 
ATOM      6  C6  BNZ d   1       4.635   4.890   3.159  0.00  0.00     0.000 A 
ENDROOT
TORSDOF 0
ENDMDL
