MODEL 1
REMARK minimizedAffinity 12.0585775
REMARK minimizedRMSD -1
REMARK  0 active torsions:
REMARK  status: ('A' for Active; 'I' for Inactive)
ROOT
ATOM      1  C1  BNZ d   1       5.202   4.432   3.399  0.00  0.00     0.000 A 
ATOM      2  C2  BNZ d   1       5.985   3.361   3.061  0.00  0.00     0.000 A 
ATOM      3  C3  BNZ d   1       5.809   2.713   1.870  0.00  0.00     0.000 A 
ATOM      4  C4  BNZ d   1       4.826   3.112   1.037  0.00  0.00     0.000 A 
ATOM      5  C5  BNZ d   1       4.022   4.185   1.368  0.00  0.00     0.000 A 
ATOM      6  C6  BNZ d   1       4.228   4.859   2.550  0.00  0.00     0.000 A 
ENDROOT
TORSDOF 0
ENDMDL
