MODEL 1
REMARK minimizedAffinity 1.11230147
REMARK minimizedRMSD -1
REMARK  0 active torsions:
REMARK  status: ('A' for Active; 'I' for Inactive)
ROOT
ATOM      1  C1  BNZ d   1       2.689  -5.347   5.983  0.00  0.00     0.000 A 
ATOM      2  C2  BNZ d   1       3.290  -4.465   5.126  0.00  0.00     0.000 A 
ATOM      3  C3  BNZ d   1       2.544  -3.695   4.278  0.00  0.00     0.000 A 
ATOM      4  C4  BNZ d   1       1.203  -3.838   4.259  0.00  0.00     0.000 A 
ATOM      5  C5  BNZ d   1       0.583  -4.730   5.111  0.00  0.00     0.000 A 
ATOM      6  C6  BNZ d   1       1.335  -5.475   5.991  0.00  0.00     0.000 A 
ENDROOT
TORSDOF 0
ENDMDL
