MODEL 1
REMARK minimizedAffinity 9.66475582
REMARK minimizedRMSD -1
REMARK  0 active torsions:
REMARK  status: ('A' for Active; 'I' for Inactive)
ROOT
ATOM      1  C1  BNZ d   1       1.841   0.442  -4.077  0.00  0.00     0.000 A 
ATOM      2  C2  BNZ d   1       3.145   0.122  -3.807  0.00  0.00     0.000 A 
ATOM      3  C3  BNZ d   1       3.464  -1.055  -3.191  0.00  0.00     0.000 A 
ATOM      4  C4  BNZ d   1       2.478  -1.893  -2.811  0.00  0.00     0.000 A 
ATOM      5  C5  BNZ d   1       1.158  -1.581  -3.068  0.00  0.00     0.000 A 
ATOM      6  C6  BNZ d   1       0.843  -0.413  -3.723  0.00  0.00     0.000 A 
ENDROOT
TORSDOF 0
ENDMDL
