MODEL 1
REMARK minimizedAffinity 3.03166795
REMARK minimizedRMSD -1
REMARK  0 active torsions:
REMARK  status: ('A' for Active; 'I' for Inactive)
ROOT
ATOM      1  C1  BNZ d   1       2.965  -3.704   5.408  0.00  0.00     0.000 A 
ATOM      2  C2  BNZ d   1       1.745  -3.897   4.817  0.00  0.00     0.000 A 
ATOM      3  C3  BNZ d   1       1.317  -3.075   3.812  0.00  0.00     0.000 A 
ATOM      4  C4  BNZ d   1       2.090  -2.038   3.428  0.00  0.00     0.000 A 
ATOM      5  C5  BNZ d   1       3.318  -1.825   4.022  0.00  0.00     0.000 A 
ATOM      6  C6  BNZ d   1       3.763  -2.678   5.006  0.00  0.00     0.000 A 
ENDROOT
TORSDOF 0
ENDMDL
