MODEL 1
REMARK minimizedAffinity 4.19770145
REMARK minimizedRMSD -1
REMARK  0 active torsions:
REMARK  status: ('A' for Active; 'I' for Inactive)
ROOT
ATOM      1  C1  BNZ d   1       5.990  -5.707   4.764  0.00  0.00     0.000 A 
ATOM      2  C2  BNZ d   1       5.999  -4.482   4.151  0.00  0.00     0.000 A 
ATOM      3  C3  BNZ d   1       5.071  -3.532   4.473  0.00  0.00     0.000 A 
ATOM      4  C4  BNZ d   1       4.113  -3.820   5.377  0.00  0.00     0.000 A 
ATOM      5  C5  BNZ d   1       4.084  -5.054   5.996  0.00  0.00     0.000 A 
ATOM      6  C6  BNZ d   1       5.043  -5.995   5.698  0.00  0.00     0.000 A 
ENDROOT
TORSDOF 0
ENDMDL
