MODEL 1
REMARK minimizedAffinity 23.9318256
REMARK minimizedRMSD -1
REMARK  0 active torsions:
REMARK  status: ('A' for Active; 'I' for Inactive)
ROOT
ATOM      1  N1  IND d   1      -3.005   1.985  -2.201  0.00  0.00    -0.196 N 
ATOM      2  C2  IND d   1      -1.886   1.961  -2.987  0.00  0.00     0.054 A 
ATOM      3  C3  IND d   1      -1.463   3.219  -3.242  0.00  0.00    -0.031 A 
ATOM      4  C4  IND d   1      -2.395   5.463  -2.390  0.00  0.00     0.051 A 
ATOM      5  C5  IND d   1      -3.429   5.997  -1.674  0.00  0.00    -0.031 A 
ATOM      6  C6  IND d   1      -4.393   5.205  -1.083  0.00  0.00     0.015 A 
ATOM      7  C7  IND d   1      -4.351   3.843  -1.177  0.00  0.00    -0.016 A 
ATOM      8  C8  IND d   1      -3.306   3.297  -1.909  0.00  0.00    -0.047 A 
ATOM      9  C9  IND d   1      -2.350   4.097  -2.547  0.00  0.00    -0.096 A 
ATOM     10  HN1 IND d   1      -3.445   1.297  -1.935  0.00  0.00     0.298 HD
ENDROOT
TORSDOF 0
ENDMDL
