MODEL 1
REMARK minimizedAffinity 12.784153
REMARK minimizedRMSD -1
REMARK  0 active torsions:
REMARK  status: ('A' for Active; 'I' for Inactive)
ROOT
ATOM      1  N1  IND d   1      -1.795  -1.350   5.305  0.00  0.00    -0.196 N 
ATOM      2  C2  IND d   1      -1.107  -0.394   5.999  0.00  0.00     0.054 A 
ATOM      3  C3  IND d   1       0.013  -0.041   5.328  0.00  0.00    -0.031 A 
ATOM      4  C4  IND d   1       0.858  -0.828   3.028  0.00  0.00     0.051 A 
ATOM      5  C5  IND d   1       0.587  -1.721   2.028  0.00  0.00    -0.031 A 
ATOM      6  C6  IND d   1      -0.515  -2.550   2.070  0.00  0.00     0.015 A 
ATOM      7  C7  IND d   1      -1.398  -2.509   3.111  0.00  0.00    -0.016 A 
ATOM      8  C8  IND d   1      -1.122  -1.610   4.131  0.00  0.00    -0.047 A 
ATOM      9  C9  IND d   1       0.018  -0.796   4.115  0.00  0.00    -0.096 A 
ATOM     10  HN1 IND d   1      -2.525  -1.726   5.560  0.00  0.00     0.298 HD
ENDROOT
TORSDOF 0
ENDMDL
