MODEL 1
REMARK minimizedAffinity 20.453764
REMARK minimizedRMSD -1
REMARK  0 active torsions:
REMARK  status: ('A' for Active; 'I' for Inactive)
ROOT
ATOM      1  N1  IND d   1      -4.637   4.765  -0.682  0.00  0.00    -0.196 N 
ATOM      2  C2  IND d   1      -5.080   3.475  -0.597  0.00  0.00     0.054 A 
ATOM      3  C3  IND d   1      -4.448   2.701  -1.508  0.00  0.00    -0.031 A 
ATOM      4  C4  IND d   1      -2.582   3.321  -3.169  0.00  0.00     0.051 A 
ATOM      5  C5  IND d   1      -1.872   4.389  -3.642  0.00  0.00    -0.031 A 
ATOM      6  C6  IND d   1      -2.049   5.662  -3.139  0.00  0.00     0.015 A 
ATOM      7  C7  IND d   1      -2.938   5.914  -2.134  0.00  0.00    -0.016 A 
ATOM      8  C8  IND d   1      -3.666   4.833  -1.656  0.00  0.00    -0.047 A 
ATOM      9  C9  IND d   1      -3.522   3.546  -2.191  0.00  0.00    -0.096 A 
ATOM     10  HN1 IND d   1      -4.918   5.424  -0.206  0.00  0.00     0.298 HD
ENDROOT
TORSDOF 0
ENDMDL
