MODEL 1
REMARK minimizedAffinity 11.8372803
REMARK minimizedRMSD -1
REMARK  0 active torsions:
REMARK  status: ('A' for Active; 'I' for Inactive)
ROOT
ATOM      1  N1  IND d   1       3.341   0.552   3.783  0.00  0.00    -0.196 N 
ATOM      2  C2  IND d   1       3.511   0.357   2.441  0.00  0.00     0.054 A 
ATOM      3  C3  IND d   1       2.346  -0.022   1.870  0.00  0.00    -0.031 A 
ATOM      4  C4  IND d   1       0.015  -0.289   2.930  0.00  0.00     0.051 A 
ATOM      5  C5  IND d   1      -0.631  -0.256   4.134  0.00  0.00    -0.031 A 
ATOM      6  C6  IND d   1       0.027   0.057   5.306  0.00  0.00     0.015 A 
ATOM      7  C7  IND d   1       1.359   0.361   5.316  0.00  0.00    -0.016 A 
ATOM      8  C8  IND d   1       2.020   0.322   4.096  0.00  0.00    -0.047 A 
ATOM      9  C9  IND d   1       1.366  -0.037   2.910  0.00  0.00    -0.096 A 
ATOM     10  HN1 IND d   1       3.957   0.780   4.339  0.00  0.00     0.298 HD
ENDROOT
TORSDOF 0
ENDMDL
