MODEL 1
REMARK minimizedAffinity 7.19362116
REMARK minimizedRMSD -1
REMARK  0 active torsions:
REMARK  status: ('A' for Active; 'I' for Inactive)
ROOT
ATOM      1  N1  IND d   1      -4.583   3.650  -0.518  0.00  0.00    -0.196 N 
ATOM      2  C2  IND d   1      -5.052   4.917  -0.729  0.00  0.00     0.054 A 
ATOM      3  C3  IND d   1      -4.294   5.550  -1.653  0.00  0.00    -0.031 A 
ATOM      4  C4  IND d   1      -2.302   4.664  -3.021  0.00  0.00     0.051 A 
ATOM      5  C5  IND d   1      -1.484   3.577  -3.153  0.00  0.00    -0.031 A 
ATOM      6  C6  IND d   1      -1.663   2.435  -2.400  0.00  0.00     0.015 A 
ATOM      7  C7  IND d   1      -2.678   2.332  -1.491  0.00  0.00    -0.016 A 
ATOM      8  C8  IND d   1      -3.506   3.437  -1.349  0.00  0.00    -0.047 A 
ATOM      9  C9  IND d   1      -3.303   4.614  -2.081  0.00  0.00    -0.096 A 
ATOM     10  HN1 IND d   1      -4.907   3.082   0.040  0.00  0.00     0.298 HD
ENDROOT
TORSDOF 0
ENDMDL
