MODEL 1
REMARK minimizedAffinity 9.93763924
REMARK minimizedRMSD -1
REMARK  0 active torsions:
REMARK  status: ('A' for Active; 'I' for Inactive)
ROOT
ATOM      1  N1  IND d   1      -3.291   2.815  -0.838  0.00  0.00    -0.196 N 
ATOM      2  C2  IND d   1      -3.688   2.718  -2.142  0.00  0.00     0.054 A 
ATOM      3  C3  IND d   1      -2.612   2.712  -2.962  0.00  0.00    -0.031 A 
ATOM      4  C4  IND d   1      -0.107   2.751  -2.371  0.00  0.00     0.051 A 
ATOM      5  C5  IND d   1       0.749   2.875  -1.313  0.00  0.00    -0.031 A 
ATOM      6  C6  IND d   1       0.292   2.984  -0.015  0.00  0.00     0.015 A 
ATOM      7  C7  IND d   1      -1.043   2.963   0.274  0.00  0.00    -0.016 A 
ATOM      8  C8  IND d   1      -1.915   2.844  -0.799  0.00  0.00    -0.047 A 
ATOM      9  C9  IND d   1      -1.458   2.776  -2.121  0.00  0.00    -0.096 A 
ATOM     10  HN1 IND d   1      -3.814   2.852  -0.156  0.00  0.00     0.298 HD
ENDROOT
TORSDOF 0
ENDMDL
