MODEL 1
REMARK minimizedAffinity 21.2071571
REMARK minimizedRMSD -1
REMARK  0 active torsions:
REMARK  status: ('A' for Active; 'I' for Inactive)
ROOT
ATOM      1  N1  IND d   1       4.634  -0.879  -2.030  0.00  0.00    -0.196 N 
ATOM      2  C2  IND d   1       4.553   0.097  -2.983  0.00  0.00     0.054 A 
ATOM      3  C3  IND d   1       4.194   1.274  -2.422  0.00  0.00    -0.031 A 
ATOM      4  C4  IND d   1       3.789   1.848   0.054  0.00  0.00     0.051 A 
ATOM      5  C5  IND d   1       3.709   1.278   1.293  0.00  0.00    -0.031 A 
ATOM      6  C6  IND d   1       3.941  -0.068   1.493  0.00  0.00     0.015 A 
ATOM      7  C7  IND d   1       4.274  -0.894   0.457  0.00  0.00    -0.016 A 
ATOM      8  C8  IND d   1       4.349  -0.320  -0.804  0.00  0.00    -0.047 A 
ATOM      9  C9  IND d   1       4.073   1.037  -1.019  0.00  0.00    -0.096 A 
ATOM     10  HN1 IND d   1       4.830  -1.704  -2.172  0.00  0.00     0.298 HD
ENDROOT
TORSDOF 0
ENDMDL
