MODEL 1
REMARK minimizedAffinity 5.48257971
REMARK minimizedRMSD -1
REMARK  0 active torsions:
REMARK  status: ('A' for Active; 'I' for Inactive)
ROOT
ATOM      1  N1  IND d   1      -0.482  -0.458   4.716  0.00  0.00    -0.196 N 
ATOM      2  C2  IND d   1      -1.515  -0.859   5.517  0.00  0.00     0.054 A 
ATOM      3  C3  IND d   1      -2.212  -1.853   4.923  0.00  0.00    -0.031 A 
ATOM      4  C4  IND d   1      -1.775  -3.046   2.684  0.00  0.00     0.051 A 
ATOM      5  C5  IND d   1      -0.970  -3.005   1.581  0.00  0.00    -0.031 A 
ATOM      6  C6  IND d   1       0.063  -2.097   1.465  0.00  0.00     0.015 A 
ATOM      7  C7  IND d   1       0.335  -1.198   2.458  0.00  0.00    -0.016 A 
ATOM      8  C8  IND d   1      -0.485  -1.232   3.576  0.00  0.00    -0.047 A 
ATOM      9  C9  IND d   1      -1.561  -2.124   3.681  0.00  0.00    -0.096 A 
ATOM     10  HN1 IND d   1       0.075   0.172   4.893  0.00  0.00     0.298 HD
ENDROOT
TORSDOF 0
ENDMDL
