MODEL 1
REMARK minimizedAffinity 17.0618515
REMARK minimizedRMSD -1
REMARK  0 active torsions:
REMARK  status: ('A' for Active; 'I' for Inactive)
ROOT
ATOM      1  N1  IND d   1      -1.939  -3.133   1.401  0.00  0.00    -0.196 N 
ATOM      2  C2  IND d   1      -2.978  -3.226   2.285  0.00  0.00     0.054 A 
ATOM      3  C3  IND d   1      -2.726  -2.485   3.387  0.00  0.00    -0.031 A 
ATOM      4  C4  IND d   1      -0.720  -0.958   3.908  0.00  0.00     0.051 A 
ATOM      5  C5  IND d   1       0.498  -0.576   3.421  0.00  0.00    -0.031 A 
ATOM      6  C6  IND d   1       0.975  -1.034   2.210  0.00  0.00     0.015 A 
ATOM      7  C7  IND d   1       0.243  -1.886   1.432  0.00  0.00    -0.016 A 
ATOM      8  C8  IND d   1      -0.992  -2.281   1.927  0.00  0.00    -0.047 A 
ATOM      9  C9  IND d   1      -1.463  -1.853   3.175  0.00  0.00    -0.096 A 
ATOM     10  HN1 IND d   1      -1.886  -3.537   0.645  0.00  0.00     0.298 HD
ENDROOT
TORSDOF 0
ENDMDL
