MODEL 1
REMARK minimizedAffinity 12.8990498
REMARK minimizedRMSD -1
REMARK  0 active torsions:
REMARK  status: ('A' for Active; 'I' for Inactive)
ROOT
ATOM      1  N1  IND d   1      -0.095  -0.324   4.621  0.00  0.00    -0.196 N 
ATOM      2  C2  IND d   1      -1.139  -0.479   5.490  0.00  0.00     0.054 A 
ATOM      3  C3  IND d   1      -1.989  -1.429   5.039  0.00  0.00    -0.031 A 
ATOM      4  C4  IND d   1      -1.809  -2.928   2.954  0.00  0.00     0.051 A 
ATOM      5  C5  IND d   1      -1.051  -3.131   1.835  0.00  0.00    -0.031 A 
ATOM      6  C6  IND d   1       0.090  -2.396   1.584  0.00  0.00     0.015 A 
ATOM      7  C7  IND d   1       0.523  -1.434   2.452  0.00  0.00    -0.016 A 
ATOM      8  C8  IND d   1      -0.249  -1.220   3.586  0.00  0.00    -0.047 A 
ATOM      9  C9  IND d   1      -1.431  -1.934   3.824  0.00  0.00    -0.096 A 
ATOM     10  HN1 IND d   1       0.550   0.238   4.707  0.00  0.00     0.298 HD
ENDROOT
TORSDOF 0
ENDMDL
