MODEL 1
REMARK minimizedAffinity 7.89267921
REMARK minimizedRMSD -1
REMARK  0 active torsions:
REMARK  status: ('A' for Active; 'I' for Inactive)
ROOT
ATOM      1  N1  IND d   1       1.410   5.081   0.650  0.00  0.00    -0.196 N 
ATOM      2  C2  IND d   1       1.897   5.999  -0.238  0.00  0.00     0.054 A 
ATOM      3  C3  IND d   1       1.540   5.668  -1.500  0.00  0.00    -0.031 A 
ATOM      4  C4  IND d   1       0.074   3.720  -2.327  0.00  0.00     0.051 A 
ATOM      5  C5  IND d   1      -0.570   2.597  -1.891  0.00  0.00    -0.031 A 
ATOM      6  C6  IND d   1      -0.590   2.238  -0.559  0.00  0.00     0.015 A 
ATOM      7  C7  IND d   1       0.027   2.999   0.393  0.00  0.00    -0.016 A 
ATOM      8  C8  IND d   1       0.688   4.137  -0.047  0.00  0.00    -0.047 A 
ATOM      9  C9  IND d   1       0.748   4.483  -1.403  0.00  0.00    -0.096 A 
ATOM     10  HN1 IND d   1       1.534   5.091   1.501  0.00  0.00     0.298 HD
ENDROOT
TORSDOF 0
ENDMDL
