MODEL 1
REMARK minimizedAffinity 11.2149296
REMARK minimizedRMSD -1
REMARK  0 active torsions:
REMARK  status: ('A' for Active; 'I' for Inactive)
ROOT
ATOM      1  N1  IND d   1      -2.197  -5.329   1.289  0.00  0.00    -0.196 N 
ATOM      2  C2  IND d   1      -3.054  -5.438   0.230  0.00  0.00     0.054 A 
ATOM      3  C3  IND d   1      -2.867  -4.414  -0.633  0.00  0.00    -0.031 A 
ATOM      4  C4  IND d   1      -1.140  -2.507  -0.558  0.00  0.00     0.051 A 
ATOM      5  C5  IND d   1      -0.165  -1.966   0.233  0.00  0.00    -0.031 A 
ATOM      6  C6  IND d   1       0.191  -2.532   1.440  0.00  0.00     0.015 A 
ATOM      7  C7  IND d   1      -0.409  -3.671   1.897  0.00  0.00    -0.016 A 
ATOM      8  C8  IND d   1      -1.404  -4.219   1.100  0.00  0.00    -0.047 A 
ATOM      9  C9  IND d   1      -1.799  -3.625  -0.106  0.00  0.00    -0.096 A 
ATOM     10  HN1 IND d   1      -2.159  -5.865   1.961  0.00  0.00     0.298 HD
ENDROOT
TORSDOF 0
ENDMDL
