MODEL 1
REMARK minimizedAffinity 13.9869833
REMARK minimizedRMSD -1
REMARK  0 active torsions:
REMARK  status: ('A' for Active; 'I' for Inactive)
ROOT
ATOM      1  N1  IND d   1       1.060   4.994   0.716  0.00  0.00    -0.196 N 
ATOM      2  C2  IND d   1       1.218   6.000  -0.196  0.00  0.00     0.054 A 
ATOM      3  C3  IND d   1       0.821   5.590  -1.421  0.00  0.00    -0.031 A 
ATOM      4  C4  IND d   1      -0.217   3.346  -2.139  0.00  0.00     0.051 A 
ATOM      5  C5  IND d   1      -0.526   2.102  -1.666  0.00  0.00    -0.031 A 
ATOM      6  C6  IND d   1      -0.320   1.751  -0.347  0.00  0.00     0.015 A 
ATOM      7  C7  IND d   1       0.194   2.640   0.554  0.00  0.00    -0.016 A 
ATOM      8  C8  IND d   1       0.515   3.903   0.075  0.00  0.00    -0.047 A 
ATOM      9  C9  IND d   1       0.348   4.250  -1.271  0.00  0.00    -0.096 A 
ATOM     10  HN1 IND d   1       1.266   5.035   1.550  0.00  0.00     0.298 HD
ENDROOT
TORSDOF 0
ENDMDL
