MODEL 1
REMARK minimizedAffinity 6.75207615
REMARK minimizedRMSD -1
REMARK  0 active torsions:
REMARK  status: ('A' for Active; 'I' for Inactive)
ROOT
ATOM      1  N1  IND d   1      -0.182   2.456   0.345  0.00  0.00    -0.196 N 
ATOM      2  C2  IND d   1      -0.128   1.681  -0.780  0.00  0.00     0.054 A 
ATOM      3  C3  IND d   1       0.312   2.407  -1.832  0.00  0.00    -0.031 A 
ATOM      4  C4  IND d   1       1.097   4.858  -1.912  0.00  0.00     0.051 A 
ATOM      5  C5  IND d   1       1.196   5.983  -1.143  0.00  0.00    -0.031 A 
ATOM      6  C6  IND d   1       0.836   5.989   0.189  0.00  0.00     0.015 A 
ATOM      7  C7  IND d   1       0.373   4.863   0.807  0.00  0.00    -0.016 A 
ATOM      8  C8  IND d   1       0.264   3.720   0.027  0.00  0.00    -0.047 A 
ATOM      9  C9  IND d   1       0.587   3.718  -1.336  0.00  0.00    -0.096 A 
ATOM     10  HN1 IND d   1      -0.449   2.197   1.120  0.00  0.00     0.298 HD
ENDROOT
TORSDOF 0
ENDMDL
