MODEL 1
REMARK minimizedAffinity 5.88685799
REMARK minimizedRMSD -1
REMARK  0 active torsions:
REMARK  status: ('A' for Active; 'I' for Inactive)
ROOT
ATOM      1  N1  IND d   1      -2.058   3.775  -5.340  0.00  0.00    -0.196 N 
ATOM      2  C2  IND d   1      -1.879   4.959  -6.000  0.00  0.00     0.054 A 
ATOM      3  C3  IND d   1      -2.230   5.996  -5.208  0.00  0.00    -0.031 A 
ATOM      4  C4  IND d   1      -3.027   5.988  -2.760  0.00  0.00     0.051 A 
ATOM      5  C5  IND d   1      -3.380   5.144  -1.744  0.00  0.00    -0.031 A 
ATOM      6  C6  IND d   1      -3.306   3.773  -1.878  0.00  0.00     0.015 A 
ATOM      7  C7  IND d   1      -2.864   3.192  -3.033  0.00  0.00    -0.016 A 
ATOM      8  C8  IND d   1      -2.512   4.046  -4.068  0.00  0.00    -0.047 A 
ATOM      9  C9  IND d   1      -2.625   5.437  -3.953  0.00  0.00    -0.096 A 
ATOM     10  HN1 IND d   1      -1.912   2.992  -5.665  0.00  0.00     0.298 HD
ENDROOT
TORSDOF 0
ENDMDL
