MODEL 1
REMARK minimizedAffinity 6.84404707
REMARK minimizedRMSD -1
REMARK  0 active torsions:
REMARK  status: ('A' for Active; 'I' for Inactive)
ROOT
ATOM      1  N1  IND d   1       0.158   2.337  -1.311  0.00  0.00    -0.196 N 
ATOM      2  C2  IND d   1      -0.652   1.857  -0.320  0.00  0.00     0.054 A 
ATOM      3  C3  IND d   1      -0.755   2.759   0.681  0.00  0.00    -0.031 A 
ATOM      4  C4  IND d   1       0.237   5.128   0.856  0.00  0.00     0.051 A 
ATOM      5  C5  IND d   1       1.077   5.995   0.214  0.00  0.00    -0.031 A 
ATOM      6  C6  IND d   1       1.663   5.681  -0.995  0.00  0.00     0.015 A 
ATOM      7  C7  IND d   1       1.421   4.488  -1.615  0.00  0.00    -0.016 A 
ATOM      8  C8  IND d   1       0.574   3.603  -0.963  0.00  0.00    -0.047 A 
ATOM      9  C9  IND d   1       0.011   3.898   0.285  0.00  0.00    -0.096 A 
ATOM     10  HN1 IND d   1       0.372   1.918  -2.031  0.00  0.00     0.298 HD
ENDROOT
TORSDOF 0
ENDMDL
