MODEL 1
REMARK minimizedAffinity -0.975191355
REMARK minimizedRMSD -1
REMARK  0 active torsions:
REMARK  status: ('A' for Active; 'I' for Inactive)
ROOT
ATOM      1  C   UNL d   1       1.736  -4.599  -1.916  0.00  0.00     0.077 C 
ATOM      2  C1  UNL d   1       2.146  -3.991  -3.224  0.00  0.00    -0.074 A 
ATOM      3  C2  UNL d   1       1.197  -3.432  -4.086  0.00  0.00    -0.005 A 
ATOM      4  C3  UNL d   1       1.595  -2.862  -5.296  0.00  0.00     0.006 A 
ATOM      5  C4  UNL d   1       2.943  -2.844  -5.654  0.00  0.00    -0.005 A 
ATOM      6  C5  UNL d   1       3.906  -3.397  -4.804  0.00  0.00    -0.074 A 
ATOM      7  C6  UNL d   1       5.361  -3.377  -5.170  0.00  0.00     0.077 C 
ATOM      8  C7  UNL d   1       3.500  -3.962  -3.588  0.00  0.00    -0.001 A 
ENDROOT
TORSDOF 0
ENDMDL
