MODEL 1
REMARK minimizedAffinity 1.16449594
REMARK minimizedRMSD -1
REMARK  0 active torsions:
REMARK  status: ('A' for Active; 'I' for Inactive)
ROOT
ATOM      1  C   UNL d   1       4.280  -3.572   1.640  0.00  0.00     0.077 C 
ATOM      2  C1  UNL d   1       3.224  -4.099   0.714  0.00  0.00    -0.074 A 
ATOM      3  C2  UNL d   1       2.824  -5.439   0.768  0.00  0.00    -0.005 A 
ATOM      4  C3  UNL d   1       1.835  -5.912  -0.094  0.00  0.00     0.006 A 
ATOM      5  C4  UNL d   1       1.236  -5.053  -1.016  0.00  0.00    -0.005 A 
ATOM      6  C5  UNL d   1       1.622  -3.711  -1.083  0.00  0.00    -0.074 A 
ATOM      7  C6  UNL d   1       0.982  -2.772  -2.062  0.00  0.00     0.077 C 
ATOM      8  C7  UNL d   1       2.612  -3.241  -0.210  0.00  0.00    -0.001 A 
ENDROOT
TORSDOF 0
ENDMDL
