MODEL 1
REMARK minimizedAffinity 12.2642136
REMARK minimizedRMSD -1
REMARK  0 active torsions:
REMARK  status: ('A' for Active; 'I' for Inactive)
ROOT
ATOM      1  C   UNL d   1       5.998  -4.014  -5.945  0.00  0.00     0.077 C 
ATOM      2  C1  UNL d   1       4.667  -4.060  -5.256  0.00  0.00    -0.074 A 
ATOM      3  C2  UNL d   1       4.052  -5.280  -4.960  0.00  0.00    -0.005 A 
ATOM      4  C3  UNL d   1       2.818  -5.307  -4.310  0.00  0.00     0.006 A 
ATOM      5  C4  UNL d   1       2.187  -4.115  -3.950  0.00  0.00    -0.005 A 
ATOM      6  C5  UNL d   1       2.787  -2.885  -4.237  0.00  0.00    -0.074 A 
ATOM      7  C6  UNL d   1       2.128  -1.595  -3.849  0.00  0.00     0.077 C 
ATOM      8  C7  UNL d   1       4.031  -2.867  -4.884  0.00  0.00    -0.001 A 
ENDROOT
TORSDOF 0
ENDMDL
