MODEL 1
REMARK minimizedAffinity 4.84749556
REMARK minimizedRMSD -1
REMARK  0 active torsions:
REMARK  status: ('A' for Active; 'I' for Inactive)
ROOT
ATOM      1  C   UNL d   1       5.685  -2.284  -6.000  0.00  0.00     0.077 C 
ATOM      2  C1  UNL d   1       5.148  -3.585  -5.483  0.00  0.00    -0.074 A 
ATOM      3  C2  UNL d   1       5.964  -4.719  -5.404  0.00  0.00    -0.005 A 
ATOM      4  C3  UNL d   1       5.453  -5.920  -4.912  0.00  0.00     0.006 A 
ATOM      5  C4  UNL d   1       4.124  -6.000  -4.496  0.00  0.00    -0.005 A 
ATOM      6  C5  UNL d   1       3.293  -4.877  -4.568  0.00  0.00    -0.074 A 
ATOM      7  C6  UNL d   1       1.865  -4.944  -4.116  0.00  0.00     0.077 C 
ATOM      8  C7  UNL d   1       3.816  -3.672  -5.056  0.00  0.00    -0.001 A 
ENDROOT
TORSDOF 0
ENDMDL
