MODEL 1
REMARK minimizedAffinity 6.83671618
REMARK minimizedRMSD -1
REMARK  0 active torsions:
REMARK  status: ('A' for Active; 'I' for Inactive)
ROOT
ATOM      1  C   UNL d   1       2.174  -2.671   5.658  0.00  0.00     0.077 C 
ATOM      2  C1  UNL d   1       2.604  -2.482   4.233  0.00  0.00    -0.074 A 
ATOM      3  C2  UNL d   1       2.137  -1.400   3.480  0.00  0.00    -0.005 A 
ATOM      4  C3  UNL d   1       2.552  -1.231   2.159  0.00  0.00     0.006 A 
ATOM      5  C4  UNL d   1       3.438  -2.141   1.580  0.00  0.00    -0.005 A 
ATOM      6  C5  UNL d   1       3.916  -3.228   2.318  0.00  0.00    -0.074 A 
ATOM      7  C6  UNL d   1       4.876  -4.210   1.713  0.00  0.00     0.077 C 
ATOM      8  C7  UNL d   1       3.499  -3.387   3.647  0.00  0.00    -0.001 A 
ENDROOT
TORSDOF 0
ENDMDL
