MODEL 1
REMARK minimizedAffinity 11.9318514
REMARK minimizedRMSD -1
REMARK  0 active torsions:
REMARK  status: ('A' for Active; 'I' for Inactive)
ROOT
ATOM      1  C   UNL d   1       2.444  -2.750   5.132  0.00  0.00     0.077 C 
ATOM      2  C1  UNL d   1       2.982  -2.850   3.735  0.00  0.00    -0.074 A 
ATOM      3  C2  UNL d   1       2.437  -2.086   2.699  0.00  0.00    -0.005 A 
ATOM      4  C3  UNL d   1       2.954  -2.183   1.407  0.00  0.00     0.006 A 
ATOM      5  C4  UNL d   1       4.019  -3.044   1.139  0.00  0.00    -0.005 A 
ATOM      6  C5  UNL d   1       4.577  -3.815   2.163  0.00  0.00    -0.074 A 
ATOM      7  C6  UNL d   1       5.728  -4.738   1.894  0.00  0.00     0.077 C 
ATOM      8  C7  UNL d   1       4.057  -3.707   3.460  0.00  0.00    -0.001 A 
ENDROOT
TORSDOF 0
ENDMDL
