MODEL 1
REMARK minimizedAffinity 0.0495683812
REMARK minimizedRMSD -1
REMARK  0 active torsions:
REMARK  status: ('A' for Active; 'I' for Inactive)
ROOT
ATOM      1  C   UNL d   1       2.034   4.214  -1.560  0.00  0.00     0.077 C 
ATOM      2  C1  UNL d   1       3.414   4.586  -2.015  0.00  0.00    -0.074 A 
ATOM      3  C2  UNL d   1       4.090   5.671  -1.449  0.00  0.00    -0.005 A 
ATOM      4  C3  UNL d   1       5.377   5.999  -1.876  0.00  0.00     0.006 A 
ATOM      5  C4  UNL d   1       6.000   5.246  -2.873  0.00  0.00    -0.005 A 
ATOM      6  C5  UNL d   1       5.339   4.157  -3.450  0.00  0.00    -0.074 A 
ATOM      7  C6  UNL d   1       5.998   3.331  -4.515  0.00  0.00     0.077 C 
ATOM      8  C7  UNL d   1       4.049   3.830  -3.010  0.00  0.00    -0.001 A 
ENDROOT
TORSDOF 0
ENDMDL
