MODEL 1
REMARK minimizedAffinity -5.71491575
REMARK minimizedRMSD -1
REMARK  2 active torsions:
REMARK  status: ('A' for Active; 'I' for Inactive)
REMARK    1  A    between atoms: C1_2  and  C2_3 
REMARK    2  A    between atoms: C2_3  and  C3_4 
ROOT
ATOM      1  C3  UNL d   1      -0.269  -0.729   0.439  0.00  0.00    -0.075 A 
ATOM      2  C4  UNL d   1      -0.334  -1.729   1.420  0.00  0.00     0.002 A 
ATOM      3  C5  UNL d   1      -1.445  -2.568   1.503  0.00  0.00     0.002 A 
ATOM      4  C6  UNL d   1      -2.508  -2.412   0.615  0.00  0.00    -0.004 A 
ATOM      5  C7  UNL d   1      -2.461  -1.411  -0.353  0.00  0.00     0.002 A 
ATOM      6  C8  UNL d   1      -1.348  -0.573  -0.441  0.00  0.00     0.002 A 
ENDROOT
BRANCH   1   7
ATOM      7  C2  UNL d   1       0.944   0.163   0.325  0.00  0.00     0.056 C 
BRANCH   7   8
ATOM      8  C1  UNL d   1       0.826   1.478   1.103  0.00  0.00     0.007 C 
ATOM      9  C   UNL d   1       2.113   2.293   1.103  0.00  0.00     0.009 C 
ENDBRANCH   7   8
ENDBRANCH   1   7
TORSDOF 2
ENDMDL
