MODEL 1
REMARK minimizedAffinity -3.21553802
REMARK minimizedRMSD -1
REMARK  2 active torsions:
REMARK  status: ('A' for Active; 'I' for Inactive)
REMARK    1  A    between atoms: C1_2  and  C2_3 
REMARK    2  A    between atoms: C2_3  and  C3_4 
ROOT
ATOM      1  C3  UNL d   1       1.690   0.631   0.170  0.00  0.00    -0.075 A 
ATOM      2  C4  UNL d   1       0.391   1.026  -0.182  0.00  0.00     0.002 A 
ATOM      3  C5  UNL d   1      -0.700   0.202   0.096  0.00  0.00     0.002 A 
ATOM      4  C6  UNL d   1      -0.506  -1.029   0.719  0.00  0.00    -0.004 A 
ATOM      5  C7  UNL d   1       0.782  -1.438   1.059  0.00  0.00     0.002 A 
ATOM      6  C8  UNL d   1       1.875  -0.614   0.785  0.00  0.00     0.002 A 
ENDROOT
BRANCH   1   7
ATOM      7  C2  UNL d   1       2.871   1.531  -0.102  0.00  0.00     0.056 C 
BRANCH   7   8
ATOM      8  C1  UNL d   1       2.637   2.999   0.272  0.00  0.00     0.007 C 
ATOM      9  C   UNL d   1       2.806   3.273   1.761  0.00  0.00     0.009 C 
ENDBRANCH   7   8
ENDBRANCH   1   7
TORSDOF 2
ENDMDL
