MODEL 1
REMARK minimizedAffinity -6.06859159
REMARK minimizedRMSD -1
REMARK  2 active torsions:
REMARK  status: ('A' for Active; 'I' for Inactive)
REMARK    1  A    between atoms: C1_2  and  C2_3 
REMARK    2  A    between atoms: C2_3  and  C3_4 
ROOT
ATOM      1  C3  UNL d   1      -1.020  -0.467   0.904  0.00  0.00    -0.075 A 
ATOM      2  C4  UNL d   1      -0.696  -1.771   1.306  0.00  0.00     0.002 A 
ATOM      3  C5  UNL d   1      -1.611  -2.811   1.142  0.00  0.00     0.002 A 
ATOM      4  C6  UNL d   1      -2.863  -2.560   0.585  0.00  0.00    -0.004 A 
ATOM      5  C7  UNL d   1      -3.202  -1.266   0.197  0.00  0.00     0.002 A 
ATOM      6  C8  UNL d   1      -2.286  -0.224   0.356  0.00  0.00     0.002 A 
ENDROOT
BRANCH   1   7
ATOM      7  C2  UNL d   1      -0.023   0.657   1.052  0.00  0.00     0.056 C 
BRANCH   7   8
ATOM      8  C1  UNL d   1       0.358   1.331  -0.271  0.00  0.00     0.007 C 
ATOM      9  C   UNL d   1       0.685   0.337  -1.378  0.00  0.00     0.009 C 
ENDBRANCH   7   8
ENDBRANCH   1   7
TORSDOF 2
ENDMDL
