MODEL 1
REMARK minimizedAffinity -5.15768385
REMARK minimizedRMSD -1
REMARK  2 active torsions:
REMARK  status: ('A' for Active; 'I' for Inactive)
REMARK    1  A    between atoms: C1_2  and  C2_3 
REMARK    2  A    between atoms: C2_3  and  C3_4 
ROOT
ATOM      1  C3  UNL d   1       0.054  -0.150  -0.175  0.00  0.00    -0.075 A 
ATOM      2  C4  UNL d   1      -0.977  -0.538   0.692  0.00  0.00     0.002 A 
ATOM      3  C5  UNL d   1      -2.290  -0.639   0.232  0.00  0.00     0.002 A 
ATOM      4  C6  UNL d   1      -2.590  -0.344  -1.096  0.00  0.00    -0.004 A 
ATOM      5  C7  UNL d   1      -1.577   0.058  -1.963  0.00  0.00     0.002 A 
ATOM      6  C8  UNL d   1      -0.261   0.156  -1.506  0.00  0.00     0.002 A 
ENDROOT
BRANCH   1   7
ATOM      7  C2  UNL d   1       1.482  -0.067   0.309  0.00  0.00     0.056 C 
BRANCH   7   8
ATOM      8  C1  UNL d   1       1.865   1.298   0.890  0.00  0.00     0.007 C 
ATOM      9  C   UNL d   1       2.866   2.057   0.030  0.00  0.00     0.009 C 
ENDBRANCH   7   8
ENDBRANCH   1   7
TORSDOF 2
ENDMDL
