MODEL 1
REMARK minimizedAffinity -4.04003191
REMARK minimizedRMSD -1
REMARK  2 active torsions:
REMARK  status: ('A' for Active; 'I' for Inactive)
REMARK    1  A    between atoms: C1_2  and  C2_3 
REMARK    2  A    between atoms: C2_3  and  C3_4 
ROOT
ATOM      1  C3  UNL d   1       0.714   0.826   0.300  0.00  0.00    -0.075 A 
ATOM      2  C4  UNL d   1       0.192   2.039   0.772  0.00  0.00     0.002 A 
ATOM      3  C5  UNL d   1       1.041   3.037   1.249  0.00  0.00     0.002 A 
ATOM      4  C6  UNL d   1       2.419   2.833   1.271  0.00  0.00    -0.004 A 
ATOM      5  C7  UNL d   1       2.947   1.626   0.819  0.00  0.00     0.002 A 
ATOM      6  C8  UNL d   1       2.101   0.626   0.337  0.00  0.00     0.002 A 
ENDROOT
BRANCH   1   7
ATOM      7  C2  UNL d   1      -0.197  -0.248  -0.246  0.00  0.00     0.056 C 
BRANCH   7   8
ATOM      8  C1  UNL d   1      -1.480   0.291  -0.888  0.00  0.00     0.007 C 
ATOM      9  C   UNL d   1      -2.673  -0.641  -0.719  0.00  0.00     0.009 C 
ENDBRANCH   7   8
ENDBRANCH   1   7
TORSDOF 2
ENDMDL
