MODEL 1
REMARK minimizedAffinity 1.06736779
REMARK minimizedRMSD -1
REMARK  2 active torsions:
REMARK  status: ('A' for Active; 'I' for Inactive)
REMARK    1  A    between atoms: C1_2  and  C2_3 
REMARK    2  A    between atoms: C2_3  and  C3_4 
ROOT
ATOM      1  C3  UNL d   1       0.455   0.574  -0.041  0.00  0.00    -0.075 A 
ATOM      2  C4  UNL d   1       0.059  -0.671  -0.549  0.00  0.00     0.002 A 
ATOM      3  C5  UNL d   1      -1.134  -0.799  -1.261  0.00  0.00     0.002 A 
ATOM      4  C6  UNL d   1      -1.950   0.312  -1.464  0.00  0.00    -0.004 A 
ATOM      5  C7  UNL d   1      -1.575   1.551  -0.948  0.00  0.00     0.002 A 
ATOM      6  C8  UNL d   1      -0.379   1.682  -0.240  0.00  0.00     0.002 A 
ENDROOT
BRANCH   1   7
ATOM      7  C2  UNL d   1       1.759   0.725   0.705  0.00  0.00     0.056 C 
BRANCH   7   8
ATOM      8  C1  UNL d   1       2.506   2.027   0.398  0.00  0.00     0.007 C 
ATOM      9  C   UNL d   1       2.659   2.933   1.613  0.00  0.00     0.009 C 
ENDBRANCH   7   8
ENDBRANCH   1   7
TORSDOF 2
ENDMDL
