MODEL 1
REMARK minimizedAffinity -4.18506813
REMARK minimizedRMSD -1
REMARK  2 active torsions:
REMARK  status: ('A' for Active; 'I' for Inactive)
REMARK    1  A    between atoms: C1_2  and  C2_3 
REMARK    2  A    between atoms: C2_3  and  C3_4 
ROOT
ATOM      1  C3  UNL d   1      -0.455   0.050   0.325  0.00  0.00    -0.075 A 
ATOM      2  C4  UNL d   1      -1.486  -0.415   1.153  0.00  0.00     0.002 A 
ATOM      3  C5  UNL d   1      -2.745  -0.702   0.624  0.00  0.00     0.002 A 
ATOM      4  C6  UNL d   1      -2.991  -0.518  -0.734  0.00  0.00    -0.004 A 
ATOM      5  C7  UNL d   1      -1.979  -0.041  -1.564  0.00  0.00     0.002 A 
ATOM      6  C8  UNL d   1      -0.717   0.243  -1.038  0.00  0.00     0.002 A 
ENDROOT
BRANCH   1   7
ATOM      7  C2  UNL d   1       0.918   0.334   0.886  0.00  0.00     0.056 C 
BRANCH   7   8
ATOM      8  C1  UNL d   1       2.017   0.435  -0.177  0.00  0.00     0.007 C 
ATOM      9  C   UNL d   1       2.856   1.700  -0.055  0.00  0.00     0.009 C 
ENDBRANCH   7   8
ENDBRANCH   1   7
TORSDOF 2
ENDMDL
