MODEL 1
REMARK minimizedAffinity -5.37783337
REMARK minimizedRMSD -1
REMARK  2 active torsions:
REMARK  status: ('A' for Active; 'I' for Inactive)
REMARK    1  A    between atoms: C1_2  and  C2_3 
REMARK    2  A    between atoms: C2_3  and  C3_4 
ROOT
ATOM      1  C3  UNL d   1      -0.035   1.054   0.309  0.00  0.00    -0.075 A 
ATOM      2  C4  UNL d   1       0.951   0.130  -0.067  0.00  0.00     0.002 A 
ATOM      3  C5  UNL d   1       2.303   0.445   0.064  0.00  0.00     0.002 A 
ATOM      4  C6  UNL d   1       2.687   1.689   0.561  0.00  0.00    -0.004 A 
ATOM      5  C7  UNL d   1       1.716   2.621   0.921  0.00  0.00     0.002 A 
ATOM      6  C8  UNL d   1       0.362   2.306   0.796  0.00  0.00     0.002 A 
ENDROOT
BRANCH   1   7
ATOM      7  C2  UNL d   1      -1.501   0.707   0.198  0.00  0.00     0.056 C 
BRANCH   7   8
ATOM      8  C1  UNL d   1      -1.784  -0.798   0.150  0.00  0.00     0.007 C 
ATOM      9  C   UNL d   1      -2.638  -1.211  -1.042  0.00  0.00     0.009 C 
ENDBRANCH   7   8
ENDBRANCH   1   7
TORSDOF 2
ENDMDL
