MODEL 1
REMARK minimizedAffinity -6.06833982
REMARK minimizedRMSD -1
REMARK  2 active torsions:
REMARK  status: ('A' for Active; 'I' for Inactive)
REMARK    1  A    between atoms: C1_2  and  C2_3 
REMARK    2  A    between atoms: C2_3  and  C3_4 
ROOT
ATOM      1  C3  UNL d   1      -1.930  -0.571  -0.086  0.00  0.00    -0.075 A 
ATOM      2  C4  UNL d   1      -0.849  -0.348   0.779  0.00  0.00     0.002 A 
ATOM      3  C5  UNL d   1       0.313   0.270   0.317  0.00  0.00     0.002 A 
ATOM      4  C6  UNL d   1       0.414   0.662  -1.016  0.00  0.00    -0.004 A 
ATOM      5  C7  UNL d   1      -0.647   0.431  -1.889  0.00  0.00     0.002 A 
ATOM      6  C8  UNL d   1      -1.813  -0.183  -1.428  0.00  0.00     0.002 A 
ENDROOT
BRANCH   1   7
ATOM      7  C2  UNL d   1      -3.202  -1.212   0.415  0.00  0.00     0.056 C 
BRANCH   7   8
ATOM      8  C1  UNL d   1      -3.104  -2.730   0.600  0.00  0.00     0.007 C 
ATOM      9  C   UNL d   1      -2.038  -3.145   1.606  0.00  0.00     0.009 C 
ENDBRANCH   7   8
ENDBRANCH   1   7
TORSDOF 2
ENDMDL
