MODEL 1
REMARK minimizedAffinity -5.31023169
REMARK minimizedRMSD -1
REMARK  2 active torsions:
REMARK  status: ('A' for Active; 'I' for Inactive)
REMARK    1  A    between atoms: C1_2  and  C2_3 
REMARK    2  A    between atoms: C2_3  and  C3_4 
ROOT
ATOM      1  C3  UNL d   1      -0.959  -0.647   0.457  0.00  0.00    -0.075 A 
ATOM      2  C4  UNL d   1      -2.149  -0.556  -0.281  0.00  0.00     0.002 A 
ATOM      3  C5  UNL d   1      -3.095  -1.580  -0.227  0.00  0.00     0.002 A 
ATOM      4  C6  UNL d   1      -2.861  -2.709   0.554  0.00  0.00    -0.004 A 
ATOM      5  C7  UNL d   1      -1.676  -2.818   1.278  0.00  0.00     0.002 A 
ATOM      6  C8  UNL d   1      -0.729  -1.793   1.230  0.00  0.00     0.002 A 
ENDROOT
BRANCH   1   7
ATOM      7  C2  UNL d   1       0.056   0.470   0.427  0.00  0.00     0.056 C 
BRANCH   7   8
ATOM      8  C1  UNL d   1       1.485   0.007   0.123  0.00  0.00     0.007 C 
ATOM      9  C   UNL d   1       2.540   1.050   0.466  0.00  0.00     0.009 C 
ENDBRANCH   7   8
ENDBRANCH   1   7
TORSDOF 2
ENDMDL
