MODEL 1
REMARK minimizedAffinity -1.82250297
REMARK minimizedRMSD -1
REMARK  2 active torsions:
REMARK  status: ('A' for Active; 'I' for Inactive)
REMARK    1  A    between atoms: C1_2  and  C2_3 
REMARK    2  A    between atoms: C2_3  and  C3_4 
ROOT
ATOM      1  C3  UNL d   1       0.461  -0.006   0.151  0.00  0.00    -0.075 A 
ATOM      2  C4  UNL d   1      -0.493  -0.742   0.869  0.00  0.00     0.002 A 
ATOM      3  C5  UNL d   1      -1.715  -1.077   0.285  0.00  0.00     0.002 A 
ATOM      4  C6  UNL d   1      -2.003  -0.672  -1.016  0.00  0.00    -0.004 A 
ATOM      5  C7  UNL d   1      -1.070   0.074  -1.732  0.00  0.00     0.002 A 
ATOM      6  C8  UNL d   1       0.156   0.407  -1.153  0.00  0.00     0.002 A 
ENDROOT
BRANCH   1   7
ATOM      7  C2  UNL d   1       1.798   0.334   0.767  0.00  0.00     0.056 C 
BRANCH   7   8
ATOM      8  C1  UNL d   1       1.846   1.716   1.427  0.00  0.00     0.007 C 
ATOM      9  C   UNL d   1       2.885   2.642   0.808  0.00  0.00     0.009 C 
ENDBRANCH   7   8
ENDBRANCH   1   7
TORSDOF 2
ENDMDL
