MODEL 1
REMARK minimizedAffinity -1.07812655
REMARK minimizedRMSD -1
REMARK  0 active torsions:
REMARK  status: ('A' for Active; 'I' for Inactive)
ROOT
ATOM      1  C1  BNZ d   1       2.369   1.311  -4.473  0.00  0.00     0.000 A 
ATOM      2  C2  BNZ d   1       2.248   1.459  -3.117  0.00  0.00     0.000 A 
ATOM      3  C3  BNZ d   1       1.079   1.149  -2.481  0.00  0.00     0.000 A 
ATOM      4  C4  BNZ d   1       0.021   0.730  -3.205  0.00  0.00     0.000 A 
ATOM      5  C5  BNZ d   1       0.124   0.585  -4.574  0.00  0.00     0.000 A 
ATOM      6  C6  BNZ d   1       1.315   0.861  -5.207  0.00  0.00     0.000 A 
ENDROOT
TORSDOF 0
ENDMDL
