MODEL 1
REMARK minimizedAffinity -4.4417963
REMARK minimizedRMSD -1
REMARK  0 active torsions:
REMARK  status: ('A' for Active; 'I' for Inactive)
ROOT
ATOM      1  C1  BNZ d   1       1.159   0.488   1.104  0.00  0.00     0.000 A 
ATOM      2  C2  BNZ d   1       1.063  -0.254  -0.043  0.00  0.00     0.000 A 
ATOM      3  C3  BNZ d   1      -0.157  -0.555  -0.581  0.00  0.00     0.000 A 
ATOM      4  C4  BNZ d   1      -1.278  -0.150   0.049  0.00  0.00     0.000 A 
ATOM      5  C5  BNZ d   1      -1.198   0.590   1.212  0.00  0.00     0.000 A 
ATOM      6  C6  BNZ d   1       0.033   0.925   1.730  0.00  0.00     0.000 A 
ENDROOT
TORSDOF 0
ENDMDL
