MODEL 1
REMARK minimizedAffinity -3.13921738
REMARK minimizedRMSD -1
REMARK  0 active torsions:
REMARK  status: ('A' for Active; 'I' for Inactive)
ROOT
ATOM      1  C1  BNZ d   1      -1.097   0.906   1.290  0.00  0.00     0.000 A 
ATOM      2  C2  BNZ d   1       0.259   0.744   1.183  0.00  0.00     0.000 A 
ATOM      3  C3  BNZ d   1       0.806   0.118   0.099  0.00  0.00     0.000 A 
ATOM      4  C4  BNZ d   1      -0.003  -0.382  -0.857  0.00  0.00     0.000 A 
ATOM      5  C5  BNZ d   1      -1.373  -0.236  -0.760  0.00  0.00     0.000 A 
ATOM      6  C6  BNZ d   1      -1.918   0.430   0.314  0.00  0.00     0.000 A 
ENDROOT
TORSDOF 0
ENDMDL
