MODEL 1
REMARK minimizedAffinity -4.14499855
REMARK minimizedRMSD -1
REMARK  0 active torsions:
REMARK  status: ('A' for Active; 'I' for Inactive)
ROOT
ATOM      1  C1  BNZ d   1      -0.696  -1.187  -0.609  0.00  0.00     0.000 A 
ATOM      2  C2  BNZ d   1      -1.914  -0.902  -0.052  0.00  0.00     0.000 A 
ATOM      3  C3  BNZ d   1      -2.001  -0.218   1.128  0.00  0.00     0.000 A 
ATOM      4  C4  BNZ d   1      -0.872   0.143   1.770  0.00  0.00     0.000 A 
ATOM      5  C5  BNZ d   1       0.364  -0.145   1.226  0.00  0.00     0.000 A 
ATOM      6  C6  BNZ d   1       0.448  -0.799   0.018  0.00  0.00     0.000 A 
ENDROOT
TORSDOF 0
ENDMDL
