MODEL 1
REMARK minimizedAffinity -4.83085918
REMARK minimizedRMSD -1
REMARK  0 active torsions:
REMARK  status: ('A' for Active; 'I' for Inactive)
ROOT
ATOM      1  C1  BNZ d   1       0.535   0.989   3.426  0.00  0.00     0.000 A 
ATOM      2  C2  BNZ d   1      -0.537   1.654   2.893  0.00  0.00     0.000 A 
ATOM      3  C3  BNZ d   1      -0.878   1.494   1.579  0.00  0.00     0.000 A 
ATOM      4  C4  BNZ d   1      -0.124   0.701   0.790  0.00  0.00     0.000 A 
ATOM      5  C5  BNZ d   1       0.966   0.032   1.310  0.00  0.00     0.000 A 
ATOM      6  C6  BNZ d   1       1.283   0.165   2.642  0.00  0.00     0.000 A 
ENDROOT
TORSDOF 0
ENDMDL
