MODEL 1
REMARK minimizedAffinity 5.03346252
REMARK minimizedRMSD -1
REMARK  0 active torsions:
REMARK  status: ('A' for Active; 'I' for Inactive)
ROOT
ATOM      1  C   UNL d   1       1.068   0.999   4.345  0.00  0.00     0.077 C 
ATOM      2  C1  UNL d   1       0.795  -0.225   3.522  0.00  0.00    -0.074 A 
ATOM      3  C2  UNL d   1      -0.155  -1.168   3.929  0.00  0.00    -0.005 A 
ATOM      4  C3  UNL d   1      -0.405  -2.296   3.149  0.00  0.00     0.006 A 
ATOM      5  C4  UNL d   1       0.291  -2.493   1.955  0.00  0.00    -0.005 A 
ATOM      6  C5  UNL d   1       1.244  -1.561   1.532  0.00  0.00    -0.074 A 
ATOM      7  C6  UNL d   1       1.993  -1.753   0.247  0.00  0.00     0.077 C 
ATOM      8  C7  UNL d   1       1.484  -0.426   2.318  0.00  0.00    -0.001 A 
ENDROOT
TORSDOF 0
ENDMDL
