MODEL 1
REMARK minimizedAffinity 5.31595707
REMARK minimizedRMSD -1
REMARK  0 active torsions:
REMARK  status: ('A' for Active; 'I' for Inactive)
ROOT
ATOM      1  C   UNL d   1       4.840  -2.641   1.638  0.00  0.00     0.077 C 
ATOM      2  C1  UNL d   1       3.360  -2.448   1.490  0.00  0.00    -0.074 A 
ATOM      3  C2  UNL d   1       2.488  -2.746   2.542  0.00  0.00    -0.005 A 
ATOM      4  C3  UNL d   1       1.115  -2.553   2.394  0.00  0.00     0.006 A 
ATOM      5  C4  UNL d   1       0.600  -2.060   1.194  0.00  0.00    -0.005 A 
ATOM      6  C5  UNL d   1       1.457  -1.755   0.132  0.00  0.00    -0.074 A 
ATOM      7  C6  UNL d   1       0.921  -1.215  -1.161  0.00  0.00     0.077 C 
ATOM      8  C7  UNL d   1       2.836  -1.945   0.291  0.00  0.00    -0.001 A 
ENDROOT
TORSDOF 0
ENDMDL
