MODEL 1
REMARK minimizedAffinity 4.594347
REMARK minimizedRMSD -1
REMARK  0 active torsions:
REMARK  status: ('A' for Active; 'I' for Inactive)
ROOT
ATOM      1  C   UNL d   1       0.520  -1.549   3.207  0.00  0.00     0.077 C 
ATOM      2  C1  UNL d   1       1.278  -2.248   2.118  0.00  0.00    -0.074 A 
ATOM      3  C2  UNL d   1       1.887  -1.525   1.088  0.00  0.00    -0.005 A 
ATOM      4  C3  UNL d   1       2.597  -2.188   0.087  0.00  0.00     0.006 A 
ATOM      5  C4  UNL d   1       2.704  -3.579   0.105  0.00  0.00    -0.005 A 
ATOM      6  C5  UNL d   1       2.101  -4.319   1.128  0.00  0.00    -0.074 A 
ATOM      7  C6  UNL d   1       2.215  -5.814   1.168  0.00  0.00     0.077 C 
ATOM      8  C7  UNL d   1       1.396  -3.645   2.134  0.00  0.00    -0.001 A 
ENDROOT
TORSDOF 0
ENDMDL
