MODEL 1
REMARK minimizedAffinity 5.44925261
REMARK minimizedRMSD -1
REMARK  0 active torsions:
REMARK  status: ('A' for Active; 'I' for Inactive)
ROOT
ATOM      1  C   UNL d   1       1.584   3.067   3.695  0.00  0.00     0.077 C 
ATOM      2  C1  UNL d   1       2.357   4.097   4.464  0.00  0.00    -0.074 A 
ATOM      3  C2  UNL d   1       1.701   5.053   5.245  0.00  0.00    -0.005 A 
ATOM      4  C3  UNL d   1       2.434   5.999   5.962  0.00  0.00     0.006 A 
ATOM      5  C4  UNL d   1       3.828   5.998   5.905  0.00  0.00    -0.005 A 
ATOM      6  C5  UNL d   1       4.502   5.049   5.129  0.00  0.00    -0.074 A 
ATOM      7  C6  UNL d   1       6.000   5.028   5.065  0.00  0.00     0.077 C 
ATOM      8  C7  UNL d   1       3.758   4.098   4.418  0.00  0.00    -0.001 A 
ENDROOT
TORSDOF 0
ENDMDL
