MODEL 1
REMARK minimizedAffinity 2.31530237
REMARK minimizedRMSD -1
REMARK  0 active torsions:
REMARK  status: ('A' for Active; 'I' for Inactive)
ROOT
ATOM      1  C   UNL d   1       1.300  -2.463   0.277  0.00  0.00     0.077 C 
ATOM      2  C1  UNL d   1       0.518  -2.006   1.472  0.00  0.00    -0.074 A 
ATOM      3  C2  UNL d   1       0.911  -2.362   2.767  0.00  0.00    -0.005 A 
ATOM      4  C3  UNL d   1       0.179  -1.922   3.869  0.00  0.00     0.006 A 
ATOM      5  C4  UNL d   1      -0.950  -1.122   3.690  0.00  0.00    -0.005 A 
ATOM      6  C5  UNL d   1      -1.357  -0.755   2.403  0.00  0.00    -0.074 A 
ATOM      7  C6  UNL d   1      -2.563   0.112   2.193  0.00  0.00     0.077 C 
ATOM      8  C7  UNL d   1      -0.613  -1.196   1.300  0.00  0.00    -0.001 A 
ENDROOT
TORSDOF 0
ENDMDL
