MODEL 1
REMARK minimizedAffinity 7.11641455
REMARK minimizedRMSD -1
REMARK  0 active torsions:
REMARK  status: ('A' for Active; 'I' for Inactive)
ROOT
ATOM      1  C   UNL d   1       1.677  -3.538   0.737  0.00  0.00     0.077 C 
ATOM      2  C1  UNL d   1       0.958  -2.684   1.739  0.00  0.00    -0.074 A 
ATOM      3  C2  UNL d   1       1.548  -2.365   2.966  0.00  0.00    -0.005 A 
ATOM      4  C3  UNL d   1       0.871  -1.563   3.885  0.00  0.00     0.006 A 
ATOM      5  C4  UNL d   1      -0.401  -1.072   3.586  0.00  0.00    -0.005 A 
ATOM      6  C5  UNL d   1      -1.007  -1.381   2.363  0.00  0.00    -0.074 A 
ATOM      7  C6  UNL d   1      -2.369  -0.854   2.022  0.00  0.00     0.077 C 
ATOM      8  C7  UNL d   1      -0.317  -2.182   1.443  0.00  0.00    -0.001 A 
ENDROOT
TORSDOF 0
ENDMDL
