MODEL 1
REMARK minimizedAffinity 3.13305712
REMARK minimizedRMSD -1
REMARK  0 active torsions:
REMARK  status: ('A' for Active; 'I' for Inactive)
ROOT
ATOM      1  C   UNL d   1       5.972   2.259   2.905  0.00  0.00     0.077 C 
ATOM      2  C1  UNL d   1       5.972   1.333   1.725  0.00  0.00    -0.074 A 
ATOM      3  C2  UNL d   1       5.986   1.832   0.419  0.00  0.00    -0.005 A 
ATOM      4  C3  UNL d   1       5.996   0.958  -0.668  0.00  0.00     0.006 A 
ATOM      5  C4  UNL d   1       5.991  -0.422  -0.460  0.00  0.00    -0.005 A 
ATOM      6  C5  UNL d   1       5.977  -0.939   0.839  0.00  0.00    -0.074 A 
ATOM      7  C6  UNL d   1       5.982  -2.420   1.080  0.00  0.00     0.077 C 
ATOM      8  C7  UNL d   1       5.975  -0.055   1.926  0.00  0.00    -0.001 A 
ENDROOT
TORSDOF 0
ENDMDL
