MODEL 1
REMARK minimizedAffinity 4.22591066
REMARK minimizedRMSD -1
REMARK  0 active torsions:
REMARK  status: ('A' for Active; 'I' for Inactive)
ROOT
ATOM      1  C   UNL d   1       5.969   3.146   2.920  0.00  0.00     0.077 C 
ATOM      2  C1  UNL d   1       5.973   2.228   1.734  0.00  0.00    -0.074 A 
ATOM      3  C2  UNL d   1       5.984   2.738   0.431  0.00  0.00    -0.005 A 
ATOM      4  C3  UNL d   1       5.997   1.872  -0.662  0.00  0.00     0.006 A 
ATOM      5  C4  UNL d   1       5.999   0.490  -0.465  0.00  0.00    -0.005 A 
ATOM      6  C5  UNL d   1       5.988  -0.037   0.831  0.00  0.00    -0.074 A 
ATOM      7  C6  UNL d   1       5.999  -1.519   1.061  0.00  0.00     0.077 C 
ATOM      8  C7  UNL d   1       5.982   0.840   1.924  0.00  0.00    -0.001 A 
ENDROOT
TORSDOF 0
ENDMDL
