MODEL 1
REMARK minimizedAffinity 0.0689378679
REMARK minimizedRMSD -1
REMARK  0 active torsions:
REMARK  status: ('A' for Active; 'I' for Inactive)
ROOT
ATOM      1  C   UNL d   1       0.972  -1.971   2.256  0.00  0.00     0.077 C 
ATOM      2  C1  UNL d   1      -0.390  -1.344   2.288  0.00  0.00    -0.074 A 
ATOM      3  C2  UNL d   1      -0.899  -0.790   3.466  0.00  0.00    -0.005 A 
ATOM      4  C3  UNL d   1      -2.164  -0.202   3.478  0.00  0.00     0.006 A 
ATOM      5  C4  UNL d   1      -2.932  -0.163   2.313  0.00  0.00    -0.005 A 
ATOM      6  C5  UNL d   1      -2.439  -0.711   1.125  0.00  0.00    -0.074 A 
ATOM      7  C6  UNL d   1      -3.247  -0.669  -0.138  0.00  0.00     0.077 C 
ATOM      8  C7  UNL d   1      -1.164  -1.294   1.120  0.00  0.00    -0.001 A 
ENDROOT
TORSDOF 0
ENDMDL
