MODEL 1
REMARK minimizedAffinity 6.20804024
REMARK minimizedRMSD -1
REMARK  0 active torsions:
REMARK  status: ('A' for Active; 'I' for Inactive)
ROOT
ATOM      1  C   UNL d   1       4.334  -3.697   4.071  0.00  0.00     0.077 C 
ATOM      2  C1  UNL d   1       3.558  -3.778   2.790  0.00  0.00    -0.074 A 
ATOM      3  C2  UNL d   1       3.574  -4.940   2.011  0.00  0.00    -0.005 A 
ATOM      4  C3  UNL d   1       2.840  -5.004   0.828  0.00  0.00     0.006 A 
ATOM      5  C4  UNL d   1       2.082  -3.909   0.411  0.00  0.00    -0.005 A 
ATOM      6  C5  UNL d   1       2.052  -2.739   1.177  0.00  0.00    -0.074 A 
ATOM      7  C6  UNL d   1       1.235  -1.556   0.749  0.00  0.00     0.077 C 
ATOM      8  C7  UNL d   1       2.787  -2.685   2.369  0.00  0.00    -0.001 A 
ENDROOT
TORSDOF 0
ENDMDL
