MODEL 1
REMARK minimizedAffinity -2.21602774
REMARK minimizedRMSD -1
REMARK  0 active torsions:
REMARK  status: ('A' for Active; 'I' for Inactive)
ROOT
ATOM      1  C   UNL d   1      -0.054   3.506  -0.401  0.00  0.00     0.020 A 
ATOM      2  C1  UNL d   1      -0.595   3.799   0.850  0.00  0.00     0.020 A 
ATOM      3  C2  UNL d   1      -0.854   2.770   1.757  0.00  0.00     0.034 A 
ATOM      4  C3  UNL d   1      -0.572   1.442   1.415  0.00  0.00     0.017 A 
ATOM      5  C4  UNL d   1      -0.029   1.149   0.159  0.00  0.00     0.017 A 
ATOM      6  C5  UNL d   1       0.229   2.184  -0.746  0.00  0.00     0.034 A 
ATOM      7 Cl   UNL d   1       0.346  -0.464  -0.336  0.00  0.00    -0.070 Cl
ATOM      8 Cl1  UNL d   1      -0.917   0.220   2.586  0.00  0.00    -0.070 Cl
ENDROOT
TORSDOF 0
ENDMDL
