MODEL 1
REMARK minimizedAffinity -2.94500303
REMARK minimizedRMSD -1
REMARK  0 active torsions:
REMARK  status: ('A' for Active; 'I' for Inactive)
ROOT
ATOM      1  C   UNL d   1      -0.561  -0.427   1.210  0.00  0.00     0.020 A 
ATOM      2  C1  UNL d   1      -1.161   0.505   2.055  0.00  0.00     0.020 A 
ATOM      3  C2  UNL d   1      -0.998   1.871   1.817  0.00  0.00     0.034 A 
ATOM      4  C3  UNL d   1      -0.232   2.310   0.731  0.00  0.00     0.017 A 
ATOM      5  C4  UNL d   1       0.371   1.374  -0.117  0.00  0.00     0.017 A 
ATOM      6  C5  UNL d   1       0.204   0.007   0.126  0.00  0.00     0.034 A 
ATOM      7 Cl   UNL d   1       1.330   1.838  -1.477  0.00  0.00    -0.070 Cl
ATOM      8 Cl1  UNL d   1      -0.072   4.014   0.497  0.00  0.00    -0.070 Cl
ENDROOT
TORSDOF 0
ENDMDL
