MODEL 1
REMARK minimizedAffinity -2.15008044
REMARK minimizedRMSD -1
REMARK  0 active torsions:
REMARK  status: ('A' for Active; 'I' for Inactive)
ROOT
ATOM      1  C   UNL d   1      -0.718  -0.433   1.504  0.00  0.00     0.020 A 
ATOM      2  C1  UNL d   1      -1.360   0.696   2.011  0.00  0.00     0.020 A 
ATOM      3  C2  UNL d   1      -1.035   1.963   1.523  0.00  0.00     0.034 A 
ATOM      4  C3  UNL d   1      -0.065   2.105   0.524  0.00  0.00     0.017 A 
ATOM      5  C4  UNL d   1       0.579   0.971   0.015  0.00  0.00     0.017 A 
ATOM      6  C5  UNL d   1       0.250  -0.295   0.508  0.00  0.00     0.034 A 
ATOM      7 Cl   UNL d   1       1.787   1.067  -1.218  0.00  0.00    -0.070 Cl
ATOM      8 Cl1  UNL d   1       0.286   3.702  -0.034  0.00  0.00    -0.070 Cl
ENDROOT
TORSDOF 0
ENDMDL
