MODEL 1
REMARK minimizedAffinity -2.91237903
REMARK minimizedRMSD -1
REMARK  0 active torsions:
REMARK  status: ('A' for Active; 'I' for Inactive)
ROOT
ATOM      1  C   UNL d   1      -0.025   3.083  -0.175  0.00  0.00     0.020 A 
ATOM      2  C1  UNL d   1      -0.652   3.044   1.070  0.00  0.00     0.020 A 
ATOM      3  C2  UNL d   1      -0.787   1.830   1.746  0.00  0.00     0.034 A 
ATOM      4  C3  UNL d   1      -0.295   0.649   1.178  0.00  0.00     0.017 A 
ATOM      5  C4  UNL d   1       0.334   0.689  -0.072  0.00  0.00     0.017 A 
ATOM      6  C5  UNL d   1       0.467   1.908  -0.744  0.00  0.00     0.034 A 
ATOM      7 Cl   UNL d   1       0.967  -0.726  -0.836  0.00  0.00    -0.070 Cl
ATOM      8 Cl1  UNL d   1      -0.496  -0.817   2.070  0.00  0.00    -0.070 Cl
ENDROOT
TORSDOF 0
ENDMDL
