MODEL 1
REMARK minimizedAffinity -3.93127942
REMARK minimizedRMSD -1
REMARK  0 active torsions:
REMARK  status: ('A' for Active; 'I' for Inactive)
ROOT
ATOM      1  C   UNL d   1       0.349  -0.244   0.429  0.00  0.00     0.020 A 
ATOM      2  C1  UNL d   1      -0.960  -0.705   0.291  0.00  0.00     0.020 A 
ATOM      3  C2  UNL d   1      -1.245  -1.736  -0.607  0.00  0.00     0.034 A 
ATOM      4  C3  UNL d   1      -0.221  -2.309  -1.370  0.00  0.00     0.017 A 
ATOM      5  C4  UNL d   1       1.092  -1.846  -1.230  0.00  0.00     0.017 A 
ATOM      6  C5  UNL d   1       1.373  -0.813  -0.330  0.00  0.00     0.034 A 
ATOM      7 Cl   UNL d   1       2.409  -2.504  -2.136  0.00  0.00    -0.070 Cl
ATOM      8 Cl1  UNL d   1      -0.646  -3.581  -2.460  0.00  0.00    -0.070 Cl
ENDROOT
TORSDOF 0
ENDMDL
