MODEL 1
REMARK minimizedAffinity -3.40553951
REMARK minimizedRMSD -1
REMARK  0 active torsions:
REMARK  status: ('A' for Active; 'I' for Inactive)
ROOT
ATOM      1  C   UNL d   1      -0.645  -0.696   1.117  0.00  0.00     0.020 A 
ATOM      2  C1  UNL d   1      -1.174   0.213   2.032  0.00  0.00     0.020 A 
ATOM      3  C2  UNL d   1      -0.989   1.584   1.841  0.00  0.00     0.034 A 
ATOM      4  C3  UNL d   1      -0.273   2.050   0.733  0.00  0.00     0.017 A 
ATOM      5  C4  UNL d   1       0.258   1.137  -0.186  0.00  0.00     0.017 A 
ATOM      6  C5  UNL d   1       0.069  -0.235   0.010  0.00  0.00     0.034 A 
ATOM      7 Cl   UNL d   1       1.153   1.636  -1.578  0.00  0.00    -0.070 Cl
ATOM      8 Cl1  UNL d   1      -0.082   3.759   0.559  0.00  0.00    -0.070 Cl
ENDROOT
TORSDOF 0
ENDMDL
