MODEL 1
REMARK minimizedAffinity 0.801963508
REMARK minimizedRMSD -1
REMARK  0 active torsions:
REMARK  status: ('A' for Active; 'I' for Inactive)
ROOT
ATOM      1  C   UNL d   1       1.111  -3.757  -1.569  0.00  0.00     0.020 A 
ATOM      2  C1  UNL d   1       0.452  -3.535  -2.778  0.00  0.00     0.020 A 
ATOM      3  C2  UNL d   1      -0.229  -2.335  -2.992  0.00  0.00     0.034 A 
ATOM      4  C3  UNL d   1      -0.254  -1.353  -1.995  0.00  0.00     0.017 A 
ATOM      5  C4  UNL d   1       0.407  -1.577  -0.782  0.00  0.00     0.017 A 
ATOM      6  C5  UNL d   1       1.088  -2.780  -0.574  0.00  0.00     0.034 A 
ATOM      7 Cl   UNL d   1       0.422  -0.411   0.494  0.00  0.00    -0.070 Cl
ATOM      8 Cl1  UNL d   1      -1.116   0.107  -2.328  0.00  0.00    -0.070 Cl
ENDROOT
TORSDOF 0
ENDMDL
