MODEL 1
REMARK minimizedAffinity -2.69414711
REMARK minimizedRMSD -1
REMARK  0 active torsions:
REMARK  status: ('A' for Active; 'I' for Inactive)
ROOT
ATOM      1  C   UNL d   1      -0.630  -0.057   1.705  0.00  0.00     0.020 A 
ATOM      2  C1  UNL d   1      -1.562  -0.979   1.229  0.00  0.00     0.020 A 
ATOM      3  C2  UNL d   1      -1.360  -1.600  -0.006  0.00  0.00     0.034 A 
ATOM      4  C3  UNL d   1      -0.225  -1.300  -0.768  0.00  0.00     0.017 A 
ATOM      5  C4  UNL d   1       0.709  -0.374  -0.289  0.00  0.00     0.017 A 
ATOM      6  C5  UNL d   1       0.502   0.245   0.948  0.00  0.00     0.034 A 
ATOM      7 Cl   UNL d   1       2.133   0.047  -1.173  0.00  0.00    -0.070 Cl
ATOM      8 Cl1  UNL d   1      -0.040  -2.106  -2.285  0.00  0.00    -0.070 Cl
ENDROOT
TORSDOF 0
ENDMDL
