MODEL 1
REMARK minimizedAffinity -3.03994393
REMARK minimizedRMSD -1
REMARK  0 active torsions:
REMARK  status: ('A' for Active; 'I' for Inactive)
ROOT
ATOM      1  C   UNL d   1      -1.152   0.135   2.044  0.00  0.00     0.020 A 
ATOM      2  C1  UNL d   1      -1.141   1.529   2.018  0.00  0.00     0.020 A 
ATOM      3  C2  UNL d   1      -0.554   2.203   0.944  0.00  0.00     0.034 A 
ATOM      4  C3  UNL d   1       0.023   1.483  -0.108  0.00  0.00     0.017 A 
ATOM      5  C4  UNL d   1       0.011   0.083  -0.081  0.00  0.00     0.017 A 
ATOM      6  C5  UNL d   1      -0.578  -0.586   0.996  0.00  0.00     0.034 A 
ATOM      7 Cl   UNL d   1       0.703  -0.874  -1.343  0.00  0.00    -0.070 Cl
ATOM      8 Cl1  UNL d   1       0.730   2.381  -1.404  0.00  0.00    -0.070 Cl
ENDROOT
TORSDOF 0
ENDMDL
