MODEL 1
REMARK minimizedAffinity -2.54967952
REMARK minimizedRMSD -1
REMARK  0 active torsions:
REMARK  status: ('A' for Active; 'I' for Inactive)
ROOT
ATOM      1  C   UNL d   1      -1.675  -0.778   0.972  0.00  0.00     0.020 A 
ATOM      2  C1  UNL d   1      -0.880   0.274   1.425  0.00  0.00     0.020 A 
ATOM      3  C2  UNL d   1       0.313   0.580   0.768  0.00  0.00     0.034 A 
ATOM      4  C3  UNL d   1       0.716  -0.167  -0.346  0.00  0.00     0.017 A 
ATOM      5  C4  UNL d   1      -0.083  -1.223  -0.799  0.00  0.00     0.017 A 
ATOM      6  C5  UNL d   1      -1.277  -1.525  -0.137  0.00  0.00     0.034 A 
ATOM      7 Cl   UNL d   1       0.347  -2.190  -2.166  0.00  0.00    -0.070 Cl
ATOM      8 Cl1  UNL d   1       2.203   0.268  -1.110  0.00  0.00    -0.070 Cl
ENDROOT
TORSDOF 0
ENDMDL
