MODEL 1
REMARK minimizedAffinity -2.80760932
REMARK minimizedRMSD -1
REMARK  0 active torsions:
REMARK  status: ('A' for Active; 'I' for Inactive)
ROOT
ATOM      1  C   UNL d   1      -0.074  -0.417   1.475  0.00  0.00     0.020 A 
ATOM      2  C1  UNL d   1       0.498  -0.558   0.211  0.00  0.00     0.020 A 
ATOM      3  C2  UNL d   1       0.605   0.549  -0.634  0.00  0.00     0.034 A 
ATOM      4  C3  UNL d   1       0.141   1.801  -0.216  0.00  0.00     0.017 A 
ATOM      5  C4  UNL d   1      -0.433   1.941   1.053  0.00  0.00     0.017 A 
ATOM      6  C5  UNL d   1      -0.538   0.830   1.895  0.00  0.00     0.034 A 
ATOM      7 Cl   UNL d   1      -1.029   3.454   1.639  0.00  0.00    -0.070 Cl
ATOM      8 Cl1  UNL d   1       0.306   3.127  -1.312  0.00  0.00    -0.070 Cl
ENDROOT
TORSDOF 0
ENDMDL
