MODEL 1
REMARK minimizedAffinity -1.03834319
REMARK minimizedRMSD -1
REMARK  0 active torsions:
REMARK  status: ('A' for Active; 'I' for Inactive)
ROOT
ATOM      1  C   UNL d   1      -1.389  -0.414   1.503  0.00  0.00     0.020 A 
ATOM      2  C1  UNL d   1      -0.685   0.778   1.665  0.00  0.00     0.020 A 
ATOM      3  C2  UNL d   1       0.303   1.137   0.744  0.00  0.00     0.034 A 
ATOM      4  C3  UNL d   1       0.588   0.302  -0.342  0.00  0.00     0.017 A 
ATOM      5  C4  UNL d   1      -0.120  -0.895  -0.504  0.00  0.00     0.017 A 
ATOM      6  C5  UNL d   1      -1.107  -1.249   0.421  0.00  0.00     0.034 A 
ATOM      7 Cl   UNL d   1       0.177  -1.977  -1.819  0.00  0.00    -0.070 Cl
ATOM      8 Cl1  UNL d   1       1.821   0.807  -1.442  0.00  0.00    -0.070 Cl
ENDROOT
TORSDOF 0
ENDMDL
