MODEL 1
REMARK minimizedAffinity -3.35718966
REMARK minimizedRMSD -1
REMARK  0 active torsions:
REMARK  status: ('A' for Active; 'I' for Inactive)
ROOT
ATOM      1  C   UNL d   1      -0.007   3.670   0.001  0.00  0.00     0.020 A 
ATOM      2  C1  UNL d   1      -0.818   3.592   1.133  0.00  0.00     0.020 A 
ATOM      3  C2  UNL d   1      -1.119   2.349   1.692  0.00  0.00     0.034 A 
ATOM      4  C3  UNL d   1      -0.610   1.177   1.120  0.00  0.00     0.017 A 
ATOM      5  C4  UNL d   1       0.204   1.256  -0.016  0.00  0.00     0.017 A 
ATOM      6  C5  UNL d   1       0.502   2.504  -0.572  0.00  0.00     0.034 A 
ATOM      7 Cl   UNL d   1       0.869  -0.145  -0.778  0.00  0.00    -0.070 Cl
ATOM      8 Cl1  UNL d   1      -1.023  -0.326   1.865  0.00  0.00    -0.070 Cl
ENDROOT
TORSDOF 0
ENDMDL
