MODEL 1
REMARK minimizedAffinity -3.36933923
REMARK minimizedRMSD -1
REMARK  0 active torsions:
REMARK  status: ('A' for Active; 'I' for Inactive)
ROOT
ATOM      1  C   UNL d   1       0.419   2.894  -0.293  0.00  0.00     0.020 A 
ATOM      2  C1  UNL d   1      -0.128   2.961   0.988  0.00  0.00     0.020 A 
ATOM      3  C2  UNL d   1      -0.275   1.798   1.746  0.00  0.00     0.034 A 
ATOM      4  C3  UNL d   1       0.125   0.562   1.224  0.00  0.00     0.017 A 
ATOM      5  C4  UNL d   1       0.674   0.496  -0.061  0.00  0.00     0.017 A 
ATOM      6  C5  UNL d   1       0.819   1.664  -0.816  0.00  0.00     0.034 A 
ATOM      7 Cl   UNL d   1       1.191  -0.992  -0.773  0.00  0.00    -0.070 Cl
ATOM      8 Cl1  UNL d   1      -0.086  -0.836   2.217  0.00  0.00    -0.070 Cl
ENDROOT
TORSDOF 0
ENDMDL
