MODEL 1
REMARK minimizedAffinity -2.61210608
REMARK minimizedRMSD -1
REMARK  0 active torsions:
REMARK  status: ('A' for Active; 'I' for Inactive)
ROOT
ATOM      1  C   UNL d   1       0.036   2.733   0.148  0.00  0.00     0.020 A 
ATOM      2  C1  UNL d   1      -0.589   2.581   1.385  0.00  0.00     0.020 A 
ATOM      3  C2  UNL d   1      -0.646   1.324   1.989  0.00  0.00     0.034 A 
ATOM      4  C3  UNL d   1      -0.075   0.213   1.357  0.00  0.00     0.017 A 
ATOM      5  C4  UNL d   1       0.552   0.366   0.116  0.00  0.00     0.017 A 
ATOM      6  C5  UNL d   1       0.605   1.627  -0.485  0.00  0.00     0.034 A 
ATOM      7 Cl   UNL d   1       1.278  -0.958  -0.725  0.00  0.00    -0.070 Cl
ATOM      8 Cl1  UNL d   1      -0.182  -1.312   2.163  0.00  0.00    -0.070 Cl
ENDROOT
TORSDOF 0
ENDMDL
