MODEL 1
REMARK minimizedAffinity -2.09286404
REMARK minimizedRMSD -1
REMARK  0 active torsions:
REMARK  status: ('A' for Active; 'I' for Inactive)
ROOT
ATOM      1  C   UNL d   1      -0.374   2.108   1.671  0.00  0.00     0.020 A 
ATOM      2  C1  UNL d   1      -0.843   0.841   2.018  0.00  0.00     0.020 A 
ATOM      3  C2  UNL d   1      -0.679  -0.229   1.136  0.00  0.00     0.034 A 
ATOM      4  C3  UNL d   1      -0.046  -0.035  -0.096  0.00  0.00     0.017 A 
ATOM      5  C4  UNL d   1       0.424   1.236  -0.444  0.00  0.00     0.017 A 
ATOM      6  C5  UNL d   1       0.258   2.305   0.443  0.00  0.00     0.034 A 
ATOM      7 Cl   UNL d   1       1.216   1.553  -1.947  0.00  0.00    -0.070 Cl
ATOM      8 Cl1  UNL d   1       0.123  -1.404  -1.137  0.00  0.00    -0.070 Cl
ENDROOT
TORSDOF 0
ENDMDL
