MODEL 1
REMARK minimizedAffinity -2.24394774
REMARK minimizedRMSD -1
REMARK  0 active torsions:
REMARK  status: ('A' for Active; 'I' for Inactive)
ROOT
ATOM      1  O1  BZF d   1       5.972  -0.750   3.828  0.00  0.00    -0.204 OA
ATOM      2  C2  BZF d   1       5.957  -1.106   5.162  0.00  0.00     0.174 A 
ATOM      3  C3  BZF d   1       5.999  -0.012   5.950  0.00  0.00    -0.012 A 
ATOM      4  C3A BZF d   1       5.951   1.100   5.052  0.00  0.00    -0.107 A 
ATOM      5  C4  BZF d   1       5.946   2.454   5.233  0.00  0.00     0.055 A 
ATOM      6  C5  BZF d   1       5.966   3.266   4.144  0.00  0.00    -0.016 A 
ATOM      7  C6  BZF d   1       5.998   2.760   2.861  0.00  0.00     0.022 A 
ATOM      8  C7  BZF d   1       5.999   1.425   2.631  0.00  0.00     0.029 A 
ATOM      9  C7A BZF d   1       5.944   0.601   3.729  0.00  0.00     0.058 A 
ENDROOT
TORSDOF 0
ENDMDL
