MODEL 1
REMARK minimizedAffinity 2.22843075
REMARK minimizedRMSD -1
REMARK  0 active torsions:
REMARK  status: ('A' for Active; 'I' for Inactive)
ROOT
ATOM      1  O1  BZF d   1       4.546   0.010   5.394  0.00  0.00    -0.204 OA
ATOM      2  C2  BZF d   1       5.346  -1.111   5.286  0.00  0.00     0.174 A 
ATOM      3  C3  BZF d   1       5.999  -1.120   4.106  0.00  0.00    -0.012 A 
ATOM      4  C3A BZF d   1       5.652   0.115   3.474  0.00  0.00    -0.107 A 
ATOM      5  C4  BZF d   1       6.000   0.692   2.285  0.00  0.00     0.055 A 
ATOM      6  C5  BZF d   1       5.428   1.873   1.932  0.00  0.00    -0.016 A 
ATOM      7  C6  BZF d   1       4.503   2.502   2.740  0.00  0.00     0.022 A 
ATOM      8  C7  BZF d   1       4.131   1.971   3.930  0.00  0.00     0.029 A 
ATOM      9  C7A BZF d   1       4.731   0.794   4.305  0.00  0.00     0.058 A 
ENDROOT
TORSDOF 0
ENDMDL
