MODEL 1
REMARK minimizedAffinity -3.45123935
REMARK minimizedRMSD -1
REMARK  0 active torsions:
REMARK  status: ('A' for Active; 'I' for Inactive)
ROOT
ATOM      1  O1  BZF d   1       5.999   3.015   5.327  0.00  0.00    -0.204 OA
ATOM      2  C2  BZF d   1       5.867   3.681   4.124  0.00  0.00     0.174 A 
ATOM      3  C3  BZF d   1       5.620   2.814   3.122  0.00  0.00    -0.012 A 
ATOM      4  C3A BZF d   1       5.506   1.534   3.751  0.00  0.00    -0.107 A 
ATOM      5  C4  BZF d   1       5.250   0.277   3.283  0.00  0.00     0.055 A 
ATOM      6  C5  BZF d   1       5.279  -0.770   4.149  0.00  0.00    -0.016 A 
ATOM      7  C6  BZF d   1       5.565  -0.596   5.487  0.00  0.00     0.022 A 
ATOM      8  C7  BZF d   1       5.820   0.632   6.000  0.00  0.00     0.029 A 
ATOM      9  C7A BZF d   1       5.759   1.696   5.133  0.00  0.00     0.058 A 
ENDROOT
TORSDOF 0
ENDMDL
