MODEL 1
REMARK minimizedAffinity -2.80637765
REMARK minimizedRMSD -1
REMARK  0 active torsions:
REMARK  status: ('A' for Active; 'I' for Inactive)
ROOT
ATOM      1  O1  BZF d   1       5.908   1.194   5.964  0.00  0.00    -0.204 OA
ATOM      2  C2  BZF d   1       5.911  -0.167   5.730  0.00  0.00     0.174 A 
ATOM      3  C3  BZF d   1       5.889  -0.425   4.406  0.00  0.00    -0.012 A 
ATOM      4  C3A BZF d   1       5.963   0.855   3.772  0.00  0.00    -0.107 A 
ATOM      5  C4  BZF d   1       5.995   1.256   2.467  0.00  0.00     0.055 A 
ATOM      6  C5  BZF d   1       5.995   2.585   2.184  0.00  0.00    -0.016 A 
ATOM      7  C6  BZF d   1       5.958   3.539   3.179  0.00  0.00     0.022 A 
ATOM      8  C7  BZF d   1       5.930   3.190   4.488  0.00  0.00     0.029 A 
ATOM      9  C7A BZF d   1       5.964   1.848   4.778  0.00  0.00     0.058 A 
ENDROOT
TORSDOF 0
ENDMDL
