MODEL 1
REMARK minimizedAffinity -2.46022344
REMARK minimizedRMSD -1
REMARK  0 active torsions:
REMARK  status: ('A' for Active; 'I' for Inactive)
ROOT
ATOM      1  O1  BZF d   1       5.962   0.161   3.699  0.00  0.00    -0.204 OA
ATOM      2  C2  BZF d   1       5.951  -0.435   4.945  0.00  0.00     0.174 A 
ATOM      3  C3  BZF d   1       5.998   0.494   5.921  0.00  0.00    -0.012 A 
ATOM      4  C3A BZF d   1       5.946   1.754   5.244  0.00  0.00    -0.107 A 
ATOM      5  C4  BZF d   1       5.943   3.050   5.672  0.00  0.00     0.055 A 
ATOM      6  C5  BZF d   1       5.959   4.050   4.752  0.00  0.00    -0.016 A 
ATOM      7  C6  BZF d   1       5.986   3.790   3.398  0.00  0.00     0.022 A 
ATOM      8  C7  BZF d   1       5.985   2.519   2.925  0.00  0.00     0.029 A 
ATOM      9  C7A BZF d   1       5.934   1.507   3.852  0.00  0.00     0.058 A 
ENDROOT
TORSDOF 0
ENDMDL
