MODEL 1
REMARK minimizedAffinity -1.39282906
REMARK minimizedRMSD -1
REMARK  0 active torsions:
REMARK  status: ('A' for Active; 'I' for Inactive)
ROOT
ATOM      1  O1  BZF d   1       5.962   0.250   5.992  0.00  0.00    -0.204 OA
ATOM      2  C2  BZF d   1       5.967  -1.121   5.819  0.00  0.00     0.174 A 
ATOM      3  C3  BZF d   1       5.927  -1.438   4.509  0.00  0.00    -0.012 A 
ATOM      4  C3A BZF d   1       5.987  -0.187   3.817  0.00  0.00    -0.107 A 
ATOM      5  C4  BZF d   1       6.000   0.155   2.495  0.00  0.00     0.055 A 
ATOM      6  C5  BZF d   1       5.990   1.470   2.153  0.00  0.00    -0.016 A 
ATOM      7  C6  BZF d   1       5.963   2.468   3.105  0.00  0.00     0.022 A 
ATOM      8  C7  BZF d   1       5.955   2.178   4.429  0.00  0.00     0.029 A 
ATOM      9  C7A BZF d   1       5.998   0.850   4.778  0.00  0.00     0.058 A 
ENDROOT
TORSDOF 0
ENDMDL
