MODEL 1
REMARK minimizedAffinity 6.37431717
REMARK minimizedRMSD -1
REMARK  0 active torsions:
REMARK  status: ('A' for Active; 'I' for Inactive)
ROOT
ATOM      1  O1  BZF d   1       5.929   2.276   1.958  0.00  0.00    -0.204 OA
ATOM      2  C2  BZF d   1       5.921   1.515   3.111  0.00  0.00     0.174 A 
ATOM      3  C3  BZF d   1       5.988   2.302   4.205  0.00  0.00    -0.012 A 
ATOM      4  C3A BZF d   1       5.947   3.642   3.706  0.00  0.00    -0.107 A 
ATOM      5  C4  BZF d   1       5.964   4.868   4.308  0.00  0.00     0.055 A 
ATOM      6  C5  BZF d   1       5.986   5.984   3.532  0.00  0.00    -0.016 A 
ATOM      7  C6  BZF d   1       5.997   5.911   2.155  0.00  0.00     0.022 A 
ATOM      8  C7  BZF d   1       5.976   4.717   1.513  0.00  0.00     0.029 A 
ATOM      9  C7A BZF d   1       5.920   3.589   2.294  0.00  0.00     0.058 A 
ENDROOT
TORSDOF 0
ENDMDL
