MODEL 1
REMARK minimizedAffinity -2.11734915
REMARK minimizedRMSD -1
REMARK  0 active torsions:
REMARK  status: ('A' for Active; 'I' for Inactive)
ROOT
ATOM      1  O1  BZF d   1       5.247   3.662   4.877  0.00  0.00    -0.204 OA
ATOM      2  C2  BZF d   1       5.599   4.466   3.810  0.00  0.00     0.174 A 
ATOM      3  C3  BZF d   1       5.997   3.719   2.760  0.00  0.00    -0.012 A 
ATOM      4  C3A BZF d   1       5.801   2.362   3.167  0.00  0.00    -0.107 A 
ATOM      5  C4  BZF d   1       5.999   1.159   2.551  0.00  0.00     0.055 A 
ATOM      6  C5  BZF d   1       5.777   0.015   3.250  0.00  0.00    -0.016 A 
ATOM      7  C6  BZF d   1       5.362   0.037   4.566  0.00  0.00     0.022 A 
ATOM      8  C7  BZF d   1       5.147   1.205   5.217  0.00  0.00     0.029 A 
ATOM      9  C7A BZF d   1       5.339   2.363   4.503  0.00  0.00     0.058 A 
ENDROOT
TORSDOF 0
ENDMDL
