MODEL 1
REMARK minimizedAffinity 13.6126003
REMARK minimizedRMSD -1
REMARK  0 active torsions:
REMARK  status: ('A' for Active; 'I' for Inactive)
ROOT
ATOM      1  O1  BZF d   1       5.948   5.500   3.088  0.00  0.00    -0.204 OA
ATOM      2  C2  BZF d   1       5.998   5.795   4.437  0.00  0.00     0.174 A 
ATOM      3  C3  BZF d   1       5.968   4.666   5.175  0.00  0.00    -0.012 A 
ATOM      4  C3A BZF d   1       5.987   3.595   4.226  0.00  0.00    -0.107 A 
ATOM      5  C4  BZF d   1       5.987   2.235   4.345  0.00  0.00     0.055 A 
ATOM      6  C5  BZF d   1       5.934   1.473   3.221  0.00  0.00    -0.016 A 
ATOM      7  C6  BZF d   1       5.874   2.038   1.964  0.00  0.00     0.022 A 
ATOM      8  C7  BZF d   1       5.877   3.382   1.795  0.00  0.00     0.029 A 
ATOM      9  C7A BZF d   1       5.964   4.155   2.927  0.00  0.00     0.058 A 
ENDROOT
TORSDOF 0
ENDMDL
