MODEL 1
REMARK minimizedAffinity -0.859361053
REMARK minimizedRMSD -1
REMARK  0 active torsions:
REMARK  status: ('A' for Active; 'I' for Inactive)
ROOT
ATOM      1  O1  BZF d   1       5.961  -0.855   4.146  0.00  0.00    -0.204 OA
ATOM      2  C2  BZF d   1       5.949  -0.844   5.528  0.00  0.00     0.174 A 
ATOM      3  C3  BZF d   1       5.999   0.420   5.996  0.00  0.00    -0.012 A 
ATOM      4  C3A BZF d   1       5.952   1.254   4.835  0.00  0.00    -0.107 A 
ATOM      5  C4  BZF d   1       5.953   2.607   4.649  0.00  0.00     0.055 A 
ATOM      6  C5  BZF d   1       5.974   3.100   3.383  0.00  0.00    -0.016 A 
ATOM      7  C6  BZF d   1       5.998   2.271   2.281  0.00  0.00     0.022 A 
ATOM      8  C7  BZF d   1       5.993   0.922   2.415  0.00  0.00     0.029 A 
ATOM      9  C7A BZF d   1       5.939   0.421   3.692  0.00  0.00     0.058 A 
ENDROOT
TORSDOF 0
ENDMDL
