MODEL 1
REMARK minimizedAffinity -4.14783144
REMARK minimizedRMSD -1
REMARK  0 active torsions:
REMARK  status: ('A' for Active; 'I' for Inactive)
ROOT
ATOM      1  O1  BZF d   1       5.932   3.051   4.720  0.00  0.00    -0.204 OA
ATOM      2  C2  BZF d   1       5.982   3.714   3.509  0.00  0.00     0.174 A 
ATOM      3  C3  BZF d   1       5.794   2.857   2.485  0.00  0.00    -0.012 A 
ATOM      4  C3A BZF d   1       5.523   1.593   3.098  0.00  0.00    -0.107 A 
ATOM      5  C4  BZF d   1       5.239   0.352   2.605  0.00  0.00     0.055 A 
ATOM      6  C5  BZF d   1       5.100  -0.687   3.470  0.00  0.00    -0.016 A 
ATOM      7  C6  BZF d   1       5.243  -0.522   4.832  0.00  0.00     0.022 A 
ATOM      8  C7  BZF d   1       5.520   0.691   5.369  0.00  0.00     0.029 A 
ATOM      9  C7A BZF d   1       5.629   1.749   4.500  0.00  0.00     0.058 A 
ENDROOT
TORSDOF 0
ENDMDL
