MODEL 1
REMARK minimizedAffinity -1.38073933
REMARK minimizedRMSD -1
REMARK  0 active torsions:
REMARK  status: ('A' for Active; 'I' for Inactive)
ROOT
ATOM      1  O1  BZF d   1       5.922  -1.220   3.584  0.00  0.00    -0.204 OA
ATOM      2  C2  BZF d   1       5.923  -1.677   4.888  0.00  0.00     0.174 A 
ATOM      3  C3  BZF d   1       6.000  -0.647   5.756  0.00  0.00    -0.012 A 
ATOM      4  C3A BZF d   1       5.957   0.531   4.945  0.00  0.00    -0.107 A 
ATOM      5  C4  BZF d   1       5.981   1.867   5.229  0.00  0.00     0.055 A 
ATOM      6  C5  BZF d   1       5.999   2.759   4.204  0.00  0.00    -0.016 A 
ATOM      7  C6  BZF d   1       5.999   2.352   2.886  0.00  0.00     0.022 A 
ATOM      8  C7  BZF d   1       5.971   1.038   2.556  0.00  0.00     0.029 A 
ATOM      9  C7A BZF d   1       5.919   0.134   3.589  0.00  0.00     0.058 A 
ENDROOT
TORSDOF 0
ENDMDL
