MODEL 1
REMARK minimizedAffinity 0.966373742
REMARK minimizedRMSD -1
REMARK  0 active torsions:
REMARK  status: ('A' for Active; 'I' for Inactive)
ROOT
ATOM      1  O1  BZF d   1       5.911   2.347   4.216  0.00  0.00    -0.204 OA
ATOM      2  C2  BZF d   1       5.916   2.497   2.843  0.00  0.00     0.174 A 
ATOM      3  C3  BZF d   1       5.998   1.298   2.231  0.00  0.00    -0.012 A 
ATOM      4  C3A BZF d   1       5.955   0.333   3.287  0.00  0.00    -0.107 A 
ATOM      5  C4  BZF d   1       5.984  -1.032   3.312  0.00  0.00     0.055 A 
ATOM      6  C5  BZF d   1       6.000  -1.669   4.512  0.00  0.00    -0.016 A 
ATOM      7  C6  BZF d   1       5.994  -0.975   5.704  0.00  0.00     0.022 A 
ATOM      8  C7  BZF d   1       5.961   0.380   5.729  0.00  0.00     0.029 A 
ATOM      9  C7A BZF d   1       5.911   1.027   4.518  0.00  0.00     0.058 A 
ENDROOT
TORSDOF 0
ENDMDL
