MODEL 1
REMARK minimizedAffinity 0.879868209
REMARK minimizedRMSD -1
REMARK  0 active torsions:
REMARK  status: ('A' for Active; 'I' for Inactive)
ROOT
ATOM      1  O1  BZF d   1       5.927   2.373   2.156  0.00  0.00    -0.204 OA
ATOM      2  C2  BZF d   1       5.926   1.547   3.264  0.00  0.00     0.174 A 
ATOM      3  C3  BZF d   1       5.999   2.269   4.400  0.00  0.00    -0.012 A 
ATOM      4  C3A BZF d   1       5.956   3.636   3.980  0.00  0.00    -0.107 A 
ATOM      5  C4  BZF d   1       5.977   4.825   4.651  0.00  0.00     0.055 A 
ATOM      6  C5  BZF d   1       5.996   5.984   3.941  0.00  0.00    -0.016 A 
ATOM      7  C6  BZF d   1       6.000   5.990   2.562  0.00  0.00     0.022 A 
ATOM      8  C7  BZF d   1       5.974   4.836   1.852  0.00  0.00     0.029 A 
ATOM      9  C7A BZF d   1       5.922   3.664   2.567  0.00  0.00     0.058 A 
ENDROOT
TORSDOF 0
ENDMDL
