MODEL 1
REMARK minimizedAffinity 1.17500043
REMARK minimizedRMSD -1
REMARK  0 active torsions:
REMARK  status: ('A' for Active; 'I' for Inactive)
ROOT
ATOM      1  O1  BZF d   1       5.955   0.255   5.799  0.00  0.00    -0.204 OA
ATOM      2  C2  BZF d   1       5.935  -1.054   5.359  0.00  0.00     0.174 A 
ATOM      3  C3  BZF d   1       5.885  -1.104   4.012  0.00  0.00    -0.012 A 
ATOM      4  C3A BZF d   1       5.966   0.257   3.581  0.00  0.00    -0.107 A 
ATOM      5  C4  BZF d   1       5.981   0.854   2.353  0.00  0.00     0.055 A 
ATOM      6  C5  BZF d   1       5.994   2.211   2.278  0.00  0.00    -0.016 A 
ATOM      7  C6  BZF d   1       5.988   3.001   3.409  0.00  0.00     0.022 A 
ATOM      8  C7  BZF d   1       5.979   2.454   4.649  0.00  0.00     0.029 A 
ATOM      9  C7A BZF d   1       5.999   1.083   4.728  0.00  0.00     0.058 A 
ENDROOT
TORSDOF 0
ENDMDL
