MODEL 1
REMARK minimizedAffinity -4.07720137
REMARK minimizedRMSD -1
REMARK  0 active torsions:
REMARK  status: ('A' for Active; 'I' for Inactive)
ROOT
ATOM      1  O1  BZF d   1       5.746  -1.104   3.782  0.00  0.00    -0.204 OA
ATOM      2  C2  BZF d   1       5.611  -1.692   5.024  0.00  0.00     0.174 A 
ATOM      3  C3  BZF d   1       5.638  -0.761   6.000  0.00  0.00    -0.012 A 
ATOM      4  C3A BZF d   1       5.708   0.495   5.319  0.00  0.00    -0.107 A 
ATOM      5  C4  BZF d   1       5.746   1.792   5.744  0.00  0.00     0.055 A 
ATOM      6  C5  BZF d   1       5.887   2.784   4.826  0.00  0.00    -0.016 A 
ATOM      7  C6  BZF d   1       5.998   2.515   3.477  0.00  0.00     0.022 A 
ATOM      8  C7  BZF d   1       5.960   1.244   3.007  0.00  0.00     0.029 A 
ATOM      9  C7A BZF d   1       5.784   0.242   3.930  0.00  0.00     0.058 A 
ENDROOT
TORSDOF 0
ENDMDL
