MODEL 1
REMARK minimizedAffinity -0.960686266
REMARK minimizedRMSD -1
REMARK  0 active torsions:
REMARK  status: ('A' for Active; 'I' for Inactive)
ROOT
ATOM      1  O1  BZF d   1       5.960   0.047   2.338  0.00  0.00    -0.204 OA
ATOM      2  C2  BZF d   1       5.956   1.386   2.677  0.00  0.00     0.174 A 
ATOM      3  C3  BZF d   1       5.913   1.540   4.016  0.00  0.00    -0.012 A 
ATOM      4  C3A BZF d   1       5.981   0.215   4.550  0.00  0.00    -0.107 A 
ATOM      5  C4  BZF d   1       5.995  -0.286   5.821  0.00  0.00     0.055 A 
ATOM      6  C5  BZF d   1       5.994  -1.633   6.000  0.00  0.00    -0.016 A 
ATOM      7  C6  BZF d   1       5.974  -2.507   4.933  0.00  0.00     0.022 A 
ATOM      8  C7  BZF d   1       5.966  -2.058   3.654  0.00  0.00     0.029 A 
ATOM      9  C7A BZF d   1       6.000  -0.697   3.470  0.00  0.00     0.058 A 
ENDROOT
TORSDOF 0
ENDMDL
