MODEL 1
REMARK minimizedAffinity -2.42117858
REMARK minimizedRMSD -1
REMARK  0 active torsions:
REMARK  status: ('A' for Active; 'I' for Inactive)
ROOT
ATOM      1  O1  BZF d   1       5.914  -0.867   3.970  0.00  0.00    -0.204 OA
ATOM      2  C2  BZF d   1       5.912  -1.051   5.339  0.00  0.00     0.174 A 
ATOM      3  C3  BZF d   1       5.991   0.132   5.981  0.00  0.00    -0.012 A 
ATOM      4  C3A BZF d   1       5.952   1.123   4.950  0.00  0.00    -0.107 A 
ATOM      5  C4  BZF d   1       5.979   2.489   4.958  0.00  0.00     0.055 A 
ATOM      6  C5  BZF d   1       6.000   3.156   3.774  0.00  0.00    -0.016 A 
ATOM      7  C6  BZF d   1       6.000   2.491   2.566  0.00  0.00     0.022 A 
ATOM      8  C7  BZF d   1       5.968   1.137   2.507  0.00  0.00     0.029 A 
ATOM      9  C7A BZF d   1       5.914   0.461   3.701  0.00  0.00     0.058 A 
ENDROOT
TORSDOF 0
ENDMDL
