MODEL 1
REMARK minimizedAffinity -2.0340178
REMARK minimizedRMSD -1
REMARK  0 active torsions:
REMARK  status: ('A' for Active; 'I' for Inactive)
ROOT
ATOM      1  O1  BZF d   1       5.881   3.050   5.244  0.00  0.00    -0.204 OA
ATOM      2  C2  BZF d   1       5.990   1.783   4.704  0.00  0.00     0.174 A 
ATOM      3  C3  BZF d   1       6.000   1.836   3.356  0.00  0.00    -0.012 A 
ATOM      4  C3A BZF d   1       5.984   3.230   3.035  0.00  0.00    -0.107 A 
ATOM      5  C4  BZF d   1       5.999   3.923   1.858  0.00  0.00     0.055 A 
ATOM      6  C5  BZF d   1       5.901   5.278   1.887  0.00  0.00    -0.016 A 
ATOM      7  C6  BZF d   1       5.782   5.972   3.074  0.00  0.00     0.022 A 
ATOM      8  C7  BZF d   1       5.768   5.329   4.267  0.00  0.00     0.029 A 
ATOM      9  C7A BZF d   1       5.899   3.962   4.242  0.00  0.00     0.058 A 
ENDROOT
TORSDOF 0
ENDMDL
