MODEL 1
REMARK minimizedAffinity -4.79694176
REMARK minimizedRMSD -1
REMARK  1 active torsions:
REMARK  status: ('A' for Active; 'I' for Inactive)
REMARK    1  A    between atoms: C1_2  and  C2_3 
ROOT
ATOM      1  C2  UNL d   1      -0.685   1.988   0.985  0.00  0.00    -0.081 A 
ATOM      2  C3  UNL d   1       0.075   2.341   2.106  0.00  0.00     0.006 A 
ATOM      3  C4  UNL d   1       1.032   1.462   2.618  0.00  0.00     0.002 A 
ATOM      4  C5  UNL d   1       1.251   0.219   2.013  0.00  0.00    -0.080 A 
ATOM      5  C6  UNL d   1       2.296  -0.721   2.535  0.00  0.00     0.076 C 
ATOM      6  C7  UNL d   1       0.479  -0.141   0.903  0.00  0.00     0.002 A 
ATOM      7  C8  UNL d   1      -0.478   0.738   0.391  0.00  0.00     0.006 A 
ENDROOT
BRANCH   1   8
ATOM      8  C1  UNL d   1      -1.673   2.960   0.391  0.00  0.00     0.054 C 
ATOM      9  C   UNL d   1      -1.438   3.145  -1.101  0.00  0.00     0.018 C 
ENDBRANCH   1   8
TORSDOF 1
ENDMDL
