MODEL 1
REMARK minimizedAffinity -5.48402834
REMARK minimizedRMSD -1
REMARK  1 active torsions:
REMARK  status: ('A' for Active; 'I' for Inactive)
REMARK    1  A    between atoms: C1_2  and  C2_3 
ROOT
ATOM      1  C2  UNL d   1      -0.033  -0.887  -0.244  0.00  0.00    -0.081 A 
ATOM      2  C3  UNL d   1       0.371  -0.642   1.074  0.00  0.00     0.006 A 
ATOM      3  C4  UNL d   1       0.011   0.545   1.716  0.00  0.00     0.002 A 
ATOM      4  C5  UNL d   1      -0.765   1.503   1.055  0.00  0.00    -0.080 A 
ATOM      5  C6  UNL d   1      -1.184   2.768   1.743  0.00  0.00     0.076 C 
ATOM      6  C7  UNL d   1      -1.154   1.266  -0.268  0.00  0.00     0.002 A 
ATOM      7  C8  UNL d   1      -0.794   0.080  -0.911  0.00  0.00     0.006 A 
ENDROOT
BRANCH   1   8
ATOM      8  C1  UNL d   1       0.299  -2.194  -0.917  0.00  0.00     0.054 C 
ATOM      9  C   UNL d   1      -0.831  -2.650  -1.829  0.00  0.00     0.018 C 
ENDBRANCH   1   8
TORSDOF 1
ENDMDL
