MODEL 1
REMARK minimizedAffinity -4.9906559
REMARK minimizedRMSD -1
REMARK  1 active torsions:
REMARK  status: ('A' for Active; 'I' for Inactive)
REMARK    1  A    between atoms: C1_2  and  C2_3 
ROOT
ATOM      1  C2  UNL d   1      -0.535   1.158  -0.471  0.00  0.00    -0.081 A 
ATOM      2  C3  UNL d   1       0.147   0.867  -1.659  0.00  0.00     0.006 A 
ATOM      3  C4  UNL d   1       0.611  -0.427  -1.909  0.00  0.00     0.002 A 
ATOM      4  C5  UNL d   1       0.395  -1.451  -0.982  0.00  0.00    -0.080 A 
ATOM      5  C6  UNL d   1       0.861  -2.851  -1.252  0.00  0.00     0.076 C 
ATOM      6  C7  UNL d   1      -0.271  -1.156   0.213  0.00  0.00     0.002 A 
ATOM      7  C8  UNL d   1      -0.735   0.137   0.465  0.00  0.00     0.006 A 
ENDROOT
BRANCH   1   8
ATOM      8  C1  UNL d   1      -1.094   2.536  -0.226  0.00  0.00     0.054 C 
ATOM      9  C   UNL d   1      -1.159   2.851   1.262  0.00  0.00     0.018 C 
ENDBRANCH   1   8
TORSDOF 1
ENDMDL
