MODEL 1
REMARK minimizedAffinity -5.08581638
REMARK minimizedRMSD -1
REMARK  1 active torsions:
REMARK  status: ('A' for Active; 'I' for Inactive)
REMARK    1  A    between atoms: C1_2  and  C2_3 
ROOT
ATOM      1  C2  UNL d   1       0.208  -0.126  -0.351  0.00  0.00    -0.081 A 
ATOM      2  C3  UNL d   1       0.381  -0.036   1.036  0.00  0.00     0.006 A 
ATOM      3  C4  UNL d   1      -0.158   1.037   1.749  0.00  0.00     0.002 A 
ATOM      4  C5  UNL d   1      -0.885   2.034   1.089  0.00  0.00    -0.080 A 
ATOM      5  C6  UNL d   1      -1.495   3.176   1.847  0.00  0.00     0.076 C 
ATOM      6  C7  UNL d   1      -1.043   1.954  -0.298  0.00  0.00     0.002 A 
ATOM      7  C8  UNL d   1      -0.503   0.882  -1.012  0.00  0.00     0.006 A 
ENDROOT
BRANCH   1   8
ATOM      8  C1  UNL d   1       0.733  -1.315  -1.113  0.00  0.00     0.054 C 
ATOM      9  C   UNL d   1      -0.321  -2.407  -1.228  0.00  0.00     0.018 C 
ENDBRANCH   1   8
TORSDOF 1
ENDMDL
