MODEL 1
REMARK minimizedAffinity -5.88802576
REMARK minimizedRMSD -1
REMARK  1 active torsions:
REMARK  status: ('A' for Active; 'I' for Inactive)
REMARK    1  A    between atoms: C1_2  and  C2_3 
ROOT
ATOM      1  C2  UNL d   1      -0.217   2.481   0.213  0.00  0.00    -0.081 A 
ATOM      2  C3  UNL d   1      -0.099   2.169  -1.147  0.00  0.00     0.006 A 
ATOM      3  C4  UNL d   1       0.323   0.899  -1.548  0.00  0.00     0.002 A 
ATOM      4  C5  UNL d   1       0.627  -0.081  -0.598  0.00  0.00    -0.080 A 
ATOM      5  C6  UNL d   1       1.052  -1.458  -1.015  0.00  0.00     0.076 C 
ATOM      6  C7  UNL d   1       0.526   0.236   0.761  0.00  0.00     0.002 A 
ATOM      7  C8  UNL d   1       0.105   1.506   1.163  0.00  0.00     0.006 A 
ENDROOT
BRANCH   1   8
ATOM      8  C1  UNL d   1      -0.733   3.829   0.648  0.00  0.00     0.054 C 
ATOM      9  C   UNL d   1      -1.686   3.701   1.828  0.00  0.00     0.018 C 
ENDBRANCH   1   8
TORSDOF 1
ENDMDL
