MODEL 1
REMARK minimizedAffinity -3.48048282
REMARK minimizedRMSD -1
REMARK  0 active torsions:
REMARK  status: ('A' for Active; 'I' for Inactive)
ROOT
ATOM      1  C2' OXE d   1       2.166   0.617  -1.484  0.00  0.00     0.078 C 
ATOM      2  C1' OXE d   1       0.312  -0.068   0.509  0.00  0.00     0.078 C 
ATOM      3  C1  OXE d   1       0.086  -0.613  -0.879  0.00  0.00    -0.078 A 
ATOM      4  C2  OXE d   1       0.972  -0.234  -1.859  0.00  0.00    -0.078 A 
ATOM      5  C3  OXE d   1       0.841  -0.752  -3.144  0.00  0.00     0.003 A 
ATOM      6  C4  OXE d   1      -0.272  -1.531  -3.485  0.00  0.00    -0.002 A 
ATOM      7  C5  OXE d   1      -1.208  -1.895  -2.511  0.00  0.00    -0.002 A 
ATOM      8  C6  OXE d   1      -1.021  -1.481  -1.197  0.00  0.00     0.003 A 
ENDROOT
TORSDOF 0
ENDMDL
