MODEL 1
REMARK minimizedAffinity 0.166263059
REMARK minimizedRMSD -1
REMARK  0 active torsions:
REMARK  status: ('A' for Active; 'I' for Inactive)
ROOT
ATOM      1  C2' OXE d   1      -1.572   0.774  -6.000  0.00  0.00     0.078 C 
ATOM      2  C1' OXE d   1      -4.252  -0.060  -5.982  0.00  0.00     0.078 C 
ATOM      3  C1  OXE d   1      -3.977   1.423  -5.982  0.00  0.00    -0.078 A 
ATOM      4  C2  OXE d   1      -2.662   1.822  -5.943  0.00  0.00    -0.078 A 
ATOM      5  C3  OXE d   1      -2.351   3.178  -5.996  0.00  0.00     0.003 A 
ATOM      6  C4  OXE d   1      -3.365   4.141  -5.933  0.00  0.00    -0.002 A 
ATOM      7  C5  OXE d   1      -4.710   3.756  -5.932  0.00  0.00    -0.002 A 
ATOM      8  C6  OXE d   1      -5.033   2.405  -5.999  0.00  0.00     0.003 A 
ENDROOT
TORSDOF 0
ENDMDL
