MODEL 1
REMARK minimizedAffinity -0.146932647
REMARK minimizedRMSD -1
REMARK  0 active torsions:
REMARK  status: ('A' for Active; 'I' for Inactive)
ROOT
ATOM      1  C2' OXE d   1      -1.678   0.809  -5.998  0.00  0.00     0.078 C 
ATOM      2  C1' OXE d   1      -4.124  -0.568  -5.978  0.00  0.00     0.078 C 
ATOM      3  C1  OXE d   1      -4.165   0.939  -5.981  0.00  0.00    -0.078 A 
ATOM      4  C2  OXE d   1      -2.964   1.605  -5.944  0.00  0.00    -0.078 A 
ATOM      5  C3  OXE d   1      -2.944   2.996  -6.000  0.00  0.00     0.003 A 
ATOM      6  C4  OXE d   1      -4.138   3.725  -5.939  0.00  0.00    -0.002 A 
ATOM      7  C5  OXE d   1      -5.372   3.066  -5.936  0.00  0.00    -0.002 A 
ATOM      8  C6  OXE d   1      -5.404   1.678  -6.000  0.00  0.00     0.003 A 
ENDROOT
TORSDOF 0
ENDMDL
