MODEL 1
REMARK minimizedAffinity -1.01420498
REMARK minimizedRMSD -1
REMARK  0 active torsions:
REMARK  status: ('A' for Active; 'I' for Inactive)
ROOT
ATOM      1  C2' OXE d   1       2.283   0.735  -3.220  0.00  0.00     0.078 C 
ATOM      2  C1' OXE d   1       2.367   2.062  -0.748  0.00  0.00     0.078 C 
ATOM      3  C1  OXE d   1       1.621   0.753  -0.819  0.00  0.00    -0.078 A 
ATOM      4  C2  OXE d   1       1.545   0.134  -2.043  0.00  0.00    -0.078 A 
ATOM      5  C3  OXE d   1       0.915  -1.102  -2.153  0.00  0.00     0.003 A 
ATOM      6  C4  OXE d   1       0.226  -1.646  -1.062  0.00  0.00    -0.002 A 
ATOM      7  C5  OXE d   1       0.257  -1.012   0.185  0.00  0.00    -0.002 A 
ATOM      8  C6  OXE d   1       0.984   0.164   0.333  0.00  0.00     0.003 A 
ENDROOT
TORSDOF 0
ENDMDL
