MODEL 1
REMARK minimizedAffinity -3.20385623
REMARK minimizedRMSD -1
REMARK  0 active torsions:
REMARK  status: ('A' for Active; 'I' for Inactive)
ROOT
ATOM      1  C2' OXE d   1      -3.958   0.844  -5.999  0.00  0.00     0.078 C 
ATOM      2  C1' OXE d   1      -1.580   2.290  -5.635  0.00  0.00     0.078 C 
ATOM      3  C1  OXE d   1      -2.869   3.068  -5.731  0.00  0.00    -0.078 A 
ATOM      4  C2  OXE d   1      -4.022   2.355  -5.956  0.00  0.00    -0.078 A 
ATOM      5  C3  OXE d   1      -5.245   3.018  -5.999  0.00  0.00     0.003 A 
ATOM      6  C4  OXE d   1      -5.294   4.417  -5.969  0.00  0.00    -0.002 A 
ATOM      7  C5  OXE d   1      -4.127   5.165  -5.780  0.00  0.00    -0.002 A 
ATOM      8  C6  OXE d   1      -2.914   4.505  -5.617  0.00  0.00     0.003 A 
ENDROOT
TORSDOF 0
ENDMDL
