MODEL 1
REMARK minimizedAffinity 2.83376193
REMARK minimizedRMSD -1
REMARK  0 active torsions:
REMARK  status: ('A' for Active; 'I' for Inactive)
ROOT
ATOM      1  C2' OXE d   1      -3.366  -2.352  -5.988  0.00  0.00     0.078 C 
ATOM      2  C1' OXE d   1      -5.677  -0.759  -5.991  0.00  0.00     0.078 C 
ATOM      3  C1  OXE d   1      -4.341  -0.060  -5.981  0.00  0.00    -0.078 A 
ATOM      4  C2  OXE d   1      -3.216  -0.847  -5.932  0.00  0.00    -0.078 A 
ATOM      5  C3  OXE d   1      -1.957  -0.254  -5.977  0.00  0.00     0.003 A 
ATOM      6  C4  OXE d   1      -1.827   1.139  -5.915  0.00  0.00    -0.002 A 
ATOM      7  C5  OXE d   1      -2.961   1.959  -5.924  0.00  0.00    -0.002 A 
ATOM      8  C6  OXE d   1      -4.222   1.377  -5.999  0.00  0.00     0.003 A 
ENDROOT
TORSDOF 0
ENDMDL
