MODEL 1
REMARK minimizedAffinity -3.42092824
REMARK minimizedRMSD -1
REMARK  0 active torsions:
REMARK  status: ('A' for Active; 'I' for Inactive)
ROOT
ATOM      1  C2' OXE d   1       0.745   0.301   1.099  0.00  0.00     0.078 C 
ATOM      2  C1' OXE d   1       2.692   1.174  -0.725  0.00  0.00     0.078 C 
ATOM      3  C1  OXE d   1       1.595   0.278  -1.243  0.00  0.00    -0.078 A 
ATOM      4  C2  OXE d   1       0.673  -0.182  -0.333  0.00  0.00    -0.078 A 
ATOM      5  C3  OXE d   1      -0.391  -0.968  -0.768  0.00  0.00     0.003 A 
ATOM      6  C4  OXE d   1      -0.444  -1.419  -2.092  0.00  0.00    -0.002 A 
ATOM      7  C5  OXE d   1       0.507  -0.995  -3.026  0.00  0.00    -0.002 A 
ATOM      8  C6  OXE d   1       1.507  -0.114  -2.628  0.00  0.00     0.003 A 
ENDROOT
TORSDOF 0
ENDMDL
