MODEL 1
REMARK minimizedAffinity -1.45933747
REMARK minimizedRMSD -1
REMARK  0 active torsions:
REMARK  status: ('A' for Active; 'I' for Inactive)
ROOT
ATOM      1  C2' OXE d   1      -2.576   1.914  -5.976  0.00  0.00     0.078 C 
ATOM      2  C1' OXE d   1      -5.276   1.143  -5.994  0.00  0.00     0.078 C 
ATOM      3  C1  OXE d   1      -4.966   2.619  -5.963  0.00  0.00    -0.078 A 
ATOM      4  C2  OXE d   1      -3.643   2.986  -5.907  0.00  0.00    -0.078 A 
ATOM      5  C3  OXE d   1      -3.300   4.335  -5.932  0.00  0.00     0.003 A 
ATOM      6  C4  OXE d   1      -4.292   5.320  -5.858  0.00  0.00    -0.002 A 
ATOM      7  C5  OXE d   1      -5.646   4.967  -5.874  0.00  0.00    -0.002 A 
ATOM      8  C6  OXE d   1      -5.999   3.625  -5.969  0.00  0.00     0.003 A 
ENDROOT
TORSDOF 0
ENDMDL
