MODEL 1
REMARK minimizedAffinity 6.43789244
REMARK minimizedRMSD -1
REMARK  0 active torsions:
REMARK  status: ('A' for Active; 'I' for Inactive)
ROOT
ATOM      1  C2' OXE d   1      -2.608  -0.312  -5.943  0.00  0.00     0.078 C 
ATOM      2  C1' OXE d   1      -1.237   2.115  -5.607  0.00  0.00     0.078 C 
ATOM      3  C1  OXE d   1      -2.740   2.166  -5.722  0.00  0.00    -0.078 A 
ATOM      4  C2  OXE d   1      -3.399   0.979  -5.933  0.00  0.00    -0.078 A 
ATOM      5  C3  OXE d   1      -4.790   0.963  -5.992  0.00  0.00     0.003 A 
ATOM      6  C4  OXE d   1      -5.513   2.162  -5.992  0.00  0.00    -0.002 A 
ATOM      7  C5  OXE d   1      -4.858   3.386  -5.818  0.00  0.00    -0.002 A 
ATOM      8  C6  OXE d   1      -3.479   3.402  -5.639  0.00  0.00     0.003 A 
ENDROOT
TORSDOF 0
ENDMDL
