MODEL 1
REMARK minimizedAffinity -3.40463209
REMARK minimizedRMSD -1
REMARK  0 active torsions:
REMARK  status: ('A' for Active; 'I' for Inactive)
ROOT
ATOM      1  C2' OXE d   1      -5.010   1.615  -5.945  0.00  0.00     0.078 C 
ATOM      2  C1' OXE d   1      -2.205   1.704  -5.965  0.00  0.00     0.078 C 
ATOM      3  C1  OXE d   1      -2.950   3.015  -5.959  0.00  0.00    -0.078 A 
ATOM      4  C2  OXE d   1      -4.323   2.962  -5.996  0.00  0.00    -0.078 A 
ATOM      5  C3  OXE d   1      -5.060   4.141  -5.937  0.00  0.00     0.003 A 
ATOM      6  C4  OXE d   1      -4.416   5.384  -5.996  0.00  0.00    -0.002 A 
ATOM      7  C5  OXE d   1      -3.020   5.460  -5.999  0.00  0.00    -0.002 A 
ATOM      8  C6  OXE d   1      -2.273   4.288  -5.938  0.00  0.00     0.003 A 
ENDROOT
TORSDOF 0
ENDMDL
