MODEL 1
REMARK minimizedAffinity -0.835089505
REMARK minimizedRMSD -1
REMARK  0 active torsions:
REMARK  status: ('A' for Active; 'I' for Inactive)
ROOT
ATOM      1  C2' OXE d   1      -0.723  -1.732  -0.038  0.00  0.00     0.078 C 
ATOM      2  C1' OXE d   1       0.261   0.353   1.564  0.00  0.00     0.078 C 
ATOM      3  C1  OXE d   1       0.787   0.240   0.155  0.00  0.00    -0.078 A 
ATOM      4  C2  OXE d   1       0.335  -0.810  -0.607  0.00  0.00    -0.078 A 
ATOM      5  C3  OXE d   1       0.746  -0.929  -1.931  0.00  0.00     0.003 A 
ATOM      6  C4  OXE d   1       1.732  -0.079  -2.446  0.00  0.00    -0.002 A 
ATOM      7  C5  OXE d   1       2.235   0.974  -1.675  0.00  0.00    -0.002 A 
ATOM      8  C6  OXE d   1       1.743   1.173  -0.390  0.00  0.00     0.003 A 
ENDROOT
TORSDOF 0
ENDMDL
