MODEL 1
REMARK minimizedAffinity 6.52941322
REMARK minimizedRMSD -1
REMARK  0 active torsions:
REMARK  status: ('A' for Active; 'I' for Inactive)
ROOT
ATOM      1  C2' OXE d   1      -3.380  -2.573   2.427  0.00  0.00     0.078 C 
ATOM      2  C1' OXE d   1      -5.997  -2.529   1.414  0.00  0.00     0.078 C 
ATOM      3  C1  OXE d   1      -5.188  -1.260   1.326  0.00  0.00    -0.078 A 
ATOM      4  C2  OXE d   1      -3.924  -1.277   1.867  0.00  0.00    -0.078 A 
ATOM      5  C3  OXE d   1      -3.115  -0.149   1.763  0.00  0.00     0.003 A 
ATOM      6  C4  OXE d   1      -3.630   1.048   1.253  0.00  0.00    -0.002 A 
ATOM      7  C5  OXE d   1      -4.928   1.099   0.733  0.00  0.00    -0.002 A 
ATOM      8  C6  OXE d   1      -5.703  -0.055   0.724  0.00  0.00     0.003 A 
ENDROOT
TORSDOF 0
ENDMDL
