MODEL 1
REMARK minimizedAffinity 1.87318671
REMARK minimizedRMSD -1
REMARK  0 active torsions:
REMARK  status: ('A' for Active; 'I' for Inactive)
ROOT
ATOM      1  C2' OXE d   1       2.120   0.318  -2.937  0.00  0.00     0.078 C 
ATOM      2  C1' OXE d   1       1.774  -2.283  -1.940  0.00  0.00     0.078 C 
ATOM      3  C1  OXE d   1       1.303  -1.133  -1.085  0.00  0.00    -0.078 A 
ATOM      4  C2  OXE d   1       1.519   0.138  -1.560  0.00  0.00    -0.078 A 
ATOM      5  C3  OXE d   1       1.055   1.232  -0.836  0.00  0.00     0.003 A 
ATOM      6  C4  OXE d   1       0.509   1.057   0.442  0.00  0.00    -0.002 A 
ATOM      7  C5  OXE d   1       0.316  -0.227   0.961  0.00  0.00    -0.002 A 
ATOM      8  C6  OXE d   1       0.668  -1.332   0.195  0.00  0.00     0.003 A 
ENDROOT
TORSDOF 0
ENDMDL
