MODEL 1
REMARK minimizedAffinity -0.212715685
REMARK minimizedRMSD -1
REMARK  0 active torsions:
REMARK  status: ('A' for Active; 'I' for Inactive)
ROOT
ATOM      1  C2' OXE d   1       1.509   1.817   0.900  0.00  0.00     0.078 C 
ATOM      2  C1' OXE d   1       3.169   1.290  -1.302  0.00  0.00     0.078 C 
ATOM      3  C1  OXE d   1       1.890   0.500  -1.180  0.00  0.00    -0.078 A 
ATOM      4  C2  OXE d   1       1.107   0.732  -0.075  0.00  0.00    -0.078 A 
ATOM      5  C3  OXE d   1      -0.110   0.069   0.058  0.00  0.00     0.003 A 
ATOM      6  C4  OXE d   1      -0.470  -0.940  -0.842  0.00  0.00    -0.002 A 
ATOM      7  C5  OXE d   1       0.333  -1.219  -1.954  0.00  0.00    -0.002 A 
ATOM      8  C6  OXE d   1       1.492  -0.480  -2.160  0.00  0.00     0.003 A 
ENDROOT
TORSDOF 0
ENDMDL
