MODEL 1
REMARK minimizedAffinity -1.65965116
REMARK minimizedRMSD -1
REMARK  0 active torsions:
REMARK  status: ('A' for Active; 'I' for Inactive)
ROOT
ATOM      1  C2' OXE d   1      -4.099  -0.719  -5.945  0.00  0.00     0.078 C 
ATOM      2  C1' OXE d   1      -1.569   0.494  -5.991  0.00  0.00     0.078 C 
ATOM      3  C1  OXE d   1      -2.780   1.393  -5.972  0.00  0.00    -0.078 A 
ATOM      4  C2  OXE d   1      -4.014   0.791  -5.997  0.00  0.00    -0.078 A 
ATOM      5  C3  OXE d   1      -5.164   1.572  -5.926  0.00  0.00     0.003 A 
ATOM      6  C4  OXE d   1      -5.077   2.968  -5.985  0.00  0.00    -0.002 A 
ATOM      7  C5  OXE d   1      -3.830   3.602  -6.000  0.00  0.00    -0.002 A 
ATOM      8  C6  OXE d   1      -2.673   2.831  -5.951  0.00  0.00     0.003 A 
ENDROOT
TORSDOF 0
ENDMDL
