MODEL 1
REMARK minimizedAffinity -2.55165029
REMARK minimizedRMSD -1
REMARK  0 active torsions:
REMARK  status: ('A' for Active; 'I' for Inactive)
ROOT
ATOM      1  C2' OXE d   1      -2.734   1.271  -5.997  0.00  0.00     0.078 C 
ATOM      2  C1' OXE d   1      -5.531   1.032  -5.994  0.00  0.00     0.078 C 
ATOM      3  C1  OXE d   1      -4.944   2.421  -5.983  0.00  0.00    -0.078 A 
ATOM      4  C2  OXE d   1      -3.574   2.528  -5.937  0.00  0.00    -0.078 A 
ATOM      5  C3  OXE d   1      -2.980   3.786  -5.980  0.00  0.00     0.003 A 
ATOM      6  C4  OXE d   1      -3.764   4.944  -5.914  0.00  0.00    -0.002 A 
ATOM      7  C5  OXE d   1      -5.160   4.856  -5.920  0.00  0.00    -0.002 A 
ATOM      8  C6  OXE d   1      -5.765   3.606  -5.997  0.00  0.00     0.003 A 
ENDROOT
TORSDOF 0
ENDMDL
