MODEL 1
REMARK minimizedAffinity 0.814558506
REMARK minimizedRMSD -1
REMARK  0 active torsions:
REMARK  status: ('A' for Active; 'I' for Inactive)
ROOT
ATOM      1  C2' OXE d   1       3.211   1.560  -1.682  0.00  0.00     0.078 C 
ATOM      2  C1' OXE d   1       1.555   2.323   0.453  0.00  0.00     0.078 C 
ATOM      3  C1  OXE d   1       1.238   1.030  -0.256  0.00  0.00    -0.078 A 
ATOM      4  C2  OXE d   1       2.025   0.688  -1.329  0.00  0.00    -0.078 A 
ATOM      5  C3  OXE d   1       1.810  -0.521  -1.984  0.00  0.00     0.003 A 
ATOM      6  C4  OXE d   1       0.705  -1.317  -1.659  0.00  0.00    -0.002 A 
ATOM      7  C5  OXE d   1      -0.133  -0.967  -0.595  0.00  0.00    -0.002 A 
ATOM      8  C6  OXE d   1       0.144   0.179   0.142  0.00  0.00     0.003 A 
ENDROOT
TORSDOF 0
ENDMDL
