MODEL 1
REMARK minimizedAffinity 0.330630392
REMARK minimizedRMSD -1
REMARK  0 active torsions:
REMARK  status: ('A' for Active; 'I' for Inactive)
ROOT
ATOM      1  C2' OXE d   1      -3.367  -2.101  -4.320  0.00  0.00     0.078 C 
ATOM      2  C1' OXE d   1      -5.958  -2.653  -5.248  0.00  0.00     0.078 C 
ATOM      3  C1  OXE d   1      -4.927  -3.749  -5.348  0.00  0.00    -0.078 A 
ATOM      4  C2  OXE d   1      -3.650  -3.455  -4.935  0.00  0.00    -0.078 A 
ATOM      5  C3  OXE d   1      -2.674  -4.447  -4.955  0.00  0.00     0.003 A 
ATOM      6  C4  OXE d   1      -2.941  -5.693  -5.535  0.00  0.00    -0.002 A 
ATOM      7  C5  OXE d   1      -4.225  -6.000  -5.998  0.00  0.00    -0.002 A 
ATOM      8  C6  OXE d   1      -5.238  -5.055  -5.874  0.00  0.00     0.003 A 
ENDROOT
TORSDOF 0
ENDMDL
