MODEL 1
REMARK minimizedAffinity 1.62458766
REMARK minimizedRMSD -1
REMARK  0 active torsions:
REMARK  status: ('A' for Active; 'I' for Inactive)
ROOT
ATOM      1  C2' OXE d   1      -2.163   4.510  -5.884  0.00  0.00     0.078 C 
ATOM      2  C1' OXE d   1      -1.789   1.728  -5.856  0.00  0.00     0.078 C 
ATOM      3  C1  OXE d   1      -3.204   2.247  -5.921  0.00  0.00    -0.078 A 
ATOM      4  C2  OXE d   1      -3.379   3.610  -5.887  0.00  0.00    -0.078 A 
ATOM      5  C3  OXE d   1      -4.660   4.143  -6.000  0.00  0.00     0.003 A 
ATOM      6  C4  OXE d   1      -5.780   3.303  -5.993  0.00  0.00    -0.002 A 
ATOM      7  C5  OXE d   1      -5.625   1.913  -5.988  0.00  0.00    -0.002 A 
ATOM      8  C6  OXE d   1      -4.345   1.370  -5.995  0.00  0.00     0.003 A 
ENDROOT
TORSDOF 0
ENDMDL
