MODEL 1
REMARK minimizedAffinity -1.32723987
REMARK minimizedRMSD -1
REMARK  0 active torsions:
REMARK  status: ('A' for Active; 'I' for Inactive)
ROOT
ATOM      1  C2' OXE d   1      -2.479   1.410  -5.995  0.00  0.00     0.078 C 
ATOM      2  C1' OXE d   1      -5.188   0.676  -5.990  0.00  0.00     0.078 C 
ATOM      3  C1  OXE d   1      -4.858   2.147  -5.982  0.00  0.00    -0.078 A 
ATOM      4  C2  OXE d   1      -3.530   2.497  -5.938  0.00  0.00    -0.078 A 
ATOM      5  C3  OXE d   1      -3.169   3.841  -5.984  0.00  0.00     0.003 A 
ATOM      6  C4  OXE d   1      -4.147   4.840  -5.921  0.00  0.00    -0.002 A 
ATOM      7  C5  OXE d   1      -5.506   4.505  -5.925  0.00  0.00    -0.002 A 
ATOM      8  C6  OXE d   1      -5.877   3.167  -5.999  0.00  0.00     0.003 A 
ENDROOT
TORSDOF 0
ENDMDL
