MODEL 1
REMARK minimizedAffinity -1.88994932
REMARK minimizedRMSD -1
REMARK  0 active torsions:
REMARK  status: ('A' for Active; 'I' for Inactive)
ROOT
ATOM      1  C1  BNZ d   1       3.757   4.878  -2.570  0.00  0.00     0.000 A 
ATOM      2  C2  BNZ d   1       4.882   5.567  -2.203  0.00  0.00     0.000 A 
ATOM      3  C3  BNZ d   1       5.996   5.560  -2.993  0.00  0.00     0.000 A 
ATOM      4  C4  BNZ d   1       5.999   4.833  -4.129  0.00  0.00     0.000 A 
ATOM      5  C5  BNZ d   1       4.876   4.125  -4.509  0.00  0.00     0.000 A 
ATOM      6  C6  BNZ d   1       3.743   4.165  -3.730  0.00  0.00     0.000 A 
ENDROOT
TORSDOF 0
ENDMDL
