MODEL 1
REMARK minimizedAffinity -2.3812685
REMARK minimizedRMSD -1
REMARK  0 active torsions:
REMARK  status: ('A' for Active; 'I' for Inactive)
ROOT
ATOM      1  C1  BNZ d   1       5.733  -4.124   4.876  0.00  0.00     0.000 A 
ATOM      2  C2  BNZ d   1       4.867  -3.990   3.823  0.00  0.00     0.000 A 
ATOM      3  C3  BNZ d   1       3.886  -3.038   3.842  0.00  0.00     0.000 A 
ATOM      4  C4  BNZ d   1       3.747  -2.250   4.927  0.00  0.00     0.000 A 
ATOM      5  C5  BNZ d   1       4.606  -2.380   6.000  0.00  0.00     0.000 A 
ATOM      6  C6  BNZ d   1       5.617  -3.312   5.962  0.00  0.00     0.000 A 
ENDROOT
TORSDOF 0
ENDMDL
