MODEL 1
REMARK minimizedAffinity 3.05001688
REMARK minimizedRMSD -1
REMARK  0 active torsions:
REMARK  status: ('A' for Active; 'I' for Inactive)
ROOT
ATOM      1  C1  BNZ d   1       2.984  -0.989   4.670  0.00  0.00     0.000 A 
ATOM      2  C2  BNZ d   1       3.867  -1.324   5.662  0.00  0.00     0.000 A 
ATOM      3  C3  BNZ d   1       4.774  -2.330   5.481  0.00  0.00     0.000 A 
ATOM      4  C4  BNZ d   1       4.771  -3.026   4.326  0.00  0.00     0.000 A 
ATOM      5  C5  BNZ d   1       3.881  -2.708   3.320  0.00  0.00     0.000 A 
ATOM      6  C6  BNZ d   1       2.995  -1.668   3.490  0.00  0.00     0.000 A 
ENDROOT
TORSDOF 0
ENDMDL
