MODEL 1
REMARK minimizedAffinity 11.04879
REMARK minimizedRMSD -1
REMARK  0 active torsions:
REMARK  status: ('A' for Active; 'I' for Inactive)
ROOT
ATOM      1  C1  BNZ d   1      -3.184  -5.945  -5.067  0.00  0.00     0.000 A 
ATOM      2  C2  BNZ d   1      -3.223  -5.929  -3.698  0.00  0.00     0.000 A 
ATOM      3  C3  BNZ d   1      -4.416  -5.972  -3.031  0.00  0.00     0.000 A 
ATOM      4  C4  BNZ d   1      -5.568  -5.991  -3.733  0.00  0.00     0.000 A 
ATOM      5  C5  BNZ d   1      -5.545  -5.998  -5.114  0.00  0.00     0.000 A 
ATOM      6  C6  BNZ d   1      -4.342  -5.994  -5.781  0.00  0.00     0.000 A 
ENDROOT
TORSDOF 0
ENDMDL
