MODEL 1
REMARK minimizedAffinity -2.27166915
REMARK minimizedRMSD -1
REMARK  0 active torsions:
REMARK  status: ('A' for Active; 'I' for Inactive)
ROOT
ATOM      1  C1  BNZ d   1       5.998   4.888  -5.227  0.00  0.00     0.000 A 
ATOM      2  C2  BNZ d   1       6.000   5.988  -4.411  0.00  0.00     0.000 A 
ATOM      3  C3  BNZ d   1       5.275   6.000  -3.252  0.00  0.00     0.000 A 
ATOM      4  C4  BNZ d   1       4.519   4.930  -2.931  0.00  0.00     0.000 A 
ATOM      5  C5  BNZ d   1       4.499   3.818  -3.749  0.00  0.00     0.000 A 
ATOM      6  C6  BNZ d   1       5.260   3.794  -4.895  0.00  0.00     0.000 A 
ENDROOT
TORSDOF 0
ENDMDL
