MODEL 1
REMARK minimizedAffinity -0.571355104
REMARK minimizedRMSD -1
REMARK  0 active torsions:
REMARK  status: ('A' for Active; 'I' for Inactive)
ROOT
ATOM      1  C1  BNZ d   1       3.758  -2.336   4.438  0.00  0.00     0.000 A 
ATOM      2  C2  BNZ d   1       4.690  -3.339   4.443  0.00  0.00     0.000 A 
ATOM      3  C3  BNZ d   1       5.798  -3.262   5.240  0.00  0.00     0.000 A 
ATOM      4  C4  BNZ d   1       5.993  -2.165   6.000  0.00  0.00     0.000 A 
ATOM      5  C5  BNZ d   1       5.068  -1.140   5.999  0.00  0.00     0.000 A 
ATOM      6  C6  BNZ d   1       3.934  -1.239   5.225  0.00  0.00     0.000 A 
ENDROOT
TORSDOF 0
ENDMDL
