MODEL 1
REMARK minimizedAffinity -0.262848169
REMARK minimizedRMSD -1
REMARK  0 active torsions:
REMARK  status: ('A' for Active; 'I' for Inactive)
ROOT
ATOM      1  C1  BNZ d   1       5.739  -3.650   5.062  0.00  0.00     0.000 A 
ATOM      2  C2  BNZ d   1       4.774  -3.715   4.093  0.00  0.00     0.000 A 
ATOM      3  C3  BNZ d   1       3.767  -2.792   4.045  0.00  0.00     0.000 A 
ATOM      4  C4  BNZ d   1       3.704  -1.830   4.988  0.00  0.00     0.000 A 
ATOM      5  C5  BNZ d   1       4.664  -1.757   5.977  0.00  0.00     0.000 A 
ATOM      6  C6  BNZ d   1       5.698  -2.664   6.000  0.00  0.00     0.000 A 
ENDROOT
TORSDOF 0
ENDMDL
