MODEL 1
REMARK minimizedAffinity -2.10925794
REMARK minimizedRMSD -1
REMARK  0 active torsions:
REMARK  status: ('A' for Active; 'I' for Inactive)
ROOT
ATOM      1  C1  BNZ d   1       3.812   5.823  -3.020  0.00  0.00     0.000 A 
ATOM      2  C2  BNZ d   1       3.834   4.848  -3.981  0.00  0.00     0.000 A 
ATOM      3  C3  BNZ d   1       4.922   4.032  -4.125  0.00  0.00     0.000 A 
ATOM      4  C4  BNZ d   1       6.000   4.219  -3.337  0.00  0.00     0.000 A 
ATOM      5  C5  BNZ d   1       5.996   5.204  -2.370  0.00  0.00     0.000 A 
ATOM      6  C6  BNZ d   1       4.885   5.998  -2.201  0.00  0.00     0.000 A 
ENDROOT
TORSDOF 0
ENDMDL
