MODEL 1
REMARK minimizedAffinity -1.60591841
REMARK minimizedRMSD -1
REMARK  0 active torsions:
REMARK  status: ('A' for Active; 'I' for Inactive)
ROOT
ATOM      1  C1  BNZ d   1       3.783   5.666  -3.010  0.00  0.00     0.000 A 
ATOM      2  C2  BNZ d   1       4.885   6.000  -2.268  0.00  0.00     0.000 A 
ATOM      3  C3  BNZ d   1       6.000   5.208  -2.276  0.00  0.00     0.000 A 
ATOM      4  C4  BNZ d   1       5.997   4.065  -2.991  0.00  0.00     0.000 A 
ATOM      5  C5  BNZ d   1       4.890   3.710  -3.736  0.00  0.00     0.000 A 
ATOM      6  C6  BNZ d   1       3.784   4.529  -3.757  0.00  0.00     0.000 A 
ENDROOT
TORSDOF 0
ENDMDL
