MODEL 1
REMARK minimizedAffinity 0.296144098
REMARK minimizedRMSD -1
REMARK  0 active torsions:
REMARK  status: ('A' for Active; 'I' for Inactive)
ROOT
ATOM      1  C1  BNZ d   1      -3.187  -2.292   1.639  0.00  0.00     0.000 A 
ATOM      2  C2  BNZ d   1      -3.737  -2.694   0.452  0.00  0.00     0.000 A 
ATOM      3  C3  BNZ d   1      -2.985  -2.739  -0.689  0.00  0.00     0.000 A 
ATOM      4  C4  BNZ d   1      -1.696  -2.345  -0.648  0.00  0.00     0.000 A 
ATOM      5  C5  BNZ d   1      -1.129  -1.927   0.539  0.00  0.00     0.000 A 
ATOM      6  C6  BNZ d   1      -1.879  -1.920   1.693  0.00  0.00     0.000 A 
ENDROOT
TORSDOF 0
ENDMDL
