MODEL 1
REMARK minimizedAffinity -2.07100344
REMARK minimizedRMSD -1
REMARK  0 active torsions:
REMARK  status: ('A' for Active; 'I' for Inactive)
ROOT
ATOM      1  C1  BNZ d   1       5.241   3.764  -4.499  0.00  0.00     0.000 A 
ATOM      2  C2  BNZ d   1       5.978   3.788  -3.345  0.00  0.00     0.000 A 
ATOM      3  C3  BNZ d   1       5.999   4.900  -2.552  0.00  0.00     0.000 A 
ATOM      4  C4  BNZ d   1       5.317   6.000  -2.933  0.00  0.00     0.000 A 
ATOM      5  C5  BNZ d   1       4.578   5.995  -4.098  0.00  0.00     0.000 A 
ATOM      6  C6  BNZ d   1       4.527   4.860  -4.875  0.00  0.00     0.000 A 
ENDROOT
TORSDOF 0
ENDMDL
