MODEL 1
REMARK minimizedAffinity -0.438402504
REMARK minimizedRMSD -1
REMARK  0 active torsions:
REMARK  status: ('A' for Active; 'I' for Inactive)
ROOT
ATOM      1  C1  BNZ d   1       5.957   3.762  -3.313  0.00  0.00     0.000 A 
ATOM      2  C2  BNZ d   1       5.250   3.765  -4.486  0.00  0.00     0.000 A 
ATOM      3  C3  BNZ d   1       4.589   4.887  -4.902  0.00  0.00     0.000 A 
ATOM      4  C4  BNZ d   1       4.603   5.990  -4.127  0.00  0.00     0.000 A 
ATOM      5  C5  BNZ d   1       5.304   6.000  -2.937  0.00  0.00     0.000 A 
ATOM      6  C6  BNZ d   1       6.000   4.881  -2.541  0.00  0.00     0.000 A 
ENDROOT
TORSDOF 0
ENDMDL
