MODEL 1
REMARK minimizedAffinity 0.344572484
REMARK minimizedRMSD -1
REMARK  0 active torsions:
REMARK  status: ('A' for Active; 'I' for Inactive)
ROOT
ATOM      1  C1  BNZ d   1       4.243   3.688  -3.687  0.00  0.00     0.000 A 
ATOM      2  C2  BNZ d   1       5.487   3.704  -3.114  0.00  0.00     0.000 A 
ATOM      3  C3  BNZ d   1       6.000   4.855  -2.586  0.00  0.00     0.000 A 
ATOM      4  C4  BNZ d   1       5.287   5.997  -2.666  0.00  0.00     0.000 A 
ATOM      5  C5  BNZ d   1       4.035   6.000  -3.249  0.00  0.00     0.000 A 
ATOM      6  C6  BNZ d   1       3.505   4.831  -3.745  0.00  0.00     0.000 A 
ENDROOT
TORSDOF 0
ENDMDL
