MODEL 1
REMARK minimizedAffinity -0.000874611549
REMARK minimizedRMSD -1
REMARK  0 active torsions:
REMARK  status: ('A' for Active; 'I' for Inactive)
ROOT
ATOM      1  C1  BNZ d   1       4.475  -2.637   3.550  0.00  0.00     0.000 A 
ATOM      2  C2  BNZ d   1       5.248  -2.815   4.667  0.00  0.00     0.000 A 
ATOM      3  C3  BNZ d   1       4.804  -2.412   5.896  0.00  0.00     0.000 A 
ATOM      4  C4  BNZ d   1       3.608  -1.797   6.000  0.00  0.00     0.000 A 
ATOM      5  C5  BNZ d   1       2.822  -1.603   4.882  0.00  0.00     0.000 A 
ATOM      6  C6  BNZ d   1       3.255  -2.045   3.652  0.00  0.00     0.000 A 
ENDROOT
TORSDOF 0
ENDMDL
