MODEL 1
REMARK minimizedAffinity -4.03123283
REMARK minimizedRMSD -1
REMARK  3 active torsions:
REMARK  status: ('A' for Active; 'I' for Inactive)
REMARK    1  A    between atoms: C3'_2  and  C2'_3 
REMARK    2  A    between atoms: C2'_3  and  C1'_4 
REMARK    3  A    between atoms: C1'_4  and  C1_5 
ROOT
ATOM      1  C1  N4B d   1      -0.257   0.359  -0.886  0.00  0.00    -0.075 A 
ATOM      2  C2  N4B d   1      -1.451   0.000  -0.223  0.00  0.00     0.002 A 
ATOM      3  C3  N4B d   1      -1.419  -0.357   1.103  0.00  0.00     0.002 A 
ATOM      4  C4  N4B d   1      -0.208  -0.382   1.778  0.00  0.00    -0.004 A 
ATOM      5  C5  N4B d   1       0.937  -0.010   1.137  0.00  0.00     0.002 A 
ATOM      6  C6  N4B d   1       0.920   0.355  -0.194  0.00  0.00     0.002 A 
ENDROOT
BRANCH   1   7
ATOM      7  C1' N4B d   1      -0.229   0.674  -2.356  0.00  0.00     0.057 C 
BRANCH   7   8
ATOM      8  C2' N4B d   1       0.889  -0.125  -3.019  0.00  0.00     0.009 C 
BRANCH   8   9
ATOM      9  C3' N4B d   1       0.348  -1.190  -3.958  0.00  0.00     0.004 C 
ATOM     10  C4' N4B d   1       1.416  -2.110  -4.469  0.00  0.00     0.003 C 
ENDBRANCH   8   9
ENDBRANCH   7   8
ENDBRANCH   1   7
TORSDOF 3
ENDMDL
