MODEL 1
REMARK minimizedAffinity -4.4076848
REMARK minimizedRMSD -1
REMARK  3 active torsions:
REMARK  status: ('A' for Active; 'I' for Inactive)
REMARK    1  A    between atoms: C3'_2  and  C2'_3 
REMARK    2  A    between atoms: C2'_3  and  C1'_4 
REMARK    3  A    between atoms: C1'_4  and  C1_5 
ROOT
ATOM      1  C1  N4B d   1       0.327   0.165  -0.014  0.00  0.00    -0.075 A 
ATOM      2  C2  N4B d   1       1.314   0.706   0.840  0.00  0.00     0.002 A 
ATOM      3  C3  N4B d   1       1.149   0.650   2.202  0.00  0.00     0.002 A 
ATOM      4  C4  N4B d   1       0.002   0.079   2.731  0.00  0.00    -0.004 A 
ATOM      5  C5  N4B d   1      -0.935  -0.463   1.901  0.00  0.00     0.002 A 
ATOM      6  C6  N4B d   1      -0.780  -0.418   0.530  0.00  0.00     0.002 A 
ENDROOT
BRANCH   1   7
ATOM      7  C1' N4B d   1       0.423   0.279  -1.511  0.00  0.00     0.057 C 
BRANCH   7   8
ATOM      8  C2' N4B d   1       0.345  -1.116  -2.125  0.00  0.00     0.009 C 
BRANCH   8   9
ATOM      9  C3' N4B d   1       0.874  -1.140  -3.548  0.00  0.00     0.004 C 
ATOM     10  C4' N4B d   1       1.790  -2.299  -3.808  0.00  0.00     0.003 C 
ENDBRANCH   8   9
ENDBRANCH   7   8
ENDBRANCH   1   7
TORSDOF 3
ENDMDL
