MODEL 1
REMARK minimizedAffinity -5.12807989
REMARK minimizedRMSD -1
REMARK  3 active torsions:
REMARK  status: ('A' for Active; 'I' for Inactive)
REMARK    1  A    between atoms: C3'_2  and  C2'_3 
REMARK    2  A    between atoms: C2'_3  and  C1'_4 
REMARK    3  A    between atoms: C1'_4  and  C1_5 
ROOT
ATOM      1  C1  N4B d   1      -0.871   0.256  -0.288  0.00  0.00    -0.075 A 
ATOM      2  C2  N4B d   1      -0.441  -0.117   1.004  0.00  0.00     0.002 A 
ATOM      3  C3  N4B d   1      -1.349  -0.211   2.030  0.00  0.00     0.002 A 
ATOM      4  C4  N4B d   1      -2.684   0.080   1.793  0.00  0.00    -0.004 A 
ATOM      5  C5  N4B d   1      -3.096   0.415   0.536  0.00  0.00     0.002 A 
ATOM      6  C6  N4B d   1      -2.195   0.510  -0.505  0.00  0.00     0.002 A 
ENDROOT
BRANCH   1   7
ATOM      7  C1' N4B d   1       0.098   0.456  -1.421  0.00  0.00     0.057 C 
BRANCH   7   8
ATOM      8  C2' N4B d   1       0.686  -0.894  -1.820  0.00  0.00     0.009 C 
BRANCH   8   9
ATOM      9  C3' N4B d   1       0.759  -1.058  -3.329  0.00  0.00     0.004 C 
ATOM     10  C4' N4B d   1       1.384  -2.357  -3.742  0.00  0.00     0.003 C 
ENDBRANCH   8   9
ENDBRANCH   7   8
ENDBRANCH   1   7
TORSDOF 3
ENDMDL
