MODEL 1
REMARK minimizedAffinity -3.75341272
REMARK minimizedRMSD -1
REMARK  3 active torsions:
REMARK  status: ('A' for Active; 'I' for Inactive)
REMARK    1  A    between atoms: C3'_2  and  C2'_3 
REMARK    2  A    between atoms: C2'_3  and  C1'_4 
REMARK    3  A    between atoms: C1'_4  and  C1_5 
ROOT
ATOM      1  C1  N4B d   1      -0.257  -0.001  -0.171  0.00  0.00    -0.075 A 
ATOM      2  C2  N4B d   1      -1.052  -0.808   0.672  0.00  0.00     0.002 A 
ATOM      3  C3  N4B d   1      -0.847  -0.792   2.030  0.00  0.00     0.002 A 
ATOM      4  C4  N4B d   1       0.154   0.006   2.563  0.00  0.00    -0.004 A 
ATOM      5  C5  N4B d   1       0.900   0.802   1.744  0.00  0.00     0.002 A 
ATOM      6  C6  N4B d   1       0.703   0.799   0.378  0.00  0.00     0.002 A 
ENDROOT
BRANCH   1   7
ATOM      7  C1' N4B d   1      -0.387  -0.050  -1.669  0.00  0.00     0.057 C 
BRANCH   7   8
ATOM      8  C2' N4B d   1       0.999   0.070  -2.296  0.00  0.00     0.009 C 
BRANCH   8   9
ATOM      9  C3' N4B d   1       1.264  -1.032  -3.306  0.00  0.00     0.004 C 
ATOM     10  C4' N4B d   1       2.718  -1.381  -3.418  0.00  0.00     0.003 C 
ENDBRANCH   8   9
ENDBRANCH   7   8
ENDBRANCH   1   7
TORSDOF 3
ENDMDL
