MODEL 1
REMARK minimizedAffinity -6.05730391
REMARK minimizedRMSD -1
REMARK  3 active torsions:
REMARK  status: ('A' for Active; 'I' for Inactive)
REMARK    1  A    between atoms: C3'_2  and  C2'_3 
REMARK    2  A    between atoms: C2'_3  and  C1'_4 
REMARK    3  A    between atoms: C1'_4  and  C1_5 
ROOT
ATOM      1  C1  N4B d   1       0.031   0.312  -0.121  0.00  0.00    -0.075 A 
ATOM      2  C2  N4B d   1      -0.929  -0.346   0.679  0.00  0.00     0.002 A 
ATOM      3  C3  N4B d   1      -0.605  -0.742   1.953  0.00  0.00     0.002 A 
ATOM      4  C4  N4B d   1       0.672  -0.509   2.440  0.00  0.00    -0.004 A 
ATOM      5  C5  N4B d   1       1.586   0.150   1.671  0.00  0.00     0.002 A 
ATOM      6  C6  N4B d   1       1.273   0.557   0.389  0.00  0.00     0.002 A 
ENDROOT
BRANCH   1   7
ATOM      7  C1' N4B d   1      -0.249   0.687  -1.551  0.00  0.00     0.057 C 
BRANCH   7   8
ATOM      8  C2' N4B d   1       0.054  -0.507  -2.450  0.00  0.00     0.009 C 
BRANCH   8   9
ATOM      9  C3' N4B d   1       1.217  -0.232  -3.387  0.00  0.00     0.004 C 
ATOM     10  C4' N4B d   1       1.988  -1.471  -3.735  0.00  0.00     0.003 C 
ENDBRANCH   8   9
ENDBRANCH   7   8
ENDBRANCH   1   7
TORSDOF 3
ENDMDL
