MODEL 1
REMARK minimizedAffinity -4.87660837
REMARK minimizedRMSD -1
REMARK  3 active torsions:
REMARK  status: ('A' for Active; 'I' for Inactive)
REMARK    1  A    between atoms: C3'_2  and  C2'_3 
REMARK    2  A    between atoms: C2'_3  and  C1'_4 
REMARK    3  A    between atoms: C1'_4  and  C1_5 
ROOT
ATOM      1  C1  N4B d   1      -0.044   0.199   1.029  0.00  0.00    -0.075 A 
ATOM      2  C2  N4B d   1       0.291  -0.139   2.359  0.00  0.00     0.002 A 
ATOM      3  C3  N4B d   1      -0.700  -0.320   3.292  0.00  0.00     0.002 A 
ATOM      4  C4  N4B d   1      -2.027  -0.150   2.925  0.00  0.00    -0.004 A 
ATOM      5  C5  N4B d   1      -2.343   0.152   1.633  0.00  0.00     0.002 A 
ATOM      6  C6  N4B d   1      -1.358   0.332   0.683  0.00  0.00     0.002 A 
ENDROOT
BRANCH   1   7
ATOM      7  C1' N4B d   1       1.008   0.491  -0.006  0.00  0.00     0.057 C 
BRANCH   7   8
ATOM      8  C2' N4B d   1       0.432   0.230  -1.394  0.00  0.00     0.009 C 
BRANCH   8   9
ATOM      9  C3' N4B d   1       1.473  -0.335  -2.345  0.00  0.00     0.004 C 
ATOM     10  C4' N4B d   1       1.052  -1.635  -2.962  0.00  0.00     0.003 C 
ENDBRANCH   8   9
ENDBRANCH   7   8
ENDBRANCH   1   7
TORSDOF 3
ENDMDL
