MODEL 1
REMARK minimizedAffinity -5.21633625
REMARK minimizedRMSD -1
REMARK  3 active torsions:
REMARK  status: ('A' for Active; 'I' for Inactive)
REMARK    1  A    between atoms: C3'_2  and  C2'_3 
REMARK    2  A    between atoms: C2'_3  and  C1'_4 
REMARK    3  A    between atoms: C1'_4  and  C1_5 
ROOT
ATOM      1  C1  N4B d   1       0.096  -0.153   0.661  0.00  0.00    -0.075 A 
ATOM      2  C2  N4B d   1       0.636  -0.191   1.965  0.00  0.00     0.002 A 
ATOM      3  C3  N4B d   1      -0.177  -0.464   3.038  0.00  0.00     0.002 A 
ATOM      4  C4  N4B d   1      -1.532  -0.681   2.833  0.00  0.00    -0.004 A 
ATOM      5  C5  N4B d   1      -2.041  -0.667   1.567  0.00  0.00     0.002 A 
ATOM      6  C6  N4B d   1      -1.234  -0.399   0.480  0.00  0.00     0.002 A 
ENDROOT
BRANCH   1   7
ATOM      7  C1' N4B d   1       0.930   0.226  -0.533  0.00  0.00     0.057 C 
BRANCH   7   8
ATOM      8  C2' N4B d   1       0.018   0.409  -1.742  0.00  0.00     0.009 C 
BRANCH   8   9
ATOM      9  C3' N4B d   1       0.762   0.207  -3.051  0.00  0.00     0.004 C 
ATOM     10  C4' N4B d   1       0.650  -1.195  -3.572  0.00  0.00     0.003 C 
ENDBRANCH   8   9
ENDBRANCH   7   8
ENDBRANCH   1   7
TORSDOF 3
ENDMDL
