MODEL 1
REMARK minimizedAffinity 9.92412472
REMARK minimizedRMSD -1
REMARK  0 active torsions:
REMARK  status: ('A' for Active; 'I' for Inactive)
ROOT
ATOM      1  C1  DEN d   1       3.001  -2.053  -0.669  0.00  0.00     0.130 A 
ATOM      2  C2  DEN d   1       2.011  -1.119  -1.196  0.00  0.00    -0.031 A 
ATOM      3  C3  DEN d   1       2.455   0.251  -0.868  0.00  0.00     0.027 A 
ATOM      4  C4  DEN d   1       4.572   1.011   0.394  0.00  0.00     0.027 A 
ATOM      5  C5  DEN d   1       5.707   0.579   1.044  0.00  0.00    -0.003 A 
ATOM      6  C6  DEN d   1       6.000  -0.750   1.198  0.00  0.00     0.001 A 
ATOM      7  C7  DEN d   1       5.170  -1.695   0.654  0.00  0.00     0.017 A 
ATOM      8  C8  DEN d   1       4.020  -1.267   0.004  0.00  0.00    -0.094 A 
ATOM      9  C9  DEN d   1       3.748   0.081  -0.151  0.00  0.00    -0.072 A 
ENDROOT
TORSDOF 0
ENDMDL
