MODEL 1
REMARK minimizedAffinity 1.92248535
REMARK minimizedRMSD -1
REMARK  0 active torsions:
REMARK  status: ('A' for Active; 'I' for Inactive)
ROOT
ATOM      1  C1  DEN d   1       0.452  -1.219  -0.965  0.00  0.00     0.130 A 
ATOM      2  C2  DEN d   1       1.874  -1.005  -1.222  0.00  0.00    -0.031 A 
ATOM      3  C3  DEN d   1       2.572  -0.963   0.078  0.00  0.00     0.027 A 
ATOM      4  C4  DEN d   1       1.597  -1.211   2.453  0.00  0.00     0.027 A 
ATOM      5  C5  DEN d   1       0.440  -1.396   3.177  0.00  0.00    -0.003 A 
ATOM      6  C6  DEN d   1      -0.787  -1.501   2.579  0.00  0.00     0.001 A 
ATOM      7  C7  DEN d   1      -0.882  -1.466   1.213  0.00  0.00     0.017 A 
ATOM      8  C8  DEN d   1       0.279  -1.272   0.476  0.00  0.00    -0.094 A 
ATOM      9  C9  DEN d   1       1.512  -1.180   1.099  0.00  0.00    -0.072 A 
ENDROOT
TORSDOF 0
ENDMDL
