MODEL 1
REMARK minimizedAffinity 1.79244983
REMARK minimizedRMSD -1
REMARK  0 active torsions:
REMARK  status: ('A' for Active; 'I' for Inactive)
ROOT
ATOM      1  C1  DEN d   1      -2.858   0.684  -4.429  0.00  0.00     0.130 A 
ATOM      2  C2  DEN d   1      -3.901   1.018  -5.396  0.00  0.00    -0.031 A 
ATOM      3  C3  DEN d   1      -4.995   0.038  -5.243  0.00  0.00     0.027 A 
ATOM      4  C4  DEN d   1      -5.178  -1.950  -3.611  0.00  0.00     0.027 A 
ATOM      5  C5  DEN d   1      -4.535  -2.641  -2.607  0.00  0.00    -0.003 A 
ATOM      6  C6  DEN d   1      -3.285  -2.295  -2.167  0.00  0.00     0.001 A 
ATOM      7  C7  DEN d   1      -2.656  -1.203  -2.702  0.00  0.00     0.017 A 
ATOM      8  C8  DEN d   1      -3.293  -0.506  -3.719  0.00  0.00    -0.094 A 
ATOM      9  C9  DEN d   1      -4.563  -0.863  -4.142  0.00  0.00    -0.072 A 
ENDROOT
TORSDOF 0
ENDMDL
