MODEL 1
REMARK minimizedAffinity 8.99017429
REMARK minimizedRMSD -1
REMARK  0 active torsions:
REMARK  status: ('A' for Active; 'I' for Inactive)
ROOT
ATOM      1  C1  DEN d   1      -3.023   0.077   0.550  0.00  0.00     0.130 A 
ATOM      2  C2  DEN d   1      -3.936   0.768   1.457  0.00  0.00    -0.031 A 
ATOM      3  C3  DEN d   1      -3.287   0.851   2.781  0.00  0.00     0.027 A 
ATOM      4  C4  DEN d   1      -0.969  -0.013   3.510  0.00  0.00     0.027 A 
ATOM      5  C5  DEN d   1       0.163  -0.677   3.093  0.00  0.00    -0.003 A 
ATOM      6  C6  DEN d   1       0.298  -1.161   1.819  0.00  0.00     0.001 A 
ATOM      7  C7  DEN d   1      -0.698  -0.950   0.903  0.00  0.00     0.017 A 
ATOM      8  C8  DEN d   1      -1.847  -0.288   1.319  0.00  0.00    -0.094 A 
ATOM      9  C9  DEN d   1      -1.959   0.205   2.608  0.00  0.00    -0.072 A 
ENDROOT
TORSDOF 0
ENDMDL
