MODEL 1
REMARK minimizedAffinity 12.2794428
REMARK minimizedRMSD -1
REMARK  0 active torsions:
REMARK  status: ('A' for Active; 'I' for Inactive)
ROOT
ATOM      1  C1  DEN d   1      -2.656   0.700  -2.297  0.00  0.00     0.130 A 
ATOM      2  C2  DEN d   1      -1.913  -0.475  -1.848  0.00  0.00    -0.031 A 
ATOM      3  C3  DEN d   1      -2.005  -1.504  -2.904  0.00  0.00     0.027 A 
ATOM      4  C4  DEN d   1      -3.215  -1.390  -5.179  0.00  0.00     0.027 A 
ATOM      5  C5  DEN d   1      -3.992  -0.602  -5.999  0.00  0.00    -0.003 A 
ATOM      6  C6  DEN d   1      -4.404   0.651  -5.631  0.00  0.00     0.001 A 
ATOM      7  C7  DEN d   1      -4.002   1.172  -4.429  0.00  0.00     0.017 A 
ATOM      8  C8  DEN d   1      -3.224   0.381  -3.594  0.00  0.00    -0.094 A 
ATOM      9  C9  DEN d   1      -2.808  -0.879  -3.989  0.00  0.00    -0.072 A 
ENDROOT
TORSDOF 0
ENDMDL
