MODEL 1
REMARK minimizedAffinity 7.89542961
REMARK minimizedRMSD -1
REMARK  0 active torsions:
REMARK  status: ('A' for Active; 'I' for Inactive)
ROOT
ATOM      1  C1  DEN d   1      -2.880  -0.150   1.718  0.00  0.00     0.130 A 
ATOM      2  C2  DEN d   1      -3.340   0.735   2.785  0.00  0.00    -0.031 A 
ATOM      3  C3  DEN d   1      -2.262   0.838   3.789  0.00  0.00     0.027 A 
ATOM      4  C4  DEN d   1       0.064  -0.276   3.792  0.00  0.00     0.027 A 
ATOM      5  C5  DEN d   1       0.904  -1.123   3.104  0.00  0.00    -0.003 A 
ATOM      6  C6  DEN d   1       0.532  -1.727   1.932  0.00  0.00     0.001 A 
ATOM      7  C7  DEN d   1      -0.697  -1.457   1.390  0.00  0.00     0.017 A 
ATOM      8  C8  DEN d   1      -1.552  -0.610   2.082  0.00  0.00    -0.094 A 
ATOM      9  C9  DEN d   1      -1.152   0.001   3.259  0.00  0.00    -0.072 A 
ENDROOT
TORSDOF 0
ENDMDL
