MODEL 1
REMARK minimizedAffinity 6.4267683
REMARK minimizedRMSD -1
REMARK  0 active torsions:
REMARK  status: ('A' for Active; 'I' for Inactive)
ROOT
ATOM      1  C1  DEN d   1      -3.220  -0.896  -2.148  0.00  0.00     0.130 A 
ATOM      2  C2  DEN d   1      -3.798  -2.231  -2.275  0.00  0.00    -0.031 A 
ATOM      3  C3  DEN d   1      -4.697  -2.229  -3.446  0.00  0.00     0.027 A 
ATOM      4  C4  DEN d   1      -5.244  -0.300  -5.069  0.00  0.00     0.027 A 
ATOM      5  C5  DEN d   1      -5.005   1.025  -5.359  0.00  0.00    -0.003 A 
ATOM      6  C6  DEN d   1      -4.187   1.806  -4.586  0.00  0.00     0.001 A 
ATOM      7  C7  DEN d   1      -3.543   1.255  -3.509  0.00  0.00     0.017 A 
ATOM      8  C8  DEN d   1      -3.785  -0.078  -3.206  0.00  0.00    -0.094 A 
ATOM      9  C9  DEN d   1      -4.606  -0.854  -4.007  0.00  0.00    -0.072 A 
ENDROOT
TORSDOF 0
ENDMDL
