MODEL 1
REMARK minimizedAffinity 2.27500987
REMARK minimizedRMSD -1
REMARK  0 active torsions:
REMARK  status: ('A' for Active; 'I' for Inactive)
ROOT
ATOM      1  C1  DEN d   1       2.328  -0.360  -0.313  0.00  0.00     0.130 A 
ATOM      2  C2  DEN d   1       1.878  -1.505  -1.101  0.00  0.00    -0.031 A 
ATOM      3  C3  DEN d   1       1.453  -1.008  -2.425  0.00  0.00     0.027 A 
ATOM      4  C4  DEN d   1       1.452   1.408  -3.328  0.00  0.00     0.027 A 
ATOM      5  C5  DEN d   1       1.733   2.721  -3.021  0.00  0.00    -0.003 A 
ATOM      6  C6  DEN d   1       2.197   3.100  -1.790  0.00  0.00     0.001 A 
ATOM      7  C7  DEN d   1       2.436   2.150  -0.832  0.00  0.00     0.017 A 
ATOM      8  C8  DEN d   1       2.147   0.825  -1.131  0.00  0.00    -0.094 A 
ATOM      9  C9  DEN d   1       1.691   0.460  -2.387  0.00  0.00    -0.072 A 
ENDROOT
TORSDOF 0
ENDMDL
