MODEL 1
REMARK minimizedAffinity 9.4898262
REMARK minimizedRMSD -1
REMARK  0 active torsions:
REMARK  status: ('A' for Active; 'I' for Inactive)
ROOT
ATOM      1  C1  DEN d   1      -3.709   1.472   4.362  0.00  0.00     0.130 A 
ATOM      2  C2  DEN d   1      -5.087   1.833   4.039  0.00  0.00    -0.031 A 
ATOM      3  C3  DEN d   1      -5.476   1.101   2.817  0.00  0.00     0.027 A 
ATOM      4  C4  DEN d   1      -4.089  -0.553   1.405  0.00  0.00     0.027 A 
ATOM      5  C5  DEN d   1      -2.862  -1.166   1.278  0.00  0.00    -0.003 A 
ATOM      6  C6  DEN d   1      -1.829  -0.919   2.143  0.00  0.00     0.001 A 
ATOM      7  C7  DEN d   1      -2.019  -0.070   3.201  0.00  0.00     0.017 A 
ATOM      8  C8  DEN d   1      -3.250   0.558   3.331  0.00  0.00    -0.094 A 
ATOM      9  C9  DEN d   1      -4.286   0.286   2.454  0.00  0.00    -0.072 A 
ENDROOT
TORSDOF 0
ENDMDL
