MODEL 1
REMARK minimizedAffinity 2.26972485
REMARK minimizedRMSD -1
REMARK  0 active torsions:
REMARK  status: ('A' for Active; 'I' for Inactive)
ROOT
ATOM      1  C1  DEN d   1       2.663  -1.136   0.503  0.00  0.00     0.130 A 
ATOM      2  C2  DEN d   1       1.532  -2.011   0.206  0.00  0.00    -0.031 A 
ATOM      3  C3  DEN d   1       0.658  -1.315  -0.760  0.00  0.00     0.027 A 
ATOM      4  C4  DEN d   1       0.946   1.017  -1.822  0.00  0.00     0.027 A 
ATOM      5  C5  DEN d   1       1.745   2.138  -1.868  0.00  0.00    -0.003 A 
ATOM      6  C6  DEN d   1       2.878   2.260  -1.108  0.00  0.00     0.001 A 
ATOM      7  C7  DEN d   1       3.269   1.223  -0.302  0.00  0.00     0.017 A 
ATOM      8  C8  DEN d   1       2.465   0.093  -0.245  0.00  0.00    -0.094 A 
ATOM      9  C9  DEN d   1       1.330  -0.016  -1.030  0.00  0.00    -0.072 A 
ENDROOT
TORSDOF 0
ENDMDL
