MODEL 1
REMARK minimizedAffinity -0.844698429
REMARK minimizedRMSD -1
REMARK  0 active torsions:
REMARK  status: ('A' for Active; 'I' for Inactive)
ROOT
ATOM      1  C   UNL d   1      -2.633   2.456  -2.841  0.00  0.00     0.023 A 
ATOM      2  C1  UNL d   1      -3.068   1.666  -1.777  0.00  0.00     0.003 A 
ATOM      3  C2  UNL d   1      -2.138   1.060  -0.930  0.00  0.00     0.048 A 
ATOM      4  C3  UNL d   1      -0.774   1.250  -1.152  0.00  0.00     0.023 A 
ATOM      5  C4  UNL d   1      -0.334   2.041  -2.215  0.00  0.00     0.048 A 
ATOM      6  C5  UNL d   1      -1.268   2.644  -3.059  0.00  0.00     0.003 A 
ATOM      7  I   UNL d   1       0.612   0.349   0.108  0.00  0.00    -0.146 I 
ENDROOT
TORSDOF 0
ENDMDL
