MODEL 1
REMARK minimizedAffinity -3.32252359
REMARK minimizedRMSD -1
REMARK  0 active torsions:
REMARK  status: ('A' for Active; 'I' for Inactive)
ROOT
ATOM      1  C   UNL d   1      -2.132   2.600  -2.866  0.00  0.00     0.023 A 
ATOM      2  C1  UNL d   1      -1.298   3.159  -1.898  0.00  0.00     0.003 A 
ATOM      3  C2  UNL d   1      -0.562   2.332  -1.047  0.00  0.00     0.048 A 
ATOM      4  C3  UNL d   1      -0.664   0.947  -1.169  0.00  0.00     0.023 A 
ATOM      5  C4  UNL d   1      -1.497   0.383  -2.137  0.00  0.00     0.048 A 
ATOM      6  C5  UNL d   1      -2.232   1.214  -2.985  0.00  0.00     0.003 A 
ATOM      7  I   UNL d   1       0.430  -0.286   0.096  0.00  0.00    -0.146 I 
ENDROOT
TORSDOF 0
ENDMDL
