MODEL 1
REMARK minimizedAffinity -1.47017694
REMARK minimizedRMSD -1
REMARK  0 active torsions:
REMARK  status: ('A' for Active; 'I' for Inactive)
ROOT
ATOM      1  C   UNL d   1       1.348  -0.731   0.915  0.00  0.00     0.023 A 
ATOM      2  C1  UNL d   1      -0.021  -0.677   1.178  0.00  0.00     0.003 A 
ATOM      3  C2  UNL d   1      -0.831   0.227   0.489  0.00  0.00     0.048 A 
ATOM      4  C3  UNL d   1      -0.266   1.074  -0.464  0.00  0.00     0.023 A 
ATOM      5  C4  UNL d   1       1.103   1.023  -0.731  0.00  0.00     0.048 A 
ATOM      6  C5  UNL d   1       1.909   0.118  -0.039  0.00  0.00     0.003 A 
ATOM      7  I   UNL d   1      -1.469   2.422  -1.492  0.00  0.00    -0.146 I 
ENDROOT
TORSDOF 0
ENDMDL
