MODEL 1
REMARK minimizedAffinity -0.967395604
REMARK minimizedRMSD -1
REMARK  0 active torsions:
REMARK  status: ('A' for Active; 'I' for Inactive)
ROOT
ATOM      1  C   UNL d   1       0.983  -2.671   2.527  0.00  0.00     0.023 A 
ATOM      2  C1  UNL d   1       1.793  -2.544   1.399  0.00  0.00     0.003 A 
ATOM      3  C2  UNL d   1       1.524  -1.554   0.452  0.00  0.00     0.048 A 
ATOM      4  C3  UNL d   1       0.444  -0.692   0.641  0.00  0.00     0.023 A 
ATOM      5  C4  UNL d   1      -0.369  -0.815   1.769  0.00  0.00     0.048 A 
ATOM      6  C5  UNL d   1      -0.097  -1.808   2.712  0.00  0.00     0.003 A 
ATOM      7  I   UNL d   1       0.042   0.784  -0.766  0.00  0.00    -0.146 I 
ENDROOT
TORSDOF 0
ENDMDL
