MODEL 1
REMARK minimizedAffinity -5.27810001
REMARK minimizedRMSD -1
REMARK  0 active torsions:
REMARK  status: ('A' for Active; 'I' for Inactive)
ROOT
ATOM      1  C   UNL d   1       1.637  -1.958   1.025  0.00  0.00     0.023 A 
ATOM      2  C1  UNL d   1       0.277  -1.945   1.333  0.00  0.00     0.003 A 
ATOM      3  C2  UNL d   1      -0.545  -0.935   0.829  0.00  0.00     0.048 A 
ATOM      4  C3  UNL d   1       0.000   0.059   0.016  0.00  0.00     0.023 A 
ATOM      5  C4  UNL d   1       1.361   0.049  -0.295  0.00  0.00     0.048 A 
ATOM      6  C5  UNL d   1       2.179  -0.962   0.212  0.00  0.00     0.003 A 
ATOM      7  I   UNL d   1      -1.220   1.563  -0.736  0.00  0.00    -0.146 I 
ENDROOT
TORSDOF 0
ENDMDL
