MODEL 1
REMARK minimizedAffinity -2.62146354
REMARK minimizedRMSD -1
REMARK  0 active torsions:
REMARK  status: ('A' for Active; 'I' for Inactive)
ROOT
ATOM      1  C   UNL d   1       0.702  -0.041   0.471  0.00  0.00     0.023 A 
ATOM      2  C1  UNL d   1       0.834  -0.699  -0.752  0.00  0.00     0.003 A 
ATOM      3  C2  UNL d   1      -0.088  -0.468  -1.774  0.00  0.00     0.048 A 
ATOM      4  C3  UNL d   1      -1.140   0.423  -1.568  0.00  0.00     0.023 A 
ATOM      5  C4  UNL d   1      -1.277   1.085  -0.346  0.00  0.00     0.048 A 
ATOM      6  C5  UNL d   1      -0.352   0.850   0.674  0.00  0.00     0.003 A 
ATOM      7  I   UNL d   1      -2.515   0.769  -3.088  0.00  0.00    -0.146 I 
ENDROOT
TORSDOF 0
ENDMDL
