MODEL 1
REMARK minimizedAffinity -0.671826303
REMARK minimizedRMSD -1
REMARK  0 active torsions:
REMARK  status: ('A' for Active; 'I' for Inactive)
ROOT
ATOM      1  C   UNL d   1      -2.606   2.132  -3.072  0.00  0.00     0.023 A 
ATOM      2  C1  UNL d   1      -1.639   2.924  -2.452  0.00  0.00     0.003 A 
ATOM      3  C2  UNL d   1      -0.782   2.365  -1.501  0.00  0.00     0.048 A 
ATOM      4  C3  UNL d   1      -0.897   1.014  -1.176  0.00  0.00     0.023 A 
ATOM      5  C4  UNL d   1      -1.862   0.218  -1.795  0.00  0.00     0.048 A 
ATOM      6  C5  UNL d   1      -2.718   0.781  -2.744  0.00  0.00     0.003 A 
ATOM      7  I   UNL d   1       0.378   0.180   0.238  0.00  0.00    -0.146 I 
ENDROOT
TORSDOF 0
ENDMDL
