MODEL 1
REMARK minimizedAffinity -2.10496759
REMARK minimizedRMSD -1
REMARK  0 active torsions:
REMARK  status: ('A' for Active; 'I' for Inactive)
ROOT
ATOM      1  C   UNL d   1      -2.431   2.333  -1.109  0.00  0.00     0.023 A 
ATOM      2  C1  UNL d   1      -1.868   1.447  -2.028  0.00  0.00     0.003 A 
ATOM      3  C2  UNL d   1      -0.783   0.650  -1.657  0.00  0.00     0.048 A 
ATOM      4  C3  UNL d   1      -0.268   0.742  -0.364  0.00  0.00     0.023 A 
ATOM      5  C4  UNL d   1      -0.829   1.626   0.559  0.00  0.00     0.048 A 
ATOM      6  C5  UNL d   1      -1.913   2.422   0.183  0.00  0.00     0.003 A 
ATOM      7  I   UNL d   1       1.346  -0.444   0.192  0.00  0.00    -0.146 I 
ENDROOT
TORSDOF 0
ENDMDL
