MODEL 1
REMARK minimizedAffinity -1.82232702
REMARK minimizedRMSD -1
REMARK  0 active torsions:
REMARK  status: ('A' for Active; 'I' for Inactive)
ROOT
ATOM      1  C   UNL d   1       1.793  -0.362  -0.528  0.00  0.00     0.023 A 
ATOM      2  C1  UNL d   1       1.981  -1.453   0.321  0.00  0.00     0.003 A 
ATOM      3  C2  UNL d   1       1.035  -1.743   1.307  0.00  0.00     0.048 A 
ATOM      4  C3  UNL d   1      -0.097  -0.939   1.437  0.00  0.00     0.023 A 
ATOM      5  C4  UNL d   1      -0.289   0.153   0.589  0.00  0.00     0.048 A 
ATOM      6  C5  UNL d   1       0.659   0.440  -0.394  0.00  0.00     0.003 A 
ATOM      7  I   UNL d   1      -1.506  -1.370   2.903  0.00  0.00    -0.146 I 
ENDROOT
TORSDOF 0
ENDMDL
