MODEL 1
REMARK minimizedAffinity -3.15129352
REMARK minimizedRMSD -1
REMARK  0 active torsions:
REMARK  status: ('A' for Active; 'I' for Inactive)
ROOT
ATOM      1  C   UNL d   1      -1.142   1.726  -1.941  0.00  0.00     0.023 A 
ATOM      2  C1  UNL d   1      -0.474   0.659  -2.540  0.00  0.00     0.003 A 
ATOM      3  C2  UNL d   1       0.262  -0.234  -1.758  0.00  0.00     0.048 A 
ATOM      4  C3  UNL d   1       0.323  -0.055  -0.377  0.00  0.00     0.023 A 
ATOM      5  C4  UNL d   1      -0.345   1.011   0.228  0.00  0.00     0.048 A 
ATOM      6  C5  UNL d   1      -1.078   1.902  -0.559  0.00  0.00     0.003 A 
ATOM      7  I   UNL d   1       1.416  -1.383   0.789  0.00  0.00    -0.146 I 
ENDROOT
TORSDOF 0
ENDMDL
