MODEL 1
REMARK minimizedAffinity -1.4592135
REMARK minimizedRMSD -1
REMARK  0 active torsions:
REMARK  status: ('A' for Active; 'I' for Inactive)
ROOT
ATOM      1  C   UNL d   1       1.052  -0.043   0.055  0.00  0.00     0.023 A 
ATOM      2  C1  UNL d   1       0.358  -0.831  -0.863  0.00  0.00     0.003 A 
ATOM      3  C2  UNL d   1      -0.718  -0.295  -1.574  0.00  0.00     0.048 A 
ATOM      4  C3  UNL d   1      -1.093   1.031  -1.363  0.00  0.00     0.023 A 
ATOM      5  C4  UNL d   1      -0.401   1.825  -0.447  0.00  0.00     0.048 A 
ATOM      6  C5  UNL d   1       0.673   1.284   0.262  0.00  0.00     0.003 A 
ATOM      7  I   UNL d   1      -2.694   1.832  -2.420  0.00  0.00    -0.146 I 
ENDROOT
TORSDOF 0
ENDMDL
