MODEL 1
REMARK minimizedAffinity -3.10836482
REMARK minimizedRMSD -1
REMARK  0 active torsions:
REMARK  status: ('A' for Active; 'I' for Inactive)
ROOT
ATOM      1  C   UNL d   1       0.352  -0.635   0.514  0.00  0.00     0.023 A 
ATOM      2  C1  UNL d   1       0.521  -0.868  -0.851  0.00  0.00     0.003 A 
ATOM      3  C2  UNL d   1      -0.215  -0.133  -1.782  0.00  0.00     0.048 A 
ATOM      4  C3  UNL d   1      -1.118   0.834  -1.342  0.00  0.00     0.023 A 
ATOM      5  C4  UNL d   1      -1.289   1.071   0.023  0.00  0.00     0.048 A 
ATOM      6  C5  UNL d   1      -0.552   0.333   0.950  0.00  0.00     0.003 A 
ATOM      7  I   UNL d   1      -2.214   1.930  -2.726  0.00  0.00    -0.146 I 
ENDROOT
TORSDOF 0
ENDMDL
