MODEL 1
REMARK minimizedAffinity -2.85121489
REMARK minimizedRMSD -1
REMARK  0 active torsions:
REMARK  status: ('A' for Active; 'I' for Inactive)
ROOT
ATOM      1  C   UNL d   1       1.669  -1.650   1.485  0.00  0.00     0.023 A 
ATOM      2  C1  UNL d   1       2.220  -0.969   0.399  0.00  0.00     0.003 A 
ATOM      3  C2  UNL d   1       1.467  -0.008  -0.279  0.00  0.00     0.048 A 
ATOM      4  C3  UNL d   1       0.165   0.269   0.136  0.00  0.00     0.023 A 
ATOM      5  C4  UNL d   1      -0.390  -0.409   1.223  0.00  0.00     0.048 A 
ATOM      6  C5  UNL d   1       0.366  -1.370   1.896  0.00  0.00     0.003 A 
ATOM      7  I   UNL d   1      -0.958   1.700  -0.871  0.00  0.00    -0.146 I 
ENDROOT
TORSDOF 0
ENDMDL
