MODEL 1
REMARK minimizedAffinity -2.92270279
REMARK minimizedRMSD -1
REMARK  0 active torsions:
REMARK  status: ('A' for Active; 'I' for Inactive)
ROOT
ATOM      1  C   UNL d   1      -2.622   1.132  -1.983  0.00  0.00     0.023 A 
ATOM      2  C1  UNL d   1      -2.630   1.332  -3.364  0.00  0.00     0.003 A 
ATOM      3  C2  UNL d   1      -1.854   2.346  -3.928  0.00  0.00     0.048 A 
ATOM      4  C3  UNL d   1      -1.071   3.156  -3.106  0.00  0.00     0.023 A 
ATOM      5  C4  UNL d   1      -1.059   2.959  -1.724  0.00  0.00     0.048 A 
ATOM      6  C5  UNL d   1      -1.837   1.944  -1.165  0.00  0.00     0.003 A 
ATOM      7  I   UNL d   1       0.086   4.666  -3.943  0.00  0.00    -0.146 I 
ENDROOT
TORSDOF 0
ENDMDL
