MODEL 1
REMARK minimizedAffinity 0.166465387
REMARK minimizedRMSD -1
REMARK  0 active torsions:
REMARK  status: ('A' for Active; 'I' for Inactive)
ROOT
ATOM      1  C   UNL d   1      -2.334   2.556  -4.008  0.00  0.00     0.023 A 
ATOM      2  C1  UNL d   1      -1.209   3.108  -3.395  0.00  0.00     0.003 A 
ATOM      3  C2  UNL d   1      -0.875   2.745  -2.089  0.00  0.00     0.048 A 
ATOM      4  C3  UNL d   1      -1.670   1.829  -1.401  0.00  0.00     0.023 A 
ATOM      5  C4  UNL d   1      -2.796   1.273  -2.010  0.00  0.00     0.048 A 
ATOM      6  C5  UNL d   1      -3.126   1.640  -3.316  0.00  0.00     0.003 A 
ATOM      7  I   UNL d   1      -1.175   1.287   0.544  0.00  0.00    -0.146 I 
ENDROOT
TORSDOF 0
ENDMDL
