MODEL 1
REMARK minimizedAffinity 0.341328233
REMARK minimizedRMSD -1
REMARK  0 active torsions:
REMARK  status: ('A' for Active; 'I' for Inactive)
ROOT
ATOM      1  C   UNL d   1      -0.344   0.358   1.757  0.00  0.00     0.124 A 
ATOM      2  C1  UNL d   1       0.878   0.190   1.121  0.00  0.00     0.062 A 
ATOM      3  C2  UNL d   1       0.928  -0.038  -0.251  0.00  0.00     0.162 A 
ATOM      4  C3  UNL d   1      -0.248  -0.099  -0.997  0.00  0.00    -0.034 A 
ATOM      5  C4  UNL d   1      -1.474   0.070  -0.351  0.00  0.00     0.162 A 
ATOM      6  C5  UNL d   1      -1.519   0.298   1.021  0.00  0.00     0.062 A 
ATOM      7  F   UNL d   1      -2.701   0.460   1.633  0.00  0.00    -0.097 F 
ATOM      8  F1  UNL d   1      -2.625   0.017  -1.039  0.00  0.00    -0.096 F 
ATOM      9  I   UNL d   1      -0.178  -0.441  -3.049  0.00  0.00    -0.060 I 
ATOM     10  F2  UNL d   1       2.123  -0.197  -0.839  0.00  0.00    -0.096 F 
ATOM     11  F3  UNL d   1       2.014   0.247   1.831  0.00  0.00    -0.097 F 
ATOM     12  F4  UNL d   1      -0.390   0.577   3.077  0.00  0.00    -0.092 F 
ENDROOT
TORSDOF 0
ENDMDL
