MODEL 1
REMARK minimizedAffinity -3.67634106
REMARK minimizedRMSD -1
REMARK  0 active torsions:
REMARK  status: ('A' for Active; 'I' for Inactive)
ROOT
ATOM      1  C   UNL d   1       0.826   0.969   3.157  0.00  0.00     0.124 A 
ATOM      2  C1  UNL d   1       1.632   0.087   2.451  0.00  0.00     0.062 A 
ATOM      3  C2  UNL d   1       1.138  -0.564   1.324  0.00  0.00     0.162 A 
ATOM      4  C3  UNL d   1      -0.169  -0.333   0.894  0.00  0.00    -0.034 A 
ATOM      5  C4  UNL d   1      -0.974   0.554   1.610  0.00  0.00     0.162 A 
ATOM      6  C5  UNL d   1      -0.476   1.202   2.736  0.00  0.00     0.062 A 
ATOM      7  F   UNL d   1      -1.256   2.054   3.417  0.00  0.00    -0.097 F 
ATOM      8  F1  UNL d   1      -2.236   0.799   1.226  0.00  0.00    -0.096 F 
ATOM      9  I   UNL d   1      -0.912  -1.304  -0.790  0.00  0.00    -0.060 I 
ATOM     10  F2  UNL d   1       1.939  -1.411   0.661  0.00  0.00    -0.096 F 
ATOM     11  F3  UNL d   1       2.889  -0.141   2.856  0.00  0.00    -0.097 F 
ATOM     12  F4  UNL d   1       1.303   1.592   4.242  0.00  0.00    -0.092 F 
ENDROOT
TORSDOF 0
ENDMDL
