MODEL 1
REMARK minimizedAffinity -2.15976334
REMARK minimizedRMSD -1
REMARK  0 active torsions:
REMARK  status: ('A' for Active; 'I' for Inactive)
ROOT
ATOM      1  C   UNL d   1       1.522  -0.038   1.861  0.00  0.00     0.124 A 
ATOM      2  C1  UNL d   1       1.519  -1.115   0.986  0.00  0.00     0.062 A 
ATOM      3  C2  UNL d   1       0.346  -1.481   0.331  0.00  0.00     0.162 A 
ATOM      4  C3  UNL d   1      -0.833  -0.769   0.548  0.00  0.00    -0.034 A 
ATOM      5  C4  UNL d   1      -0.822   0.313   1.431  0.00  0.00     0.162 A 
ATOM      6  C5  UNL d   1       0.352   0.675   2.083  0.00  0.00     0.062 A 
ATOM      7  F   UNL d   1       0.353   1.716   2.928  0.00  0.00    -0.097 F 
ATOM      8  F1  UNL d   1      -1.939   1.019   1.663  0.00  0.00    -0.096 F 
ATOM      9  I   UNL d   1      -2.588  -1.314  -0.429  0.00  0.00    -0.060 I 
ATOM     10  F2  UNL d   1       0.372  -2.527  -0.509  0.00  0.00    -0.096 F 
ATOM     11  F3  UNL d   1       2.647  -1.806   0.771  0.00  0.00    -0.097 F 
ATOM     12  F4  UNL d   1       2.651   0.312   2.491  0.00  0.00    -0.092 F 
ENDROOT
TORSDOF 0
ENDMDL
