MODEL 1
REMARK minimizedAffinity -2.84612536
REMARK minimizedRMSD -1
REMARK  0 active torsions:
REMARK  status: ('A' for Active; 'I' for Inactive)
ROOT
ATOM      1  C   UNL d   1       0.265   0.984  -4.743  0.00  0.00     0.124 A 
ATOM      2  C1  UNL d   1       0.746   1.825  -3.750  0.00  0.00     0.062 A 
ATOM      3  C2  UNL d   1       0.885   1.360  -2.446  0.00  0.00     0.162 A 
ATOM      4  C3  UNL d   1       0.545   0.046  -2.127  0.00  0.00    -0.034 A 
ATOM      5  C4  UNL d   1       0.061  -0.795  -3.131  0.00  0.00     0.162 A 
ATOM      6  C5  UNL d   1      -0.077  -0.325  -4.433  0.00  0.00     0.062 A 
ATOM      7  F   UNL d   1      -0.542  -1.140  -5.392  0.00  0.00    -0.097 F 
ATOM      8  F1  UNL d   1      -0.276  -2.064  -2.859  0.00  0.00    -0.096 F 
ATOM      9  I   UNL d   1       0.752  -0.653  -0.177  0.00  0.00    -0.060 I 
ATOM     10  F2  UNL d   1       1.352   2.196  -1.506  0.00  0.00    -0.096 F 
ATOM     11  F3  UNL d   1       1.076   3.090  -4.047  0.00  0.00    -0.097 F 
ATOM     12  F4  UNL d   1       0.131   1.434  -5.997  0.00  0.00    -0.092 F 
ENDROOT
TORSDOF 0
ENDMDL
