MODEL 1
REMARK minimizedAffinity -2.97303271
REMARK minimizedRMSD -1
REMARK  0 active torsions:
REMARK  status: ('A' for Active; 'I' for Inactive)
ROOT
ATOM      1  C   UNL d   1       0.063  -2.271  -0.175  0.00  0.00     0.124 A 
ATOM      2  C1  UNL d   1       1.135  -1.649   0.452  0.00  0.00     0.062 A 
ATOM      3  C2  UNL d   1       0.936  -0.482   1.183  0.00  0.00     0.162 A 
ATOM      4  C3  UNL d   1      -0.339   0.072   1.293  0.00  0.00    -0.034 A 
ATOM      5  C4  UNL d   1      -1.412  -0.559   0.659  0.00  0.00     0.162 A 
ATOM      6  C5  UNL d   1      -1.208  -1.725  -0.070  0.00  0.00     0.062 A 
ATOM      7  F   UNL d   1      -2.245  -2.325  -0.675  0.00  0.00    -0.097 F 
ATOM      8  F1  UNL d   1      -2.651  -0.053   0.744  0.00  0.00    -0.096 F 
ATOM      9  I   UNL d   1      -0.640   1.818   2.385  0.00  0.00    -0.060 I 
ATOM     10  F2  UNL d   1       1.990   0.098   1.778  0.00  0.00    -0.096 F 
ATOM     11  F3  UNL d   1       2.364  -2.174   0.352  0.00  0.00    -0.097 F 
ATOM     12  F4  UNL d   1       0.257  -3.394  -0.878  0.00  0.00    -0.092 F 
ENDROOT
TORSDOF 0
ENDMDL
