MODEL 1
REMARK minimizedAffinity 0.857661605
REMARK minimizedRMSD -1
REMARK  0 active torsions:
REMARK  status: ('A' for Active; 'I' for Inactive)
ROOT
ATOM      1  C   UNL d   1       1.235   0.627   1.481  0.00  0.00     0.124 A 
ATOM      2  C1  UNL d   1       0.042   0.786   2.171  0.00  0.00     0.062 A 
ATOM      3  C2  UNL d   1      -1.082   0.052   1.803  0.00  0.00     0.162 A 
ATOM      4  C3  UNL d   1      -1.018  -0.849   0.740  0.00  0.00    -0.034 A 
ATOM      5  C4  UNL d   1       0.186  -1.002   0.050  0.00  0.00     0.162 A 
ATOM      6  C5  UNL d   1       1.306  -0.266   0.421  0.00  0.00     0.062 A 
ATOM      7  F   UNL d   1       2.459  -0.420  -0.247  0.00  0.00    -0.097 F 
ATOM      8  F1  UNL d   1       0.283  -1.858  -0.978  0.00  0.00    -0.096 F 
ATOM      9  I   UNL d   1      -2.696  -1.948   0.187  0.00  0.00    -0.060 I 
ATOM     10  F2  UNL d   1      -2.223   0.225   2.488  0.00  0.00    -0.096 F 
ATOM     11  F3  UNL d   1      -0.030   1.649   3.195  0.00  0.00    -0.097 F 
ATOM     12  F4  UNL d   1       2.315   1.335   1.836  0.00  0.00    -0.092 F 
ENDROOT
TORSDOF 0
ENDMDL
