MODEL 1
REMARK minimizedAffinity -2.31008697
REMARK minimizedRMSD -1
REMARK  3 active torsions:
REMARK  status: ('A' for Active; 'I' for Inactive)
REMARK    1  A    between atoms: C3'_2  and  C2'_3 
REMARK    2  A    between atoms: C2'_3  and  C1'_4 
REMARK    3  A    between atoms: C1'_4  and  C1_5 
ROOT
ATOM      1  C1  N4B d   1       0.318   2.998  -0.373  0.00  0.00    -0.075 A 
ATOM      2  C2  N4B d   1       0.387   2.512   0.951  0.00  0.00     0.002 A 
ATOM      3  C3  N4B d   1       1.441   2.865   1.757  0.00  0.00     0.002 A 
ATOM      4  C4  N4B d   1       2.443   3.684   1.258  0.00  0.00    -0.004 A 
ATOM      5  C5  N4B d   1       2.355   4.169  -0.014  0.00  0.00     0.002 A 
ATOM      6  C6  N4B d   1       1.300   3.826  -0.835  0.00  0.00     0.002 A 
ENDROOT
BRANCH   1   7
ATOM      7  C1' N4B d   1      -0.771   2.571  -1.320  0.00  0.00     0.057 C 
BRANCH   7   8
ATOM      8  C2' N4B d   1      -1.280   1.193  -0.907  0.00  0.00     0.009 C 
BRANCH   8   9
ATOM      9  C3' N4B d   1      -2.698   0.943  -1.391  0.00  0.00     0.004 C 
ATOM     10  C4' N4B d   1      -3.583   0.369  -0.325  0.00  0.00     0.003 C 
ENDBRANCH   8   9
ENDBRANCH   7   8
ENDBRANCH   1   7
TORSDOF 3
ENDMDL
