MODEL 1
REMARK minimizedAffinity 0.525417447
REMARK minimizedRMSD -1
REMARK  3 active torsions:
REMARK  status: ('A' for Active; 'I' for Inactive)
REMARK    1  A    between atoms: C3'_2  and  C2'_3 
REMARK    2  A    between atoms: C2'_3  and  C1'_4 
REMARK    3  A    between atoms: C1'_4  and  C1_5 
ROOT
ATOM      1  C1  N4B d   1      -0.465  -5.273  -3.466  0.00  0.00    -0.075 A 
ATOM      2  C2  N4B d   1      -0.915  -6.000  -4.590  0.00  0.00     0.002 A 
ATOM      3  C3  N4B d   1      -1.614  -5.362  -5.585  0.00  0.00     0.002 A 
ATOM      4  C4  N4B d   1      -1.890  -4.008  -5.469  0.00  0.00    -0.004 A 
ATOM      5  C5  N4B d   1      -1.430  -3.308  -4.392  0.00  0.00     0.002 A 
ATOM      6  C6  N4B d   1      -0.722  -3.935  -3.387  0.00  0.00     0.002 A 
ENDROOT
BRANCH   1   7
ATOM      7  C1' N4B d   1       0.229  -5.945  -2.312  0.00  0.00     0.057 C 
BRANCH   7   8
ATOM      8  C2' N4B d   1       1.117  -4.928  -1.602  0.00  0.00     0.009 C 
BRANCH   8   9
ATOM      9  C3' N4B d   1       1.254  -5.231  -0.119  0.00  0.00     0.004 C 
ATOM     10  C4' N4B d   1       0.809  -4.093   0.750  0.00  0.00     0.003 C 
ENDBRANCH   8   9
ENDBRANCH   7   8
ENDBRANCH   1   7
TORSDOF 3
ENDMDL
