MODEL 1
REMARK minimizedAffinity 0.238007575
REMARK minimizedRMSD -1
REMARK  3 active torsions:
REMARK  status: ('A' for Active; 'I' for Inactive)
REMARK    1  A    between atoms: C3'_2  and  C2'_3 
REMARK    2  A    between atoms: C2'_3  and  C1'_4 
REMARK    3  A    between atoms: C1'_4  and  C1_5 
ROOT
ATOM      1  C1  N4B d   1      -0.351   2.363   0.135  0.00  0.00    -0.075 A 
ATOM      2  C2  N4B d   1       0.292   1.459  -0.739  0.00  0.00     0.002 A 
ATOM      3  C3  N4B d   1      -0.453   0.661  -1.572  0.00  0.00     0.002 A 
ATOM      4  C4  N4B d   1      -1.838   0.736  -1.535  0.00  0.00    -0.004 A 
ATOM      5  C5  N4B d   1      -2.450   1.630  -0.707  0.00  0.00     0.002 A 
ATOM      6  C6  N4B d   1      -1.713   2.441   0.133  0.00  0.00     0.002 A 
ENDROOT
BRANCH   1   7
ATOM      7  C1' N4B d   1       0.419   3.195   1.124  0.00  0.00     0.057 C 
BRANCH   7   8
ATOM      8  C2' N4B d   1       1.354   4.135   0.369  0.00  0.00     0.009 C 
BRANCH   8   9
ATOM      9  C3' N4B d   1       0.776   4.555  -0.971  0.00  0.00     0.004 C 
ATOM     10  C4' N4B d   1       0.377   6.000  -1.005  0.00  0.00     0.003 C 
ENDBRANCH   8   9
ENDBRANCH   7   8
ENDBRANCH   1   7
TORSDOF 3
ENDMDL
