MODEL 1
REMARK minimizedAffinity 2.26634002
REMARK minimizedRMSD -1
REMARK  0 active torsions:
REMARK  status: ('A' for Active; 'I' for Inactive)
ROOT
ATOM      1  N1  IND d   1       1.268  -0.502   2.940  0.00  0.00    -0.196 N 
ATOM      2  C2  IND d   1       2.190  -0.107   2.010  0.00  0.00     0.054 A 
ATOM      3  C3  IND d   1       3.029  -1.127   1.718  0.00  0.00    -0.031 A 
ATOM      4  C4  IND d   1       3.010  -3.556   2.570  0.00  0.00     0.051 A 
ATOM      5  C5  IND d   1       2.380  -4.381   3.459  0.00  0.00    -0.031 A 
ATOM      6  C6  IND d   1       1.324  -3.947   4.234  0.00  0.00     0.015 A 
ATOM      7  C7  IND d   1       0.849  -2.669   4.140  0.00  0.00    -0.016 A 
ATOM      8  C8  IND d   1       1.491  -1.827   3.244  0.00  0.00    -0.047 A 
ATOM      9  C9  IND d   1       2.591  -2.249   2.485  0.00  0.00    -0.096 A 
ATOM     10  HN1 IND d   1       0.653  -0.005   3.278  0.00  0.00     0.298 HD
ENDROOT
TORSDOF 0
ENDMDL
