MODEL 1
REMARK minimizedAffinity 6.83199453
REMARK minimizedRMSD -1
REMARK  0 active torsions:
REMARK  status: ('A' for Active; 'I' for Inactive)
ROOT
ATOM      1  N1  IND d   1      -3.805   2.065  -4.912  0.00  0.00    -0.196 N 
ATOM      2  C2  IND d   1      -3.643   2.829  -3.790  0.00  0.00     0.054 A 
ATOM      3  C3  IND d   1      -3.395   2.043  -2.718  0.00  0.00    -0.031 A 
ATOM      4  C4  IND d   1      -3.111  -0.512  -2.594  0.00  0.00     0.051 A 
ATOM      5  C5  IND d   1      -3.205  -1.645  -3.353  0.00  0.00    -0.031 A 
ATOM      6  C6  IND d   1      -3.507  -1.598  -4.698  0.00  0.00     0.015 A 
ATOM      7  C7  IND d   1      -3.717  -0.410  -5.340  0.00  0.00    -0.016 A 
ATOM      8  C8  IND d   1      -3.629   0.742  -4.571  0.00  0.00    -0.047 A 
ATOM      9  C9  IND d   1      -3.364   0.697  -3.196  0.00  0.00    -0.096 A 
ATOM     10  HN1 IND d   1      -3.987   2.361  -5.699  0.00  0.00     0.298 HD
ENDROOT
TORSDOF 0
ENDMDL
