MODEL 1
REMARK minimizedAffinity 3.02166653
REMARK minimizedRMSD -1
REMARK  0 active torsions:
REMARK  status: ('A' for Active; 'I' for Inactive)
ROOT
ATOM      1  N1  IND d   1       1.780  -3.480   4.815  0.00  0.00    -0.196 N 
ATOM      2  C2  IND d   1       2.092  -4.520   3.983  0.00  0.00     0.054 A 
ATOM      3  C3  IND d   1       2.415  -4.059   2.754  0.00  0.00    -0.031 A 
ATOM      4  C4  IND d   1       2.599  -1.633   1.913  0.00  0.00     0.051 A 
ATOM      5  C5  IND d   1       2.377  -0.340   2.297  0.00  0.00    -0.031 A 
ATOM      6  C6  IND d   1       1.938  -0.021   3.566  0.00  0.00     0.015 A 
ATOM      7  C7  IND d   1       1.715  -0.987   4.506  0.00  0.00    -0.016 A 
ATOM      8  C8  IND d   1       1.933  -2.302   4.118  0.00  0.00    -0.047 A 
ATOM      9  C9  IND d   1       2.337  -2.634   2.819  0.00  0.00    -0.096 A 
ATOM     10  HN1 IND d   1       1.531  -3.551   5.634  0.00  0.00     0.298 HD
ENDROOT
TORSDOF 0
ENDMDL
