MODEL 1
REMARK minimizedAffinity 10.433075
REMARK minimizedRMSD -1
REMARK  0 active torsions:
REMARK  status: ('A' for Active; 'I' for Inactive)
ROOT
ATOM      1  N1  IND d   1      -4.694   0.300  -5.616  0.00  0.00    -0.196 N 
ATOM      2  C2  IND d   1      -4.735   1.651  -5.826  0.00  0.00     0.054 A 
ATOM      3  C3  IND d   1      -4.248   2.308  -4.750  0.00  0.00    -0.031 A 
ATOM      4  C4  IND d   1      -3.235   1.367  -2.578  0.00  0.00     0.051 A 
ATOM      5  C5  IND d   1      -3.015   0.194  -1.912  0.00  0.00    -0.031 A 
ATOM      6  C6  IND d   1      -3.348  -1.028  -2.459  0.00  0.00     0.015 A 
ATOM      7  C7  IND d   1      -3.905  -1.124  -3.703  0.00  0.00    -0.016 A 
ATOM      8  C8  IND d   1      -4.136   0.065  -4.379  0.00  0.00    -0.047 A 
ATOM      9  C9  IND d   1      -3.840   1.311  -3.811  0.00  0.00    -0.096 A 
ATOM     10  HN1 IND d   1      -4.971  -0.301  -6.165  0.00  0.00     0.298 HD
ENDROOT
TORSDOF 0
ENDMDL
