MODEL 1
REMARK minimizedAffinity 0.413340181
REMARK minimizedRMSD -1
REMARK  0 active torsions:
REMARK  status: ('A' for Active; 'I' for Inactive)
ROOT
ATOM      1  N1  IND d   1       1.181  -0.872   3.429  0.00  0.00    -0.196 N 
ATOM      2  C2  IND d   1       1.814  -0.444   2.296  0.00  0.00     0.054 A 
ATOM      3  C3  IND d   1       2.666  -1.392   1.845  0.00  0.00    -0.031 A 
ATOM      4  C4  IND d   1       3.104  -3.761   2.753  0.00  0.00     0.051 A 
ATOM      5  C5  IND d   1       2.789  -4.592   3.792  0.00  0.00    -0.031 A 
ATOM      6  C6  IND d   1       1.902  -4.219   4.781  0.00  0.00     0.015 A 
ATOM      7  C7  IND d   1       1.286  -3.000   4.762  0.00  0.00    -0.016 A 
ATOM      8  C8  IND d   1       1.608  -2.151   3.713  0.00  0.00    -0.047 A 
ATOM      9  C9  IND d   1       2.540  -2.507   2.729  0.00  0.00    -0.096 A 
ATOM     10  HN1 IND d   1       0.612  -0.419   3.888  0.00  0.00     0.298 HD
ENDROOT
TORSDOF 0
ENDMDL
