MODEL 1
REMARK minimizedAffinity 6.08492804
REMARK minimizedRMSD -1
REMARK  0 active torsions:
REMARK  status: ('A' for Active; 'I' for Inactive)
ROOT
ATOM      1  N1  IND d   1       0.168  -1.618   3.456  0.00  0.00    -0.196 N 
ATOM      2  C2  IND d   1      -0.098  -0.401   2.892  0.00  0.00     0.054 A 
ATOM      3  C3  IND d   1       0.717   0.545   3.410  0.00  0.00    -0.031 A 
ATOM      4  C4  IND d   1       2.628   0.303   5.117  0.00  0.00     0.051 A 
ATOM      5  C5  IND d   1       3.226  -0.608   5.943  0.00  0.00    -0.031 A 
ATOM      6  C6  IND d   1       2.828  -1.929   5.980  0.00  0.00     0.015 A 
ATOM      7  C7  IND d   1       1.822  -2.393   5.182  0.00  0.00    -0.016 A 
ATOM      8  C8  IND d   1       1.208  -1.470   4.348  0.00  0.00    -0.047 A 
ATOM      9  C9  IND d   1       1.578  -0.119   4.336  0.00  0.00    -0.096 A 
ATOM     10  HN1 IND d   1      -0.245  -2.352   3.283  0.00  0.00     0.298 HD
ENDROOT
TORSDOF 0
ENDMDL
