MODEL 1
REMARK minimizedAffinity 16.2811546
REMARK minimizedRMSD -1
REMARK  0 active torsions:
REMARK  status: ('A' for Active; 'I' for Inactive)
ROOT
ATOM      1  N1  IND d   1       5.108  -1.546   5.254  0.00  0.00    -0.196 N 
ATOM      2  C2  IND d   1       5.432  -2.645   5.999  0.00  0.00     0.054 A 
ATOM      3  C3  IND d   1       4.448  -3.569   5.928  0.00  0.00    -0.031 A 
ATOM      4  C4  IND d   1       2.264  -3.530   4.566  0.00  0.00     0.051 A 
ATOM      5  C5  IND d   1       1.512  -2.722   3.760  0.00  0.00    -0.031 A 
ATOM      6  C6  IND d   1       1.929  -1.457   3.401  0.00  0.00     0.015 A 
ATOM      7  C7  IND d   1       3.126  -0.954   3.828  0.00  0.00    -0.016 A 
ATOM      8  C8  IND d   1       3.889  -1.769   4.652  0.00  0.00    -0.047 A 
ATOM      9  C9  IND d   1       3.451  -3.037   5.054  0.00  0.00    -0.096 A 
ATOM     10  HN1 IND d   1       5.586  -0.835   5.174  0.00  0.00     0.298 HD
ENDROOT
TORSDOF 0
ENDMDL
