MODEL 1
REMARK minimizedAffinity 18.6261482
REMARK minimizedRMSD -1
REMARK  0 active torsions:
REMARK  status: ('A' for Active; 'I' for Inactive)
ROOT
ATOM      1  N1  IND d   1       5.987   0.754   1.163  0.00  0.00    -0.196 N 
ATOM      2  C2  IND d   1       5.998   1.847   0.341  0.00  0.00     0.054 A 
ATOM      3  C3  IND d   1       5.577   2.943   1.011  0.00  0.00    -0.031 A 
ATOM      4  C4  IND d   1       4.918   3.195   3.487  0.00  0.00     0.051 A 
ATOM      5  C5  IND d   1       4.716   2.469   4.627  0.00  0.00    -0.031 A 
ATOM      6  C6  IND d   1       4.934   1.107   4.672  0.00  0.00     0.015 A 
ATOM      7  C7  IND d   1       5.375   0.420   3.577  0.00  0.00    -0.016 A 
ATOM      8  C8  IND d   1       5.575   1.153   2.416  0.00  0.00    -0.047 A 
ATOM      9  C9  IND d   1       5.315   2.528   2.352  0.00  0.00    -0.096 A 
ATOM     10  HN1 IND d   1       6.201  -0.047   0.936  0.00  0.00     0.298 HD
ENDROOT
TORSDOF 0
ENDMDL
