MODEL 1
REMARK minimizedAffinity -5.39151049
REMARK minimizedRMSD -1
REMARK  0 active torsions:
REMARK  status: ('A' for Active; 'I' for Inactive)
ROOT
ATOM      1  C1  DEN d   1       0.530  -2.796   2.687  0.00  0.00     0.130 A 
ATOM      2  C2  DEN d   1      -0.687  -2.345   3.356  0.00  0.00    -0.031 A 
ATOM      3  C3  DEN d   1      -1.171  -1.137   2.658  0.00  0.00     0.027 A 
ATOM      4  C4  DEN d   1      -0.162   0.069   0.614  0.00  0.00     0.027 A 
ATOM      5  C5  DEN d   1       0.874   0.065  -0.294  0.00  0.00    -0.003 A 
ATOM      6  C6  DEN d   1       1.878  -0.866  -0.251  0.00  0.00     0.001 A 
ATOM      7  C7  DEN d   1       1.844  -1.859   0.692  0.00  0.00     0.017 A 
ATOM      8  C8  DEN d   1       0.806  -1.856   1.616  0.00  0.00    -0.094 A 
ATOM      9  C9  DEN d   1      -0.206  -0.914   1.548  0.00  0.00    -0.072 A 
ENDROOT
TORSDOF 0
ENDMDL
