MODEL 1
REMARK minimizedAffinity -4.48833656
REMARK minimizedRMSD -1
REMARK  0 active torsions:
REMARK  status: ('A' for Active; 'I' for Inactive)
ROOT
ATOM      1  C1  DEN d   1      -0.404   1.155   0.377  0.00  0.00     0.130 A 
ATOM      2  C2  DEN d   1      -1.161   1.239  -0.870  0.00  0.00    -0.031 A 
ATOM      3  C3  DEN d   1      -0.873   0.026  -1.661  0.00  0.00     0.027 A 
ATOM      4  C4  DEN d   1       0.658  -1.966  -1.079  0.00  0.00     0.027 A 
ATOM      5  C5  DEN d   1       1.520  -2.481  -0.135  0.00  0.00    -0.003 A 
ATOM      6  C6  DEN d   1       1.824  -1.811   1.020  0.00  0.00     0.001 A 
ATOM      7  C7  DEN d   1       1.227  -0.606   1.282  0.00  0.00     0.017 A 
ATOM      8  C8  DEN d   1       0.363  -0.076   0.333  0.00  0.00    -0.094 A 
ATOM      9  C9  DEN d   1       0.059  -0.775  -0.823  0.00  0.00    -0.072 A 
ENDROOT
TORSDOF 0
ENDMDL
