MODEL 1
REMARK minimizedAffinity -3.80395341
REMARK minimizedRMSD -1
REMARK  0 active torsions:
REMARK  status: ('A' for Active; 'I' for Inactive)
ROOT
ATOM      1  C1  DEN d   1      -1.081   1.217  -2.581  0.00  0.00     0.130 A 
ATOM      2  C2  DEN d   1      -0.872   2.641  -2.827  0.00  0.00    -0.031 A 
ATOM      3  C3  DEN d   1       0.104   3.137  -1.836  0.00  0.00     0.027 A 
ATOM      4  C4  DEN d   1       1.309   1.844   0.042  0.00  0.00     0.027 A 
ATOM      5  C5  DEN d   1       1.447   0.615   0.649  0.00  0.00    -0.003 A 
ATOM      6  C6  DEN d   1       0.732  -0.482   0.248  0.00  0.00     0.001 A 
ATOM      7  C7  DEN d   1      -0.120  -0.383  -0.820  0.00  0.00     0.017 A 
ATOM      8  C8  DEN d   1      -0.270   0.854  -1.433  0.00  0.00    -0.094 A 
ATOM      9  C9  DEN d   1       0.471   1.948  -1.020  0.00  0.00    -0.072 A 
ENDROOT
TORSDOF 0
ENDMDL
