MODEL 1
REMARK minimizedAffinity -5.5492444
REMARK minimizedRMSD -1
REMARK  0 active torsions:
REMARK  status: ('A' for Active; 'I' for Inactive)
ROOT
ATOM      1  C1  DEN d   1       0.465  -2.513   0.889  0.00  0.00     0.130 A 
ATOM      2  C2  DEN d   1       1.841  -2.921   1.155  0.00  0.00    -0.031 A 
ATOM      3  C3  DEN d   1       2.726  -1.785   0.828  0.00  0.00     0.027 A 
ATOM      4  C4  DEN d   1       2.100   0.557  -0.055  0.00  0.00     0.027 A 
ATOM      5  C5  DEN d   1       1.058   1.367  -0.447  0.00  0.00    -0.003 A 
ATOM      6  C6  DEN d   1      -0.242   0.933  -0.453  0.00  0.00     0.001 A 
ATOM      7  C7  DEN d   1      -0.537  -0.331  -0.016  0.00  0.00     0.017 A 
ATOM      8  C8  DEN d   1       0.509  -1.156   0.373  0.00  0.00    -0.094 A 
ATOM      9  C9  DEN d   1       1.815  -0.696   0.384  0.00  0.00    -0.072 A 
ENDROOT
TORSDOF 0
ENDMDL
