MODEL 1
REMARK minimizedAffinity -3.57173848
REMARK minimizedRMSD -1
REMARK  0 active torsions:
REMARK  status: ('A' for Active; 'I' for Inactive)
ROOT
ATOM      1  C1  DEN d   1      -1.356  -0.760  -0.060  0.00  0.00     0.130 A 
ATOM      2  C2  DEN d   1      -1.126   0.610  -0.509  0.00  0.00    -0.031 A 
ATOM      3  C3  DEN d   1       0.323   0.883  -0.418  0.00  0.00     0.027 A 
ATOM      4  C4  DEN d   1       2.221  -0.676   0.367  0.00  0.00     0.027 A 
ATOM      5  C5  DEN d   1       2.514  -1.931   0.855  0.00  0.00    -0.003 A 
ATOM      6  C6  DEN d   1       1.542  -2.863   1.103  0.00  0.00     0.001 A 
ATOM      7  C7  DEN d   1       0.234  -2.571   0.820  0.00  0.00     0.017 A 
ATOM      8  C8  DEN d   1      -0.070  -1.306   0.335  0.00  0.00    -0.094 A 
ATOM      9  C9  DEN d   1       0.928  -0.382   0.080  0.00  0.00    -0.072 A 
ENDROOT
TORSDOF 0
ENDMDL
