MODEL 1
REMARK minimizedAffinity -3.94231105
REMARK minimizedRMSD -1
REMARK  0 active torsions:
REMARK  status: ('A' for Active; 'I' for Inactive)
ROOT
ATOM      1  C1  DEN d   1       0.415   0.957  -0.281  0.00  0.00     0.130 A 
ATOM      2  C2  DEN d   1      -0.982   1.058   0.130  0.00  0.00    -0.031 A 
ATOM      3  C3  DEN d   1      -1.338  -0.184   0.845  0.00  0.00     0.027 A 
ATOM      4  C4  DEN d   1       0.133  -2.240   1.356  0.00  0.00     0.027 A 
ATOM      5  C5  DEN d   1       1.385  -2.792   1.198  0.00  0.00    -0.003 A 
ATOM      6  C6  DEN d   1       2.383  -2.153   0.511  0.00  0.00     0.001 A 
ATOM      7  C7  DEN d   1       2.160  -0.904  -0.004  0.00  0.00     0.017 A 
ATOM      8  C8  DEN d   1       0.898  -0.344   0.146  0.00  0.00    -0.094 A 
ATOM      9  C9  DEN d   1      -0.094  -1.000   0.854  0.00  0.00    -0.072 A 
ENDROOT
TORSDOF 0
ENDMDL
