MODEL 1
REMARK minimizedAffinity -2.63237858
REMARK minimizedRMSD -1
REMARK  0 active torsions:
REMARK  status: ('A' for Active; 'I' for Inactive)
ROOT
ATOM      1  C1  DEN d   1      -1.108  -0.912  -0.522  0.00  0.00     0.130 A 
ATOM      2  C2  DEN d   1       0.177  -0.526   0.054  0.00  0.00    -0.031 A 
ATOM      3  C3  DEN d   1       0.542   0.797  -0.490  0.00  0.00     0.027 A 
ATOM      4  C4  DEN d   1      -0.753   2.279  -2.157  0.00  0.00     0.027 A 
ATOM      5  C5  DEN d   1      -1.888   2.369  -2.932  0.00  0.00    -0.003 A 
ATOM      6  C6  DEN d   1      -2.819   1.365  -2.983  0.00  0.00     0.001 A 
ATOM      7  C7  DEN d   1      -2.653   0.246  -2.211  0.00  0.00     0.017 A 
ATOM      8  C8  DEN d   1      -1.507   0.145  -1.433  0.00  0.00    -0.094 A 
ATOM      9  C9  DEN d   1      -0.584   1.176  -1.385  0.00  0.00    -0.072 A 
ENDROOT
TORSDOF 0
ENDMDL
