MODEL 1
REMARK minimizedAffinity -4.00037289
REMARK minimizedRMSD -1
REMARK  0 active torsions:
REMARK  status: ('A' for Active; 'I' for Inactive)
ROOT
ATOM      1  C1  DEN d   1       0.134   1.019  -0.898  0.00  0.00     0.130 A 
ATOM      2  C2  DEN d   1      -1.105   0.412  -1.376  0.00  0.00    -0.031 A 
ATOM      3  C3  DEN d   1      -1.146  -0.983  -0.894  0.00  0.00     0.027 A 
ATOM      4  C4  DEN d   1       0.578  -2.255   0.543  0.00  0.00     0.027 A 
ATOM      5  C5  DEN d   1       1.795  -2.161   1.181  0.00  0.00    -0.003 A 
ATOM      6  C6  DEN d   1       2.553  -1.021   1.143  0.00  0.00     0.001 A 
ATOM      7  C7  DEN d   1       2.081   0.087   0.490  0.00  0.00     0.017 A 
ATOM      8  C8  DEN d   1       0.858  -0.003  -0.162  0.00  0.00    -0.094 A 
ATOM      9  C9  DEN d   1       0.101  -1.160  -0.102  0.00  0.00    -0.072 A 
ENDROOT
TORSDOF 0
ENDMDL
