MODEL 1
REMARK minimizedAffinity -2.91535783
REMARK minimizedRMSD -1
REMARK  0 active torsions:
REMARK  status: ('A' for Active; 'I' for Inactive)
ROOT
ATOM      1  C1  DEN d   1       2.694  -1.410   1.788  0.00  0.00     0.130 A 
ATOM      2  C2  DEN d   1       3.718  -0.369   1.754  0.00  0.00    -0.031 A 
ATOM      3  C3  DEN d   1       3.162   0.795   1.035  0.00  0.00     0.027 A 
ATOM      4  C4  DEN d   1       0.826   1.087  -0.018  0.00  0.00     0.027 A 
ATOM      5  C5  DEN d   1      -0.385   0.472  -0.253  0.00  0.00    -0.003 A 
ATOM      6  C6  DEN d   1      -0.640  -0.814   0.143  0.00  0.00     0.001 A 
ATOM      7  C7  DEN d   1       0.314  -1.513   0.835  0.00  0.00     0.017 A 
ATOM      8  C8  DEN d   1       1.539  -0.903   1.069  0.00  0.00    -0.094 A 
ATOM      9  C9  DEN d   1       1.773   0.403   0.672  0.00  0.00    -0.072 A 
ENDROOT
TORSDOF 0
ENDMDL
