MODEL 1
REMARK minimizedAffinity -3.86407423
REMARK minimizedRMSD -1
REMARK  0 active torsions:
REMARK  status: ('A' for Active; 'I' for Inactive)
ROOT
ATOM      1  C1  DEN d   1       0.005  -2.331   1.282  0.00  0.00     0.130 A 
ATOM      2  C2  DEN d   1       1.401  -2.736   1.424  0.00  0.00    -0.031 A 
ATOM      3  C3  DEN d   1       2.243  -1.703   0.788  0.00  0.00     0.027 A 
ATOM      4  C4  DEN d   1       1.525   0.475  -0.392  0.00  0.00     0.027 A 
ATOM      5  C5  DEN d   1       0.446   1.243  -0.771  0.00  0.00    -0.003 A 
ATOM      6  C6  DEN d   1      -0.845   0.860  -0.524  0.00  0.00     0.001 A 
ATOM      7  C7  DEN d   1      -1.090  -0.301   0.160  0.00  0.00     0.017 A 
ATOM      8  C8  DEN d   1      -0.008  -1.084   0.539  0.00  0.00    -0.094 A 
ATOM      9  C9  DEN d   1       1.291  -0.674   0.291  0.00  0.00    -0.072 A 
ENDROOT
TORSDOF 0
ENDMDL
