MODEL 1
REMARK minimizedAffinity -5.73093653
REMARK minimizedRMSD -1
REMARK  0 active torsions:
REMARK  status: ('A' for Active; 'I' for Inactive)
ROOT
ATOM      1  C1  DEN d   1      -0.901  -1.058   1.774  0.00  0.00     0.130 A 
ATOM      2  C2  DEN d   1      -1.093   0.346   1.419  0.00  0.00    -0.031 A 
ATOM      3  C3  DEN d   1       0.003   0.741   0.512  0.00  0.00     0.027 A 
ATOM      4  C4  DEN d   1       1.965  -0.678  -0.378  0.00  0.00     0.027 A 
ATOM      5  C5  DEN d   1       2.556  -1.922  -0.346  0.00  0.00    -0.003 A 
ATOM      6  C6  DEN d   1       2.059  -2.946   0.416  0.00  0.00     0.001 A 
ATOM      7  C7  DEN d   1       0.913  -2.759   1.142  0.00  0.00     0.017 A 
ATOM      8  C8  DEN d   1       0.315  -1.506   1.120  0.00  0.00    -0.094 A 
ATOM      9  C9  DEN d   1       0.826  -0.486   0.334  0.00  0.00    -0.072 A 
ENDROOT
TORSDOF 0
ENDMDL
