MODEL 1
REMARK minimizedAffinity -5.81517792
REMARK minimizedRMSD -1
REMARK  0 active torsions:
REMARK  status: ('A' for Active; 'I' for Inactive)
ROOT
ATOM      1  C1  DEN d   1       2.322  -1.921   0.472  0.00  0.00     0.130 A 
ATOM      2  C2  DEN d   1       1.212  -2.653   1.075  0.00  0.00    -0.031 A 
ATOM      3  C3  DEN d   1      -0.001  -1.817   0.964  0.00  0.00     0.027 A 
ATOM      4  C4  DEN d   1      -0.267   0.525  -0.082  0.00  0.00     0.027 A 
ATOM      5  C5  DEN d   1       0.397   1.556  -0.709  0.00  0.00    -0.003 A 
ATOM      6  C6  DEN d   1       1.744   1.516  -0.954  0.00  0.00     0.001 A 
ATOM      7  C7  DEN d   1       2.463   0.401  -0.610  0.00  0.00     0.017 A 
ATOM      8  C8  DEN d   1       1.802  -0.639   0.029  0.00  0.00    -0.094 A 
ATOM      9  C9  DEN d   1       0.438  -0.584   0.257  0.00  0.00    -0.072 A 
ENDROOT
TORSDOF 0
ENDMDL
