MODEL 1
REMARK minimizedAffinity -6.92174339
REMARK minimizedRMSD -1
REMARK  0 active torsions:
REMARK  status: ('A' for Active; 'I' for Inactive)
ROOT
ATOM      1  C1  DEN d   1      -0.800   0.299   0.400  0.00  0.00     0.130 A 
ATOM      2  C2  DEN d   1       0.140   0.722  -0.635  0.00  0.00    -0.031 A 
ATOM      3  C3  DEN d   1       1.259  -0.242  -0.656  0.00  0.00     0.027 A 
ATOM      4  C4  DEN d   1       1.623  -2.338   0.801  0.00  0.00     0.027 A 
ATOM      5  C5  DEN d   1       1.102  -3.098   1.825  0.00  0.00    -0.003 A 
ATOM      6  C6  DEN d   1      -0.063  -2.763   2.463  0.00  0.00     0.001 A 
ATOM      7  C7  DEN d   1      -0.769  -1.662   2.054  0.00  0.00     0.017 A 
ATOM      8  C8  DEN d   1      -0.246  -0.887   1.027  0.00  0.00    -0.094 A 
ATOM      9  C9  DEN d   1       0.927  -1.250   0.386  0.00  0.00    -0.072 A 
ENDROOT
TORSDOF 0
ENDMDL
