MODEL 1
REMARK minimizedAffinity -3.5835638
REMARK minimizedRMSD -1
REMARK  0 active torsions:
REMARK  status: ('A' for Active; 'I' for Inactive)
ROOT
ATOM      1  C1  DEN d   1       2.005  -0.729  -0.485  0.00  0.00     0.130 A 
ATOM      2  C2  DEN d   1       2.302  -1.855   0.396  0.00  0.00    -0.031 A 
ATOM      3  C3  DEN d   1       1.201  -1.974   1.372  0.00  0.00     0.027 A 
ATOM      4  C4  DEN d   1      -0.926  -0.534   1.603  0.00  0.00     0.027 A 
ATOM      5  C5  DEN d   1      -1.612   0.545   1.090  0.00  0.00    -0.003 A 
ATOM      6  C6  DEN d   1      -1.128   1.290   0.048  0.00  0.00     0.001 A 
ATOM      7  C7  DEN d   1       0.055   0.938  -0.546  0.00  0.00     0.017 A 
ATOM      8  C8  DEN d   1       0.756  -0.144  -0.031  0.00  0.00    -0.094 A 
ATOM      9  C9  DEN d   1       0.244  -0.892   1.016  0.00  0.00    -0.072 A 
ENDROOT
TORSDOF 0
ENDMDL
