MODEL 1
REMARK minimizedAffinity -5.00978184
REMARK minimizedRMSD -1
REMARK  0 active torsions:
REMARK  status: ('A' for Active; 'I' for Inactive)
ROOT
ATOM      1  C1  DEN d   1      -0.624  -0.057   1.055  0.00  0.00     0.130 A 
ATOM      2  C2  DEN d   1      -0.341   1.133   0.258  0.00  0.00    -0.031 A 
ATOM      3  C3  DEN d   1       0.892   0.881  -0.515  0.00  0.00     0.027 A 
ATOM      4  C4  DEN d   1       2.379  -1.226  -0.559  0.00  0.00     0.027 A 
ATOM      5  C5  DEN d   1       2.549  -2.491  -0.040  0.00  0.00    -0.003 A 
ATOM      6  C6  DEN d   1       1.700  -3.016   0.898  0.00  0.00     0.001 A 
ATOM      7  C7  DEN d   1       0.615  -2.290   1.313  0.00  0.00     0.017 A 
ATOM      8  C8  DEN d   1       0.441  -1.011   0.800  0.00  0.00    -0.094 A 
ATOM      9  C9  DEN d   1       1.303  -0.503  -0.156  0.00  0.00    -0.072 A 
ENDROOT
TORSDOF 0
ENDMDL
