MODEL 1
REMARK minimizedAffinity 0.948733866
REMARK minimizedRMSD -1
REMARK  1 active torsions:
REMARK  status: ('A' for Active; 'I' for Inactive)
REMARK    1  A    between atoms: C3_4  and  O_7 
ROOT
ATOM      1  C   UNL d   1      -1.442   5.980  -5.198  0.00  0.00    -0.033 A 
ATOM      2  C1  UNL d   1      -1.327   6.000  -3.807  0.00  0.00     0.039 A 
ATOM      3  C2  UNL d   1      -0.315   5.271  -3.178  0.00  0.00    -0.080 A 
ATOM      4  C3  UNL d   1       0.574   4.529  -3.951  0.00  0.00     0.150 A 
ATOM      5  C4  UNL d   1       0.467   4.508  -5.337  0.00  0.00    -0.007 A 
ATOM      6  C5  UNL d   1      -0.544   5.235  -5.964  0.00  0.00     0.039 A 
ENDROOT
BRANCH   4   7
ATOM      7  O   UNL d   1       1.574   3.798  -3.382  0.00  0.00    -0.526 OA
ATOM      8  H5  UNL d   1       1.508   3.885  -2.416  0.00  0.00     0.418 HD
ENDBRANCH   4   7
TORSDOF 1
ENDMDL
