MODEL 1
REMARK minimizedAffinity -1.34240305
REMARK minimizedRMSD -1
REMARK  1 active torsions:
REMARK  status: ('A' for Active; 'I' for Inactive)
REMARK    1  A    between atoms: C3_4  and  O_7 
ROOT
ATOM      1  C   UNL d   1      -1.345   5.240  -5.700  0.00  0.00    -0.033 A 
ATOM      2  C1  UNL d   1       0.004   5.039  -6.000  0.00  0.00     0.039 A 
ATOM      3  C2  UNL d   1       0.849   4.444  -5.060  0.00  0.00    -0.080 A 
ATOM      4  C3  UNL d   1       0.333   4.055  -3.827  0.00  0.00     0.150 A 
ATOM      5  C4  UNL d   1      -1.011   4.250  -3.523  0.00  0.00    -0.007 A 
ATOM      6  C5  UNL d   1      -1.852   4.844  -4.462  0.00  0.00     0.039 A 
ENDROOT
BRANCH   4   7
ATOM      7  O   UNL d   1       1.119   3.475  -2.877  0.00  0.00    -0.526 OA
ATOM      8  H5  UNL d   1       2.029   3.431  -3.215  0.00  0.00     0.418 HD
ENDBRANCH   4   7
TORSDOF 1
ENDMDL
