MODEL 1
REMARK minimizedAffinity -0.616368175
REMARK minimizedRMSD -1
REMARK  1 active torsions:
REMARK  status: ('A' for Active; 'I' for Inactive)
REMARK    1  A    between atoms: C3_4  and  O_7 
ROOT
ATOM      1  C   UNL d   1      -5.946  -0.160  -4.973  0.00  0.00    -0.033 A 
ATOM      2  C1  UNL d   1      -5.962   0.786  -6.000  0.00  0.00     0.039 A 
ATOM      3  C2  UNL d   1      -5.979   2.149  -5.695  0.00  0.00    -0.080 A 
ATOM      4  C3  UNL d   1      -5.979   2.551  -4.363  0.00  0.00     0.150 A 
ATOM      5  C4  UNL d   1      -5.959   1.614  -3.335  0.00  0.00    -0.007 A 
ATOM      6  C5  UNL d   1      -5.943   0.253  -3.641  0.00  0.00     0.039 A 
ENDROOT
BRANCH   4   7
ATOM      7  O   UNL d   1      -5.999   3.869  -4.016  0.00  0.00    -0.526 OA
ATOM      8  H5  UNL d   1      -6.041   4.400  -4.829  0.00  0.00     0.418 HD
ENDBRANCH   4   7
TORSDOF 1
ENDMDL
