MODEL 1
REMARK minimizedAffinity 5.92335796
REMARK minimizedRMSD -1
REMARK  1 active torsions:
REMARK  status: ('A' for Active; 'I' for Inactive)
REMARK    1  A    between atoms: C3_4  and  O_7 
ROOT
ATOM      1  C   UNL d   1      -1.641  -2.078   1.909  0.00  0.00    -0.033 A 
ATOM      2  C1  UNL d   1      -0.656  -2.976   1.494  0.00  0.00     0.039 A 
ATOM      3  C2  UNL d   1       0.596  -2.977   2.113  0.00  0.00    -0.080 A 
ATOM      4  C3  UNL d   1       0.849  -2.078   3.145  0.00  0.00     0.150 A 
ATOM      5  C4  UNL d   1      -0.129  -1.183   3.566  0.00  0.00    -0.007 A 
ATOM      6  C5  UNL d   1      -1.378  -1.182   2.946  0.00  0.00     0.039 A 
ENDROOT
BRANCH   4   7
ATOM      7  O   UNL d   1       2.057  -2.038   3.776  0.00  0.00    -0.526 OA
ATOM      8  H5  UNL d   1       2.642  -2.693   3.361  0.00  0.00     0.418 HD
ENDBRANCH   4   7
TORSDOF 1
ENDMDL
