MODEL 1
REMARK minimizedAffinity -0.625556231
REMARK minimizedRMSD -1
REMARK  1 active torsions:
REMARK  status: ('A' for Active; 'I' for Inactive)
REMARK    1  A    between atoms: C3_4  and  O_7 
ROOT
ATOM      1  C   UNL d   1      -6.000   3.177  -1.895  0.00  0.00    -0.033 A 
ATOM      2  C1  UNL d   1      -5.253   4.083  -2.651  0.00  0.00     0.039 A 
ATOM      3  C2  UNL d   1      -4.221   4.810  -2.055  0.00  0.00    -0.080 A 
ATOM      4  C3  UNL d   1      -3.945   4.621  -0.704  0.00  0.00     0.150 A 
ATOM      5  C4  UNL d   1      -4.682   3.717   0.055  0.00  0.00    -0.007 A 
ATOM      6  C5  UNL d   1      -5.713   2.993  -0.542  0.00  0.00     0.039 A 
ENDROOT
BRANCH   4   7
ATOM      7  O   UNL d   1      -2.950   5.310  -0.076  0.00  0.00    -0.526 OA
ATOM      8  H5  UNL d   1      -2.546   5.919  -0.717  0.00  0.00     0.418 HD
ENDBRANCH   4   7
TORSDOF 1
ENDMDL
