MODEL 1
REMARK minimizedAffinity 9.22508717
REMARK minimizedRMSD -1
REMARK  1 active torsions:
REMARK  status: ('A' for Active; 'I' for Inactive)
REMARK    1  A    between atoms: C3_4  and  O_7 
ROOT
ATOM      1  C   UNL d   1       1.752   1.548  -0.866  0.00  0.00    -0.033 A 
ATOM      2  C1  UNL d   1       2.752   0.631  -0.536  0.00  0.00     0.039 A 
ATOM      3  C2  UNL d   1       3.991   0.687  -1.178  0.00  0.00    -0.080 A 
ATOM      4  C3  UNL d   1       4.217   1.662  -2.145  0.00  0.00     0.150 A 
ATOM      5  C4  UNL d   1       3.226   2.581  -2.476  0.00  0.00    -0.007 A 
ATOM      6  C5  UNL d   1       1.989   2.523  -1.835  0.00  0.00     0.039 A 
ENDROOT
BRANCH   4   7
ATOM      7  O   UNL d   1       5.409   1.753  -2.801  0.00  0.00    -0.526 OA
ATOM      8  H5  UNL d   1       5.987   1.036  -2.490  0.00  0.00     0.418 HD
ENDBRANCH   4   7
TORSDOF 1
ENDMDL
