MODEL 1
REMARK minimizedAffinity 3.90288877
REMARK minimizedRMSD -1
REMARK  1 active torsions:
REMARK  status: ('A' for Active; 'I' for Inactive)
REMARK    1  A    between atoms: C3_4  and  O_7 
ROOT
ATOM      1  C   UNL d   1       1.243   3.229  -2.959  0.00  0.00    -0.033 A 
ATOM      2  C1  UNL d   1       0.000   3.242  -3.596  0.00  0.00     0.039 A 
ATOM      3  C2  UNL d   1      -0.250   4.153  -4.624  0.00  0.00    -0.080 A 
ATOM      4  C3  UNL d   1       0.749   5.045  -5.005  0.00  0.00     0.150 A 
ATOM      5  C4  UNL d   1       1.990   5.035  -4.378  0.00  0.00    -0.007 A 
ATOM      6  C5  UNL d   1       2.238   4.125  -3.351  0.00  0.00     0.039 A 
ENDROOT
BRANCH   4   7
ATOM      7  O   UNL d   1       0.550   5.956  -6.000  0.00  0.00    -0.526 OA
ATOM      8  H5  UNL d   1      -0.363   5.865  -6.322  0.00  0.00     0.418 HD
ENDBRANCH   4   7
TORSDOF 1
ENDMDL
