MODEL 1
REMARK minimizedAffinity 8.38350582
REMARK minimizedRMSD -1
REMARK  1 active torsions:
REMARK  status: ('A' for Active; 'I' for Inactive)
REMARK    1  A    between atoms: C3_4  and  O_7 
ROOT
ATOM      1  C   UNL d   1       1.546   1.910  -1.264  0.00  0.00    -0.033 A 
ATOM      2  C1  UNL d   1       1.260   2.431  -0.000  0.00  0.00     0.039 A 
ATOM      3  C2  UNL d   1       1.937   1.954   1.123  0.00  0.00    -0.080 A 
ATOM      4  C3  UNL d   1       2.898   0.958   0.970  0.00  0.00     0.150 A 
ATOM      5  C4  UNL d   1       3.190   0.437  -0.286  0.00  0.00    -0.007 A 
ATOM      6  C5  UNL d   1       2.512   0.914  -1.406  0.00  0.00     0.039 A 
ENDROOT
BRANCH   4   7
ATOM      7  O   UNL d   1       3.581   0.457   2.038  0.00  0.00    -0.526 OA
ATOM      8  H5  UNL d   1       3.254   0.891   2.844  0.00  0.00     0.418 HD
ENDBRANCH   4   7
TORSDOF 1
ENDMDL
