MODEL 1
REMARK minimizedAffinity 9.21479321
REMARK minimizedRMSD -1
REMARK  1 active torsions:
REMARK  status: ('A' for Active; 'I' for Inactive)
REMARK    1  A    between atoms: C3_4  and  O_7 
ROOT
ATOM      1  C   UNL d   1       1.981   1.972  -1.631  0.00  0.00    -0.033 A 
ATOM      2  C1  UNL d   1       1.242   2.035  -0.449  0.00  0.00     0.039 A 
ATOM      3  C2  UNL d   1       1.550   1.184   0.615  0.00  0.00    -0.080 A 
ATOM      4  C3  UNL d   1       2.598   0.277   0.483  0.00  0.00     0.150 A 
ATOM      5  C4  UNL d   1       3.341   0.212  -0.691  0.00  0.00    -0.007 A 
ATOM      6  C5  UNL d   1       3.032   1.062  -1.752  0.00  0.00     0.039 A 
ENDROOT
BRANCH   4   7
ATOM      7  O   UNL d   1       2.932  -0.577   1.492  0.00  0.00    -0.526 OA
ATOM      8  H5  UNL d   1       2.315  -0.438   2.230  0.00  0.00     0.418 HD
ENDBRANCH   4   7
TORSDOF 1
ENDMDL
