MODEL 1
REMARK minimizedAffinity 1.84826362
REMARK minimizedRMSD -1
REMARK  1 active torsions:
REMARK  status: ('A' for Active; 'I' for Inactive)
REMARK    1  A    between atoms: C3_4  and  O_7 
ROOT
ATOM      1  C   UNL d   1      -5.892  -5.486  -4.305  0.00  0.00    -0.033 A 
ATOM      2  C1  UNL d   1      -5.577  -5.837  -5.619  0.00  0.00     0.039 A 
ATOM      3  C2  UNL d   1      -4.243  -5.999  -6.000  0.00  0.00    -0.080 A 
ATOM      4  C3  UNL d   1      -3.236  -5.809  -5.057  0.00  0.00     0.150 A 
ATOM      5  C4  UNL d   1      -3.543  -5.462  -3.746  0.00  0.00    -0.007 A 
ATOM      6  C5  UNL d   1      -4.875  -5.300  -3.368  0.00  0.00     0.039 A 
ENDROOT
BRANCH   4   7
ATOM      7  O   UNL d   1      -1.920  -5.951  -5.383  0.00  0.00    -0.526 OA
ATOM      8  H5  UNL d   1      -1.858  -6.163  -6.329  0.00  0.00     0.418 HD
ENDBRANCH   4   7
TORSDOF 1
ENDMDL
