MODEL 1
REMARK minimizedAffinity -1.37986767
REMARK minimizedRMSD -1
REMARK  1 active torsions:
REMARK  status: ('A' for Active; 'I' for Inactive)
REMARK    1  A    between atoms: C3_4  and  O_7 
ROOT
ATOM      1  C   UNL d   1       3.275   2.442  -2.539  0.00  0.00    -0.033 A 
ATOM      2  C1  UNL d   1       1.917   2.762  -2.495  0.00  0.00     0.039 A 
ATOM      3  C2  UNL d   1       1.347   3.537  -3.508  0.00  0.00    -0.080 A 
ATOM      4  C3  UNL d   1       2.145   3.983  -4.557  0.00  0.00     0.150 A 
ATOM      5  C4  UNL d   1       3.499   3.665  -4.609  0.00  0.00    -0.007 A 
ATOM      6  C5  UNL d   1       4.066   2.893  -3.597  0.00  0.00     0.039 A 
ENDROOT
BRANCH   4   7
ATOM      7  O   UNL d   1       1.635   4.746  -5.566  0.00  0.00    -0.526 OA
ATOM      8  H5  UNL d   1       0.695   4.910  -5.382  0.00  0.00     0.418 HD
ENDBRANCH   4   7
TORSDOF 1
ENDMDL
