MODEL 1
REMARK minimizedAffinity -0.988266349
REMARK minimizedRMSD -1
REMARK  1 active torsions:
REMARK  status: ('A' for Active; 'I' for Inactive)
REMARK    1  A    between atoms: C3_4  and  O_7 
ROOT
ATOM      1  C   UNL d   1       1.550   1.330  -1.762  0.00  0.00    -0.033 A 
ATOM      2  C1  UNL d   1       2.515   2.336  -1.825  0.00  0.00     0.039 A 
ATOM      3  C2  UNL d   1       2.970   2.944  -0.653  0.00  0.00    -0.080 A 
ATOM      4  C3  UNL d   1       2.453   2.536   0.573  0.00  0.00     0.150 A 
ATOM      5  C4  UNL d   1       1.494   1.531   0.643  0.00  0.00    -0.007 A 
ATOM      6  C5  UNL d   1       1.040   0.926  -0.528  0.00  0.00     0.039 A 
ENDROOT
BRANCH   4   7
ATOM      7  O   UNL d   1       2.862   3.103   1.743  0.00  0.00    -0.526 OA
ATOM      8  H5  UNL d   1       3.506   3.802   1.538  0.00  0.00     0.418 HD
ENDBRANCH   4   7
TORSDOF 1
ENDMDL
