MODEL 1
REMARK minimizedAffinity -2.40355539
REMARK minimizedRMSD -1
REMARK  1 active torsions:
REMARK  status: ('A' for Active; 'I' for Inactive)
REMARK    1  A    between atoms: C3_4  and  O_7 
ROOT
ATOM      1  C   UNL d   1       1.856   4.576  -4.292  0.00  0.00    -0.033 A 
ATOM      2  C1  UNL d   1       0.509   4.207  -4.322  0.00  0.00     0.039 A 
ATOM      3  C2  UNL d   1       0.084   3.056  -3.656  0.00  0.00    -0.080 A 
ATOM      4  C3  UNL d   1       1.014   2.284  -2.964  0.00  0.00     0.150 A 
ATOM      5  C4  UNL d   1       2.356   2.648  -2.927  0.00  0.00    -0.007 A 
ATOM      6  C5  UNL d   1       2.779   3.798  -3.593  0.00  0.00     0.039 A 
ENDROOT
BRANCH   4   7
ATOM      7  O   UNL d   1       0.647   1.149  -2.303  0.00  0.00    -0.526 OA
ATOM      8  H5  UNL d   1      -0.304   1.007  -2.440  0.00  0.00     0.418 HD
ENDBRANCH   4   7
TORSDOF 1
ENDMDL
