MODEL 1
REMARK minimizedAffinity -3.7062993
REMARK minimizedRMSD -1
REMARK  0 active torsions:
REMARK  status: ('A' for Active; 'I' for Inactive)
ROOT
ATOM      1  C4' PXY d   1      -2.164   0.278   1.347  0.00  0.00     0.077 C 
ATOM      2  C1' PXY d   1       2.731  -0.629  -1.591  0.00  0.00     0.077 C 
ATOM      3  C1  PXY d   1       1.451  -0.379  -0.818  0.00  0.00    -0.082 A 
ATOM      4  C2  PXY d   1       0.775  -1.404  -0.324  0.00  0.00     0.003 A 
ATOM      5  C3  PXY d   1      -0.401  -1.198   0.351  0.00  0.00     0.003 A 
ATOM      6  C4  PXY d   1      -0.862   0.073   0.567  0.00  0.00    -0.082 A 
ATOM      7  C5  PXY d   1      -0.172   1.124   0.075  0.00  0.00     0.003 A 
ATOM      8  C6  PXY d   1       0.998   0.891  -0.642  0.00  0.00     0.003 A 
ENDROOT
TORSDOF 0
ENDMDL
