MODEL 1
REMARK minimizedAffinity -4.54193497
REMARK minimizedRMSD -1
REMARK  0 active torsions:
REMARK  status: ('A' for Active; 'I' for Inactive)
ROOT
ATOM      1  C4' PXY d   1      -1.966   0.260   0.954  0.00  0.00     0.077 C 
ATOM      2  C1' PXY d   1       3.146  -0.552  -1.619  0.00  0.00     0.077 C 
ATOM      3  C1  PXY d   1       1.803  -0.352  -0.947  0.00  0.00    -0.082 A 
ATOM      4  C2  PXY d   1       1.272   0.859  -0.894  0.00  0.00     0.003 A 
ATOM      5  C3  PXY d   1       0.073   1.064  -0.261  0.00  0.00     0.003 A 
ATOM      6  C4  PXY d   1      -0.616   0.009   0.276  0.00  0.00    -0.082 A 
ATOM      7  C5  PXY d   1      -0.086  -1.231   0.217  0.00  0.00     0.003 A 
ATOM      8  C6  PXY d   1       1.152  -1.411  -0.393  0.00  0.00     0.003 A 
ENDROOT
TORSDOF 0
ENDMDL
