MODEL 1
REMARK minimizedAffinity -0.428495854
REMARK minimizedRMSD -1
REMARK  0 active torsions:
REMARK  status: ('A' for Active; 'I' for Inactive)
ROOT
ATOM      1  C4' PXY d   1       2.059  -1.226  -2.002  0.00  0.00     0.077 C 
ATOM      2  C1' PXY d   1      -0.637   0.622   2.765  0.00  0.00     0.077 C 
ATOM      3  C1  PXY d   1       0.059   0.141   1.508  0.00  0.00    -0.082 A 
ATOM      4  C2  PXY d   1       1.043  -0.740   1.601  0.00  0.00     0.003 A 
ATOM      5  C3  PXY d   1       1.705  -1.162   0.477  0.00  0.00     0.003 A 
ATOM      6  C4  PXY d   1       1.321  -0.718  -0.760  0.00  0.00    -0.082 A 
ATOM      7  C5  PXY d   1       0.312   0.171  -0.865  0.00  0.00     0.003 A 
ATOM      8  C6  PXY d   1      -0.320   0.619   0.292  0.00  0.00     0.003 A 
ENDROOT
TORSDOF 0
ENDMDL
