MODEL 1
REMARK minimizedAffinity -3.30058026
REMARK minimizedRMSD -1
REMARK  0 active torsions:
REMARK  status: ('A' for Active; 'I' for Inactive)
ROOT
ATOM      1  C4' PXY d   1       1.948  -0.394  -1.130  0.00  0.00     0.077 C 
ATOM      2  C1' PXY d   1      -2.146   1.114   2.662  0.00  0.00     0.077 C 
ATOM      3  C1  PXY d   1      -1.081   0.717   1.658  0.00  0.00    -0.082 A 
ATOM      4  C2  PXY d   1       0.047   0.172   2.082  0.00  0.00     0.003 A 
ATOM      5  C3  PXY d   1       1.034  -0.163   1.191  0.00  0.00     0.003 A 
ATOM      6  C4  PXY d   1       0.842   0.013  -0.153  0.00  0.00    -0.082 A 
ATOM      7  C5  PXY d   1      -0.311   0.559  -0.595  0.00  0.00     0.003 A 
ATOM      8  C6  PXY d   1      -1.283   0.930   0.330  0.00  0.00     0.003 A 
ENDROOT
TORSDOF 0
ENDMDL
