MODEL 1
REMARK minimizedAffinity -4.82182121
REMARK minimizedRMSD -1
REMARK  0 active torsions:
REMARK  status: ('A' for Active; 'I' for Inactive)
ROOT
ATOM      1  C4' PXY d   1      -1.779   0.744   0.365  0.00  0.00     0.077 C 
ATOM      2  C1' PXY d   1       3.486  -1.027  -1.235  0.00  0.00     0.077 C 
ATOM      3  C1  PXY d   1       2.101  -0.574  -0.819  0.00  0.00    -0.082 A 
ATOM      4  C2  PXY d   1       1.813   0.718  -0.799  0.00  0.00     0.003 A 
ATOM      5  C3  PXY d   1       0.575   1.146  -0.394  0.00  0.00     0.003 A 
ATOM      6  C4  PXY d   1      -0.396   0.241  -0.058  0.00  0.00    -0.082 A 
ATOM      7  C5  PXY d   1      -0.113  -1.079  -0.085  0.00  0.00     0.003 A 
ATOM      8  C6  PXY d   1       1.162  -1.491  -0.459  0.00  0.00     0.003 A 
ENDROOT
TORSDOF 0
ENDMDL
