MODEL 1
REMARK minimizedAffinity -5.59933233
REMARK minimizedRMSD -1
REMARK  0 active torsions:
REMARK  status: ('A' for Active; 'I' for Inactive)
ROOT
ATOM      1  C4' PXY d   1       0.777  -3.874  -0.211  0.00  0.00     0.077 C 
ATOM      2  C1' PXY d   1       1.236   1.799  -1.223  0.00  0.00     0.077 C 
ATOM      3  C1  PXY d   1       1.121   0.309  -0.969  0.00  0.00    -0.082 A 
ATOM      4  C2  PXY d   1       0.214  -0.141  -0.118  0.00  0.00     0.003 A 
ATOM      5  C3  PXY d   1       0.118  -1.483   0.147  0.00  0.00     0.003 A 
ATOM      6  C4  PXY d   1       0.923  -2.378  -0.505  0.00  0.00    -0.082 A 
ATOM      7  C5  PXY d   1       1.844  -1.927  -1.383  0.00  0.00     0.003 A 
ATOM      8  C6  PXY d   1       1.954  -0.558  -1.607  0.00  0.00     0.003 A 
ENDROOT
TORSDOF 0
ENDMDL
