MODEL 1
REMARK minimizedAffinity -4.97659063
REMARK minimizedRMSD -1
REMARK  0 active torsions:
REMARK  status: ('A' for Active; 'I' for Inactive)
ROOT
ATOM      1  C4' PXY d   1      -1.573   0.446   0.896  0.00  0.00     0.077 C 
ATOM      2  C1' PXY d   1       3.457  -0.772  -1.679  0.00  0.00     0.077 C 
ATOM      3  C1  PXY d   1       2.134  -0.465  -1.006  0.00  0.00    -0.082 A 
ATOM      4  C2  PXY d   1       1.708   0.786  -0.941  0.00  0.00     0.003 A 
ATOM      5  C3  PXY d   1       0.529   1.085  -0.308  0.00  0.00     0.003 A 
ATOM      6  C4  PXY d   1      -0.247   0.088   0.218  0.00  0.00    -0.082 A 
ATOM      7  C5  PXY d   1       0.175  -1.192   0.146  0.00  0.00     0.003 A 
ATOM      8  C6  PXY d   1       1.394  -1.470  -0.464  0.00  0.00     0.003 A 
ENDROOT
TORSDOF 0
ENDMDL
