MODEL 1
REMARK minimizedAffinity -4.20518637
REMARK minimizedRMSD -1
REMARK  0 active torsions:
REMARK  status: ('A' for Active; 'I' for Inactive)
ROOT
ATOM      1  C4' PXY d   1      -1.089  -0.594   0.884  0.00  0.00     0.077 C 
ATOM      2  C1' PXY d   1       3.631  -0.421  -2.449  0.00  0.00     0.077 C 
ATOM      3  C1  PXY d   1       2.388  -0.475  -1.583  0.00  0.00    -0.082 A 
ATOM      4  C2  PXY d   1       2.102   0.541  -0.785  0.00  0.00     0.003 A 
ATOM      5  C3  PXY d   1       0.999   0.495   0.028  0.00  0.00     0.003 A 
ATOM      6  C4  PXY d   1       0.151  -0.579  -0.014  0.00  0.00    -0.082 A 
ATOM      7  C5  PXY d   1       0.430  -1.615  -0.834  0.00  0.00     0.003 A 
ATOM      8  C6  PXY d   1       1.577  -1.567  -1.621  0.00  0.00     0.003 A 
ENDROOT
TORSDOF 0
ENDMDL
