MODEL 1
REMARK minimizedAffinity -4.09562063
REMARK minimizedRMSD -1
REMARK  0 active torsions:
REMARK  status: ('A' for Active; 'I' for Inactive)
ROOT
ATOM      1  C4' PXY d   1      -1.122   2.223  -1.148  0.00  0.00     0.077 C 
ATOM      2  C1' PXY d   1       0.361  -3.319  -0.441  0.00  0.00     0.077 C 
ATOM      3  C1  PXY d   1      -0.041  -1.869  -0.625  0.00  0.00    -0.082 A 
ATOM      4  C2  PXY d   1       0.759  -1.048  -1.287  0.00  0.00     0.003 A 
ATOM      5  C3  PXY d   1       0.426   0.274  -1.435  0.00  0.00     0.003 A 
ATOM      6  C4  PXY d   1      -0.761   0.749  -0.946  0.00  0.00    -0.082 A 
ATOM      7  C5  PXY d   1      -1.587  -0.085  -0.279  0.00  0.00     0.003 A 
ATOM      8  C6  PXY d   1      -1.212  -1.414  -0.104  0.00  0.00     0.003 A 
ENDROOT
TORSDOF 0
ENDMDL
