MODEL 1
REMARK minimizedAffinity -4.88312387
REMARK minimizedRMSD -1
REMARK  0 active torsions:
REMARK  status: ('A' for Active; 'I' for Inactive)
ROOT
ATOM      1  C4' PXY d   1      -1.217   1.410   2.374  0.00  0.00     0.077 C 
ATOM      2  C1' PXY d   1       1.624  -1.707  -1.579  0.00  0.00     0.077 C 
ATOM      3  C1  PXY d   1       0.890  -0.885  -0.538  0.00  0.00    -0.082 A 
ATOM      4  C2  PXY d   1      -0.295  -1.283  -0.106  0.00  0.00     0.003 A 
ATOM      5  C3  PXY d   1      -0.987  -0.534   0.811  0.00  0.00     0.003 A 
ATOM      6  C4  PXY d   1      -0.436   0.606   1.331  0.00  0.00    -0.082 A 
ATOM      7  C5  PXY d   1       0.778   1.013   0.904  0.00  0.00     0.003 A 
ATOM      8  C6  PXY d   1       1.446   0.261  -0.058  0.00  0.00     0.003 A 
ENDROOT
TORSDOF 0
ENDMDL
