MODEL 1
REMARK minimizedAffinity -2.3468039
REMARK minimizedRMSD -1
REMARK  0 active torsions:
REMARK  status: ('A' for Active; 'I' for Inactive)
ROOT
ATOM      1  C4' PXY d   1      -2.218  -0.362   0.380  0.00  0.00     0.077 C 
ATOM      2  C1' PXY d   1       3.295  -0.666  -1.331  0.00  0.00     0.077 C 
ATOM      3  C1  PXY d   1       1.852  -0.575  -0.876  0.00  0.00    -0.082 A 
ATOM      4  C2  PXY d   1       1.137  -1.680  -0.742  0.00  0.00     0.003 A 
ATOM      5  C3  PXY d   1      -0.179  -1.613  -0.363  0.00  0.00     0.003 A 
ATOM      6  C4  PXY d   1      -0.754  -0.407  -0.067  0.00  0.00    -0.082 A 
ATOM      7  C5  PXY d   1      -0.029   0.725  -0.192  0.00  0.00     0.003 A 
ATOM      8  C6  PXY d   1       1.294   0.639  -0.618  0.00  0.00     0.003 A 
ENDROOT
TORSDOF 0
ENDMDL
