MODEL 1
REMARK minimizedAffinity -3.29054403
REMARK minimizedRMSD -1
REMARK  0 active torsions:
REMARK  status: ('A' for Active; 'I' for Inactive)
ROOT
ATOM      1  C4' PXY d   1       3.595  -0.496  -1.285  0.00  0.00     0.077 C 
ATOM      2  C1' PXY d   1      -1.918  -0.397   0.452  0.00  0.00     0.077 C 
ATOM      3  C1  PXY d   1      -0.471  -0.435   0.002  0.00  0.00    -0.082 A 
ATOM      4  C2  PXY d   1       0.184   0.698  -0.192  0.00  0.00     0.003 A 
ATOM      5  C3  PXY d   1       1.483   0.683  -0.630  0.00  0.00     0.003 A 
ATOM      6  C4  PXY d   1       2.136  -0.506  -0.821  0.00  0.00    -0.082 A 
ATOM      7  C5  PXY d   1       1.478  -1.666  -0.615  0.00  0.00     0.003 A 
ATOM      8  C6  PXY d   1       0.147  -1.629  -0.210  0.00  0.00     0.003 A 
ENDROOT
TORSDOF 0
ENDMDL
