MODEL 1
REMARK minimizedAffinity -4.91625404
REMARK minimizedRMSD -1
REMARK  0 active torsions:
REMARK  status: ('A' for Active; 'I' for Inactive)
ROOT
ATOM      1  C4' PXY d   1       1.666   2.751  -1.334  0.00  0.00     0.077 C 
ATOM      2  C1' PXY d   1      -0.055  -2.595   0.035  0.00  0.00     0.077 C 
ATOM      3  C1  PXY d   1       0.409  -1.197  -0.322  0.00  0.00    -0.082 A 
ATOM      4  C2  PXY d   1      -0.420  -0.176  -0.177  0.00  0.00     0.003 A 
ATOM      5  C3  PXY d   1      -0.028   1.091  -0.525  0.00  0.00     0.003 A 
ATOM      6  C4  PXY d   1       1.244   1.323  -0.977  0.00  0.00    -0.082 A 
ATOM      7  C5  PXY d   1       2.099   0.288  -1.118  0.00  0.00     0.003 A 
ATOM      8  C6  PXY d   1       1.668  -0.996  -0.798  0.00  0.00     0.003 A 
ENDROOT
TORSDOF 0
ENDMDL
