MODEL 1
REMARK minimizedAffinity -4.71526623
REMARK minimizedRMSD -1
REMARK  0 active torsions:
REMARK  status: ('A' for Active; 'I' for Inactive)
ROOT
ATOM      1  C4' PXY d   1      -1.707   0.176   0.792  0.00  0.00     0.077 C 
ATOM      2  C1' PXY d   1       3.410  -0.486  -1.815  0.00  0.00     0.077 C 
ATOM      3  C1  PXY d   1       2.065  -0.325  -1.133  0.00  0.00    -0.082 A 
ATOM      4  C2  PXY d   1       1.494   0.867  -1.086  0.00  0.00     0.003 A 
ATOM      5  C3  PXY d   1       0.293   1.037  -0.446  0.00  0.00     0.003 A 
ATOM      6  C4  PXY d   1      -0.355  -0.035   0.106  0.00  0.00    -0.082 A 
ATOM      7  C5  PXY d   1       0.216  -1.257   0.054  0.00  0.00     0.003 A 
ATOM      8  C6  PXY d   1       1.455  -1.401  -0.565  0.00  0.00     0.003 A 
ENDROOT
TORSDOF 0
ENDMDL
