MODEL 1
REMARK minimizedAffinity -3.78194642
REMARK minimizedRMSD -1
REMARK  0 active torsions:
REMARK  status: ('A' for Active; 'I' for Inactive)
ROOT
ATOM      1  C4' PXY d   1      -1.489   0.002   0.977  0.00  0.00     0.077 C 
ATOM      2  C1' PXY d   1       3.524  -0.741  -1.802  0.00  0.00     0.077 C 
ATOM      3  C1  PXY d   1       2.208  -0.535  -1.079  0.00  0.00    -0.082 A 
ATOM      4  C2  PXY d   1       1.967  -1.195   0.042  0.00  0.00     0.003 A 
ATOM      5  C3  PXY d   1       0.769  -1.044   0.692  0.00  0.00     0.003 A 
ATOM      6  C4  PXY d   1      -0.171  -0.168   0.218  0.00  0.00    -0.082 A 
ATOM      7  C5  PXY d   1       0.072   0.517  -0.919  0.00  0.00     0.003 A 
ATOM      8  C6  PXY d   1       1.278   0.319  -1.586  0.00  0.00     0.003 A 
ENDROOT
TORSDOF 0
ENDMDL
