MODEL 1
REMARK minimizedAffinity -4.50567055
REMARK minimizedRMSD -1
REMARK  0 active torsions:
REMARK  status: ('A' for Active; 'I' for Inactive)
ROOT
ATOM      1  C4' PXY d   1      -1.211   1.143   1.579  0.00  0.00     0.077 C 
ATOM      2  C1' PXY d   1       2.982  -0.601  -1.998  0.00  0.00     0.077 C 
ATOM      3  C1  PXY d   1       1.889  -0.132  -1.058  0.00  0.00    -0.082 A 
ATOM      4  C2  PXY d   1       1.138  -1.024  -0.432  0.00  0.00     0.003 A 
ATOM      5  C3  PXY d   1       0.124  -0.617   0.397  0.00  0.00     0.003 A 
ATOM      6  C4  PXY d   1      -0.089   0.716   0.628  0.00  0.00    -0.082 A 
ATOM      7  C5  PXY d   1       0.679   1.631   0.001  0.00  0.00     0.003 A 
ATOM      8  C6  PXY d   1       1.677   1.198  -0.868  0.00  0.00     0.003 A 
ENDROOT
TORSDOF 0
ENDMDL
