MODEL 1
REMARK minimizedAffinity -4.36412001
REMARK minimizedRMSD -1
REMARK  0 active torsions:
REMARK  status: ('A' for Active; 'I' for Inactive)
ROOT
ATOM      1  C4' PXY d   1       3.141  -0.703  -1.536  0.00  0.00     0.077 C 
ATOM      2  C1' PXY d   1      -2.272  -0.257   0.443  0.00  0.00     0.077 C 
ATOM      3  C1  PXY d   1      -0.851  -0.385  -0.070  0.00  0.00    -0.082 A 
ATOM      4  C2  PXY d   1      -0.185   0.700  -0.428  0.00  0.00     0.003 A 
ATOM      5  C3  PXY d   1       1.090   0.599  -0.924  0.00  0.00     0.003 A 
ATOM      6  C4  PXY d   1       1.707  -0.620  -1.004  0.00  0.00    -0.082 A 
ATOM      7  C5  PXY d   1       1.038  -1.731  -0.630  0.00  0.00     0.003 A 
ATOM      8  C6  PXY d   1      -0.270  -1.611  -0.168  0.00  0.00     0.003 A 
ENDROOT
TORSDOF 0
ENDMDL
