MODEL 1
REMARK minimizedAffinity -5.00967312
REMARK minimizedRMSD -1
REMARK  0 active torsions:
REMARK  status: ('A' for Active; 'I' for Inactive)
ROOT
ATOM      1  C4' PXY d   1      -1.918  -3.643  -0.640  0.00  0.00     0.077 C 
ATOM      2  C1' PXY d   1       0.715   1.500  -0.825  0.00  0.00     0.077 C 
ATOM      3  C1  PXY d   1       0.035   0.146  -0.783  0.00  0.00    -0.082 A 
ATOM      4  C2  PXY d   1      -1.278   0.078  -0.634  0.00  0.00     0.003 A 
ATOM      5  C3  PXY d   1      -1.906  -1.139  -0.562  0.00  0.00     0.003 A 
ATOM      6  C4  PXY d   1      -1.189  -2.297  -0.697  0.00  0.00    -0.082 A 
ATOM      7  C5  PXY d   1       0.149  -2.236  -0.860  0.00  0.00     0.003 A 
ATOM      8  C6  PXY d   1       0.773  -0.992  -0.889  0.00  0.00     0.003 A 
ENDROOT
TORSDOF 0
ENDMDL
