MODEL 1
REMARK minimizedAffinity -4.80275106
REMARK minimizedRMSD -1
REMARK  0 active torsions:
REMARK  status: ('A' for Active; 'I' for Inactive)
ROOT
ATOM      1  C4' PXY d   1       0.476  -3.831  -0.316  0.00  0.00     0.077 C 
ATOM      2  C1' PXY d   1       0.981   1.892  -0.957  0.00  0.00     0.077 C 
ATOM      3  C1  PXY d   1       0.859   0.389  -0.797  0.00  0.00    -0.082 A 
ATOM      4  C2  PXY d   1      -0.316  -0.144  -0.505  0.00  0.00     0.003 A 
ATOM      5  C3  PXY d   1      -0.438  -1.498  -0.325  0.00  0.00     0.003 A 
ATOM      6  C4  PXY d   1       0.644  -2.320  -0.497  0.00  0.00    -0.082 A 
ATOM      7  C5  PXY d   1       1.844  -1.784  -0.805  0.00  0.00     0.003 A 
ATOM      8  C6  PXY d   1       1.955  -0.403  -0.943  0.00  0.00     0.003 A 
ENDROOT
TORSDOF 0
ENDMDL
