MODEL 1
REMARK minimizedAffinity -3.26003242
REMARK minimizedRMSD -1
REMARK  0 active torsions:
REMARK  status: ('A' for Active; 'I' for Inactive)
ROOT
ATOM      1  C4' PXY d   1      -1.638   1.144  -0.020  0.00  0.00     0.077 C 
ATOM      2  C1' PXY d   1       3.237  -0.788  -2.453  0.00  0.00     0.077 C 
ATOM      3  C1  PXY d   1       1.962  -0.269  -1.817  0.00  0.00    -0.082 A 
ATOM      4  C2  PXY d   1       1.293  -1.037  -0.973  0.00  0.00     0.003 A 
ATOM      5  C3  PXY d   1       0.121  -0.596  -0.414  0.00  0.00     0.003 A 
ATOM      6  C4  PXY d   1      -0.341   0.665  -0.679  0.00  0.00    -0.082 A 
ATOM      7  C5  PXY d   1       0.342   1.459  -1.531  0.00  0.00     0.003 A 
ATOM      8  C6  PXY d   1       1.507   0.977  -2.120  0.00  0.00     0.003 A 
ENDROOT
TORSDOF 0
ENDMDL
