MODEL 1
REMARK minimizedAffinity -1.24327934
REMARK minimizedRMSD -1
REMARK  0 active torsions:
REMARK  status: ('A' for Active; 'I' for Inactive)
ROOT
ATOM      1  C   UNL d   1       5.971  -4.877  -3.243  0.00  0.00     0.023 A 
ATOM      2  C1  UNL d   1       5.967  -4.556  -4.600  0.00  0.00     0.003 A 
ATOM      3  C2  UNL d   1       4.863  -4.878  -5.392  0.00  0.00     0.048 A 
ATOM      4  C3  UNL d   1       3.766  -5.520  -4.820  0.00  0.00     0.023 A 
ATOM      5  C4  UNL d   1       3.765  -5.843  -3.462  0.00  0.00     0.048 A 
ATOM      6  C5  UNL d   1       4.871  -5.520  -2.675  0.00  0.00     0.003 A 
ATOM      7  I   UNL d   1       2.121  -6.000  -5.997  0.00  0.00    -0.146 I 
ENDROOT
TORSDOF 0
ENDMDL
