MODEL 1
REMARK minimizedAffinity 2.72449255
REMARK minimizedRMSD -1
REMARK  0 active torsions:
REMARK  status: ('A' for Active; 'I' for Inactive)
ROOT
ATOM      1  C   UNL d   1       5.999   4.137   1.509  0.00  0.00     0.023 A 
ATOM      2  C1  UNL d   1       4.931   4.679   2.224  0.00  0.00     0.003 A 
ATOM      3  C2  UNL d   1       3.641   4.179   2.041  0.00  0.00     0.048 A 
ATOM      4  C3  UNL d   1       3.425   3.135   1.142  0.00  0.00     0.023 A 
ATOM      5  C4  UNL d   1       4.491   2.589   0.424  0.00  0.00     0.048 A 
ATOM      6  C5  UNL d   1       5.780   3.093   0.610  0.00  0.00     0.003 A 
ATOM      7  I   UNL d   1       1.505   2.388   0.867  0.00  0.00    -0.146 I 
ENDROOT
TORSDOF 0
ENDMDL
