MODEL 1
REMARK minimizedAffinity 0.719666481
REMARK minimizedRMSD -1
REMARK  0 active torsions:
REMARK  status: ('A' for Active; 'I' for Inactive)
ROOT
ATOM      1  C   UNL d   1       4.079  -5.994  -5.998  0.00  0.00     0.023 A 
ATOM      2  C1  UNL d   1       3.232  -5.187  -5.238  0.00  0.00     0.003 A 
ATOM      3  C2  UNL d   1       3.766  -4.211  -4.394  0.00  0.00     0.048 A 
ATOM      4  C3  UNL d   1       5.148  -4.046  -4.317  0.00  0.00     0.023 A 
ATOM      5  C4  UNL d   1       6.000  -4.850  -5.076  0.00  0.00     0.048 A 
ATOM      6  C5  UNL d   1       5.461  -5.826  -5.917  0.00  0.00     0.003 A 
ATOM      7  I   UNL d   1       5.946  -2.593  -3.062  0.00  0.00    -0.146 I 
ENDROOT
TORSDOF 0
ENDMDL
