MODEL 1
REMARK minimizedAffinity 17.4156075
REMARK minimizedRMSD -1
REMARK  0 active torsions:
REMARK  status: ('A' for Active; 'I' for Inactive)
ROOT
ATOM      1  C   UNL d   1      -1.485  -4.608  -1.245  0.00  0.00     0.023 A 
ATOM      2  C1  UNL d   1      -1.437  -4.715   0.146  0.00  0.00     0.003 A 
ATOM      3  C2  UNL d   1      -1.543  -3.570   0.939  0.00  0.00     0.048 A 
ATOM      4  C3  UNL d   1      -1.699  -2.323   0.335  0.00  0.00     0.023 A 
ATOM      5  C4  UNL d   1      -1.748  -2.212  -1.055  0.00  0.00     0.048 A 
ATOM      6  C5  UNL d   1      -1.641  -3.358  -1.844  0.00  0.00     0.003 A 
ATOM      7  I   UNL d   1      -1.857  -0.618   1.514  0.00  0.00    -0.146 I 
ENDROOT
TORSDOF 0
ENDMDL
