MODEL 1
REMARK minimizedAffinity 15.4862461
REMARK minimizedRMSD -1
REMARK  0 active torsions:
REMARK  status: ('A' for Active; 'I' for Inactive)
ROOT
ATOM      1  C   UNL d   1      -0.324   2.378   2.392  0.00  0.00     0.023 A 
ATOM      2  C1  UNL d   1      -0.520   2.434   1.012  0.00  0.00     0.003 A 
ATOM      3  C2  UNL d   1       0.513   2.077   0.144  0.00  0.00     0.048 A 
ATOM      4  C3  UNL d   1       1.740   1.665   0.662  0.00  0.00     0.023 A 
ATOM      5  C4  UNL d   1       1.941   1.607   2.042  0.00  0.00     0.048 A 
ATOM      6  C5  UNL d   1       0.905   1.965   2.907  0.00  0.00     0.003 A 
ATOM      7  I   UNL d   1       3.280   1.134  -0.629  0.00  0.00    -0.146 I 
ENDROOT
TORSDOF 0
ENDMDL
