MODEL 1
REMARK minimizedAffinity 15.7537422
REMARK minimizedRMSD -1
REMARK  0 active torsions:
REMARK  status: ('A' for Active; 'I' for Inactive)
ROOT
ATOM      1  C   UNL d   1       2.235  -6.000  -5.177  0.00  0.00     0.023 A 
ATOM      2  C1  UNL d   1       2.119  -5.613  -3.842  0.00  0.00     0.003 A 
ATOM      3  C2  UNL d   1       2.950  -4.617  -3.327  0.00  0.00     0.048 A 
ATOM      4  C3  UNL d   1       3.895  -4.010  -4.153  0.00  0.00     0.023 A 
ATOM      5  C4  UNL d   1       4.015  -4.392  -5.490  0.00  0.00     0.048 A 
ATOM      6  C5  UNL d   1       3.182  -5.390  -6.000  0.00  0.00     0.003 A 
ATOM      7  I   UNL d   1       5.134  -2.526  -3.389  0.00  0.00    -0.146 I 
ENDROOT
TORSDOF 0
ENDMDL
