MODEL 1
REMARK minimizedAffinity 13.0368423
REMARK minimizedRMSD -1
REMARK  0 active torsions:
REMARK  status: ('A' for Active; 'I' for Inactive)
ROOT
ATOM      1  C   UNL d   1       3.259   4.768   0.540  0.00  0.00     0.023 A 
ATOM      2  C1  UNL d   1       3.383   3.607   1.304  0.00  0.00     0.003 A 
ATOM      3  C2  UNL d   1       4.072   3.640   2.518  0.00  0.00     0.048 A 
ATOM      4  C3  UNL d   1       4.634   4.836   2.962  0.00  0.00     0.023 A 
ATOM      5  C4  UNL d   1       4.511   6.000   2.202  0.00  0.00     0.048 A 
ATOM      6  C5  UNL d   1       3.822   5.962   0.988  0.00  0.00     0.003 A 
ATOM      7  I   UNL d   1       5.660   4.887   4.769  0.00  0.00    -0.146 I 
ENDROOT
TORSDOF 0
ENDMDL
