MODEL 1
REMARK minimizedAffinity 5.76760578
REMARK minimizedRMSD -1
REMARK  0 active torsions:
REMARK  status: ('A' for Active; 'I' for Inactive)
ROOT
ATOM      1  C   UNL d   1       4.083  -5.883  -5.916  0.00  0.00     0.023 A 
ATOM      2  C1  UNL d   1       3.285  -5.395  -4.882  0.00  0.00     0.003 A 
ATOM      3  C2  UNL d   1       3.832  -4.548  -3.915  0.00  0.00     0.048 A 
ATOM      4  C3  UNL d   1       5.178  -4.193  -3.990  0.00  0.00     0.023 A 
ATOM      5  C4  UNL d   1       5.981  -4.678  -5.024  0.00  0.00     0.048 A 
ATOM      6  C5  UNL d   1       5.429  -5.525  -5.987  0.00  0.00     0.003 A 
ATOM      7  I   UNL d   1       5.995  -2.932  -2.553  0.00  0.00    -0.146 I 
ENDROOT
TORSDOF 0
ENDMDL
