MODEL 1
REMARK minimizedAffinity 8.22046661
REMARK minimizedRMSD -1
REMARK  0 active torsions:
REMARK  status: ('A' for Active; 'I' for Inactive)
ROOT
ATOM      1  C   UNL d   1       3.378  -4.813  -5.999  0.00  0.00     0.023 A 
ATOM      2  C1  UNL d   1       2.315  -5.668  -5.704  0.00  0.00     0.003 A 
ATOM      3  C2  UNL d   1       2.032  -6.000  -4.378  0.00  0.00     0.048 A 
ATOM      4  C3  UNL d   1       2.814  -5.473  -3.351  0.00  0.00     0.023 A 
ATOM      5  C4  UNL d   1       3.878  -4.617  -3.640  0.00  0.00     0.048 A 
ATOM      6  C5  UNL d   1       4.158  -4.289  -4.968  0.00  0.00     0.003 A 
ATOM      7  I   UNL d   1       2.394  -5.966  -1.376  0.00  0.00    -0.146 I 
ENDROOT
TORSDOF 0
ENDMDL
