MODEL 1
REMARK minimizedAffinity 7.07418299
REMARK minimizedRMSD -1
REMARK  0 active torsions:
REMARK  status: ('A' for Active; 'I' for Inactive)
ROOT
ATOM      1  C   UNL d   1      -1.444   3.662   2.131  0.00  0.00     0.023 A 
ATOM      2  C1  UNL d   1      -1.243   3.354   0.785  0.00  0.00     0.003 A 
ATOM      3  C2  UNL d   1      -0.002   2.884   0.353  0.00  0.00     0.048 A 
ATOM      4  C3  UNL d   1       1.035   2.723   1.271  0.00  0.00     0.023 A 
ATOM      5  C4  UNL d   1       0.839   3.029   2.619  0.00  0.00     0.048 A 
ATOM      6  C5  UNL d   1      -0.404   3.500   3.046  0.00  0.00     0.003 A 
ATOM      7  I   UNL d   1       2.884   2.023   0.630  0.00  0.00    -0.146 I 
ENDROOT
TORSDOF 0
ENDMDL
