MODEL 1
REMARK minimizedAffinity 0.586603701
REMARK minimizedRMSD -1
REMARK  0 active torsions:
REMARK  status: ('A' for Active; 'I' for Inactive)
ROOT
ATOM      1  C   UNL d   1      -1.367   3.382  -4.608  0.00  0.00     0.023 A 
ATOM      2  C1  UNL d   1      -1.900   4.218  -5.588  0.00  0.00     0.003 A 
ATOM      3  C2  UNL d   1      -3.229   4.067  -5.989  0.00  0.00     0.048 A 
ATOM      4  C3  UNL d   1      -4.019   3.078  -5.405  0.00  0.00     0.023 A 
ATOM      5  C4  UNL d   1      -3.490   2.239  -4.422  0.00  0.00     0.048 A 
ATOM      6  C5  UNL d   1      -2.160   2.394  -4.025  0.00  0.00     0.003 A 
ATOM      7  I   UNL d   1      -5.998   2.850  -5.999  0.00  0.00    -0.146 I 
ENDROOT
TORSDOF 0
ENDMDL
