MODEL 1
REMARK minimizedAffinity -2.19477129
REMARK minimizedRMSD -1
REMARK  0 active torsions:
REMARK  status: ('A' for Active; 'I' for Inactive)
ROOT
ATOM      1  C   UNL d   1       3.228  -4.843  -2.122  0.00  0.00     0.023 A 
ATOM      2  C1  UNL d   1       2.684  -5.614  -3.149  0.00  0.00     0.003 A 
ATOM      3  C2  UNL d   1       3.461  -5.946  -4.261  0.00  0.00     0.048 A 
ATOM      4  C3  UNL d   1       4.782  -5.504  -4.338  0.00  0.00     0.023 A 
ATOM      5  C4  UNL d   1       5.330  -4.733  -3.312  0.00  0.00     0.048 A 
ATOM      6  C5  UNL d   1       4.549  -4.403  -2.203  0.00  0.00     0.003 A 
ATOM      7  I   UNL d   1       5.940  -5.998  -5.991  0.00  0.00    -0.146 I 
ENDROOT
TORSDOF 0
ENDMDL
