MODEL 1
REMARK minimizedAffinity 7.37296629
REMARK minimizedRMSD -1
REMARK  0 active torsions:
REMARK  status: ('A' for Active; 'I' for Inactive)
ROOT
ATOM      1  C   UNL d   1       3.001   1.844   1.508  0.00  0.00     0.023 A 
ATOM      2  C1  UNL d   1       1.648   1.611   1.264  0.00  0.00     0.003 A 
ATOM      3  C2  UNL d   1       1.179   1.524  -0.048  0.00  0.00     0.048 A 
ATOM      4  C3  UNL d   1       2.069   1.671  -1.112  0.00  0.00     0.023 A 
ATOM      5  C4  UNL d   1       3.424   1.904  -0.872  0.00  0.00     0.048 A 
ATOM      6  C5  UNL d   1       3.888   1.991   0.442  0.00  0.00     0.003 A 
ATOM      7  I   UNL d   1       1.373   1.543  -3.066  0.00  0.00    -0.146 I 
ENDROOT
TORSDOF 0
ENDMDL
