MODEL 1
REMARK minimizedAffinity 8.46239471
REMARK minimizedRMSD -1
REMARK  0 active torsions:
REMARK  status: ('A' for Active; 'I' for Inactive)
ROOT
ATOM      1  C   UNL d   1      -5.958   3.016  -5.254  0.00  0.00     0.023 A 
ATOM      2  C1  UNL d   1      -5.891   2.400  -4.005  0.00  0.00     0.003 A 
ATOM      3  C2  UNL d   1      -4.659   1.985  -3.495  0.00  0.00     0.048 A 
ATOM      4  C3  UNL d   1      -3.498   2.189  -4.239  0.00  0.00     0.023 A 
ATOM      5  C4  UNL d   1      -3.560   2.806  -5.490  0.00  0.00     0.048 A 
ATOM      6  C5  UNL d   1      -4.794   3.219  -5.996  0.00  0.00     0.003 A 
ATOM      7  I   UNL d   1      -1.664   1.571  -3.482  0.00  0.00    -0.146 I 
ENDROOT
TORSDOF 0
ENDMDL
