MODEL 1
REMARK minimizedAffinity 11.486886
REMARK minimizedRMSD -1
REMARK  0 active torsions:
REMARK  status: ('A' for Active; 'I' for Inactive)
ROOT
ATOM      1  C   UNL d   1      -2.985  -5.199   1.158  0.00  0.00     0.023 A 
ATOM      2  C1  UNL d   1      -1.732  -4.606   1.003  0.00  0.00     0.003 A 
ATOM      3  C2  UNL d   1      -1.422  -3.926  -0.176  0.00  0.00     0.048 A 
ATOM      4  C3  UNL d   1      -2.370  -3.840  -1.195  0.00  0.00     0.023 A 
ATOM      5  C4  UNL d   1      -3.626  -4.430  -1.043  0.00  0.00     0.048 A 
ATOM      6  C5  UNL d   1      -3.931  -5.111   0.137  0.00  0.00     0.003 A 
ATOM      7  I   UNL d   1      -1.911  -2.827  -2.951  0.00  0.00    -0.146 I 
ENDROOT
TORSDOF 0
ENDMDL
