MODEL 1
REMARK minimizedAffinity 6.16995382
REMARK minimizedRMSD -1
REMARK  0 active torsions:
REMARK  status: ('A' for Active; 'I' for Inactive)
ROOT
ATOM      1  C   UNL d   1       2.249  -1.199  -2.312  0.00  0.00     0.023 A 
ATOM      2  C1  UNL d   1       1.850  -0.020  -2.942  0.00  0.00     0.003 A 
ATOM      3  C2  UNL d   1       1.697   1.153  -2.200  0.00  0.00     0.048 A 
ATOM      4  C3  UNL d   1       1.946   1.140  -0.828  0.00  0.00     0.023 A 
ATOM      5  C4  UNL d   1       2.347  -0.036  -0.193  0.00  0.00     0.048 A 
ATOM      6  C5  UNL d   1       2.498  -1.207  -0.939  0.00  0.00     0.003 A 
ATOM      7  I   UNL d   1       1.720   2.885   0.278  0.00  0.00    -0.146 I 
ENDROOT
TORSDOF 0
ENDMDL
