MODEL 1
REMARK minimizedAffinity 3.9579289
REMARK minimizedRMSD -1
REMARK  0 active torsions:
REMARK  status: ('A' for Active; 'I' for Inactive)
ROOT
ATOM      1  C   UNL d   1       1.621  -1.646  -2.761  0.00  0.00     0.023 A 
ATOM      2  C1  UNL d   1       1.353  -0.344  -3.185  0.00  0.00     0.003 A 
ATOM      3  C2  UNL d   1       1.485   0.723  -2.294  0.00  0.00     0.048 A 
ATOM      4  C3  UNL d   1       1.885   0.481  -0.980  0.00  0.00     0.023 A 
ATOM      5  C4  UNL d   1       2.155  -0.819  -0.551  0.00  0.00     0.048 A 
ATOM      6  C5  UNL d   1       2.022  -1.883  -1.446  0.00  0.00     0.003 A 
ATOM      7  I   UNL d   1       2.081   2.068   0.348  0.00  0.00    -0.146 I 
ENDROOT
TORSDOF 0
ENDMDL
