MODEL 1
REMARK minimizedAffinity 11.2598181
REMARK minimizedRMSD -1
REMARK  0 active torsions:
REMARK  status: ('A' for Active; 'I' for Inactive)
ROOT
ATOM      1  C   UNL d   1       2.542   3.220   0.010  0.00  0.00     0.023 A 
ATOM      2  C1  UNL d   1       2.886   2.334   1.031  0.00  0.00     0.003 A 
ATOM      3  C2  UNL d   1       1.887   1.699   1.772  0.00  0.00     0.048 A 
ATOM      4  C3  UNL d   1       0.547   1.954   1.486  0.00  0.00     0.023 A 
ATOM      5  C4  UNL d   1       0.198   2.840   0.465  0.00  0.00     0.048 A 
ATOM      6  C5  UNL d   1       1.200   3.473  -0.273  0.00  0.00     0.003 A 
ATOM      7  I   UNL d   1      -0.942   1.010   2.588  0.00  0.00    -0.146 I 
ENDROOT
TORSDOF 0
ENDMDL
