MODEL 1
REMARK minimizedAffinity -4.29859877
REMARK minimizedRMSD -1
REMARK  0 active torsions:
REMARK  status: ('A' for Active; 'I' for Inactive)
ROOT
ATOM      1  C4' PXY d   1       2.113   0.131   3.350  0.00  0.00     0.077 C 
ATOM      2  C1' PXY d   1      -2.292   0.613  -0.362  0.00  0.00     0.077 C 
ATOM      3  C1  PXY d   1      -1.143   0.495   0.620  0.00  0.00    -0.082 A 
ATOM      4  C2  PXY d   1       0.056   0.143   0.184  0.00  0.00     0.003 A 
ATOM      5  C3  PXY d   1       1.099   0.000   1.063  0.00  0.00     0.003 A 
ATOM      6  C4  PXY d   1       0.926   0.272   2.394  0.00  0.00    -0.082 A 
ATOM      7  C5  PXY d   1      -0.292   0.642   2.844  0.00  0.00     0.003 A 
ATOM      8  C6  PXY d   1      -1.347   0.742   1.942  0.00  0.00     0.003 A 
ENDROOT
TORSDOF 0
ENDMDL
