MODEL 1
REMARK minimizedAffinity -4.81824827
REMARK minimizedRMSD -1
REMARK  0 active torsions:
REMARK  status: ('A' for Active; 'I' for Inactive)
ROOT
ATOM      1  C4' PXY d   1       0.547  -1.169  -2.606  0.00  0.00     0.077 C 
ATOM      2  C1' PXY d   1      -1.495   0.982   2.356  0.00  0.00     0.077 C 
ATOM      3  C1  PXY d   1      -0.948   0.424   1.057  0.00  0.00    -0.082 A 
ATOM      4  C2  PXY d   1      -1.782   0.094   0.084  0.00  0.00     0.003 A 
ATOM      5  C3  PXY d   1      -1.307  -0.442  -1.085  0.00  0.00     0.003 A 
ATOM      6  C4  PXY d   1       0.040  -0.593  -1.281  0.00  0.00    -0.082 A 
ATOM      7  C5  PXY d   1       0.898  -0.249  -0.298  0.00  0.00     0.003 A 
ATOM      8  C6  PXY d   1       0.393   0.255   0.898  0.00  0.00     0.003 A 
ENDROOT
TORSDOF 0
ENDMDL
