MODEL 1
REMARK minimizedAffinity -4.40852499
REMARK minimizedRMSD -1
REMARK  0 active torsions:
REMARK  status: ('A' for Active; 'I' for Inactive)
ROOT
ATOM      1  C4' PXY d   1       1.711   0.191   3.573  0.00  0.00     0.077 C 
ATOM      2  C1' PXY d   1      -2.582   0.773  -0.255  0.00  0.00     0.077 C 
ATOM      3  C1  PXY d   1      -1.462   0.629   0.758  0.00  0.00    -0.082 A 
ATOM      4  C2  PXY d   1      -0.249   0.297   0.348  0.00  0.00     0.003 A 
ATOM      5  C3  PXY d   1       0.768   0.131   1.253  0.00  0.00     0.003 A 
ATOM      6  C4  PXY d   1       0.552   0.358   2.586  0.00  0.00    -0.082 A 
ATOM      7  C5  PXY d   1      -0.681   0.706   3.011  0.00  0.00     0.003 A 
ATOM      8  C6  PXY d   1      -1.709   0.830   2.080  0.00  0.00     0.003 A 
ENDROOT
TORSDOF 0
ENDMDL
