MODEL 1
REMARK minimizedAffinity -4.4299593
REMARK minimizedRMSD -1
REMARK  0 active torsions:
REMARK  status: ('A' for Active; 'I' for Inactive)
ROOT
ATOM      1  C4' PXY d   1       0.325  -0.565  -0.969  0.00  0.00     0.077 C 
ATOM      2  C1' PXY d   1       0.018   1.284   4.499  0.00  0.00     0.077 C 
ATOM      3  C1  PXY d   1       0.111   0.801   3.065  0.00  0.00    -0.082 A 
ATOM      4  C2  PXY d   1      -0.966   0.821   2.297  0.00  0.00     0.003 A 
ATOM      5  C3  PXY d   1      -0.907   0.359   1.007  0.00  0.00     0.003 A 
ATOM      6  C4  PXY d   1       0.280  -0.079   0.482  0.00  0.00    -0.082 A 
ATOM      7  C5  PXY d   1       1.385  -0.092   1.256  0.00  0.00     0.003 A 
ATOM      8  C6  PXY d   1       1.295   0.343   2.575  0.00  0.00     0.003 A 
ENDROOT
TORSDOF 0
ENDMDL
