MODEL 1
REMARK minimizedAffinity -4.81672859
REMARK minimizedRMSD -1
REMARK  0 active torsions:
REMARK  status: ('A' for Active; 'I' for Inactive)
ROOT
ATOM      1  C4' PXY d   1       0.530  -0.816  -1.085  0.00  0.00     0.077 C 
ATOM      2  C1' PXY d   1      -0.544   1.592   4.059  0.00  0.00     0.077 C 
ATOM      3  C1  PXY d   1      -0.275   0.961   2.707  0.00  0.00    -0.082 A 
ATOM      4  C2  PXY d   1       0.801   0.211   2.538  0.00  0.00     0.003 A 
ATOM      5  C3  PXY d   1       1.076  -0.341   1.313  0.00  0.00     0.003 A 
ATOM      6  C4  PXY d   1       0.213  -0.167   0.265  0.00  0.00    -0.082 A 
ATOM      7  C5  PXY d   1      -0.893   0.588   0.433  0.00  0.00     0.003 A 
ATOM      8  C6  PXY d   1      -1.133   1.174   1.672  0.00  0.00     0.003 A 
ENDROOT
TORSDOF 0
ENDMDL
