MODEL 1
REMARK minimizedAffinity -5.97579288
REMARK minimizedRMSD -1
REMARK  0 active torsions:
REMARK  status: ('A' for Active; 'I' for Inactive)
ROOT
ATOM      1  C4' PXY d   1      -0.728   1.872   3.149  0.00  0.00     0.077 C 
ATOM      2  C1' PXY d   1       0.351  -1.306  -1.557  0.00  0.00     0.077 C 
ATOM      3  C1  PXY d   1       0.055  -0.471  -0.327  0.00  0.00    -0.082 A 
ATOM      4  C2  PXY d   1       1.051   0.111   0.323  0.00  0.00     0.003 A 
ATOM      5  C3  PXY d   1       0.805   0.843   1.456  0.00  0.00     0.003 A 
ATOM      6  C4  PXY d   1      -0.478   1.027   1.897  0.00  0.00    -0.082 A 
ATOM      7  C5  PXY d   1      -1.500   0.446   1.233  0.00  0.00     0.003 A 
ATOM      8  C6  PXY d   1      -1.225  -0.328   0.109  0.00  0.00     0.003 A 
ENDROOT
TORSDOF 0
ENDMDL
