MODEL 1
REMARK minimizedAffinity -4.99857998
REMARK minimizedRMSD -1
REMARK  2 active torsions:
REMARK  status: ('A' for Active; 'I' for Inactive)
REMARK    1  A    between atoms: C2'_3  and  C1'_4 
REMARK    2  A    between atoms: C1'_4  and  C1_5 
ROOT
ATOM      1  C1  I4B d   1       0.708  -0.334  -0.315  0.00  0.00    -0.075 A 
ATOM      2  C2  I4B d   1      -0.010   0.054   0.788  0.00  0.00     0.003 A 
ATOM      3  C3  I4B d   1       0.344  -0.424   2.073  0.00  0.00     0.002 A 
ATOM      4  C4  I4B d   1       1.384  -1.321   2.202  0.00  0.00    -0.004 A 
ATOM      5  C5  I4B d   1       2.126  -1.696   1.085  0.00  0.00     0.002 A 
ATOM      6  C6  I4B d   1       1.794  -1.190  -0.180  0.00  0.00     0.003 A 
ENDROOT
BRANCH   1   7
ATOM      7  C1' I4B d   1       0.287   0.164  -1.662  0.00  0.00     0.060 C 
BRANCH   7   8
ATOM      8  C2' I4B d   1      -0.275   1.560  -1.488  0.00  0.00    -0.013 C 
ATOM      9  C4' I4B d   1       0.748   2.607  -1.840  0.00  0.00     0.013 C 
ATOM     10  C3' I4B d   1      -1.493   1.680  -2.355  0.00  0.00     0.013 C 
ENDBRANCH   7   8
ENDBRANCH   1   7
TORSDOF 2
ENDMDL
