MODEL 1
REMARK minimizedAffinity -1.96361339
REMARK minimizedRMSD -1
REMARK  2 active torsions:
REMARK  status: ('A' for Active; 'I' for Inactive)
REMARK    1  A    between atoms: C2'_3  and  C1'_4 
REMARK    2  A    between atoms: C1'_4  and  C1_5 
ROOT
ATOM      1  C1  I4B d   1      -0.179   0.272  -1.210  0.00  0.00    -0.075 A 
ATOM      2  C2  I4B d   1       0.982  -0.387  -1.527  0.00  0.00     0.003 A 
ATOM      3  C3  I4B d   1       1.675  -1.126  -0.537  0.00  0.00     0.002 A 
ATOM      4  C4  I4B d   1       1.201  -1.136   0.759  0.00  0.00    -0.004 A 
ATOM      5  C5  I4B d   1       0.012  -0.486   1.073  0.00  0.00     0.002 A 
ATOM      6  C6  I4B d   1      -0.690   0.212   0.080  0.00  0.00     0.003 A 
ENDROOT
BRANCH   1   7
ATOM      7  C1' I4B d   1      -0.868   1.070  -2.271  0.00  0.00     0.060 C 
BRANCH   7   8
ATOM      8  C2' I4B d   1      -0.276   2.465  -2.265  0.00  0.00    -0.013 C 
ATOM      9  C4' I4B d   1       0.916   2.556  -3.181  0.00  0.00     0.013 C 
ATOM     10  C3' I4B d   1      -1.351   3.425  -2.678  0.00  0.00     0.013 C 
ENDBRANCH   7   8
ENDBRANCH   1   7
TORSDOF 2
ENDMDL
