MODEL 1
REMARK minimizedAffinity -4.50959539
REMARK minimizedRMSD -1
REMARK  2 active torsions:
REMARK  status: ('A' for Active; 'I' for Inactive)
REMARK    1  A    between atoms: C2'_3  and  C1'_4 
REMARK    2  A    between atoms: C1'_4  and  C1_5 
ROOT
ATOM      1  C1  I4B d   1      -0.112   0.016  -0.527  0.00  0.00    -0.075 A 
ATOM      2  C2  I4B d   1      -1.186  -0.033   0.326  0.00  0.00     0.003 A 
ATOM      3  C3  I4B d   1      -0.984  -0.201   1.718  0.00  0.00     0.002 A 
ATOM      4  C4  I4B d   1       0.297  -0.365   2.203  0.00  0.00    -0.004 A 
ATOM      5  C5  I4B d   1       1.386  -0.292   1.340  0.00  0.00     0.002 A 
ATOM      6  C6  I4B d   1       1.182  -0.088  -0.033  0.00  0.00     0.003 A 
ENDROOT
BRANCH   1   7
ATOM      7  C1' I4B d   1      -0.363   0.161  -1.995  0.00  0.00     0.060 C 
BRANCH   7   8
ATOM      8  C2' I4B d   1      -0.538   1.635  -2.295  0.00  0.00    -0.013 C 
ATOM      9  C4' I4B d   1       0.619   2.169  -3.099  0.00  0.00     0.013 C 
ATOM     10  C3' I4B d   1      -1.834   1.808  -3.030  0.00  0.00     0.013 C 
ENDBRANCH   7   8
ENDBRANCH   1   7
TORSDOF 2
ENDMDL
