MODEL 1
REMARK minimizedAffinity -3.08769989
REMARK minimizedRMSD -1
REMARK  2 active torsions:
REMARK  status: ('A' for Active; 'I' for Inactive)
REMARK    1  A    between atoms: C2'_3  and  C1'_4 
REMARK    2  A    between atoms: C1'_4  and  C1_5 
ROOT
ATOM      1  C1  I4B d   1      -1.010   0.910  -1.509  0.00  0.00    -0.075 A 
ATOM      2  C2  I4B d   1       0.058   1.731  -1.775  0.00  0.00     0.003 A 
ATOM      3  C3  I4B d   1      -0.120   2.904  -2.548  0.00  0.00     0.002 A 
ATOM      4  C4  I4B d   1      -1.363   3.189  -3.074  0.00  0.00    -0.004 A 
ATOM      5  C5  I4B d   1      -2.449   2.368  -2.785  0.00  0.00     0.002 A 
ATOM      6  C6  I4B d   1      -2.275   1.228  -1.987  0.00  0.00     0.003 A 
ENDROOT
BRANCH   1   7
ATOM      7  C1' I4B d   1      -0.781  -0.337  -0.717  0.00  0.00     0.060 C 
BRANCH   7   8
ATOM      8  C2' I4B d   1       0.543  -0.194   0.007  0.00  0.00    -0.013 C 
ATOM      9  C4' I4B d   1       0.385  -0.432   1.485  0.00  0.00     0.013 C 
ATOM     10  C3' I4B d   1       1.509  -1.169  -0.598  0.00  0.00     0.013 C 
ENDBRANCH   7   8
ENDBRANCH   1   7
TORSDOF 2
ENDMDL
