MODEL 1
REMARK minimizedAffinity -2.18236327
REMARK minimizedRMSD -1
REMARK  2 active torsions:
REMARK  status: ('A' for Active; 'I' for Inactive)
REMARK    1  A    between atoms: C2'_3  and  C1'_4 
REMARK    2  A    between atoms: C1'_4  and  C1_5 
ROOT
ATOM      1  C1  I4B d   1      -0.285   0.622  -2.276  0.00  0.00    -0.075 A 
ATOM      2  C2  I4B d   1      -1.630   0.897  -2.299  0.00  0.00     0.003 A 
ATOM      3  C3  I4B d   1      -2.128   1.952  -3.102  0.00  0.00     0.002 A 
ATOM      4  C4  I4B d   1      -1.246   2.732  -3.822  0.00  0.00    -0.004 A 
ATOM      5  C5  I4B d   1       0.114   2.437  -3.816  0.00  0.00     0.002 A 
ATOM      6  C6  I4B d   1       0.597   1.368  -3.047  0.00  0.00     0.003 A 
ENDROOT
BRANCH   1   7
ATOM      7  C1' I4B d   1       0.210  -0.478  -1.391  0.00  0.00     0.060 C 
BRANCH   7   8
ATOM      8  C2' I4B d   1       0.102  -0.006   0.045  0.00  0.00    -0.013 C 
ATOM      9  C4' I4B d   1      -1.190  -0.458   0.671  0.00  0.00     0.013 C 
ATOM     10  C3' I4B d   1       1.285  -0.539   0.797  0.00  0.00     0.013 C 
ENDBRANCH   7   8
ENDBRANCH   1   7
TORSDOF 2
ENDMDL
