MODEL 1
REMARK minimizedAffinity -4.11750698
REMARK minimizedRMSD -1
REMARK  2 active torsions:
REMARK  status: ('A' for Active; 'I' for Inactive)
REMARK    1  A    between atoms: C2'_3  and  C1'_4 
REMARK    2  A    between atoms: C1'_4  and  C1_5 
ROOT
ATOM      1  C1  I4B d   1       0.197  -0.900   0.302  0.00  0.00    -0.075 A 
ATOM      2  C2  I4B d   1      -0.710  -1.003   1.326  0.00  0.00     0.003 A 
ATOM      3  C3  I4B d   1      -0.273  -1.305   2.638  0.00  0.00     0.002 A 
ATOM      4  C4  I4B d   1       1.066  -1.545   2.870  0.00  0.00    -0.004 A 
ATOM      5  C5  I4B d   1       1.988  -1.417   1.835  0.00  0.00     0.002 A 
ATOM      6  C6  I4B d   1       1.553  -1.080   0.545  0.00  0.00     0.003 A 
ENDROOT
BRANCH   1   7
ATOM      7  C1' I4B d   1      -0.303  -0.612  -1.078  0.00  0.00     0.060 C 
BRANCH   7   8
ATOM      8  C2' I4B d   1      -1.037   0.713  -1.042  0.00  0.00    -0.013 C 
ATOM      9  C4' I4B d   1      -0.165   1.834  -1.544  0.00  0.00     0.013 C 
ATOM     10  C3' I4B d   1      -2.278   0.578  -1.873  0.00  0.00     0.013 C 
ENDBRANCH   7   8
ENDBRANCH   1   7
TORSDOF 2
ENDMDL
