MODEL 1
REMARK minimizedAffinity -0.0765257105
REMARK minimizedRMSD -1
REMARK  0 active torsions:
REMARK  status: ('A' for Active; 'I' for Inactive)
ROOT
ATOM      1  N1  IND d   1      -0.519   0.819   3.203  0.00  0.00    -0.196 N 
ATOM      2  C2  IND d   1       0.474  -0.121   3.182  0.00  0.00     0.054 A 
ATOM      3  C3  IND d   1       0.714  -0.523   1.913  0.00  0.00    -0.031 A 
ATOM      4  C4  IND d   1      -0.332   0.301  -0.290  0.00  0.00     0.051 A 
ATOM      5  C5  IND d   1      -1.309   1.125  -0.777  0.00  0.00    -0.031 A 
ATOM      6  C6  IND d   1      -2.085   1.906   0.054  0.00  0.00     0.015 A 
ATOM      7  C7  IND d   1      -1.906   1.901   1.409  0.00  0.00    -0.016 A 
ATOM      8  C8  IND d   1      -0.920   1.061   1.908  0.00  0.00    -0.047 A 
ATOM      9  C9  IND d   1      -0.158   0.234   1.073  0.00  0.00    -0.096 A 
ATOM     10  HN1 IND d   1      -0.838   1.195   3.907  0.00  0.00     0.298 HD
ENDROOT
TORSDOF 0
ENDMDL
