MODEL 1
REMARK minimizedAffinity -3.39188981
REMARK minimizedRMSD -1
REMARK  0 active torsions:
REMARK  status: ('A' for Active; 'I' for Inactive)
ROOT
ATOM      1  N1  IND d   1       1.969   0.798  -1.675  0.00  0.00    -0.196 N 
ATOM      2  C2  IND d   1       2.329  -0.494  -1.410  0.00  0.00     0.054 A 
ATOM      3  C3  IND d   1       1.389  -1.099  -0.651  0.00  0.00    -0.031 A 
ATOM      4  C4  IND d   1      -0.870  -0.191   0.187  0.00  0.00     0.051 A 
ATOM      5  C5  IND d   1      -1.623   0.948   0.230  0.00  0.00    -0.031 A 
ATOM      6  C6  IND d   1      -1.211   2.119  -0.374  0.00  0.00     0.015 A 
ATOM      7  C7  IND d   1      -0.030   2.190  -1.057  0.00  0.00    -0.016 A 
ATOM      8  C8  IND d   1       0.741   1.037  -1.097  0.00  0.00    -0.047 A 
ATOM      9  C9  IND d   1       0.348  -0.141  -0.449  0.00  0.00    -0.096 A 
ATOM     10  HN1 IND d   1       2.430   1.366  -2.126  0.00  0.00     0.298 HD
ENDROOT
TORSDOF 0
ENDMDL
