MODEL 1
REMARK minimizedAffinity -2.58585882
REMARK minimizedRMSD -1
REMARK  0 active torsions:
REMARK  status: ('A' for Active; 'I' for Inactive)
ROOT
ATOM      1  N1  IND d   1      -1.059   1.630   1.211  0.00  0.00    -0.196 N 
ATOM      2  C2  IND d   1      -1.301   0.830   2.292  0.00  0.00     0.054 A 
ATOM      3  C3  IND d   1      -0.659  -0.352   2.156  0.00  0.00    -0.031 A 
ATOM      4  C4  IND d   1       0.925  -1.147   0.288  0.00  0.00     0.051 A 
ATOM      5  C5  IND d   1       1.424  -0.779  -0.930  0.00  0.00    -0.031 A 
ATOM      6  C6  IND d   1       1.118   0.437  -1.506  0.00  0.00     0.015 A 
ATOM      7  C7  IND d   1       0.305   1.338  -0.879  0.00  0.00    -0.016 A 
ATOM      8  C8  IND d   1      -0.209   0.965   0.355  0.00  0.00    -0.047 A 
ATOM      9  C9  IND d   1       0.064  -0.284   0.926  0.00  0.00    -0.096 A 
ATOM     10  HN1 IND d   1      -1.383   2.417   1.087  0.00  0.00     0.298 HD
ENDROOT
TORSDOF 0
ENDMDL
