MODEL 1
REMARK minimizedAffinity -4.23194122
REMARK minimizedRMSD -1
REMARK  0 active torsions:
REMARK  status: ('A' for Active; 'I' for Inactive)
ROOT
ATOM      1  N1  IND d   1       0.743  -1.003   0.114  0.00  0.00    -0.196 N 
ATOM      2  C2  IND d   1       0.082  -1.302  -1.045  0.00  0.00     0.054 A 
ATOM      3  C3  IND d   1      -1.105  -0.656  -1.089  0.00  0.00    -0.031 A 
ATOM      4  C4  IND d   1      -2.119   1.019   0.583  0.00  0.00     0.051 A 
ATOM      5  C5  IND d   1      -1.903   1.580   1.810  0.00  0.00    -0.031 A 
ATOM      6  C6  IND d   1      -0.770   1.306   2.548  0.00  0.00     0.015 A 
ATOM      7  C7  IND d   1       0.199   0.465   2.080  0.00  0.00    -0.016 A 
ATOM      8  C8  IND d   1      -0.020  -0.113   0.837  0.00  0.00    -0.047 A 
ATOM      9  C9  IND d   1      -1.188   0.129   0.102  0.00  0.00    -0.096 A 
ATOM     10  HN1 IND d   1       1.507  -1.319   0.351  0.00  0.00     0.298 HD
ENDROOT
TORSDOF 0
ENDMDL
