MODEL 1
REMARK minimizedAffinity 0.233061388
REMARK minimizedRMSD -1
REMARK  0 active torsions:
REMARK  status: ('A' for Active; 'I' for Inactive)
ROOT
ATOM      1  N1  IND d   1       0.496   2.630  -1.351  0.00  0.00    -0.196 N 
ATOM      2  C2  IND d   1       1.289   1.631  -1.843  0.00  0.00     0.054 A 
ATOM      3  C3  IND d   1       1.234   0.547  -1.037  0.00  0.00    -0.031 A 
ATOM      4  C4  IND d   1      -0.172   0.156   1.084  0.00  0.00     0.051 A 
ATOM      5  C5  IND d   1      -1.023   0.790   1.944  0.00  0.00    -0.031 A 
ATOM      6  C6  IND d   1      -1.422   2.096   1.745  0.00  0.00     0.015 A 
ATOM      7  C7  IND d   1      -0.991   2.816   0.666  0.00  0.00    -0.016 A 
ATOM      8  C8  IND d   1      -0.121   2.177  -0.206  0.00  0.00    -0.047 A 
ATOM      9  C9  IND d   1       0.321   0.866   0.014  0.00  0.00    -0.096 A 
ATOM     10  HN1 IND d   1       0.398   3.410  -1.699  0.00  0.00     0.298 HD
ENDROOT
TORSDOF 0
ENDMDL
