MODEL 1
REMARK minimizedAffinity -3.28683734
REMARK minimizedRMSD -1
REMARK  0 active torsions:
REMARK  status: ('A' for Active; 'I' for Inactive)
ROOT
ATOM      1  N1  IND d   1      -0.290   0.442  -1.215  0.00  0.00    -0.196 N 
ATOM      2  C2  IND d   1       0.536  -0.636  -1.056  0.00  0.00     0.054 A 
ATOM      3  C3  IND d   1       0.695  -0.917   0.257  0.00  0.00    -0.031 A 
ATOM      4  C4  IND d   1      -0.388   0.196   2.310  0.00  0.00     0.051 A 
ATOM      5  C5  IND d   1      -1.187   1.245   2.671  0.00  0.00    -0.031 A 
ATOM      6  C6  IND d   1      -1.741   2.095   1.736  0.00  0.00     0.015 A 
ATOM      7  C7  IND d   1      -1.525   1.920   0.398  0.00  0.00    -0.016 A 
ATOM      8  C8  IND d   1      -0.708   0.861   0.028  0.00  0.00    -0.047 A 
ATOM      9  C9  IND d   1      -0.109   0.020   0.975  0.00  0.00    -0.096 A 
ATOM     10  HN1 IND d   1      -0.511   0.798  -1.966  0.00  0.00     0.298 HD
ENDROOT
TORSDOF 0
ENDMDL
