MODEL 1
REMARK minimizedAffinity -5.65205956
REMARK minimizedRMSD -1
REMARK  0 active torsions:
REMARK  status: ('A' for Active; 'I' for Inactive)
ROOT
ATOM      1  N1  IND d   1       0.900   0.281  -0.665  0.00  0.00    -0.196 N 
ATOM      2  C2  IND d   1       1.478  -0.536   0.267  0.00  0.00     0.054 A 
ATOM      3  C3  IND d   1       0.824  -0.441   1.446  0.00  0.00    -0.031 A 
ATOM      4  C4  IND d   1      -1.282   0.914   2.044  0.00  0.00     0.051 A 
ATOM      5  C5  IND d   1      -2.149   1.839   1.534  0.00  0.00    -0.031 A 
ATOM      6  C6  IND d   1      -2.043   2.299   0.237  0.00  0.00     0.015 A 
ATOM      7  C7  IND d   1      -1.069   1.841  -0.604  0.00  0.00    -0.016 A 
ATOM      8  C8  IND d   1      -0.183   0.907  -0.087  0.00  0.00    -0.047 A 
ATOM      9  C9  IND d   1      -0.259   0.468   1.241  0.00  0.00    -0.096 A 
ATOM     10  HN1 IND d   1       1.168   0.387  -1.475  0.00  0.00     0.298 HD
ENDROOT
TORSDOF 0
ENDMDL
