MODEL 1
REMARK minimizedAffinity -2.41689944
REMARK minimizedRMSD -1
REMARK  0 active torsions:
REMARK  status: ('A' for Active; 'I' for Inactive)
ROOT
ATOM      1  N1  IND d   1       0.023   1.836  -0.325  0.00  0.00    -0.196 N 
ATOM      2  C2  IND d   1       0.621   0.830  -1.032  0.00  0.00     0.054 A 
ATOM      3  C3  IND d   1       0.750  -0.274  -0.262  0.00  0.00    -0.031 A 
ATOM      4  C4  IND d   1      -0.042  -0.686   2.152  0.00  0.00     0.051 A 
ATOM      5  C5  IND d   1      -0.607  -0.053   3.223  0.00  0.00    -0.031 A 
ATOM      6  C6  IND d   1      -1.002   1.268   3.164  0.00  0.00     0.015 A 
ATOM      7  C7  IND d   1      -0.856   2.005   2.023  0.00  0.00    -0.016 A 
ATOM      8  C8  IND d   1      -0.275   1.367   0.936  0.00  0.00    -0.047 A 
ATOM      9  C9  IND d   1       0.166   0.040   1.003  0.00  0.00    -0.096 A 
ATOM     10  HN1 IND d   1      -0.139   2.628  -0.618  0.00  0.00     0.298 HD
ENDROOT
TORSDOF 0
ENDMDL
