MODEL 1
REMARK minimizedAffinity -3.89374542
REMARK minimizedRMSD -1
REMARK  0 active torsions:
REMARK  status: ('A' for Active; 'I' for Inactive)
ROOT
ATOM      1  N1  IND d   1      -1.567   0.418   1.783  0.00  0.00    -0.196 N 
ATOM      2  C2  IND d   1      -2.369   1.501   1.553  0.00  0.00     0.054 A 
ATOM      3  C3  IND d   1      -1.875   2.244   0.537  0.00  0.00    -0.031 A 
ATOM      4  C4  IND d   1       0.178   1.815  -0.955  0.00  0.00     0.051 A 
ATOM      5  C5  IND d   1       1.244   0.973  -1.105  0.00  0.00    -0.031 A 
ATOM      6  C6  IND d   1       1.429  -0.122  -0.285  0.00  0.00     0.015 A 
ATOM      7  C7  IND d   1       0.545  -0.422   0.713  0.00  0.00    -0.016 A 
ATOM      8  C8  IND d   1      -0.534   0.436   0.873  0.00  0.00    -0.047 A 
ATOM      9  C9  IND d   1      -0.704   1.572   0.071  0.00  0.00    -0.096 A 
ATOM     10  HN1 IND d   1      -1.688  -0.175   2.395  0.00  0.00     0.298 HD
ENDROOT
TORSDOF 0
ENDMDL
