MODEL 1
REMARK minimizedAffinity -3.14376473
REMARK minimizedRMSD -1
REMARK  0 active torsions:
REMARK  status: ('A' for Active; 'I' for Inactive)
ROOT
ATOM      1  N1  IND d   1      -0.832  -0.382   0.514  0.00  0.00    -0.196 N 
ATOM      2  C2  IND d   1      -1.702   0.672   0.514  0.00  0.00     0.054 A 
ATOM      3  C3  IND d   1      -1.202   1.695  -0.215  0.00  0.00    -0.031 A 
ATOM      4  C4  IND d   1       0.979   1.819  -1.578  0.00  0.00     0.051 A 
ATOM      5  C5  IND d   1       2.118   1.117  -1.853  0.00  0.00    -0.031 A 
ATOM      6  C6  IND d   1       2.336  -0.148  -1.346  0.00  0.00     0.015 A 
ATOM      7  C7  IND d   1       1.413  -0.764  -0.549  0.00  0.00    -0.016 A 
ATOM      8  C8  IND d   1       0.258  -0.051  -0.262  0.00  0.00    -0.047 A 
ATOM      9  C9  IND d   1       0.050   1.250  -0.739  0.00  0.00    -0.096 A 
ATOM     10  HN1 IND d   1      -0.945  -1.126   0.930  0.00  0.00     0.298 HD
ENDROOT
TORSDOF 0
ENDMDL
