MODEL 1
REMARK minimizedAffinity -2.04856491
REMARK minimizedRMSD -1
REMARK  0 active torsions:
REMARK  status: ('A' for Active; 'I' for Inactive)
ROOT
ATOM      1  N1  IND d   1       0.851   0.143  -1.123  0.00  0.00    -0.196 N 
ATOM      2  C2  IND d   1       0.776  -1.219  -1.219  0.00  0.00     0.054 A 
ATOM      3  C3  IND d   1       0.027  -1.721  -0.212  0.00  0.00    -0.031 A 
ATOM      4  C4  IND d   1      -1.255  -0.483   1.646  0.00  0.00     0.051 A 
ATOM      5  C5  IND d   1      -1.459   0.763   2.168  0.00  0.00    -0.031 A 
ATOM      6  C6  IND d   1      -0.894   1.890   1.606  0.00  0.00     0.015 A 
ATOM      7  C7  IND d   1      -0.110   1.813   0.490  0.00  0.00    -0.016 A 
ATOM      8  C8  IND d   1       0.105   0.548  -0.038  0.00  0.00    -0.047 A 
ATOM      9  C9  IND d   1      -0.431  -0.604   0.552  0.00  0.00    -0.096 A 
ATOM     10  HN1 IND d   1       1.291   0.659  -1.651  0.00  0.00     0.298 HD
ENDROOT
TORSDOF 0
ENDMDL
