MODEL 1
REMARK minimizedAffinity -2.55569816
REMARK minimizedRMSD -1
REMARK  0 active torsions:
REMARK  status: ('A' for Active; 'I' for Inactive)
ROOT
ATOM      1  N1  IND d   1       0.009   0.715  -1.077  0.00  0.00    -0.196 N 
ATOM      2  C2  IND d   1       0.801  -0.396  -1.174  0.00  0.00     0.054 A 
ATOM      3  C3  IND d   1       0.953  -0.972   0.040  0.00  0.00    -0.031 A 
ATOM      4  C4  IND d   1      -0.090  -0.322   2.302  0.00  0.00     0.051 A 
ATOM      5  C5  IND d   1      -0.855   0.641   2.898  0.00  0.00    -0.031 A 
ATOM      6  C6  IND d   1      -1.384   1.697   2.185  0.00  0.00     0.015 A 
ATOM      7  C7  IND d   1      -1.176   1.825   0.841  0.00  0.00    -0.016 A 
ATOM      8  C8  IND d   1      -0.394   0.853   0.233  0.00  0.00    -0.047 A 
ATOM      9  C9  IND d   1       0.180  -0.198   0.959  0.00  0.00    -0.096 A 
ATOM     10  HN1 IND d   1      -0.202   1.238  -1.725  0.00  0.00     0.298 HD
ENDROOT
TORSDOF 0
ENDMDL
