MODEL 1
REMARK minimizedAffinity -3.37597489
REMARK minimizedRMSD -1
REMARK  0 active torsions:
REMARK  status: ('A' for Active; 'I' for Inactive)
ROOT
ATOM      1  N1  IND d   1       0.364   1.178  -0.536  0.00  0.00    -0.196 N 
ATOM      2  C2  IND d   1       0.959  -0.039  -0.718  0.00  0.00     0.054 A 
ATOM      3  C3  IND d   1       0.603  -0.889   0.271  0.00  0.00    -0.031 A 
ATOM      4  C4  IND d   1      -1.024  -0.526   2.233  0.00  0.00     0.051 A 
ATOM      5  C5  IND d   1      -1.784   0.435   2.838  0.00  0.00    -0.031 A 
ATOM      6  C6  IND d   1      -1.871   1.718   2.338  0.00  0.00     0.015 A 
ATOM      7  C7  IND d   1      -1.207   2.086   1.202  0.00  0.00    -0.016 A 
ATOM      8  C8  IND d   1      -0.428   1.115   0.589  0.00  0.00    -0.047 A 
ATOM      9  C9  IND d   1      -0.302  -0.177   1.116  0.00  0.00    -0.096 A 
ATOM     10  HN1 IND d   1       0.467   1.867  -1.040  0.00  0.00     0.298 HD
ENDROOT
TORSDOF 0
ENDMDL
