MODEL 1
REMARK minimizedAffinity -1.59981132
REMARK minimizedRMSD -1
REMARK  0 active torsions:
REMARK  status: ('A' for Active; 'I' for Inactive)
ROOT
ATOM      1  C1  BNZ d   1      -5.456   0.437   4.012  0.00  0.00     0.000 A 
ATOM      2  C2  BNZ d   1      -5.995   0.591   5.261  0.00  0.00     0.000 A 
ATOM      3  C3  BNZ d   1      -6.000   1.812   5.875  0.00  0.00     0.000 A 
ATOM      4  C4  BNZ d   1      -5.430   2.867   5.258  0.00  0.00     0.000 A 
ATOM      5  C5  BNZ d   1      -4.874   2.726   4.002  0.00  0.00     0.000 A 
ATOM      6  C6  BNZ d   1      -4.906   1.504   3.370  0.00  0.00     0.000 A 
ENDROOT
TORSDOF 0
ENDMDL
