MODEL 1
REMARK minimizedAffinity 4.08037281
REMARK minimizedRMSD -1
REMARK  0 active torsions:
REMARK  status: ('A' for Active; 'I' for Inactive)
ROOT
ATOM      1  C1  BNZ d   1       1.516   4.282  -4.525  0.00  0.00     0.000 A 
ATOM      2  C2  BNZ d   1       1.298   5.149  -5.563  0.00  0.00     0.000 A 
ATOM      3  C3  BNZ d   1       2.284   5.993  -5.989  0.00  0.00     0.000 A 
ATOM      4  C4  BNZ d   1       3.473   5.999  -5.353  0.00  0.00     0.000 A 
ATOM      5  C5  BNZ d   1       3.706   5.138  -4.299  0.00  0.00     0.000 A 
ATOM      6  C6  BNZ d   1       2.724   4.262  -3.898  0.00  0.00     0.000 A 
ENDROOT
TORSDOF 0
ENDMDL
