MODEL 1
REMARK minimizedAffinity 11.240695
REMARK minimizedRMSD -1
REMARK  0 active torsions:
REMARK  status: ('A' for Active; 'I' for Inactive)
ROOT
ATOM      1  C1  BNZ d   1      -1.484  -4.860   2.271  0.00  0.00     0.000 A 
ATOM      2  C2  BNZ d   1      -2.244  -5.999   2.245  0.00  0.00     0.000 A 
ATOM      3  C3  BNZ d   1      -3.492  -5.996   1.687  0.00  0.00     0.000 A 
ATOM      4  C4  BNZ d   1      -3.994  -4.846   1.193  0.00  0.00     0.000 A 
ATOM      5  C5  BNZ d   1      -3.245  -3.687   1.220  0.00  0.00     0.000 A 
ATOM      6  C6  BNZ d   1      -1.974  -3.703   1.747  0.00  0.00     0.000 A 
ENDROOT
TORSDOF 0
ENDMDL
