MODEL 1
REMARK minimizedAffinity 13.6778116
REMARK minimizedRMSD -1
REMARK  0 active torsions:
REMARK  status: ('A' for Active; 'I' for Inactive)
ROOT
ATOM      1  C1  BNZ d   1      -2.603  -2.100  -0.750  0.00  0.00     0.000 A 
ATOM      2  C2  BNZ d   1      -1.780  -3.189  -0.636  0.00  0.00     0.000 A 
ATOM      3  C3  BNZ d   1      -1.205  -3.510   0.561  0.00  0.00     0.000 A 
ATOM      4  C4  BNZ d   1      -1.421  -2.721   1.634  0.00  0.00     0.000 A 
ATOM      5  C5  BNZ d   1      -2.241  -1.614   1.533  0.00  0.00     0.000 A 
ATOM      6  C6  BNZ d   1      -2.849  -1.316   0.335  0.00  0.00     0.000 A 
ENDROOT
TORSDOF 0
ENDMDL
