MODEL 1
REMARK minimizedAffinity 10.217351
REMARK minimizedRMSD -1
REMARK  0 active torsions:
REMARK  status: ('A' for Active; 'I' for Inactive)
ROOT
ATOM      1  C1  BNZ d   1      -4.733   1.885   2.277  0.00  0.00     0.000 A 
ATOM      2  C2  BNZ d   1      -4.049   3.057   2.462  0.00  0.00     0.000 A 
ATOM      3  C3  BNZ d   1      -3.012   3.130   3.349  0.00  0.00     0.000 A 
ATOM      4  C4  BNZ d   1      -2.686   2.044   4.079  0.00  0.00     0.000 A 
ATOM      5  C5  BNZ d   1      -3.372   0.858   3.912  0.00  0.00     0.000 A 
ATOM      6  C6  BNZ d   1      -4.390   0.777   2.989  0.00  0.00     0.000 A 
ENDROOT
TORSDOF 0
ENDMDL
