MODEL 1
REMARK minimizedAffinity 2.45921087
REMARK minimizedRMSD -1
REMARK  0 active torsions:
REMARK  status: ('A' for Active; 'I' for Inactive)
ROOT
ATOM      1  C1  BNZ d   1      -5.997   5.992   4.059  0.00  0.00     0.000 A 
ATOM      2  C2  BNZ d   1      -5.221   5.163   3.293  0.00  0.00     0.000 A 
ATOM      3  C3  BNZ d   1      -4.316   4.319   3.873  0.00  0.00     0.000 A 
ATOM      4  C4  BNZ d   1      -4.161   4.332   5.213  0.00  0.00     0.000 A 
ATOM      5  C5  BNZ d   1      -4.930   5.168   5.998  0.00  0.00     0.000 A 
ATOM      6  C6  BNZ d   1      -5.867   5.989   5.414  0.00  0.00     0.000 A 
ENDROOT
TORSDOF 0
ENDMDL
