MODEL 1
REMARK minimizedAffinity 9.04855919
REMARK minimizedRMSD -1
REMARK  0 active torsions:
REMARK  status: ('A' for Active; 'I' for Inactive)
ROOT
ATOM      1  C1  BNZ d   1      -1.631  -5.741   2.207  0.00  0.00     0.000 A 
ATOM      2  C2  BNZ d   1      -1.101  -4.495   2.009  0.00  0.00     0.000 A 
ATOM      3  C3  BNZ d   1      -1.852  -3.494   1.459  0.00  0.00     0.000 A 
ATOM      4  C4  BNZ d   1      -3.119  -3.751   1.073  0.00  0.00     0.000 A 
ATOM      5  C5  BNZ d   1      -3.665  -5.006   1.257  0.00  0.00     0.000 A 
ATOM      6  C6  BNZ d   1      -2.918  -6.000   1.846  0.00  0.00     0.000 A 
ENDROOT
TORSDOF 0
ENDMDL
