MODEL 1
REMARK minimizedAffinity 15.1121187
REMARK minimizedRMSD -1
REMARK  0 active torsions:
REMARK  status: ('A' for Active; 'I' for Inactive)
ROOT
ATOM      1  C1  BNZ d   1      -5.577  -4.017  -3.246  0.00  0.00     0.000 A 
ATOM      2  C2  BNZ d   1      -4.801  -2.938  -3.575  0.00  0.00     0.000 A 
ATOM      3  C3  BNZ d   1      -3.466  -2.920  -3.280  0.00  0.00     0.000 A 
ATOM      4  C4  BNZ d   1      -2.918  -3.962  -2.622  0.00  0.00     0.000 A 
ATOM      5  C5  BNZ d   1      -3.690  -5.054  -2.275  0.00  0.00     0.000 A 
ATOM      6  C6  BNZ d   1      -5.024  -5.085  -2.608  0.00  0.00     0.000 A 
ENDROOT
TORSDOF 0
ENDMDL
