MODEL 1
REMARK minimizedAffinity 15.5947351
REMARK minimizedRMSD -1
REMARK  0 active torsions:
REMARK  status: ('A' for Active; 'I' for Inactive)
ROOT
ATOM      1  C1  BNZ d   1       0.603   1.518   3.376  0.00  0.00     0.000 A 
ATOM      2  C2  BNZ d   1       1.072   1.046   4.573  0.00  0.00     0.000 A 
ATOM      3  C3  BNZ d   1       2.185   0.256   4.626  0.00  0.00     0.000 A 
ATOM      4  C4  BNZ d   1       2.805  -0.094   3.481  0.00  0.00     0.000 A 
ATOM      5  C5  BNZ d   1       2.339   0.366   2.265  0.00  0.00     0.000 A 
ATOM      6  C6  BNZ d   1       1.240   1.193   2.219  0.00  0.00     0.000 A 
ENDROOT
TORSDOF 0
ENDMDL
