MODEL 1
REMARK minimizedAffinity 8.46583843
REMARK minimizedRMSD -1
REMARK  0 active torsions:
REMARK  status: ('A' for Active; 'I' for Inactive)
ROOT
ATOM      1  C1  BNZ d   1      -2.327   6.000   0.424  0.00  0.00     0.000 A 
ATOM      2  C2  BNZ d   1      -3.030   5.999  -0.751  0.00  0.00     0.000 A 
ATOM      3  C3  BNZ d   1      -2.810   5.037  -1.697  0.00  0.00     0.000 A 
ATOM      4  C4  BNZ d   1      -1.861   4.102  -1.484  0.00  0.00     0.000 A 
ATOM      5  C5  BNZ d   1      -1.138   4.096  -0.308  0.00  0.00     0.000 A 
ATOM      6  C6  BNZ d   1      -1.389   5.042   0.658  0.00  0.00     0.000 A 
ENDROOT
TORSDOF 0
ENDMDL
