MODEL 1
REMARK minimizedAffinity 5.93980026
REMARK minimizedRMSD -1
REMARK  0 active torsions:
REMARK  status: ('A' for Active; 'I' for Inactive)
ROOT
ATOM      1  C1  BNZ d   1      -5.311  -3.735  -3.033  0.00  0.00     0.000 A 
ATOM      2  C2  BNZ d   1      -5.998  -4.872  -2.700  0.00  0.00     0.000 A 
ATOM      3  C3  BNZ d   1      -5.335  -5.995  -2.289  0.00  0.00     0.000 A 
ATOM      4  C4  BNZ d   1      -3.987  -5.993  -2.250  0.00  0.00     0.000 A 
ATOM      5  C5  BNZ d   1      -3.280  -4.857  -2.592  0.00  0.00     0.000 A 
ATOM      6  C6  BNZ d   1      -3.952  -3.717  -2.967  0.00  0.00     0.000 A 
ENDROOT
TORSDOF 0
ENDMDL
