MODEL 1
REMARK minimizedAffinity 14.1555424
REMARK minimizedRMSD -1
REMARK  0 active torsions:
REMARK  status: ('A' for Active; 'I' for Inactive)
ROOT
ATOM      1  C1  BNZ d   1       0.476  -0.222   3.192  0.00  0.00     0.000 A 
ATOM      2  C2  BNZ d   1       1.019   0.732   4.011  0.00  0.00     0.000 A 
ATOM      3  C3  BNZ d   1       0.717   0.765   5.344  0.00  0.00     0.000 A 
ATOM      4  C4  BNZ d   1      -0.157  -0.130   5.848  0.00  0.00     0.000 A 
ATOM      5  C5  BNZ d   1      -0.720  -1.092   5.033  0.00  0.00     0.000 A 
ATOM      6  C6  BNZ d   1      -0.384  -1.147   3.700  0.00  0.00     0.000 A 
ENDROOT
TORSDOF 0
ENDMDL
