MODEL 1
REMARK minimizedAffinity 11.4686308
REMARK minimizedRMSD -1
REMARK  0 active torsions:
REMARK  status: ('A' for Active; 'I' for Inactive)
ROOT
ATOM      1  C1  BNZ d   1      -1.504  -3.654   1.886  0.00  0.00     0.000 A 
ATOM      2  C2  BNZ d   1      -0.903  -4.815   2.292  0.00  0.00     0.000 A 
ATOM      3  C3  BNZ d   1      -1.597  -5.993   2.313  0.00  0.00     0.000 A 
ATOM      4  C4  BNZ d   1      -2.901  -6.000   1.967  0.00  0.00     0.000 A 
ATOM      5  C5  BNZ d   1      -3.524  -4.835   1.564  0.00  0.00     0.000 A 
ATOM      6  C6  BNZ d   1      -2.811  -3.659   1.507  0.00  0.00     0.000 A 
ENDROOT
TORSDOF 0
ENDMDL
