MODEL 1
REMARK minimizedAffinity 12.1934128
REMARK minimizedRMSD -1
REMARK  0 active torsions:
REMARK  status: ('A' for Active; 'I' for Inactive)
ROOT
ATOM      1  C1  BNZ d   1      -1.111  -2.676   3.297  0.00  0.00     0.000 A 
ATOM      2  C2  BNZ d   1      -0.986  -1.606   2.452  0.00  0.00     0.000 A 
ATOM      3  C3  BNZ d   1      -1.187  -1.748   1.108  0.00  0.00     0.000 A 
ATOM      4  C4  BNZ d   1      -1.473  -2.966   0.605  0.00  0.00     0.000 A 
ATOM      5  C5  BNZ d   1      -1.593  -4.057   1.443  0.00  0.00     0.000 A 
ATOM      6  C6  BNZ d   1      -1.428  -3.903   2.800  0.00  0.00     0.000 A 
ENDROOT
TORSDOF 0
ENDMDL
