MODEL 1
REMARK minimizedAffinity 11.9917345
REMARK minimizedRMSD -1
REMARK  0 active torsions:
REMARK  status: ('A' for Active; 'I' for Inactive)
ROOT
ATOM      1  C1  BNZ d   1       3.212   5.139  -3.895  0.00  0.00     0.000 A 
ATOM      2  C2  BNZ d   1       3.108   5.993  -4.961  0.00  0.00     0.000 A 
ATOM      3  C3  BNZ d   1       2.263   5.715  -6.000  0.00  0.00     0.000 A 
ATOM      4  C4  BNZ d   1       1.555   4.567  -5.990  0.00  0.00     0.000 A 
ATOM      5  C5  BNZ d   1       1.657   3.692  -4.927  0.00  0.00     0.000 A 
ATOM      6  C6  BNZ d   1       2.479   3.994  -3.865  0.00  0.00     0.000 A 
ENDROOT
TORSDOF 0
ENDMDL
