MODEL 1
REMARK minimizedAffinity 4.25460815
REMARK minimizedRMSD -1
REMARK  0 active torsions:
REMARK  status: ('A' for Active; 'I' for Inactive)
ROOT
ATOM      1  C1  BNZ d   1      -5.667  -4.485  -3.443  0.00  0.00     0.000 A 
ATOM      2  C2  BNZ d   1      -4.907  -3.387  -3.745  0.00  0.00     0.000 A 
ATOM      3  C3  BNZ d   1      -3.630  -3.267  -3.271  0.00  0.00     0.000 A 
ATOM      4  C4  BNZ d   1      -3.130  -4.225  -2.464  0.00  0.00     0.000 A 
ATOM      5  C5  BNZ d   1      -3.887  -5.334  -2.143  0.00  0.00     0.000 A 
ATOM      6  C6  BNZ d   1      -5.158  -5.470  -2.654  0.00  0.00     0.000 A 
ENDROOT
TORSDOF 0
ENDMDL
