MODEL 1
REMARK minimizedAffinity -3.75152349
REMARK minimizedRMSD -1
REMARK  0 active torsions:
REMARK  status: ('A' for Active; 'I' for Inactive)
ROOT
ATOM      1  C4' PXY d   1      -5.999  -2.362  -5.589  0.00  0.00     0.077 C 
ATOM      2  C1' PXY d   1      -1.520  -6.000  -5.245  0.00  0.00     0.077 C 
ATOM      3  C1  PXY d   1      -2.701  -5.054  -5.343  0.00  0.00    -0.082 A 
ATOM      4  C2  PXY d   1      -2.514  -3.754  -5.182  0.00  0.00     0.003 A 
ATOM      5  C3  PXY d   1      -3.576  -2.889  -5.235  0.00  0.00     0.003 A 
ATOM      6  C4  PXY d   1      -4.835  -3.353  -5.508  0.00  0.00    -0.082 A 
ATOM      7  C5  PXY d   1      -5.032  -4.676  -5.684  0.00  0.00     0.003 A 
ATOM      8  C6  PXY d   1      -3.948  -5.543  -5.585  0.00  0.00     0.003 A 
ENDROOT
TORSDOF 0
ENDMDL
