MODEL 1
REMARK minimizedAffinity -4.06168318
REMARK minimizedRMSD -1
REMARK  0 active torsions:
REMARK  status: ('A' for Active; 'I' for Inactive)
ROOT
ATOM      1  C4' PXY d   1      -6.000  -3.239  -4.859  0.00  0.00     0.077 C 
ATOM      2  C1' PXY d   1      -0.979  -5.999  -5.626  0.00  0.00     0.077 C 
ATOM      3  C1  PXY d   1      -2.302  -5.287  -5.424  0.00  0.00    -0.082 A 
ATOM      4  C2  PXY d   1      -2.439  -4.035  -5.829  0.00  0.00     0.003 A 
ATOM      5  C3  PXY d   1      -3.618  -3.365  -5.626  0.00  0.00     0.003 A 
ATOM      6  C4  PXY d   1      -4.686  -4.001  -5.050  0.00  0.00    -0.082 A 
ATOM      7  C5  PXY d   1      -4.557  -5.282  -4.644  0.00  0.00     0.003 A 
ATOM      8  C6  PXY d   1      -3.339  -5.931  -4.822  0.00  0.00     0.003 A 
ENDROOT
TORSDOF 0
ENDMDL
