MODEL 1
REMARK minimizedAffinity -3.71417403
REMARK minimizedRMSD -1
REMARK  0 active torsions:
REMARK  status: ('A' for Active; 'I' for Inactive)
ROOT
ATOM      1  C4' PXY d   1      -1.137  -5.981  -5.999  0.00  0.00     0.077 C 
ATOM      2  C1' PXY d   1      -5.996  -3.738  -3.815  0.00  0.00     0.077 C 
ATOM      3  C1  PXY d   1      -4.729  -4.336  -4.392  0.00  0.00    -0.082 A 
ATOM      4  C2  PXY d   1      -3.556  -4.007  -3.876  0.00  0.00     0.003 A 
ATOM      5  C3  PXY d   1      -2.397  -4.514  -4.407  0.00  0.00     0.003 A 
ATOM      6  C4  PXY d   1      -2.443  -5.408  -5.442  0.00  0.00    -0.082 A 
ATOM      7  C5  PXY d   1      -3.637  -5.758  -5.968  0.00  0.00     0.003 A 
ATOM      8  C6  PXY d   1      -4.798  -5.200  -5.441  0.00  0.00     0.003 A 
ENDROOT
TORSDOF 0
ENDMDL
