MODEL 1
REMARK minimizedAffinity -3.94867229
REMARK minimizedRMSD -1
REMARK  0 active torsions:
REMARK  status: ('A' for Active; 'I' for Inactive)
ROOT
ATOM      1  C4' PXY d   1      -1.460  -5.950  -6.000  0.00  0.00     0.077 C 
ATOM      2  C1' PXY d   1      -6.000  -2.701  -4.500  0.00  0.00     0.077 C 
ATOM      3  C1  PXY d   1      -4.803  -3.542  -4.896  0.00  0.00    -0.082 A 
ATOM      4  C2  PXY d   1      -4.979  -4.803  -5.255  0.00  0.00     0.003 A 
ATOM      5  C3  PXY d   1      -3.904  -5.587  -5.586  0.00  0.00     0.003 A 
ATOM      6  C4  PXY d   1      -2.641  -5.060  -5.601  0.00  0.00    -0.082 A 
ATOM      7  C5  PXY d   1      -2.453  -3.771  -5.246  0.00  0.00     0.003 A 
ATOM      8  C6  PXY d   1      -3.553  -3.004  -4.874  0.00  0.00     0.003 A 
ENDROOT
TORSDOF 0
ENDMDL
