MODEL 1
REMARK minimizedAffinity -3.89745593
REMARK minimizedRMSD -1
REMARK  0 active torsions:
REMARK  status: ('A' for Active; 'I' for Inactive)
ROOT
ATOM      1  C4' PXY d   1      -2.104  -5.996  -5.796  0.00  0.00     0.077 C 
ATOM      2  C1' PXY d   1      -5.998  -2.273  -3.700  0.00  0.00     0.077 C 
ATOM      3  C1  PXY d   1      -4.984  -3.259  -4.245  0.00  0.00    -0.082 A 
ATOM      4  C2  PXY d   1      -3.740  -2.864  -4.467  0.00  0.00     0.003 A 
ATOM      5  C3  PXY d   1      -2.819  -3.734  -4.989  0.00  0.00     0.003 A 
ATOM      6  C4  PXY d   1      -3.159  -5.037  -5.238  0.00  0.00    -0.082 A 
ATOM      7  C5  PXY d   1      -4.423  -5.451  -5.004  0.00  0.00     0.003 A 
ATOM      8  C6  PXY d   1      -5.354  -4.541  -4.512  0.00  0.00     0.003 A 
ENDROOT
TORSDOF 0
ENDMDL
