MODEL 1
REMARK minimizedAffinity 9.60392666
REMARK minimizedRMSD -1
REMARK  0 active torsions:
REMARK  status: ('A' for Active; 'I' for Inactive)
ROOT
ATOM      1  C4' PXY d   1      -2.854  -1.316  -5.948  0.00  0.00     0.077 C 
ATOM      2  C1' PXY d   1      -5.985  -5.987  -4.610  0.00  0.00     0.077 C 
ATOM      3  C1  PXY d   1      -5.153  -4.770  -4.962  0.00  0.00    -0.082 A 
ATOM      4  C2  PXY d   1      -5.557  -3.569  -4.579  0.00  0.00     0.003 A 
ATOM      5  C3  PXY d   1      -4.833  -2.454  -4.916  0.00  0.00     0.003 A 
ATOM      6  C4  PXY d   1      -3.657  -2.574  -5.607  0.00  0.00    -0.082 A 
ATOM      7  C5  PXY d   1      -3.233  -3.797  -5.992  0.00  0.00     0.003 A 
ATOM      8  C6  PXY d   1      -4.003  -4.912  -5.675  0.00  0.00     0.003 A 
ENDROOT
TORSDOF 0
ENDMDL
