MODEL 1
REMARK minimizedAffinity -2.53800726
REMARK minimizedRMSD -1
REMARK  0 active torsions:
REMARK  status: ('A' for Active; 'I' for Inactive)
ROOT
ATOM      1  C4' PXY d   1      -6.000  -0.879  -3.385  0.00  0.00     0.077 C 
ATOM      2  C1' PXY d   1      -5.275  -5.984  -6.000  0.00  0.00     0.077 C 
ATOM      3  C1  PXY d   1      -5.473  -4.651  -5.305  0.00  0.00    -0.082 A 
ATOM      4  C2  PXY d   1      -5.341  -3.528  -5.993  0.00  0.00     0.003 A 
ATOM      5  C3  PXY d   1      -5.484  -2.314  -5.374  0.00  0.00     0.003 A 
ATOM      6  C4  PXY d   1      -5.819  -2.248  -4.047  0.00  0.00    -0.082 A 
ATOM      7  C5  PXY d   1      -5.966  -3.389  -3.341  0.00  0.00     0.003 A 
ATOM      8  C6  PXY d   1      -5.775  -4.611  -3.979  0.00  0.00     0.003 A 
ENDROOT
TORSDOF 0
ENDMDL
