MODEL 1
REMARK minimizedAffinity -2.30507302
REMARK minimizedRMSD -1
REMARK  0 active torsions:
REMARK  status: ('A' for Active; 'I' for Inactive)
ROOT
ATOM      1  C4' PXY d   1      -2.725  -2.164  -3.103  0.00  0.00     0.077 C 
ATOM      2  C1' PXY d   1      -5.937  -5.999  -6.000  0.00  0.00     0.077 C 
ATOM      3  C1  PXY d   1      -5.106  -4.988  -5.236  0.00  0.00    -0.082 A 
ATOM      4  C2  PXY d   1      -3.873  -4.720  -5.634  0.00  0.00     0.003 A 
ATOM      5  C3  PXY d   1      -3.095  -3.832  -4.936  0.00  0.00     0.003 A 
ATOM      6  C4  PXY d   1      -3.604  -3.171  -3.850  0.00  0.00    -0.082 A 
ATOM      7  C5  PXY d   1      -4.865  -3.431  -3.443  0.00  0.00     0.003 A 
ATOM      8  C6  PXY d   1      -5.623  -4.366  -4.141  0.00  0.00     0.003 A 
ENDROOT
TORSDOF 0
ENDMDL
