MODEL 1
REMARK minimizedAffinity -3.13484979
REMARK minimizedRMSD -1
REMARK  0 active torsions:
REMARK  status: ('A' for Active; 'I' for Inactive)
ROOT
ATOM      1  C4' PXY d   1      -5.999  -1.607  -4.919  0.00  0.00     0.077 C 
ATOM      2  C1' PXY d   1      -2.347  -6.000  -5.805  0.00  0.00     0.077 C 
ATOM      3  C1  PXY d   1      -3.313  -4.853  -5.581  0.00  0.00    -0.082 A 
ATOM      4  C2  PXY d   1      -2.868  -3.710  -5.085  0.00  0.00     0.003 A 
ATOM      5  C3  PXY d   1      -3.733  -2.673  -4.847  0.00  0.00     0.003 A 
ATOM      6  C4  PXY d   1      -5.059  -2.789  -5.170  0.00  0.00    -0.082 A 
ATOM      7  C5  PXY d   1      -5.519  -3.948  -5.687  0.00  0.00     0.003 A 
ATOM      8  C6  PXY d   1      -4.632  -5.003  -5.882  0.00  0.00     0.003 A 
ENDROOT
TORSDOF 0
ENDMDL
