MODEL 1
REMARK minimizedAffinity -4.36296272
REMARK minimizedRMSD -1
REMARK  0 active torsions:
REMARK  status: ('A' for Active; 'I' for Inactive)
ROOT
ATOM      1  C4' PXY d   1      -1.816  -5.857  -5.249  0.00  0.00     0.077 C 
ATOM      2  C1' PXY d   1      -5.999  -1.867  -5.239  0.00  0.00     0.077 C 
ATOM      3  C1  PXY d   1      -4.898  -2.909  -5.253  0.00  0.00    -0.082 A 
ATOM      4  C2  PXY d   1      -5.041  -4.021  -4.551  0.00  0.00     0.003 A 
ATOM      5  C3  PXY d   1      -4.042  -4.960  -4.527  0.00  0.00     0.003 A 
ATOM      6  C4  PXY d   1      -2.906  -4.782  -5.272  0.00  0.00    -0.082 A 
ATOM      7  C5  PXY d   1      -2.758  -3.654  -5.999  0.00  0.00     0.003 A 
ATOM      8  C6  PXY d   1      -3.766  -2.695  -5.977  0.00  0.00     0.003 A 
ENDROOT
TORSDOF 0
ENDMDL
