MODEL 1
REMARK minimizedAffinity -3.53769708
REMARK minimizedRMSD -1
REMARK  0 active torsions:
REMARK  status: ('A' for Active; 'I' for Inactive)
ROOT
ATOM      1  C4' PXY d   1      -6.000  -1.786  -5.984  0.00  0.00     0.077 C 
ATOM      2  C1' PXY d   1      -2.303  -6.000  -4.574  0.00  0.00     0.077 C 
ATOM      3  C1  PXY d   1      -3.280  -4.903  -4.950  0.00  0.00    -0.082 A 
ATOM      4  C2  PXY d   1      -2.857  -3.653  -5.039  0.00  0.00     0.003 A 
ATOM      5  C3  PXY d   1      -3.734  -2.644  -5.346  0.00  0.00     0.003 A 
ATOM      6  C4  PXY d   1      -5.047  -2.926  -5.617  0.00  0.00    -0.082 A 
ATOM      7  C5  PXY d   1      -5.483  -4.201  -5.539  0.00  0.00     0.003 A 
ATOM      8  C6  PXY d   1      -4.586  -5.205  -5.185  0.00  0.00     0.003 A 
ENDROOT
TORSDOF 0
ENDMDL
