MODEL 1
REMARK minimizedAffinity -2.23396564
REMARK minimizedRMSD -1
REMARK  0 active torsions:
REMARK  status: ('A' for Active; 'I' for Inactive)
ROOT
ATOM      1  C4' PXY d   1      -2.876  -5.993  -3.847  0.00  0.00     0.077 C 
ATOM      2  C1' PXY d   1      -5.999  -1.588  -5.912  0.00  0.00     0.077 C 
ATOM      3  C1  PXY d   1      -5.189  -2.752  -5.376  0.00  0.00    -0.082 A 
ATOM      4  C2  PXY d   1      -4.429  -2.582  -4.306  0.00  0.00     0.003 A 
ATOM      5  C3  PXY d   1      -3.664  -3.614  -3.827  0.00  0.00     0.003 A 
ATOM      6  C4  PXY d   1      -3.719  -4.849  -4.417  0.00  0.00    -0.082 A 
ATOM      7  C5  PXY d   1      -4.500  -5.033  -5.502  0.00  0.00     0.003 A 
ATOM      8  C6  PXY d   1      -5.237  -3.961  -5.998  0.00  0.00     0.003 A 
ENDROOT
TORSDOF 0
ENDMDL
