MODEL 1
REMARK minimizedAffinity -3.52230597
REMARK minimizedRMSD -1
REMARK  0 active torsions:
REMARK  status: ('A' for Active; 'I' for Inactive)
ROOT
ATOM      1  C4' PXY d   1      -5.992  -2.663  -5.121  0.00  0.00     0.077 C 
ATOM      2  C1' PXY d   1      -1.350  -5.994  -6.000  0.00  0.00     0.077 C 
ATOM      3  C1  PXY d   1      -2.574  -5.129  -5.777  0.00  0.00    -0.082 A 
ATOM      4  C2  PXY d   1      -2.425  -3.848  -5.481  0.00  0.00     0.003 A 
ATOM      5  C3  PXY d   1      -3.521  -3.058  -5.244  0.00  0.00     0.003 A 
ATOM      6  C4  PXY d   1      -4.784  -3.573  -5.364  0.00  0.00    -0.082 A 
ATOM      7  C5  PXY d   1      -4.945  -4.876  -5.676  0.00  0.00     0.003 A 
ATOM      8  C6  PXY d   1      -3.819  -5.670  -5.872  0.00  0.00     0.003 A 
ENDROOT
TORSDOF 0
ENDMDL
