MODEL 1
REMARK minimizedAffinity -3.75803852
REMARK minimizedRMSD -1
REMARK  0 active torsions:
REMARK  status: ('A' for Active; 'I' for Inactive)
ROOT
ATOM      1  C4' PXY d   1      -5.995  -3.446  -4.883  0.00  0.00     0.077 C 
ATOM      2  C1' PXY d   1      -0.925  -5.996  -5.986  0.00  0.00     0.077 C 
ATOM      3  C1  PXY d   1      -2.249  -5.319  -5.689  0.00  0.00    -0.082 A 
ATOM      4  C2  PXY d   1      -3.378  -5.986  -5.862  0.00  0.00     0.003 A 
ATOM      5  C3  PXY d   1      -4.585  -5.379  -5.628  0.00  0.00     0.003 A 
ATOM      6  C4  PXY d   1      -4.635  -4.093  -5.161  0.00  0.00    -0.082 A 
ATOM      7  C5  PXY d   1      -3.486  -3.409  -4.972  0.00  0.00     0.003 A 
ATOM      8  C6  PXY d   1      -2.273  -4.030  -5.255  0.00  0.00     0.003 A 
ENDROOT
TORSDOF 0
ENDMDL
