MODEL 1
REMARK minimizedAffinity 3.33753061
REMARK minimizedRMSD -1
REMARK  0 active torsions:
REMARK  status: ('A' for Active; 'I' for Inactive)
ROOT
ATOM      1  C4' PXY d   1      -4.798  -0.568   5.459  0.00  0.00     0.077 C 
ATOM      2  C1' PXY d   1      -0.096  -1.373   2.194  0.00  0.00     0.077 C 
ATOM      3  C1  PXY d   1      -1.328  -1.149   3.049  0.00  0.00    -0.082 A 
ATOM      4  C2  PXY d   1      -1.714  -2.087   3.898  0.00  0.00     0.003 A 
ATOM      5  C3  PXY d   1      -2.843  -1.914   4.656  0.00  0.00     0.003 A 
ATOM      6  C4  PXY d   1      -3.555  -0.747   4.582  0.00  0.00    -0.082 A 
ATOM      7  C5  PXY d   1      -3.162   0.220   3.726  0.00  0.00     0.003 A 
ATOM      8  C6  PXY d   1      -2.036   0.008   2.936  0.00  0.00     0.003 A 
ENDROOT
TORSDOF 0
ENDMDL
