MODEL 1
REMARK minimizedAffinity -1.64805412
REMARK minimizedRMSD -1
REMARK  0 active torsions:
REMARK  status: ('A' for Active; 'I' for Inactive)
ROOT
ATOM      1  C4' PXY d   1      -3.059  -6.000  -5.990  0.00  0.00     0.077 C 
ATOM      2  C1' PXY d   1      -5.998  -1.907  -3.157  0.00  0.00     0.077 C 
ATOM      3  C1  PXY d   1      -5.216  -2.973  -3.899  0.00  0.00    -0.082 A 
ATOM      4  C2  PXY d   1      -5.852  -3.807  -4.706  0.00  0.00     0.003 A 
ATOM      5  C3  PXY d   1      -5.165  -4.797  -5.360  0.00  0.00     0.003 A 
ATOM      6  C4  PXY d   1      -3.806  -4.902  -5.228  0.00  0.00    -0.082 A 
ATOM      7  C5  PXY d   1      -3.149  -4.048  -4.415  0.00  0.00     0.003 A 
ATOM      8  C6  PXY d   1      -3.870  -3.076  -3.728  0.00  0.00     0.003 A 
ENDROOT
TORSDOF 0
ENDMDL
