MODEL 1
REMARK minimizedAffinity -3.07959747
REMARK minimizedRMSD -1
REMARK  0 active torsions:
REMARK  status: ('A' for Active; 'I' for Inactive)
ROOT
ATOM      1  C4' PXY d   1      -5.993  -3.690  -5.310  0.00  0.00     0.077 C 
ATOM      2  C1' PXY d   1      -0.695  -6.000  -5.352  0.00  0.00     0.077 C 
ATOM      3  C1  PXY d   1      -2.079  -5.382  -5.343  0.00  0.00    -0.082 A 
ATOM      4  C2  PXY d   1      -3.063  -5.992  -4.703  0.00  0.00     0.003 A 
ATOM      5  C3  PXY d   1      -4.329  -5.464  -4.712  0.00  0.00     0.003 A 
ATOM      6  C4  PXY d   1      -4.577  -4.272  -5.337  0.00  0.00    -0.082 A 
ATOM      7  C5  PXY d   1      -3.576  -3.638  -5.983  0.00  0.00     0.003 A 
ATOM      8  C6  PXY d   1      -2.308  -4.212  -5.998  0.00  0.00     0.003 A 
ENDROOT
TORSDOF 0
ENDMDL
