MODEL 1
REMARK minimizedAffinity 7.75033331
REMARK minimizedRMSD -1
REMARK  0 active torsions:
REMARK  status: ('A' for Active; 'I' for Inactive)
ROOT
ATOM      1  C4' PXY d   1      -4.968  -1.655   2.448  0.00  0.00     0.077 C 
ATOM      2  C1' PXY d   1       0.648  -1.375   1.109  0.00  0.00     0.077 C 
ATOM      3  C1  PXY d   1      -0.828  -1.447   1.448  0.00  0.00    -0.082 A 
ATOM      4  C2  PXY d   1      -1.235  -1.137   2.668  0.00  0.00     0.003 A 
ATOM      5  C3  PXY d   1      -2.562  -1.227   3.000  0.00  0.00     0.003 A 
ATOM      6  C4  PXY d   1      -3.489  -1.588   2.059  0.00  0.00    -0.082 A 
ATOM      7  C5  PXY d   1      -3.083  -1.895   0.809  0.00  0.00     0.003 A 
ATOM      8  C6  PXY d   1      -1.727  -1.837   0.503  0.00  0.00     0.003 A 
ENDROOT
TORSDOF 0
ENDMDL
