MODEL 1
REMARK minimizedAffinity -2.9432025
REMARK minimizedRMSD -1
REMARK  0 active torsions:
REMARK  status: ('A' for Active; 'I' for Inactive)
ROOT
ATOM      1  C4' PXY d   1      -5.998  -4.136  -3.124  0.00  0.00     0.077 C 
ATOM      2  C1' PXY d   1      -1.047  -4.933  -5.998  0.00  0.00     0.077 C 
ATOM      3  C1  PXY d   1      -2.348  -4.736  -5.246  0.00  0.00    -0.082 A 
ATOM      4  C2  PXY d   1      -2.884  -3.529  -5.169  0.00  0.00     0.003 A 
ATOM      5  C3  PXY d   1      -4.044  -3.328  -4.466  0.00  0.00     0.003 A 
ATOM      6  C4  PXY d   1      -4.690  -4.383  -3.880  0.00  0.00    -0.082 A 
ATOM      7  C5  PXY d   1      -4.156  -5.619  -3.963  0.00  0.00     0.003 A 
ATOM      8  C6  PXY d   1      -2.956  -5.796  -4.646  0.00  0.00     0.003 A 
ENDROOT
TORSDOF 0
ENDMDL
