MODEL 1
REMARK minimizedAffinity -2.02869439
REMARK minimizedRMSD -1
REMARK  0 active torsions:
REMARK  status: ('A' for Active; 'I' for Inactive)
ROOT
ATOM      1  C1  BNZ d   1       0.208   1.613  -3.416  0.00  0.00     0.000 A 
ATOM      2  C2  BNZ d   1      -0.344   1.073  -2.285  0.00  0.00     0.000 A 
ATOM      3  C3  BNZ d   1       0.314   1.134  -1.088  0.00  0.00     0.000 A 
ATOM      4  C4  BNZ d   1       1.537   1.698  -1.032  0.00  0.00     0.000 A 
ATOM      5  C5  BNZ d   1       2.111   2.239  -2.166  0.00  0.00     0.000 A 
ATOM      6  C6  BNZ d   1       1.429   2.210  -3.361  0.00  0.00     0.000 A 
ENDROOT
TORSDOF 0
ENDMDL
