MODEL 1
REMARK minimizedAffinity -2.18378854
REMARK minimizedRMSD -1
REMARK  0 active torsions:
REMARK  status: ('A' for Active; 'I' for Inactive)
ROOT
ATOM      1  C1  BNZ d   1      -0.860  -0.248   0.059  0.00  0.00     0.000 A 
ATOM      2  C2  BNZ d   1      -0.497  -1.420   0.667  0.00  0.00     0.000 A 
ATOM      3  C3  BNZ d   1       0.780  -1.609   1.115  0.00  0.00     0.000 A 
ATOM      4  C4  BNZ d   1       1.702  -0.644   0.919  0.00  0.00     0.000 A 
ATOM      5  C5  BNZ d   1       1.353   0.539   0.299  0.00  0.00     0.000 A 
ATOM      6  C6  BNZ d   1       0.057   0.742  -0.116  0.00  0.00     0.000 A 
ENDROOT
TORSDOF 0
ENDMDL
