MODEL 1
REMARK minimizedAffinity -1.59206235
REMARK minimizedRMSD -1
REMARK  0 active torsions:
REMARK  status: ('A' for Active; 'I' for Inactive)
ROOT
ATOM      1  C1  BNZ d   1       0.387  -0.370   0.772  0.00  0.00     0.000 A 
ATOM      2  C2  BNZ d   1      -0.172  -1.204   1.703  0.00  0.00     0.000 A 
ATOM      3  C3  BNZ d   1      -0.011  -2.559   1.616  0.00  0.00     0.000 A 
ATOM      4  C4  BNZ d   1       0.673  -3.079   0.576  0.00  0.00     0.000 A 
ATOM      5  C5  BNZ d   1       1.234  -2.252  -0.376  0.00  0.00     0.000 A 
ATOM      6  C6  BNZ d   1       1.104  -0.887  -0.263  0.00  0.00     0.000 A 
ENDROOT
TORSDOF 0
ENDMDL
