MODEL 1
REMARK minimizedAffinity -2.82578921
REMARK minimizedRMSD -1
REMARK  0 active torsions:
REMARK  status: ('A' for Active; 'I' for Inactive)
ROOT
ATOM      1  C1  BNZ d   1      -0.264  -2.149   1.148  0.00  0.00     0.000 A 
ATOM      2  C2  BNZ d   1       0.309  -1.311   0.229  0.00  0.00     0.000 A 
ATOM      3  C3  BNZ d   1      -0.036   0.010   0.175  0.00  0.00     0.000 A 
ATOM      4  C4  BNZ d   1      -0.981   0.483   1.013  0.00  0.00     0.000 A 
ATOM      5  C5  BNZ d   1      -1.575  -0.351   1.939  0.00  0.00     0.000 A 
ATOM      6  C6  BNZ d   1      -1.197  -1.672   2.016  0.00  0.00     0.000 A 
ENDROOT
TORSDOF 0
ENDMDL
