MODEL 1
REMARK minimizedAffinity -2.91532207
REMARK minimizedRMSD -1
REMARK  0 active torsions:
REMARK  status: ('A' for Active; 'I' for Inactive)
ROOT
ATOM      1  C1  BNZ d   1       0.362  -1.969   0.865  0.00  0.00     0.000 A 
ATOM      2  C2  BNZ d   1       1.215  -1.173   0.147  0.00  0.00     0.000 A 
ATOM      3  C3  BNZ d   1       0.943   0.153  -0.039  0.00  0.00     0.000 A 
ATOM      4  C4  BNZ d   1      -0.198   0.673   0.457  0.00  0.00     0.000 A 
ATOM      5  C5  BNZ d   1      -1.072  -0.119   1.175  0.00  0.00     0.000 A 
ATOM      6  C6  BNZ d   1      -0.776  -1.445   1.394  0.00  0.00     0.000 A 
ENDROOT
TORSDOF 0
ENDMDL
