MODEL 1
REMARK minimizedAffinity -3.65630031
REMARK minimizedRMSD -1
REMARK  0 active torsions:
REMARK  status: ('A' for Active; 'I' for Inactive)
ROOT
ATOM      1  C1  BNZ d   1      -0.830  -2.372   1.541  0.00  0.00     0.000 A 
ATOM      2  C2  BNZ d   1       0.247  -2.273   0.702  0.00  0.00     0.000 A 
ATOM      3  C3  BNZ d   1       0.560  -1.085   0.102  0.00  0.00     0.000 A 
ATOM      4  C4  BNZ d   1      -0.227  -0.010   0.310  0.00  0.00     0.000 A 
ATOM      5  C5  BNZ d   1      -1.322  -0.096   1.146  0.00  0.00     0.000 A 
ATOM      6  C6  BNZ d   1      -1.612  -1.283   1.778  0.00  0.00     0.000 A 
ENDROOT
TORSDOF 0
ENDMDL
