MODEL 1
REMARK minimizedAffinity -2.14373112
REMARK minimizedRMSD -1
REMARK  0 active torsions:
REMARK  status: ('A' for Active; 'I' for Inactive)
ROOT
ATOM      1  C1  BNZ d   1       0.161  -1.236  -0.836  0.00  0.00     0.000 A 
ATOM      2  C2  BNZ d   1      -0.060   0.004  -1.374  0.00  0.00     0.000 A 
ATOM      3  C3  BNZ d   1       0.393   1.130  -0.745  0.00  0.00     0.000 A 
ATOM      4  C4  BNZ d   1       1.029   1.018   0.438  0.00  0.00     0.000 A 
ATOM      5  C5  BNZ d   1       1.252  -0.224   0.998  0.00  0.00     0.000 A 
ATOM      6  C6  BNZ d   1       0.829  -1.358   0.343  0.00  0.00     0.000 A 
ENDROOT
TORSDOF 0
ENDMDL
