MODEL 1
REMARK minimizedAffinity -1.17444277
REMARK minimizedRMSD -1
REMARK  0 active torsions:
REMARK  status: ('A' for Active; 'I' for Inactive)
ROOT
ATOM      1  C1  BNZ d   1       2.539   1.576  -1.902  0.00  0.00     0.000 A 
ATOM      2  C2  BNZ d   1       1.455   1.951  -1.154  0.00  0.00     0.000 A 
ATOM      3  C3  BNZ d   1       0.282   2.315  -1.755  0.00  0.00     0.000 A 
ATOM      4  C4  BNZ d   1       0.208   2.343  -3.101  0.00  0.00     0.000 A 
ATOM      5  C5  BNZ d   1       1.296   1.977  -3.869  0.00  0.00     0.000 A 
ATOM      6  C6  BNZ d   1       2.462   1.574  -3.260  0.00  0.00     0.000 A 
ENDROOT
TORSDOF 0
ENDMDL
