MODEL 1
REMARK minimizedAffinity -0.326054811
REMARK minimizedRMSD -1
REMARK  0 active torsions:
REMARK  status: ('A' for Active; 'I' for Inactive)
ROOT
ATOM      1  C1  BNZ d   1       4.335   5.853   0.154  0.00  0.00     0.000 A 
ATOM      2  C2  BNZ d   1       4.486   4.949   1.171  0.00  0.00     0.000 A 
ATOM      3  C3  BNZ d   1       5.028   3.716   0.937  0.00  0.00     0.000 A 
ATOM      4  C4  BNZ d   1       5.381   3.375  -0.319  0.00  0.00     0.000 A 
ATOM      5  C5  BNZ d   1       5.225   4.271  -1.357  0.00  0.00     0.000 A 
ATOM      6  C6  BNZ d   1       4.716   5.526  -1.111  0.00  0.00     0.000 A 
ENDROOT
TORSDOF 0
ENDMDL
