MODEL 1
REMARK minimizedAffinity -2.62365651
REMARK minimizedRMSD -1
REMARK  0 active torsions:
REMARK  status: ('A' for Active; 'I' for Inactive)
ROOT
ATOM      1  C1  BNZ d   1      -0.304   1.235   0.291  0.00  0.00     0.000 A 
ATOM      2  C2  BNZ d   1       0.966   0.763   0.090  0.00  0.00     0.000 A 
ATOM      3  C3  BNZ d   1       1.252  -0.564   0.249  0.00  0.00     0.000 A 
ATOM      4  C4  BNZ d   1       0.279  -1.409   0.647  0.00  0.00     0.000 A 
ATOM      5  C5  BNZ d   1      -1.004  -0.947   0.863  0.00  0.00     0.000 A 
ATOM      6  C6  BNZ d   1      -1.297   0.383   0.664  0.00  0.00     0.000 A 
ENDROOT
TORSDOF 0
ENDMDL
