MODEL 1
REMARK minimizedAffinity -3.56907439
REMARK minimizedRMSD -1
REMARK  0 active torsions:
REMARK  status: ('A' for Active; 'I' for Inactive)
ROOT
ATOM      1  C1  BNZ d   1      -2.082  -0.588   2.075  0.00  0.00     0.000 A 
ATOM      2  C2  BNZ d   1      -1.582   0.383   1.248  0.00  0.00     0.000 A 
ATOM      3  C3  BNZ d   1      -0.493   0.138   0.459  0.00  0.00     0.000 A 
ATOM      4  C4  BNZ d   1       0.118  -1.063   0.527  0.00  0.00     0.000 A 
ATOM      5  C5  BNZ d   1      -0.368  -2.048   1.362  0.00  0.00     0.000 A 
ATOM      6  C6  BNZ d   1      -1.488  -1.811   2.126  0.00  0.00     0.000 A 
ENDROOT
TORSDOF 0
ENDMDL
