MODEL 1
REMARK minimizedAffinity -1.65246642
REMARK minimizedRMSD -1
REMARK  0 active torsions:
REMARK  status: ('A' for Active; 'I' for Inactive)
ROOT
ATOM      1  C1  BNZ d   1      -1.278  -0.387   0.550  0.00  0.00     0.000 A 
ATOM      2  C2  BNZ d   1      -0.114  -0.485  -0.165  0.00  0.00     0.000 A 
ATOM      3  C3  BNZ d   1       0.636   0.625  -0.437  0.00  0.00     0.000 A 
ATOM      4  C4  BNZ d   1       0.202   1.835  -0.028  0.00  0.00     0.000 A 
ATOM      5  C5  BNZ d   1      -0.974   1.951   0.685  0.00  0.00     0.000 A 
ATOM      6  C6  BNZ d   1      -1.707   0.827   0.991  0.00  0.00     0.000 A 
ENDROOT
TORSDOF 0
ENDMDL
