MODEL 1
REMARK minimizedAffinity -2.78151655
REMARK minimizedRMSD -1
REMARK  0 active torsions:
REMARK  status: ('A' for Active; 'I' for Inactive)
ROOT
ATOM      1  C1  BNZ d   1       1.097  -0.069   0.020  0.00  0.00     0.000 A 
ATOM      2  C2  BNZ d   1       1.447  -1.393   0.003  0.00  0.00     0.000 A 
ATOM      3  C3  BNZ d   1       0.646  -2.336   0.584  0.00  0.00     0.000 A 
ATOM      4  C4  BNZ d   1      -0.482  -1.950   1.216  0.00  0.00     0.000 A 
ATOM      5  C5  BNZ d   1      -0.843  -0.618   1.249  0.00  0.00     0.000 A 
ATOM      6  C6  BNZ d   1      -0.054   0.324   0.630  0.00  0.00     0.000 A 
ENDROOT
TORSDOF 0
ENDMDL
