MODEL 1
REMARK minimizedAffinity 0.713909745
REMARK minimizedRMSD -1
REMARK  1 active torsions:
REMARK  status: ('A' for Active; 'I' for Inactive)
REMARK    1  A    between atoms: C1_2  and  C2_3 
ROOT
ATOM      1  C2  UNL d   1      -0.034   1.896  -5.374  0.00  0.00    -0.073 A 
ATOM      2  C3  UNL d   1      -1.329   1.378  -5.261  0.00  0.00    -0.002 A 
ATOM      3  C4  UNL d   1      -2.437   2.217  -5.378  0.00  0.00     0.004 A 
ATOM      4  C5  UNL d   1      -2.263   3.581  -5.615  0.00  0.00    -0.004 A 
ATOM      5  C6  UNL d   1      -0.977   4.116  -5.743  0.00  0.00    -0.075 A 
ATOM      6  C7  UNL d   1      -0.772   5.581  -5.996  0.00  0.00     0.076 C 
ATOM      7  C8  UNL d   1       0.131   3.266  -5.621  0.00  0.00     0.001 A 
ENDROOT
BRANCH   1   8
ATOM      8  C1  UNL d   1       1.166   0.992  -5.255  0.00  0.00     0.053 C 
ATOM      9  C   UNL d   1       2.371   1.544  -5.999  0.00  0.00     0.018 C 
ENDBRANCH   1   8
TORSDOF 1
ENDMDL
