MODEL 1
REMARK minimizedAffinity 6.30374098
REMARK minimizedRMSD -1
REMARK  1 active torsions:
REMARK  status: ('A' for Active; 'I' for Inactive)
REMARK    1  A    between atoms: C1_2  and  C2_3 
ROOT
ATOM      1  C2  UNL d   1      -0.442   2.306   1.116  0.00  0.00    -0.073 A 
ATOM      2  C3  UNL d   1       0.859   2.806   1.252  0.00  0.00    -0.002 A 
ATOM      3  C4  UNL d   1       1.176   3.668   2.302  0.00  0.00     0.004 A 
ATOM      4  C5  UNL d   1       0.201   4.033   3.230  0.00  0.00    -0.004 A 
ATOM      5  C6  UNL d   1      -1.101   3.535   3.118  0.00  0.00    -0.075 A 
ATOM      6  C7  UNL d   1      -2.162   3.920   4.107  0.00  0.00     0.076 C 
ATOM      7  C8  UNL d   1      -1.413   2.672   2.059  0.00  0.00     0.001 A 
ENDROOT
BRANCH   1   8
ATOM      8  C1  UNL d   1      -0.788   1.370  -0.012  0.00  0.00     0.053 C 
ATOM      9  C   UNL d   1      -1.569   0.159   0.471  0.00  0.00     0.018 C 
ENDBRANCH   1   8
TORSDOF 1
ENDMDL
