MODEL 1
REMARK minimizedAffinity -5.68356991
REMARK minimizedRMSD -1
REMARK  1 active torsions:
REMARK  status: ('A' for Active; 'I' for Inactive)
REMARK    1  A    between atoms: C1_2  and  C2_3 
ROOT
ATOM      1  C2  UNL d   1       1.342  -0.129  -0.347  0.00  0.00    -0.073 A 
ATOM      2  C3  UNL d   1       0.759  -1.327   0.078  0.00  0.00    -0.002 A 
ATOM      3  C4  UNL d   1      -0.431  -1.313   0.807  0.00  0.00     0.004 A 
ATOM      4  C5  UNL d   1      -1.053  -0.102   1.111  0.00  0.00    -0.004 A 
ATOM      5  C6  UNL d   1      -0.493   1.106   0.684  0.00  0.00    -0.075 A 
ATOM      6  C7  UNL d   1      -1.149   2.417   1.005  0.00  0.00     0.076 C 
ATOM      7  C8  UNL d   1       0.704   1.083  -0.045  0.00  0.00     0.001 A 
ENDROOT
BRANCH   1   8
ATOM      8  C1  UNL d   1       2.623  -0.140  -1.140  0.00  0.00     0.053 C 
ATOM      9  C   UNL d   1       2.625  -1.226  -2.204  0.00  0.00     0.018 C 
ENDBRANCH   1   8
TORSDOF 1
ENDMDL
