MODEL 1
REMARK minimizedAffinity 0.592792451
REMARK minimizedRMSD -1
REMARK  1 active torsions:
REMARK  status: ('A' for Active; 'I' for Inactive)
REMARK    1  A    between atoms: C1_2  and  C2_3 
ROOT
ATOM      1  C2  UNL d   1      -3.415   3.944  -5.979  0.00  0.00    -0.073 A 
ATOM      2  C3  UNL d   1      -3.086   5.304  -5.990  0.00  0.00    -0.002 A 
ATOM      3  C4  UNL d   1      -1.750   5.706  -5.995  0.00  0.00     0.004 A 
ATOM      4  C5  UNL d   1      -0.730   4.754  -5.998  0.00  0.00    -0.004 A 
ATOM      5  C6  UNL d   1      -1.039   3.390  -5.999  0.00  0.00    -0.075 A 
ATOM      6  C7  UNL d   1       0.046   2.354  -6.000  0.00  0.00     0.076 C 
ATOM      7  C8  UNL d   1      -2.383   2.994  -5.991  0.00  0.00     0.001 A 
ENDROOT
BRANCH   1   8
ATOM      8  C1  UNL d   1      -4.857   3.505  -5.979  0.00  0.00     0.053 C 
ATOM      9  C   UNL d   1      -5.294   2.985  -4.619  0.00  0.00     0.018 C 
ENDBRANCH   1   8
TORSDOF 1
ENDMDL
