MODEL 1
REMARK minimizedAffinity 1.47247958
REMARK minimizedRMSD -1
REMARK  1 active torsions:
REMARK  status: ('A' for Active; 'I' for Inactive)
REMARK    1  A    between atoms: C1_2  and  C2_3 
ROOT
ATOM      1  C2  UNL d   1       1.870   2.495  -5.257  0.00  0.00    -0.073 A 
ATOM      2  C3  UNL d   1       2.053   2.090  -3.930  0.00  0.00    -0.002 A 
ATOM      3  C4  UNL d   1       3.264   2.331  -3.280  0.00  0.00     0.004 A 
ATOM      4  C5  UNL d   1       4.300   2.985  -3.946  0.00  0.00    -0.004 A 
ATOM      5  C6  UNL d   1       4.132   3.409  -5.268  0.00  0.00    -0.075 A 
ATOM      6  C7  UNL d   1       5.238   4.112  -5.999  0.00  0.00     0.076 C 
ATOM      7  C8  UNL d   1       2.914   3.161  -5.915  0.00  0.00     0.001 A 
ENDROOT
BRANCH   1   8
ATOM      8  C1  UNL d   1       0.562   2.243  -5.962  0.00  0.00     0.053 C 
ATOM      9  C   UNL d   1      -0.587   3.005  -5.320  0.00  0.00     0.018 C 
ENDBRANCH   1   8
TORSDOF 1
ENDMDL
