MODEL 1
REMARK minimizedAffinity -0.486960232
REMARK minimizedRMSD -1
REMARK  1 active torsions:
REMARK  status: ('A' for Active; 'I' for Inactive)
REMARK    1  A    between atoms: C1_2  and  C2_3 
ROOT
ATOM      1  C2  UNL d   1       1.203   1.478   1.174  0.00  0.00    -0.073 A 
ATOM      2  C3  UNL d   1       0.266   2.494   1.390  0.00  0.00    -0.002 A 
ATOM      3  C4  UNL d   1      -1.082   2.284   1.096  0.00  0.00     0.004 A 
ATOM      4  C5  UNL d   1      -1.508   1.055   0.592  0.00  0.00    -0.004 A 
ATOM      5  C6  UNL d   1      -0.588   0.023   0.381  0.00  0.00    -0.075 A 
ATOM      6  C7  UNL d   1      -1.029  -1.304  -0.163  0.00  0.00     0.076 C 
ATOM      7  C8  UNL d   1       0.764   0.243   0.675  0.00  0.00     0.001 A 
ENDROOT
BRANCH   1   8
ATOM      8  C1  UNL d   1       2.659   1.698   1.495  0.00  0.00     0.053 C 
ATOM      9  C   UNL d   1       2.845   2.570   2.726  0.00  0.00     0.018 C 
ENDBRANCH   1   8
TORSDOF 1
ENDMDL
