MODEL 1
REMARK minimizedAffinity 3.37954307
REMARK minimizedRMSD -1
REMARK  1 active torsions:
REMARK  status: ('A' for Active; 'I' for Inactive)
REMARK    1  A    between atoms: C1_2  and  C2_3 
ROOT
ATOM      1  C2  UNL d   1      -0.818  -1.539  -0.176  0.00  0.00    -0.073 A 
ATOM      2  C3  UNL d   1       0.132  -1.678  -1.193  0.00  0.00    -0.002 A 
ATOM      3  C4  UNL d   1      -0.058  -2.612  -2.212  0.00  0.00     0.004 A 
ATOM      4  C5  UNL d   1      -1.201  -3.410  -2.229  0.00  0.00    -0.004 A 
ATOM      5  C6  UNL d   1      -2.168  -3.278  -1.227  0.00  0.00    -0.075 A 
ATOM      6  C7  UNL d   1      -3.403  -4.131  -1.229  0.00  0.00     0.076 C 
ATOM      7  C8  UNL d   1      -1.969  -2.339  -0.206  0.00  0.00     0.001 A 
ENDROOT
BRANCH   1   8
ATOM      8  C1  UNL d   1      -0.621  -0.527   0.923  0.00  0.00     0.053 C 
ATOM      9  C   UNL d   1      -1.832   0.376   1.091  0.00  0.00     0.018 C 
ENDBRANCH   1   8
TORSDOF 1
ENDMDL
