MODEL 1
REMARK minimizedAffinity 4.30117559
REMARK minimizedRMSD -1
REMARK  1 active torsions:
REMARK  status: ('A' for Active; 'I' for Inactive)
REMARK    1  A    between atoms: C1_2  and  C2_3 
ROOT
ATOM      1  C2  UNL d   1      -0.551   1.907   1.357  0.00  0.00    -0.073 A 
ATOM      2  C3  UNL d   1      -0.206   0.798   0.576  0.00  0.00    -0.002 A 
ATOM      3  C4  UNL d   1       1.102   0.314   0.578  0.00  0.00     0.004 A 
ATOM      4  C5  UNL d   1       2.077   0.928   1.364  0.00  0.00    -0.004 A 
ATOM      5  C6  UNL d   1       1.750   2.030   2.161  0.00  0.00    -0.075 A 
ATOM      6  C7  UNL d   1       2.787   2.703   3.011  0.00  0.00     0.076 C 
ATOM      7  C8  UNL d   1       0.434   2.512   2.152  0.00  0.00     0.001 A 
ENDROOT
BRANCH   1   8
ATOM      8  C1  UNL d   1      -1.964   2.429   1.364  0.00  0.00     0.053 C 
ATOM      9  C   UNL d   1      -2.871   1.631   0.441  0.00  0.00     0.018 C 
ENDBRANCH   1   8
TORSDOF 1
ENDMDL
