MODEL 1
REMARK minimizedAffinity -0.848673999
REMARK minimizedRMSD -1
REMARK  1 active torsions:
REMARK  status: ('A' for Active; 'I' for Inactive)
REMARK    1  A    between atoms: C1_2  and  C2_3 
ROOT
ATOM      1  C2  UNL d   1       1.774   2.580   1.922  0.00  0.00    -0.073 A 
ATOM      2  C3  UNL d   1       2.424   1.513   1.292  0.00  0.00    -0.002 A 
ATOM      3  C4  UNL d   1       1.699   0.602   0.522  0.00  0.00     0.004 A 
ATOM      4  C5  UNL d   1       0.320   0.752   0.370  0.00  0.00    -0.004 A 
ATOM      5  C6  UNL d   1      -0.345   1.819   0.982  0.00  0.00    -0.075 A 
ATOM      6  C7  UNL d   1      -1.828   1.993   0.830  0.00  0.00     0.076 C 
ATOM      7  C8  UNL d   1       0.390   2.728   1.756  0.00  0.00     0.001 A 
ENDROOT
BRANCH   1   8
ATOM      8  C1  UNL d   1       2.553   3.570   2.749  0.00  0.00     0.053 C 
ATOM      9  C   UNL d   1       3.978   3.738   2.244  0.00  0.00     0.018 C 
ENDBRANCH   1   8
TORSDOF 1
ENDMDL
