MODEL 1
REMARK minimizedAffinity 2.81519842
REMARK minimizedRMSD -1
REMARK  0 active torsions:
REMARK  status: ('A' for Active; 'I' for Inactive)
ROOT
ATOM      1  C   UNL d   1      -2.539  -1.110   4.214  0.00  0.00     0.078 C 
ATOM      2  C1  UNL d   1      -1.613  -0.712   3.104  0.00  0.00    -0.077 A 
ATOM      3  C2  UNL d   1      -1.081   0.582   3.037  0.00  0.00    -0.001 A 
ATOM      4  C3  UNL d   1      -0.228   0.942   1.993  0.00  0.00     0.003 A 
ATOM      5  C4  UNL d   1       0.100   0.014   1.006  0.00  0.00    -0.005 A 
ATOM      6  C5  UNL d   1      -0.426  -1.275   1.062  0.00  0.00     0.003 A 
ATOM      7  C6  UNL d   1      -1.279  -1.637   2.106  0.00  0.00    -0.001 A 
ENDROOT
TORSDOF 0
ENDMDL
