MODEL 1
REMARK minimizedAffinity 1.7608285
REMARK minimizedRMSD -1
REMARK  0 active torsions:
REMARK  status: ('A' for Active; 'I' for Inactive)
ROOT
ATOM      1  C   UNL d   1       3.366  -0.677  -3.422  0.00  0.00     0.078 C 
ATOM      2  C1  UNL d   1       4.085   0.417  -4.154  0.00  0.00    -0.077 A 
ATOM      3  C2  UNL d   1       3.552   0.973  -5.323  0.00  0.00    -0.001 A 
ATOM      4  C3  UNL d   1       4.236   1.984  -5.999  0.00  0.00     0.003 A 
ATOM      5  C4  UNL d   1       5.459   2.446  -5.516  0.00  0.00    -0.005 A 
ATOM      6  C5  UNL d   1       5.999   1.896  -4.355  0.00  0.00     0.003 A 
ATOM      7  C6  UNL d   1       5.315   0.886  -3.677  0.00  0.00    -0.001 A 
ENDROOT
TORSDOF 0
ENDMDL
