MODEL 1
REMARK minimizedAffinity 6.19555378
REMARK minimizedRMSD -1
REMARK  0 active torsions:
REMARK  status: ('A' for Active; 'I' for Inactive)
ROOT
ATOM      1  C   UNL d   1      -1.032  -5.999   3.008  0.00  0.00     0.078 C 
ATOM      2  C1  UNL d   1       0.221  -5.522   3.678  0.00  0.00    -0.077 A 
ATOM      3  C2  UNL d   1       0.590  -5.999   4.942  0.00  0.00    -0.001 A 
ATOM      4  C3  UNL d   1       1.755  -5.539   5.558  0.00  0.00     0.003 A 
ATOM      5  C4  UNL d   1       2.560  -4.598   4.918  0.00  0.00    -0.005 A 
ATOM      6  C5  UNL d   1       2.200  -4.116   3.662  0.00  0.00     0.003 A 
ATOM      7  C6  UNL d   1       1.036  -4.575   3.044  0.00  0.00    -0.001 A 
ENDROOT
TORSDOF 0
ENDMDL
