MODEL 1
REMARK minimizedAffinity 1.40511692
REMARK minimizedRMSD -1
REMARK  0 active torsions:
REMARK  status: ('A' for Active; 'I' for Inactive)
ROOT
ATOM      1  C   UNL d   1      -2.451  -5.981   0.776  0.00  0.00     0.078 C 
ATOM      2  C1  UNL d   1      -1.290  -5.995   1.725  0.00  0.00    -0.077 A 
ATOM      3  C2  UNL d   1      -1.491  -5.995   3.111  0.00  0.00    -0.001 A 
ATOM      4  C3  UNL d   1      -0.401  -5.998   3.982  0.00  0.00     0.003 A 
ATOM      5  C4  UNL d   1       0.898  -6.000   3.478  0.00  0.00    -0.005 A 
ATOM      6  C5  UNL d   1       1.108  -5.998   2.100  0.00  0.00     0.003 A 
ATOM      7  C6  UNL d   1       0.019  -5.995   1.227  0.00  0.00    -0.001 A 
ENDROOT
TORSDOF 0
ENDMDL
