MODEL 1
REMARK minimizedAffinity -1.36054456
REMARK minimizedRMSD -1
REMARK  0 active torsions:
REMARK  status: ('A' for Active; 'I' for Inactive)
ROOT
ATOM      1  C   UNL d   1      -4.709  -6.000   2.540  0.00  0.00     0.078 C 
ATOM      2  C1  UNL d   1      -3.217  -5.991   2.393  0.00  0.00    -0.077 A 
ATOM      3  C2  UNL d   1      -2.616  -5.987   1.128  0.00  0.00    -0.001 A 
ATOM      4  C3  UNL d   1      -1.226  -5.989   1.007  0.00  0.00     0.003 A 
ATOM      5  C4  UNL d   1      -0.424  -5.994   2.146  0.00  0.00    -0.005 A 
ATOM      6  C5  UNL d   1      -1.012  -6.000   3.409  0.00  0.00     0.003 A 
ATOM      7  C6  UNL d   1      -2.402  -5.998   3.533  0.00  0.00    -0.001 A 
ENDROOT
TORSDOF 0
ENDMDL
