MODEL 1
REMARK minimizedAffinity 3.45535874
REMARK minimizedRMSD -1
REMARK  0 active torsions:
REMARK  status: ('A' for Active; 'I' for Inactive)
ROOT
ATOM      1  C   UNL d   1       1.696  -1.771  -4.425  0.00  0.00     0.078 C 
ATOM      2  C1  UNL d   1       0.248  -2.094  -4.205  0.00  0.00    -0.077 A 
ATOM      3  C2  UNL d   1      -0.628  -1.145  -3.664  0.00  0.00    -0.001 A 
ATOM      4  C3  UNL d   1      -1.971  -1.463  -3.456  0.00  0.00     0.003 A 
ATOM      5  C4  UNL d   1      -2.450  -2.729  -3.784  0.00  0.00    -0.005 A 
ATOM      6  C5  UNL d   1      -1.585  -3.681  -4.320  0.00  0.00     0.003 A 
ATOM      7  C6  UNL d   1      -0.242  -3.365  -4.530  0.00  0.00    -0.001 A 
ENDROOT
TORSDOF 0
ENDMDL
