MODEL 1
REMARK minimizedAffinity 6.18629313
REMARK minimizedRMSD -1
REMARK  0 active torsions:
REMARK  status: ('A' for Active; 'I' for Inactive)
ROOT
ATOM      1  C   UNL d   1       0.035  -5.975   5.255  0.00  0.00     0.078 C 
ATOM      2  C1  UNL d   1      -0.098  -5.976   3.762  0.00  0.00    -0.077 A 
ATOM      3  C2  UNL d   1      -1.358  -5.980   3.150  0.00  0.00    -0.001 A 
ATOM      4  C3  UNL d   1      -1.467  -5.991   1.759  0.00  0.00     0.003 A 
ATOM      5  C4  UNL d   1      -0.320  -5.999   0.967  0.00  0.00    -0.005 A 
ATOM      6  C5  UNL d   1       0.938  -5.997   1.567  0.00  0.00     0.003 A 
ATOM      7  C6  UNL d   1       1.049  -5.986   2.958  0.00  0.00    -0.001 A 
ENDROOT
TORSDOF 0
ENDMDL
