MODEL 1
REMARK minimizedAffinity 1.20780206
REMARK minimizedRMSD -1
REMARK  0 active torsions:
REMARK  status: ('A' for Active; 'I' for Inactive)
ROOT
ATOM      1  C   UNL d   1      -5.447  -0.407   6.000  0.00  0.00     0.078 C 
ATOM      2  C1  UNL d   1      -5.629   0.811   5.144  0.00  0.00    -0.077 A 
ATOM      3  C2  UNL d   1      -5.634   2.093   5.707  0.00  0.00    -0.001 A 
ATOM      4  C3  UNL d   1      -5.813   3.217   4.900  0.00  0.00     0.003 A 
ATOM      5  C4  UNL d   1      -5.991   3.071   3.525  0.00  0.00    -0.005 A 
ATOM      6  C5  UNL d   1      -5.990   1.799   2.957  0.00  0.00     0.003 A 
ATOM      7  C6  UNL d   1      -5.810   0.673   3.762  0.00  0.00    -0.001 A 
ENDROOT
TORSDOF 0
ENDMDL
