MODEL 1
REMARK minimizedAffinity 1.83503509
REMARK minimizedRMSD -1
REMARK  0 active torsions:
REMARK  status: ('A' for Active; 'I' for Inactive)
ROOT
ATOM      1  C   UNL d   1      -2.035  -6.000   1.488  0.00  0.00     0.078 C 
ATOM      2  C1  UNL d   1      -0.793  -5.992   2.327  0.00  0.00    -0.077 A 
ATOM      3  C2  UNL d   1       0.477  -5.996   1.736  0.00  0.00    -0.001 A 
ATOM      4  C3  UNL d   1       1.625  -5.999   2.529  0.00  0.00     0.003 A 
ATOM      5  C4  UNL d   1       1.515  -5.999   3.918  0.00  0.00    -0.005 A 
ATOM      6  C5  UNL d   1       0.257  -5.997   4.516  0.00  0.00     0.003 A 
ATOM      7  C6  UNL d   1      -0.893  -5.994   3.724  0.00  0.00    -0.001 A 
ENDROOT
TORSDOF 0
ENDMDL
