MODEL 1
REMARK minimizedAffinity 4.63798332
REMARK minimizedRMSD -1
REMARK  0 active torsions:
REMARK  status: ('A' for Active; 'I' for Inactive)
ROOT
ATOM      1  C   UNL d   1       3.786  -5.971   3.003  0.00  0.00     0.078 C 
ATOM      2  C1  UNL d   1       2.341  -5.987   3.402  0.00  0.00    -0.077 A 
ATOM      3  C2  UNL d   1       1.326  -5.985   2.437  0.00  0.00    -0.001 A 
ATOM      4  C3  UNL d   1      -0.015  -5.990   2.823  0.00  0.00     0.003 A 
ATOM      5  C4  UNL d   1      -0.354  -5.996   4.175  0.00  0.00    -0.005 A 
ATOM      6  C5  UNL d   1       0.649  -5.996   5.142  0.00  0.00     0.003 A 
ATOM      7  C6  UNL d   1       1.991  -5.991   4.758  0.00  0.00    -0.001 A 
ENDROOT
TORSDOF 0
ENDMDL
