MODEL 1
REMARK minimizedAffinity 7.99098015
REMARK minimizedRMSD -1
REMARK  0 active torsions:
REMARK  status: ('A' for Active; 'I' for Inactive)
ROOT
ATOM      1  C   UNL d   1       2.661  -1.277  -2.851  0.00  0.00     0.078 C 
ATOM      2  C1  UNL d   1       1.402  -1.851  -3.429  0.00  0.00    -0.077 A 
ATOM      3  C2  UNL d   1       1.398  -3.109  -4.044  0.00  0.00    -0.001 A 
ATOM      4  C3  UNL d   1       0.221  -3.627  -4.586  0.00  0.00     0.003 A 
ATOM      5  C4  UNL d   1      -0.962  -2.893  -4.520  0.00  0.00    -0.005 A 
ATOM      6  C5  UNL d   1      -0.968  -1.639  -3.912  0.00  0.00     0.003 A 
ATOM      7  C6  UNL d   1       0.209  -1.120  -3.369  0.00  0.00    -0.001 A 
ENDROOT
TORSDOF 0
ENDMDL
