MODEL 1
REMARK minimizedAffinity 8.36316109
REMARK minimizedRMSD -1
REMARK  0 active torsions:
REMARK  status: ('A' for Active; 'I' for Inactive)
ROOT
ATOM      1  C   UNL d   1       1.795  -1.265  -2.842  0.00  0.00     0.078 C 
ATOM      2  C1  UNL d   1       0.472  -1.899  -3.152  0.00  0.00    -0.077 A 
ATOM      3  C2  UNL d   1       0.368  -2.923  -4.102  0.00  0.00    -0.001 A 
ATOM      4  C3  UNL d   1      -0.871  -3.497  -4.388  0.00  0.00     0.003 A 
ATOM      5  C4  UNL d   1      -2.017  -3.054  -3.730  0.00  0.00    -0.005 A 
ATOM      6  C5  UNL d   1      -1.924  -2.033  -2.786  0.00  0.00     0.003 A 
ATOM      7  C6  UNL d   1      -0.685  -1.458  -2.498  0.00  0.00    -0.001 A 
ENDROOT
TORSDOF 0
ENDMDL
