MODEL 1
REMARK minimizedAffinity 4.4822011
REMARK minimizedRMSD -1
REMARK  0 active torsions:
REMARK  status: ('A' for Active; 'I' for Inactive)
ROOT
ATOM      1  C   UNL d   1      -1.046  -3.086   2.272  0.00  0.00     0.078 C 
ATOM      2  C1  UNL d   1      -0.540  -1.691   2.055  0.00  0.00    -0.077 A 
ATOM      3  C2  UNL d   1      -0.883  -0.655   2.933  0.00  0.00    -0.001 A 
ATOM      4  C3  UNL d   1      -0.412   0.641   2.713  0.00  0.00     0.003 A 
ATOM      5  C4  UNL d   1       0.402   0.913   1.616  0.00  0.00    -0.005 A 
ATOM      6  C5  UNL d   1       0.747  -0.111   0.736  0.00  0.00     0.003 A 
ATOM      7  C6  UNL d   1       0.278  -1.408   0.954  0.00  0.00    -0.001 A 
ENDROOT
TORSDOF 0
ENDMDL
