MODEL 1
REMARK minimizedAffinity 6.57233906
REMARK minimizedRMSD -1
REMARK  0 active torsions:
REMARK  status: ('A' for Active; 'I' for Inactive)
ROOT
ATOM      1  C   UNL d   1      -5.529  -0.389   4.127  0.00  0.00     0.078 C 
ATOM      2  C1  UNL d   1      -4.496  -1.069   3.279  0.00  0.00    -0.077 A 
ATOM      3  C2  UNL d   1      -4.854  -1.737   2.102  0.00  0.00    -0.001 A 
ATOM      4  C3  UNL d   1      -3.883  -2.373   1.328  0.00  0.00     0.003 A 
ATOM      5  C4  UNL d   1      -2.547  -2.349   1.723  0.00  0.00    -0.005 A 
ATOM      6  C5  UNL d   1      -2.181  -1.688   2.894  0.00  0.00     0.003 A 
ATOM      7  C6  UNL d   1      -3.151  -1.051   3.669  0.00  0.00    -0.001 A 
ENDROOT
TORSDOF 0
ENDMDL
