MODEL 1
REMARK minimizedAffinity 3.65131521
REMARK minimizedRMSD -1
REMARK  0 active torsions:
REMARK  status: ('A' for Active; 'I' for Inactive)
ROOT
ATOM      1  C   UNL d   1      -2.430  -5.979   0.814  0.00  0.00     0.078 C 
ATOM      2  C1  UNL d   1      -1.094  -5.993   1.495  0.00  0.00    -0.077 A 
ATOM      3  C2  UNL d   1      -0.996  -5.989   2.891  0.00  0.00    -0.001 A 
ATOM      4  C3  UNL d   1       0.254  -5.992   3.512  0.00  0.00     0.003 A 
ATOM      5  C4  UNL d   1       1.417  -5.998   2.743  0.00  0.00    -0.005 A 
ATOM      6  C5  UNL d   1       1.329  -5.999   1.353  0.00  0.00     0.003 A 
ATOM      7  C6  UNL d   1       0.080  -5.996   0.730  0.00  0.00    -0.001 A 
ENDROOT
TORSDOF 0
ENDMDL
