MODEL 1
REMARK minimizedAffinity -1.576267
REMARK minimizedRMSD -1
REMARK  0 active torsions:
REMARK  status: ('A' for Active; 'I' for Inactive)
ROOT
ATOM      1  O1  BZF d   1       0.551   1.906  -1.074  0.00  0.00    -0.204 OA
ATOM      2  C2  BZF d   1       1.421   0.881  -1.391  0.00  0.00     0.174 A 
ATOM      3  C3  BZF d   1       1.266  -0.158  -0.545  0.00  0.00    -0.012 A 
ATOM      4  C3A BZF d   1       0.170   0.206   0.300  0.00  0.00    -0.107 A 
ATOM      5  C4  BZF d   1      -0.470  -0.421   1.330  0.00  0.00     0.055 A 
ATOM      6  C5  BZF d   1      -1.457   0.237   1.994  0.00  0.00    -0.016 A 
ATOM      7  C6  BZF d   1      -1.824   1.524   1.659  0.00  0.00     0.022 A 
ATOM      8  C7  BZF d   1      -1.222   2.185   0.641  0.00  0.00     0.029 A 
ATOM      9  C7A BZF d   1      -0.247   1.511  -0.053  0.00  0.00     0.058 A 
ENDROOT
TORSDOF 0
ENDMDL
