MODEL 1
REMARK minimizedAffinity -2.58858013
REMARK minimizedRMSD -1
REMARK  0 active torsions:
REMARK  status: ('A' for Active; 'I' for Inactive)
ROOT
ATOM      1  O1  BZF d   1      -1.504   1.237   2.596  0.00  0.00    -0.204 OA
ATOM      2  C2  BZF d   1      -2.237   2.311   2.130  0.00  0.00     0.174 A 
ATOM      3  C3  BZF d   1      -2.021   2.501   0.812  0.00  0.00    -0.012 A 
ATOM      4  C3A BZF d   1      -1.167   1.426   0.411  0.00  0.00    -0.107 A 
ATOM      5  C4  BZF d   1      -0.615   1.060  -0.783  0.00  0.00     0.055 A 
ATOM      6  C5  BZF d   1       0.233  -0.001  -0.822  0.00  0.00    -0.016 A 
ATOM      7  C6  BZF d   1       0.555  -0.715   0.314  0.00  0.00     0.022 A 
ATOM      8  C7  BZF d   1       0.029  -0.393   1.521  0.00  0.00     0.029 A 
ATOM      9  C7A BZF d   1      -0.854   0.658   1.557  0.00  0.00     0.058 A 
ENDROOT
TORSDOF 0
ENDMDL
