MODEL 1
REMARK minimizedAffinity -1.35301411
REMARK minimizedRMSD -1
REMARK  0 active torsions:
REMARK  status: ('A' for Active; 'I' for Inactive)
ROOT
ATOM      1  O1  BZF d   1      -0.941   2.690  -1.267  0.00  0.00    -0.204 OA
ATOM      2  C2  BZF d   1       0.071   2.136  -2.027  0.00  0.00     0.174 A 
ATOM      3  C3  BZF d   1       0.657   1.113  -1.372  0.00  0.00    -0.012 A 
ATOM      4  C3A BZF d   1      -0.092   0.963  -0.162  0.00  0.00    -0.107 A 
ATOM      5  C4  BZF d   1      -0.005   0.104   0.895  0.00  0.00     0.055 A 
ATOM      6  C5  BZF d   1      -0.843   0.270   1.952  0.00  0.00    -0.016 A 
ATOM      7  C6  BZF d   1      -1.775   1.286   1.987  0.00  0.00     0.022 A 
ATOM      8  C7  BZF d   1      -1.903   2.160   0.959  0.00  0.00     0.029 A 
ATOM      9  C7A BZF d   1      -1.080   1.974  -0.125  0.00  0.00     0.058 A 
ENDROOT
TORSDOF 0
ENDMDL
