MODEL 1
REMARK minimizedAffinity -2.7578392
REMARK minimizedRMSD -1
REMARK  0 active torsions:
REMARK  status: ('A' for Active; 'I' for Inactive)
ROOT
ATOM      1  O1  BZF d   1       0.536  -0.182   0.999  0.00  0.00    -0.204 OA
ATOM      2  C2  BZF d   1       1.011  -0.462  -0.267  0.00  0.00     0.174 A 
ATOM      3  C3  BZF d   1       0.363   0.272  -1.195  0.00  0.00    -0.012 A 
ATOM      4  C3A BZF d   1      -0.511   1.128  -0.454  0.00  0.00    -0.107 A 
ATOM      5  C4  BZF d   1      -1.403   2.098  -0.814  0.00  0.00     0.055 A 
ATOM      6  C5  BZF d   1      -2.153   2.695   0.149  0.00  0.00    -0.016 A 
ATOM      7  C6  BZF d   1      -2.042   2.344   1.479  0.00  0.00     0.022 A 
ATOM      8  C7  BZF d   1      -1.168   1.392   1.885  0.00  0.00     0.029 A 
ATOM      9  C7A BZF d   1      -0.384   0.809   0.918  0.00  0.00     0.058 A 
ENDROOT
TORSDOF 0
ENDMDL
