MODEL 1
REMARK minimizedAffinity -2.99023366
REMARK minimizedRMSD -1
REMARK  0 active torsions:
REMARK  status: ('A' for Active; 'I' for Inactive)
ROOT
ATOM      1  O1  BZF d   1       0.079   2.532  -0.564  0.00  0.00    -0.204 OA
ATOM      2  C2  BZF d   1       0.759   2.037  -1.661  0.00  0.00     0.174 A 
ATOM      3  C3  BZF d   1       1.095   0.745  -1.472  0.00  0.00    -0.012 A 
ATOM      4  C3A BZF d   1       0.513   0.384  -0.216  0.00  0.00    -0.107 A 
ATOM      5  C4  BZF d   1       0.484  -0.774   0.507  0.00  0.00     0.055 A 
ATOM      6  C5  BZF d   1      -0.108  -0.774   1.731  0.00  0.00    -0.016 A 
ATOM      7  C6  BZF d   1      -0.675   0.365   2.263  0.00  0.00     0.022 A 
ATOM      8  C7  BZF d   1      -0.676   1.536   1.580  0.00  0.00     0.029 A 
ATOM      9  C7A BZF d   1      -0.108   1.531   0.330  0.00  0.00     0.058 A 
ENDROOT
TORSDOF 0
ENDMDL
