MODEL 1
REMARK minimizedAffinity -5.43544102
REMARK minimizedRMSD -1
REMARK  0 active torsions:
REMARK  status: ('A' for Active; 'I' for Inactive)
ROOT
ATOM      1  O1  BZF d   1       0.386   0.378  -1.105  0.00  0.00    -0.204 OA
ATOM      2  C2  BZF d   1       0.918  -0.547  -0.227  0.00  0.00     0.174 A 
ATOM      3  C3  BZF d   1       0.480  -0.321   1.028  0.00  0.00    -0.012 A 
ATOM      4  C3A BZF d   1      -0.452   0.759   0.914  0.00  0.00    -0.107 A 
ATOM      5  C4  BZF d   1      -1.232   1.425   1.815  0.00  0.00     0.055 A 
ATOM      6  C5  BZF d   1      -1.975   2.481   1.392  0.00  0.00    -0.016 A 
ATOM      7  C6  BZF d   1      -1.960   2.899   0.077  0.00  0.00     0.022 A 
ATOM      8  C7  BZF d   1      -1.206   2.266  -0.854  0.00  0.00     0.029 A 
ATOM      9  C7A BZF d   1      -0.478   1.179  -0.436  0.00  0.00     0.058 A 
ENDROOT
TORSDOF 0
ENDMDL
