MODEL 1
REMARK minimizedAffinity -3.20518613
REMARK minimizedRMSD -1
REMARK  0 active torsions:
REMARK  status: ('A' for Active; 'I' for Inactive)
ROOT
ATOM      1  O1  BZF d   1      -1.196   1.204   2.171  0.00  0.00    -0.204 OA
ATOM      2  C2  BZF d   1      -1.046  -0.169   2.207  0.00  0.00     0.174 A 
ATOM      3  C3  BZF d   1      -0.371  -0.605   1.124  0.00  0.00    -0.012 A 
ATOM      4  C3A BZF d   1      -0.001   0.578   0.409  0.00  0.00    -0.107 A 
ATOM      5  C4  BZF d   1       0.699   0.799  -0.742  0.00  0.00     0.055 A 
ATOM      6  C5  BZF d   1       0.822   2.070  -1.207  0.00  0.00    -0.016 A 
ATOM      7  C6  BZF d   1       0.253   3.142  -0.549  0.00  0.00     0.022 A 
ATOM      8  C7  BZF d   1      -0.446   2.973   0.599  0.00  0.00     0.029 A 
ATOM      9  C7A BZF d   1      -0.543   1.693   1.089  0.00  0.00     0.058 A 
ENDROOT
TORSDOF 0
ENDMDL
