MODEL 1
REMARK minimizedAffinity 3.67965531
REMARK minimizedRMSD -1
REMARK  0 active torsions:
REMARK  status: ('A' for Active; 'I' for Inactive)
ROOT
ATOM      1  O1  BZF d   1       0.047   2.175  -0.143  0.00  0.00    -0.204 OA
ATOM      2  C2  BZF d   1       0.179   3.309   0.635  0.00  0.00     0.174 A 
ATOM      3  C3  BZF d   1      -0.191   3.062   1.908  0.00  0.00    -0.012 A 
ATOM      4  C3A BZF d   1      -0.490   1.663   1.948  0.00  0.00    -0.107 A 
ATOM      5  C4  BZF d   1      -0.897   0.818   2.940  0.00  0.00     0.055 A 
ATOM      6  C5  BZF d   1      -1.172  -0.477   2.633  0.00  0.00    -0.016 A 
ATOM      7  C6  BZF d   1      -1.055  -0.959   1.346  0.00  0.00     0.022 A 
ATOM      8  C7  BZF d   1      -0.650  -0.160   0.329  0.00  0.00     0.029 A 
ATOM      9  C7A BZF d   1      -0.340   1.141   0.642  0.00  0.00     0.058 A 
ENDROOT
TORSDOF 0
ENDMDL
