MODEL 1
REMARK minimizedAffinity 9.38804817
REMARK minimizedRMSD -1
REMARK  0 active torsions:
REMARK  status: ('A' for Active; 'I' for Inactive)
ROOT
ATOM      1  O1  BZF d   1       1.585  -0.492   0.137  0.00  0.00    -0.204 OA
ATOM      2  C2  BZF d   1       1.108   0.553  -0.631  0.00  0.00     0.174 A 
ATOM      3  C3  BZF d   1      -0.044   1.035  -0.121  0.00  0.00    -0.012 A 
ATOM      4  C3A BZF d   1      -0.255   0.303   1.090  0.00  0.00    -0.107 A 
ATOM      5  C4  BZF d   1      -1.223   0.339   2.052  0.00  0.00     0.055 A 
ATOM      6  C5  BZF d   1      -1.176  -0.559   3.071  0.00  0.00    -0.016 A 
ATOM      7  C6  BZF d   1      -0.178  -1.508   3.156  0.00  0.00     0.022 A 
ATOM      8  C7  BZF d   1       0.807  -1.580   2.228  0.00  0.00     0.029 A 
ATOM      9  C7A BZF d   1       0.780  -0.652   1.215  0.00  0.00     0.058 A 
ENDROOT
TORSDOF 0
ENDMDL
