MODEL 1
REMARK minimizedAffinity -3.84869099
REMARK minimizedRMSD -1
REMARK  0 active torsions:
REMARK  status: ('A' for Active; 'I' for Inactive)
ROOT
ATOM      1  O1  BZF d   1       0.718   1.746  -1.441  0.00  0.00    -0.204 OA
ATOM      2  C2  BZF d   1       1.224   0.463  -1.527  0.00  0.00     0.174 A 
ATOM      3  C3  BZF d   1       0.582  -0.363  -0.676  0.00  0.00    -0.012 A 
ATOM      4  C3A BZF d   1      -0.448   0.434  -0.083  0.00  0.00    -0.107 A 
ATOM      5  C4  BZF d   1      -1.427   0.173   0.832  0.00  0.00     0.055 A 
ATOM      6  C5  BZF d   1      -2.224   1.190   1.254  0.00  0.00    -0.016 A 
ATOM      7  C6  BZF d   1      -2.067   2.478   0.787  0.00  0.00     0.022 A 
ATOM      8  C7  BZF d   1      -1.112   2.785  -0.125  0.00  0.00     0.029 A 
ATOM      9  C7A BZF d   1      -0.327   1.753  -0.578  0.00  0.00     0.058 A 
ENDROOT
TORSDOF 0
ENDMDL
