MODEL 1
REMARK minimizedAffinity -2.92955017
REMARK minimizedRMSD -1
REMARK  0 active torsions:
REMARK  status: ('A' for Active; 'I' for Inactive)
ROOT
ATOM      1  O1  BZF d   1       0.731  -0.193   1.166  0.00  0.00    -0.204 OA
ATOM      2  C2  BZF d   1       0.886  -0.809  -0.061  0.00  0.00     0.174 A 
ATOM      3  C3  BZF d   1      -0.065  -0.399  -0.925  0.00  0.00    -0.012 A 
ATOM      4  C3A BZF d   1      -0.808   0.601  -0.221  0.00  0.00    -0.107 A 
ATOM      5  C4  BZF d   1      -1.871   1.391  -0.555  0.00  0.00     0.055 A 
ATOM      6  C5  BZF d   1      -2.406   2.211   0.386  0.00  0.00    -0.016 A 
ATOM      7  C6  BZF d   1      -1.908   2.263   1.672  0.00  0.00     0.022 A 
ATOM      8  C7  BZF d   1      -0.852   1.502   2.049  0.00  0.00     0.029 A 
ATOM      9  C7A BZF d   1      -0.288   0.696   1.090  0.00  0.00     0.058 A 
ENDROOT
TORSDOF 0
ENDMDL
