MODEL 1
REMARK minimizedAffinity -3.86259556
REMARK minimizedRMSD -1
REMARK  0 active torsions:
REMARK  status: ('A' for Active; 'I' for Inactive)
ROOT
ATOM      1  O1  BZF d   1       0.652  -0.311   0.981  0.00  0.00    -0.204 OA
ATOM      2  C2  BZF d   1       0.201  -0.542   2.267  0.00  0.00     0.174 A 
ATOM      3  C3  BZF d   1      -0.737   0.361   2.615  0.00  0.00    -0.012 A 
ATOM      4  C3A BZF d   1      -0.950   1.154   1.443  0.00  0.00    -0.107 A 
ATOM      5  C4  BZF d   1      -1.775   2.204   1.156  0.00  0.00     0.055 A 
ATOM      6  C5  BZF d   1      -1.685   2.801  -0.062  0.00  0.00    -0.016 A 
ATOM      7  C6  BZF d   1      -0.779   2.378  -1.013  0.00  0.00     0.022 A 
ATOM      8  C7  BZF d   1       0.056   1.338  -0.776  0.00  0.00     0.029 A 
ATOM      9  C7A BZF d   1      -0.055   0.711   0.441  0.00  0.00     0.058 A 
ENDROOT
TORSDOF 0
ENDMDL
