MODEL 1
REMARK minimizedAffinity -4.22793198
REMARK minimizedRMSD -1
REMARK  0 active torsions:
REMARK  status: ('A' for Active; 'I' for Inactive)
ROOT
ATOM      1  O1  BZF d   1       1.136   0.234  -0.271  0.00  0.00    -0.204 OA
ATOM      2  C2  BZF d   1       1.087   1.144  -1.310  0.00  0.00     0.174 A 
ATOM      3  C3  BZF d   1      -0.017   1.913  -1.221  0.00  0.00    -0.012 A 
ATOM      4  C3A BZF d   1      -0.654   1.517  -0.002  0.00  0.00    -0.107 A 
ATOM      5  C4  BZF d   1      -1.785   1.928   0.643  0.00  0.00     0.055 A 
ATOM      6  C5  BZF d   1      -2.169   1.286   1.777  0.00  0.00    -0.016 A 
ATOM      7  C6  BZF d   1      -1.449   0.228   2.292  0.00  0.00     0.022 A 
ATOM      8  C7  BZF d   1      -0.317  -0.213   1.690  0.00  0.00     0.029 A 
ATOM      9  C7A BZF d   1       0.091   0.455   0.562  0.00  0.00     0.058 A 
ENDROOT
TORSDOF 0
ENDMDL
