MODEL 1
REMARK minimizedAffinity -4.65516043
REMARK minimizedRMSD -1
REMARK  0 active torsions:
REMARK  status: ('A' for Active; 'I' for Inactive)
ROOT
ATOM      1  O1  BZF d   1      -0.704  -0.136   1.884  0.00  0.00    -0.204 OA
ATOM      2  C2  BZF d   1      -1.492   0.949   2.218  0.00  0.00     0.174 A 
ATOM      3  C3  BZF d   1      -1.274   1.977   1.372  0.00  0.00    -0.012 A 
ATOM      4  C3A BZF d   1      -0.357   1.473   0.397  0.00  0.00    -0.107 A 
ATOM      5  C4  BZF d   1       0.227   2.017  -0.712  0.00  0.00     0.055 A 
ATOM      6  C5  BZF d   1       1.134   1.282  -1.408  0.00  0.00    -0.016 A 
ATOM      7  C6  BZF d   1       1.484   0.005  -1.021  0.00  0.00     0.022 A 
ATOM      8  C7  BZF d   1       0.929  -0.578   0.068  0.00  0.00     0.029 A 
ATOM      9  C7A BZF d   1      -0.013   0.149   0.755  0.00  0.00     0.058 A 
ENDROOT
TORSDOF 0
ENDMDL
