MODEL 1
REMARK minimizedAffinity -3.52095962
REMARK minimizedRMSD -1
REMARK  0 active torsions:
REMARK  status: ('A' for Active; 'I' for Inactive)
ROOT
ATOM      1  O1  BZF d   1      -1.323   1.189   2.354  0.00  0.00    -0.204 OA
ATOM      2  C2  BZF d   1      -0.705   0.204   3.100  0.00  0.00     0.174 A 
ATOM      3  C3  BZF d   1       0.021  -0.611   2.309  0.00  0.00    -0.012 A 
ATOM      4  C3A BZF d   1      -0.079  -0.050   0.997  0.00  0.00    -0.107 A 
ATOM      5  C4  BZF d   1       0.439  -0.401  -0.217  0.00  0.00     0.055 A 
ATOM      6  C5  BZF d   1       0.090   0.316  -1.317  0.00  0.00    -0.016 A 
ATOM      7  C6  BZF d   1      -0.779   1.385  -1.241  0.00  0.00     0.022 A 
ATOM      8  C7  BZF d   1      -1.315   1.774  -0.058  0.00  0.00     0.029 A 
ATOM      9  C7A BZF d   1      -0.938   1.072   1.060  0.00  0.00     0.058 A 
ENDROOT
TORSDOF 0
ENDMDL
