MODEL 1
REMARK minimizedAffinity 1.59000969
REMARK minimizedRMSD -1
REMARK  0 active torsions:
REMARK  status: ('A' for Active; 'I' for Inactive)
ROOT
ATOM      1  C2' OXE d   1      -1.099  -3.991  -2.144  0.00  0.00     0.078 C 
ATOM      2  C1' OXE d   1       1.706  -4.045  -2.041  0.00  0.00     0.078 C 
ATOM      3  C1  OXE d   1       1.032  -4.714  -3.213  0.00  0.00    -0.078 A 
ATOM      4  C2  OXE d   1      -0.342  -4.723  -3.231  0.00  0.00    -0.078 A 
ATOM      5  C3  OXE d   1      -1.013  -5.279  -4.317  0.00  0.00     0.003 A 
ATOM      6  C4  OXE d   1      -0.306  -5.962  -5.313  0.00  0.00    -0.002 A 
ATOM      7  C5  OXE d   1       1.092  -5.999  -5.294  0.00  0.00    -0.002 A 
ATOM      8  C6  OXE d   1       1.776  -5.345  -4.275  0.00  0.00     0.003 A 
ENDROOT
TORSDOF 0
ENDMDL
