MODEL 1
REMARK minimizedAffinity 15.2909212
REMARK minimizedRMSD -1
REMARK  0 active torsions:
REMARK  status: ('A' for Active; 'I' for Inactive)
ROOT
ATOM      1  C2' OXE d   1      -2.840  -0.754  -5.471  0.00  0.00     0.078 C 
ATOM      2  C1' OXE d   1      -0.721  -2.594  -5.404  0.00  0.00     0.078 C 
ATOM      3  C1  OXE d   1      -0.382  -1.137  -5.598  0.00  0.00    -0.078 A 
ATOM      4  C2  OXE d   1      -1.428  -0.250  -5.676  0.00  0.00    -0.078 A 
ATOM      5  C3  OXE d   1      -1.169   1.112  -5.800  0.00  0.00     0.003 A 
ATOM      6  C4  OXE d   1       0.139   1.570  -6.000  0.00  0.00    -0.002 A 
ATOM      7  C5  OXE d   1       1.216   0.678  -5.963  0.00  0.00    -0.002 A 
ATOM      8  C6  OXE d   1       0.977  -0.670  -5.721  0.00  0.00     0.003 A 
ENDROOT
TORSDOF 0
ENDMDL
