MODEL 1
REMARK minimizedAffinity 8.01812744
REMARK minimizedRMSD -1
REMARK  0 active torsions:
REMARK  status: ('A' for Active; 'I' for Inactive)
ROOT
ATOM      1  C2' OXE d   1      -1.472   4.884  -2.403  0.00  0.00     0.078 C 
ATOM      2  C1' OXE d   1      -2.713   2.980  -0.756  0.00  0.00     0.078 C 
ATOM      3  C1  OXE d   1      -1.862   4.035  -0.094  0.00  0.00    -0.078 A 
ATOM      4  C2  OXE d   1      -1.222   4.935  -0.912  0.00  0.00    -0.078 A 
ATOM      5  C3  OXE d   1      -0.469   5.962  -0.350  0.00  0.00     0.003 A 
ATOM      6  C4  OXE d   1      -0.234   5.996   1.030  0.00  0.00    -0.002 A 
ATOM      7  C5  OXE d   1      -0.845   5.065   1.877  0.00  0.00    -0.002 A 
ATOM      8  C6  OXE d   1      -1.694   4.106   1.336  0.00  0.00     0.003 A 
ENDROOT
TORSDOF 0
ENDMDL
