MODEL 1
REMARK minimizedAffinity 5.30679274
REMARK minimizedRMSD -1
REMARK  0 active torsions:
REMARK  status: ('A' for Active; 'I' for Inactive)
ROOT
ATOM      1  C2' OXE d   1       3.796  -0.419   4.931  0.00  0.00     0.078 C 
ATOM      2  C1' OXE d   1       3.536   0.728   2.382  0.00  0.00     0.078 C 
ATOM      3  C1  OXE d   1       2.560  -0.355   2.769  0.00  0.00    -0.078 A 
ATOM      4  C2  OXE d   1       2.724  -0.943   4.000  0.00  0.00    -0.078 A 
ATOM      5  C3  OXE d   1       1.818  -1.909   4.429  0.00  0.00     0.003 A 
ATOM      6  C4  OXE d   1       0.835  -2.395   3.558  0.00  0.00    -0.002 A 
ATOM      7  C5  OXE d   1       0.676  -1.837   2.285  0.00  0.00    -0.002 A 
ATOM      8  C6  OXE d   1       1.502  -0.790   1.892  0.00  0.00     0.003 A 
ENDROOT
TORSDOF 0
ENDMDL
