MODEL 1
REMARK minimizedAffinity 9.94948578
REMARK minimizedRMSD -1
REMARK  0 active torsions:
REMARK  status: ('A' for Active; 'I' for Inactive)
ROOT
ATOM      1  C2' OXE d   1      -2.390   5.045  -2.640  0.00  0.00     0.078 C 
ATOM      2  C1' OXE d   1      -0.464   3.048  -3.070  0.00  0.00     0.078 C 
ATOM      3  C1  OXE d   1      -0.200   4.057  -1.980  0.00  0.00    -0.078 A 
ATOM      4  C2  OXE d   1      -1.126   5.058  -1.808  0.00  0.00    -0.078 A 
ATOM      5  C3  OXE d   1      -0.958   5.983  -0.781  0.00  0.00     0.003 A 
ATOM      6  C4  OXE d   1       0.218   5.995  -0.023  0.00  0.00    -0.002 A 
ATOM      7  C5  OXE d   1       1.193   5.008  -0.208  0.00  0.00    -0.002 A 
ATOM      8  C6  OXE d   1       0.979   4.009  -1.152  0.00  0.00     0.003 A 
ENDROOT
TORSDOF 0
ENDMDL
