MODEL 1
REMARK minimizedAffinity 5.27731895
REMARK minimizedRMSD -1
REMARK  0 active torsions:
REMARK  status: ('A' for Active; 'I' for Inactive)
ROOT
ATOM      1  C2' OXE d   1       3.663  -1.031   5.742  0.00  0.00     0.078 C 
ATOM      2  C1' OXE d   1       1.207   0.315   5.933  0.00  0.00     0.078 C 
ATOM      3  C1  OXE d   1       1.497  -0.442   4.662  0.00  0.00    -0.078 A 
ATOM      4  C2  OXE d   1       2.721  -1.059   4.558  0.00  0.00    -0.078 A 
ATOM      5  C3  OXE d   1       3.018  -1.817   3.429  0.00  0.00     0.003 A 
ATOM      6  C4  OXE d   1       2.144  -1.830   2.334  0.00  0.00    -0.002 A 
ATOM      7  C5  OXE d   1       0.910  -1.176   2.403  0.00  0.00    -0.002 A 
ATOM      8  C6  OXE d   1       0.554  -0.514   3.574  0.00  0.00     0.003 A 
ENDROOT
TORSDOF 0
ENDMDL
