MODEL 1
REMARK minimizedAffinity -5.11073542
REMARK minimizedRMSD -1
REMARK  0 active torsions:
REMARK  status: ('A' for Active; 'I' for Inactive)
ROOT
ATOM      1  C2' OXE d   1      -0.733  -2.905  -1.512  0.00  0.00     0.078 C 
ATOM      2  C1' OXE d   1      -0.368  -1.940  -4.123  0.00  0.00     0.078 C 
ATOM      3  C1  OXE d   1       0.006  -3.375  -3.845  0.00  0.00    -0.078 A 
ATOM      4  C2  OXE d   1      -0.132  -3.825  -2.554  0.00  0.00    -0.078 A 
ATOM      5  C3  OXE d   1       0.146  -5.155  -2.254  0.00  0.00     0.003 A 
ATOM      6  C4  OXE d   1       0.711  -5.996  -3.221  0.00  0.00    -0.002 A 
ATOM      7  C5  OXE d   1       0.897  -5.546  -4.532  0.00  0.00    -0.002 A 
ATOM      8  C6  OXE d   1       0.511  -4.254  -4.870  0.00  0.00     0.003 A 
ENDROOT
TORSDOF 0
ENDMDL
