MODEL 1
REMARK minimizedAffinity -3.29139304
REMARK minimizedRMSD -1
REMARK  0 active torsions:
REMARK  status: ('A' for Active; 'I' for Inactive)
ROOT
ATOM      1  O1  BZF d   1       4.092  -2.397  -5.998  0.00  0.00    -0.204 OA
ATOM      2  C2  BZF d   1       4.874  -1.485  -5.316  0.00  0.00     0.174 A 
ATOM      3  C3  BZF d   1       5.691  -2.113  -4.446  0.00  0.00    -0.012 A 
ATOM      4  C3A BZF d   1       5.468  -3.510  -4.661  0.00  0.00    -0.107 A 
ATOM      5  C4  BZF d   1       5.998  -4.641  -4.108  0.00  0.00     0.055 A 
ATOM      6  C5  BZF d   1       5.511  -5.851  -4.487  0.00  0.00    -0.016 A 
ATOM      7  C6  BZF d   1       4.493  -5.968  -5.411  0.00  0.00     0.022 A 
ATOM      8  C7  BZF d   1       3.939  -4.874  -5.990  0.00  0.00     0.029 A 
ATOM      9  C7A BZF d   1       4.452  -3.651  -5.633  0.00  0.00     0.058 A 
ENDROOT
TORSDOF 0
ENDMDL
