MODEL 1
REMARK minimizedAffinity -3.05665112
REMARK minimizedRMSD -1
REMARK  0 active torsions:
REMARK  status: ('A' for Active; 'I' for Inactive)
ROOT
ATOM      1  O1  BZF d   1       4.503  -5.136  -3.848  0.00  0.00    -0.204 OA
ATOM      2  C2  BZF d   1       5.319  -5.999  -4.554  0.00  0.00     0.174 A 
ATOM      3  C3  BZF d   1       5.991  -5.340  -5.520  0.00  0.00    -0.012 A 
ATOM      4  C3A BZF d   1       5.639  -3.964  -5.351  0.00  0.00    -0.107 A 
ATOM      5  C4  BZF d   1       5.998  -2.817  -5.999  0.00  0.00     0.055 A 
ATOM      6  C5  BZF d   1       5.418  -1.643  -5.635  0.00  0.00    -0.016 A 
ATOM      7  C6  BZF d   1       4.473  -1.581  -4.632  0.00  0.00     0.022 A 
ATOM      8  C7  BZF d   1       4.088  -2.691  -3.957  0.00  0.00     0.029 A 
ATOM      9  C7A BZF d   1       4.697  -3.874  -4.301  0.00  0.00     0.058 A 
ENDROOT
TORSDOF 0
ENDMDL
