MODEL 1
REMARK minimizedAffinity -1.47569799
REMARK minimizedRMSD -1
REMARK  0 active torsions:
REMARK  status: ('A' for Active; 'I' for Inactive)
ROOT
ATOM      1  O1  BZF d   1       3.849  -2.220  -4.845  0.00  0.00    -0.204 OA
ATOM      2  C2  BZF d   1       4.967  -1.521  -5.255  0.00  0.00     0.174 A 
ATOM      3  C3  BZF d   1       5.999  -2.359  -5.483  0.00  0.00    -0.012 A 
ATOM      4  C3A BZF d   1       5.466  -3.673  -5.287  0.00  0.00    -0.107 A 
ATOM      5  C4  BZF d   1       5.999  -4.926  -5.383  0.00  0.00     0.055 A 
ATOM      6  C5  BZF d   1       5.231  -5.998  -5.055  0.00  0.00    -0.016 A 
ATOM      7  C6  BZF d   1       3.929  -5.853  -4.622  0.00  0.00     0.022 A 
ATOM      8  C7  BZF d   1       3.355  -4.630  -4.515  0.00  0.00     0.029 A 
ATOM      9  C7A BZF d   1       4.118  -3.547  -4.878  0.00  0.00     0.058 A 
ENDROOT
TORSDOF 0
ENDMDL
