MODEL 1
REMARK minimizedAffinity -2.23071074
REMARK minimizedRMSD -1
REMARK  0 active torsions:
REMARK  status: ('A' for Active; 'I' for Inactive)
ROOT
ATOM      1  O1  BZF d   1       3.737  -5.234  -4.785  0.00  0.00    -0.204 OA
ATOM      2  C2  BZF d   1       4.913  -5.902  -4.503  0.00  0.00     0.174 A 
ATOM      3  C3  BZF d   1       5.982  -5.129  -4.786  0.00  0.00    -0.012 A 
ATOM      4  C3A BZF d   1       5.438  -3.867  -5.187  0.00  0.00    -0.107 A 
ATOM      5  C4  BZF d   1       5.999  -2.685  -5.576  0.00  0.00     0.055 A 
ATOM      6  C5  BZF d   1       5.189  -1.669  -5.973  0.00  0.00    -0.016 A 
ATOM      7  C6  BZF d   1       3.816  -1.802  -5.999  0.00  0.00     0.022 A 
ATOM      8  C7  BZF d   1       3.214  -2.955  -5.618  0.00  0.00     0.029 A 
ATOM      9  C7A BZF d   1       4.028  -3.972  -5.185  0.00  0.00     0.058 A 
ENDROOT
TORSDOF 0
ENDMDL
