MODEL 1
REMARK minimizedAffinity -3.25902295
REMARK minimizedRMSD -1
REMARK  0 active torsions:
REMARK  status: ('A' for Active; 'I' for Inactive)
ROOT
ATOM      1  O1  BZF d   1       4.652  -2.393  -5.891  0.00  0.00    -0.204 OA
ATOM      2  C2  BZF d   1       5.397  -1.574  -5.065  0.00  0.00     0.174 A 
ATOM      3  C3  BZF d   1       5.997  -2.293  -4.094  0.00  0.00    -0.012 A 
ATOM      4  C3A BZF d   1       5.677  -3.657  -4.384  0.00  0.00    -0.107 A 
ATOM      5  C4  BZF d   1       5.997  -4.843  -3.787  0.00  0.00     0.055 A 
ATOM      6  C5  BZF d   1       5.463  -5.993  -4.276  0.00  0.00    -0.016 A 
ATOM      7  C6  BZF d   1       4.603  -5.994  -5.354  0.00  0.00     0.022 A 
ATOM      8  C7  BZF d   1       4.260  -4.842  -5.981  0.00  0.00     0.029 A 
ATOM      9  C7A BZF d   1       4.824  -3.682  -5.511  0.00  0.00     0.058 A 
ENDROOT
TORSDOF 0
ENDMDL
