MODEL 1
REMARK minimizedAffinity -3.54600286
REMARK minimizedRMSD -1
REMARK  0 active torsions:
REMARK  status: ('A' for Active; 'I' for Inactive)
ROOT
ATOM      1  O1  BZF d   1       3.998  -2.402  -5.615  0.00  0.00    -0.204 OA
ATOM      2  C2  BZF d   1       4.561  -1.576  -4.662  0.00  0.00     0.174 A 
ATOM      3  C3  BZF d   1       5.239  -2.296  -3.745  0.00  0.00    -0.012 A 
ATOM      4  C3A BZF d   1       5.168  -3.650  -4.201  0.00  0.00    -0.107 A 
ATOM      5  C4  BZF d   1       5.664  -4.829  -3.723  0.00  0.00     0.055 A 
ATOM      6  C5  BZF d   1       5.353  -5.985  -4.366  0.00  0.00    -0.016 A 
ATOM      7  C6  BZF d   1       4.545  -5.999  -5.485  0.00  0.00     0.022 A 
ATOM      8  C7  BZF d   1       4.034  -4.854  -5.999  0.00  0.00     0.029 A 
ATOM      9  C7A BZF d   1       4.374  -3.681  -5.371  0.00  0.00     0.058 A 
ENDROOT
TORSDOF 0
ENDMDL
