MODEL 1
REMARK minimizedAffinity -3.99556541
REMARK minimizedRMSD -1
REMARK  0 active torsions:
REMARK  status: ('A' for Active; 'I' for Inactive)
ROOT
ATOM      1  O1  BZF d   1       6.000  -4.578  -3.840  0.00  0.00    -0.204 OA
ATOM      2  C2  BZF d   1       5.156  -5.637  -4.114  0.00  0.00     0.174 A 
ATOM      3  C3  BZF d   1       4.103  -5.230  -4.852  0.00  0.00    -0.012 A 
ATOM      4  C3A BZF d   1       4.349  -3.848  -5.129  0.00  0.00    -0.107 A 
ATOM      5  C4  BZF d   1       3.668  -2.896  -5.833  0.00  0.00     0.055 A 
ATOM      6  C5  BZF d   1       4.142  -1.622  -5.849  0.00  0.00    -0.016 A 
ATOM      7  C6  BZF d   1       5.288  -1.265  -5.169  0.00  0.00     0.022 A 
ATOM      8  C7  BZF d   1       5.999  -2.175  -4.461  0.00  0.00     0.029 A 
ATOM      9  C7A BZF d   1       5.541  -3.470  -4.470  0.00  0.00     0.058 A 
ENDROOT
TORSDOF 0
ENDMDL
