MODEL 1
REMARK minimizedAffinity 1.77049351
REMARK minimizedRMSD -1
REMARK  1 active torsions:
REMARK  status: ('A' for Active; 'I' for Inactive)
REMARK    1  A    between atoms: C1_2  and  C2_3 
ROOT
ATOM      1  C2  UNL d   1      -0.001  -0.140  -0.513  0.00  0.00    -0.081 A 
ATOM      2  C3  UNL d   1      -1.336  -0.115  -0.091  0.00  0.00     0.006 A 
ATOM      3  C4  UNL d   1      -1.682   0.471   1.128  0.00  0.00     0.002 A 
ATOM      4  C5  UNL d   1      -0.702   1.048   1.943  0.00  0.00    -0.080 A 
ATOM      5  C6  UNL d   1      -1.065   1.706   3.241  0.00  0.00     0.076 C 
ATOM      6  C7  UNL d   1       0.634   1.007   1.530  0.00  0.00     0.002 A 
ATOM      7  C8  UNL d   1       0.981   0.421   0.311  0.00  0.00     0.006 A 
ENDROOT
BRANCH   1   8
ATOM      8  C1  UNL d   1       0.368  -0.713  -1.857  0.00  0.00     0.054 C 
ATOM      9  C   UNL d   1       0.817   0.378  -2.820  0.00  0.00     0.018 C 
ENDBRANCH   1   8
TORSDOF 1
ENDMDL
