MODEL 1
REMARK minimizedAffinity -0.660976171
REMARK minimizedRMSD -1
REMARK  1 active torsions:
REMARK  status: ('A' for Active; 'I' for Inactive)
REMARK    1  A    between atoms: C1_2  and  C2_3 
ROOT
ATOM      1  C2  UNL d   1       0.654  -0.022  -0.500  0.00  0.00    -0.081 A 
ATOM      2  C3  UNL d   1       0.106   0.862   0.436  0.00  0.00     0.006 A 
ATOM      3  C4  UNL d   1       0.662   0.976   1.713  0.00  0.00     0.002 A 
ATOM      4  C5  UNL d   1       1.778   0.213   2.071  0.00  0.00    -0.080 A 
ATOM      5  C6  UNL d   1       2.403   0.347   3.428  0.00  0.00     0.076 C 
ATOM      6  C7  UNL d   1       2.316  -0.683   1.141  0.00  0.00     0.002 A 
ATOM      7  C8  UNL d   1       1.760  -0.797  -0.135  0.00  0.00     0.006 A 
ENDROOT
BRANCH   1   8
ATOM      8  C1  UNL d   1       0.098  -0.099  -1.899  0.00  0.00     0.054 C 
ATOM      9  C   UNL d   1       0.901   0.763  -2.863  0.00  0.00     0.018 C 
ENDBRANCH   1   8
TORSDOF 1
ENDMDL
