MODEL 1
REMARK minimizedAffinity -2.85304308
REMARK minimizedRMSD -1
REMARK  0 active torsions:
REMARK  status: ('A' for Active; 'I' for Inactive)
ROOT
ATOM      1  C   UNL d   1       0.124   0.995  -1.327  0.00  0.00     0.077 C 
ATOM      2  C1  UNL d   1       0.032  -0.227  -0.462  0.00  0.00    -0.074 A 
ATOM      3  C2  UNL d   1       0.888  -1.315  -0.662  0.00  0.00    -0.005 A 
ATOM      4  C3  UNL d   1       0.797  -2.441   0.157  0.00  0.00     0.006 A 
ATOM      5  C4  UNL d   1      -0.150  -2.491   1.181  0.00  0.00    -0.005 A 
ATOM      6  C5  UNL d   1      -1.013  -1.412   1.396  0.00  0.00    -0.074 A 
ATOM      7  C6  UNL d   1      -2.030  -1.445   2.498  0.00  0.00     0.077 C 
ATOM      8  C7  UNL d   1      -0.911  -0.281   0.574  0.00  0.00    -0.001 A 
ENDROOT
TORSDOF 0
ENDMDL
