MODEL 1
REMARK minimizedAffinity -5.6914053
REMARK minimizedRMSD -1
REMARK  0 active torsions:
REMARK  status: ('A' for Active; 'I' for Inactive)
ROOT
ATOM      1  C   UNL d   1       0.846   1.345   0.009  0.00  0.00     0.077 C 
ATOM      2  C1  UNL d   1      -0.013   0.215   0.491  0.00  0.00    -0.074 A 
ATOM      3  C2  UNL d   1       0.449  -1.105   0.458  0.00  0.00    -0.005 A 
ATOM      4  C3  UNL d   1      -0.358  -2.145   0.919  0.00  0.00     0.006 A 
ATOM      5  C4  UNL d   1      -1.634  -1.876   1.416  0.00  0.00    -0.005 A 
ATOM      6  C5  UNL d   1      -2.113  -0.563   1.457  0.00  0.00    -0.074 A 
ATOM      7  C6  UNL d   1      -3.478  -0.256   1.998  0.00  0.00     0.077 C 
ATOM      8  C7  UNL d   1      -1.293   0.477   0.999  0.00  0.00    -0.001 A 
ENDROOT
TORSDOF 0
ENDMDL
