MODEL 1
REMARK minimizedAffinity -4.86414051
REMARK minimizedRMSD -1
REMARK  0 active torsions:
REMARK  status: ('A' for Active; 'I' for Inactive)
ROOT
ATOM      1  C   UNL d   1      -2.364  -3.357   1.821  0.00  0.00     0.077 C 
ATOM      2  C1  UNL d   1      -1.546  -2.222   1.282  0.00  0.00    -0.074 A 
ATOM      3  C2  UNL d   1      -0.387  -2.461   0.537  0.00  0.00    -0.005 A 
ATOM      4  C3  UNL d   1       0.359  -1.395   0.034  0.00  0.00     0.006 A 
ATOM      5  C4  UNL d   1      -0.046  -0.081   0.271  0.00  0.00    -0.005 A 
ATOM      6  C5  UNL d   1      -1.203   0.178   1.013  0.00  0.00    -0.074 A 
ATOM      7  C6  UNL d   1      -1.658   1.584   1.268  0.00  0.00     0.077 C 
ATOM      8  C7  UNL d   1      -1.951  -0.899   1.509  0.00  0.00    -0.001 A 
ENDROOT
TORSDOF 0
ENDMDL
