MODEL 1
REMARK minimizedAffinity -4.85199594
REMARK minimizedRMSD -1
REMARK  0 active torsions:
REMARK  status: ('A' for Active; 'I' for Inactive)
ROOT
ATOM      1  C   UNL d   1      -2.563   1.575   1.429  0.00  0.00     0.077 C 
ATOM      2  C1  UNL d   1      -2.299   0.112   1.236  0.00  0.00    -0.074 A 
ATOM      3  C2  UNL d   1      -3.325  -0.760   0.858  0.00  0.00    -0.005 A 
ATOM      4  C3  UNL d   1      -3.062  -2.117   0.673  0.00  0.00     0.006 A 
ATOM      5  C4  UNL d   1      -1.772  -2.616   0.862  0.00  0.00    -0.005 A 
ATOM      6  C5  UNL d   1      -0.733  -1.759   1.239  0.00  0.00    -0.074 A 
ATOM      7  C6  UNL d   1       0.660  -2.276   1.437  0.00  0.00     0.077 C 
ATOM      8  C7  UNL d   1      -1.004  -0.395   1.416  0.00  0.00    -0.001 A 
ENDROOT
TORSDOF 0
ENDMDL
