MODEL 1
REMARK minimizedAffinity -4.42443466
REMARK minimizedRMSD -1
REMARK  0 active torsions:
REMARK  status: ('A' for Active; 'I' for Inactive)
ROOT
ATOM      1  C   UNL d   1      -0.738   2.394   0.388  0.00  0.00     0.077 C 
ATOM      2  C1  UNL d   1      -0.187   1.001   0.318  0.00  0.00    -0.074 A 
ATOM      3  C2  UNL d   1       1.193   0.774   0.305  0.00  0.00    -0.005 A 
ATOM      4  C3  UNL d   1       1.691  -0.528   0.249  0.00  0.00     0.006 A 
ATOM      5  C4  UNL d   1       0.816  -1.614   0.206  0.00  0.00    -0.005 A 
ATOM      6  C5  UNL d   1      -0.567  -1.406   0.219  0.00  0.00    -0.074 A 
ATOM      7  C6  UNL d   1      -1.522  -2.563   0.183  0.00  0.00     0.077 C 
ATOM      8  C7  UNL d   1      -1.060  -0.096   0.282  0.00  0.00    -0.001 A 
ENDROOT
TORSDOF 0
ENDMDL
