MODEL 1
REMARK minimizedAffinity -5.01549911
REMARK minimizedRMSD -1
REMARK  0 active torsions:
REMARK  status: ('A' for Active; 'I' for Inactive)
ROOT
ATOM      1  C   UNL d   1       0.722   1.104  -0.287  0.00  0.00     0.077 C 
ATOM      2  C1  UNL d   1       1.179   1.550  -1.644  0.00  0.00    -0.074 A 
ATOM      3  C2  UNL d   1       0.281   2.114  -2.556  0.00  0.00    -0.005 A 
ATOM      4  C3  UNL d   1       0.723   2.533  -3.811  0.00  0.00     0.006 A 
ATOM      5  C4  UNL d   1       2.065   2.393  -4.166  0.00  0.00    -0.005 A 
ATOM      6  C5  UNL d   1       2.978   1.833  -3.266  0.00  0.00    -0.074 A 
ATOM      7  C6  UNL d   1       4.426   1.684  -3.628  0.00  0.00     0.077 C 
ATOM      8  C7  UNL d   1       2.528   1.420  -2.005  0.00  0.00    -0.001 A 
ENDROOT
TORSDOF 0
ENDMDL
