MODEL 1
REMARK minimizedAffinity -3.06107855
REMARK minimizedRMSD -1
REMARK  0 active torsions:
REMARK  status: ('A' for Active; 'I' for Inactive)
ROOT
ATOM      1  C   UNL d   1      -2.747   0.767   1.150  0.00  0.00     0.077 C 
ATOM      2  C1  UNL d   1      -1.451   0.193   0.661  0.00  0.00    -0.074 A 
ATOM      3  C2  UNL d   1      -1.131  -1.150   0.884  0.00  0.00    -0.005 A 
ATOM      4  C3  UNL d   1       0.075  -1.672   0.415  0.00  0.00     0.006 A 
ATOM      5  C4  UNL d   1       0.970  -0.859  -0.281  0.00  0.00    -0.005 A 
ATOM      6  C5  UNL d   1       0.666   0.486  -0.513  0.00  0.00    -0.074 A 
ATOM      7  C6  UNL d   1       1.613   1.372  -1.267  0.00  0.00     0.077 C 
ATOM      8  C7  UNL d   1      -0.550   1.002  -0.045  0.00  0.00    -0.001 A 
ENDROOT
TORSDOF 0
ENDMDL
