MODEL 1
REMARK minimizedAffinity -3.2224257
REMARK minimizedRMSD -1
REMARK  0 active torsions:
REMARK  status: ('A' for Active; 'I' for Inactive)
ROOT
ATOM      1  C   UNL d   1       4.291   1.776  -3.366  0.00  0.00     0.077 C 
ATOM      2  C1  UNL d   1       2.806   1.915  -3.214  0.00  0.00    -0.074 A 
ATOM      3  C2  UNL d   1       1.993   2.192  -4.318  0.00  0.00    -0.005 A 
ATOM      4  C3  UNL d   1       0.612   2.308  -4.163  0.00  0.00     0.006 A 
ATOM      5  C4  UNL d   1       0.030   2.150  -2.905  0.00  0.00    -0.005 A 
ATOM      6  C5  UNL d   1       0.826   1.872  -1.790  0.00  0.00    -0.074 A 
ATOM      7  C6  UNL d   1       0.216   1.689  -0.432  0.00  0.00     0.077 C 
ATOM      8  C7  UNL d   1       2.213   1.749  -1.955  0.00  0.00    -0.001 A 
ENDROOT
TORSDOF 0
ENDMDL
