MODEL 1
REMARK minimizedAffinity -4.06889963
REMARK minimizedRMSD -1
REMARK  0 active torsions:
REMARK  status: ('A' for Active; 'I' for Inactive)
ROOT
ATOM      1  C   UNL d   1       1.922   4.632  -5.999  0.00  0.00     0.077 C 
ATOM      2  C1  UNL d   1       2.194   3.684  -4.869  0.00  0.00    -0.074 A 
ATOM      3  C2  UNL d   1       1.188   2.847  -4.375  0.00  0.00    -0.005 A 
ATOM      4  C3  UNL d   1       1.458   1.963  -3.331  0.00  0.00     0.006 A 
ATOM      5  C4  UNL d   1       2.735   1.907  -2.770  0.00  0.00    -0.005 A 
ATOM      6  C5  UNL d   1       3.754   2.735  -3.252  0.00  0.00    -0.074 A 
ATOM      7  C6  UNL d   1       5.134   2.681  -2.668  0.00  0.00     0.077 C 
ATOM      8  C7  UNL d   1       3.476   3.616  -4.307  0.00  0.00    -0.001 A 
ENDROOT
TORSDOF 0
ENDMDL
