MODEL 1
REMARK minimizedAffinity -5.13164139
REMARK minimizedRMSD -1
REMARK  0 active torsions:
REMARK  status: ('A' for Active; 'I' for Inactive)
ROOT
ATOM      1  C   UNL d   1      -2.290  -2.645   1.548  0.00  0.00     0.077 C 
ATOM      2  C1  UNL d   1      -1.532  -1.417   1.140  0.00  0.00    -0.074 A 
ATOM      3  C2  UNL d   1      -2.148  -0.161   1.137  0.00  0.00    -0.005 A 
ATOM      4  C3  UNL d   1      -1.428   0.974   0.764  0.00  0.00     0.006 A 
ATOM      5  C4  UNL d   1      -0.087   0.865   0.393  0.00  0.00    -0.005 A 
ATOM      6  C5  UNL d   1       0.545  -0.382   0.391  0.00  0.00    -0.074 A 
ATOM      7  C6  UNL d   1       1.988  -0.515   0.004  0.00  0.00     0.077 C 
ATOM      8  C7  UNL d   1      -0.183  -1.517   0.773  0.00  0.00    -0.001 A 
ENDROOT
TORSDOF 0
ENDMDL
