MODEL 1
REMARK minimizedAffinity -1.49751866
REMARK minimizedRMSD -1
REMARK  0 active torsions:
REMARK  status: ('A' for Active; 'I' for Inactive)
ROOT
ATOM      1  C   UNL d   1       4.646   2.326  -2.686  0.00  0.00     0.077 C 
ATOM      2  C1  UNL d   1       3.158   2.140  -2.675  0.00  0.00    -0.074 A 
ATOM      3  C2  UNL d   1       2.388   2.427  -3.807  0.00  0.00    -0.005 A 
ATOM      4  C3  UNL d   1       1.006   2.240  -3.784  0.00  0.00     0.006 A 
ATOM      5  C4  UNL d   1       0.381   1.765  -2.631  0.00  0.00    -0.005 A 
ATOM      6  C5  UNL d   1       1.133   1.472  -1.489  0.00  0.00    -0.074 A 
ATOM      7  C6  UNL d   1       0.478   0.952  -0.245  0.00  0.00     0.077 C 
ATOM      8  C7  UNL d   1       2.523   1.656  -1.522  0.00  0.00    -0.001 A 
ENDROOT
TORSDOF 0
ENDMDL
