MODEL 1
REMARK minimizedAffinity -3.63704753
REMARK minimizedRMSD -1
REMARK  0 active torsions:
REMARK  status: ('A' for Active; 'I' for Inactive)
ROOT
ATOM      1  C   UNL d   1       5.971   2.175  -2.126  0.00  0.00     0.077 C 
ATOM      2  C1  UNL d   1       4.531   2.063  -2.530  0.00  0.00    -0.074 A 
ATOM      3  C2  UNL d   1       4.168   1.953  -3.876  0.00  0.00    -0.005 A 
ATOM      4  C3  UNL d   1       2.825   1.840  -4.235  0.00  0.00     0.006 A 
ATOM      5  C4  UNL d   1       1.833   1.835  -3.254  0.00  0.00    -0.005 A 
ATOM      6  C5  UNL d   1       2.177   1.942  -1.903  0.00  0.00    -0.074 A 
ATOM      7  C6  UNL d   1       1.124   1.929  -0.834  0.00  0.00     0.077 C 
ATOM      8  C7  UNL d   1       3.529   2.049  -1.549  0.00  0.00    -0.001 A 
ENDROOT
TORSDOF 0
ENDMDL
