MODEL 1
REMARK minimizedAffinity -4.278018
REMARK minimizedRMSD -1
REMARK  0 active torsions:
REMARK  status: ('A' for Active; 'I' for Inactive)
ROOT
ATOM      1  C   UNL d   1      -2.514  -0.087   2.560  0.00  0.00     0.077 C 
ATOM      2  C1  UNL d   1      -1.388  -0.562   1.690  0.00  0.00    -0.074 A 
ATOM      3  C2  UNL d   1      -0.968  -1.896   1.721  0.00  0.00    -0.005 A 
ATOM      4  C3  UNL d   1       0.074  -2.325   0.900  0.00  0.00     0.006 A 
ATOM      5  C4  UNL d   1       0.706  -1.426   0.040  0.00  0.00    -0.005 A 
ATOM      6  C5  UNL d   1       0.300  -0.088  -0.006  0.00  0.00    -0.074 A 
ATOM      7  C6  UNL d   1       0.962   0.889  -0.931  0.00  0.00     0.077 C 
ATOM      8  C7  UNL d   1      -0.753   0.333   0.818  0.00  0.00    -0.001 A 
ENDROOT
TORSDOF 0
ENDMDL
