MODEL 1
REMARK minimizedAffinity -5.43154001
REMARK minimizedRMSD -1
REMARK  0 active torsions:
REMARK  status: ('A' for Active; 'I' for Inactive)
ROOT
ATOM      1  C   UNL d   1       0.885   1.259  -0.434  0.00  0.00     0.077 C 
ATOM      2  C1  UNL d   1       0.092   0.181   0.245  0.00  0.00    -0.074 A 
ATOM      3  C2  UNL d   1       0.603  -1.114   0.374  0.00  0.00    -0.005 A 
ATOM      4  C3  UNL d   1      -0.141  -2.103   1.017  0.00  0.00     0.006 A 
ATOM      5  C4  UNL d   1      -1.403  -1.808   1.534  0.00  0.00    -0.005 A 
ATOM      6  C5  UNL d   1      -1.930  -0.518   1.415  0.00  0.00    -0.074 A 
ATOM      7  C6  UNL d   1      -3.281  -0.181   1.975  0.00  0.00     0.077 C 
ATOM      8  C7  UNL d   1      -1.173   0.472   0.775  0.00  0.00    -0.001 A 
ENDROOT
TORSDOF 0
ENDMDL
