MODEL 1
REMARK minimizedAffinity -4.22092009
REMARK minimizedRMSD -1
REMARK  0 active torsions:
REMARK  status: ('A' for Active; 'I' for Inactive)
ROOT
ATOM      1  C   UNL d   1      -1.882  -3.048   1.360  0.00  0.00     0.077 C 
ATOM      2  C1  UNL d   1      -1.723  -1.567   1.186  0.00  0.00    -0.074 A 
ATOM      3  C2  UNL d   1      -2.691  -0.678   1.666  0.00  0.00    -0.005 A 
ATOM      4  C3  UNL d   1      -2.525   0.697   1.505  0.00  0.00     0.006 A 
ATOM      5  C4  UNL d   1      -1.391   1.197   0.863  0.00  0.00    -0.005 A 
ATOM      6  C5  UNL d   1      -0.413   0.324   0.377  0.00  0.00    -0.074 A 
ATOM      7  C6  UNL d   1       0.816   0.846  -0.307  0.00  0.00     0.077 C 
ATOM      8  C7  UNL d   1      -0.584  -1.056   0.549  0.00  0.00    -0.001 A 
ENDROOT
TORSDOF 0
ENDMDL
