MODEL 1
REMARK minimizedAffinity -4.82366467
REMARK minimizedRMSD -1
REMARK  0 active torsions:
REMARK  status: ('A' for Active; 'I' for Inactive)
ROOT
ATOM      1  C   UNL d   1       0.367   1.787  -0.390  0.00  0.00     0.077 C 
ATOM      2  C1  UNL d   1       0.277   0.335  -0.027  0.00  0.00    -0.074 A 
ATOM      3  C2  UNL d   1       1.390  -0.505  -0.142  0.00  0.00    -0.005 A 
ATOM      4  C3  UNL d   1       1.293  -1.852   0.208  0.00  0.00     0.006 A 
ATOM      5  C4  UNL d   1       0.086  -2.371   0.677  0.00  0.00    -0.005 A 
ATOM      6  C5  UNL d   1      -1.037  -1.546   0.800  0.00  0.00    -0.074 A 
ATOM      7  C6  UNL d   1      -2.339  -2.086   1.311  0.00  0.00     0.077 C 
ATOM      8  C7  UNL d   1      -0.930  -0.193   0.452  0.00  0.00    -0.001 A 
ENDROOT
TORSDOF 0
ENDMDL
