MODEL 1
REMARK minimizedAffinity -3.82089639
REMARK minimizedRMSD -1
REMARK  0 active torsions:
REMARK  status: ('A' for Active; 'I' for Inactive)
ROOT
ATOM      1  C   UNL d   1       0.324   2.543  -2.499  0.00  0.00     0.077 C 
ATOM      2  C1  UNL d   1       0.691   1.583  -1.406  0.00  0.00    -0.074 A 
ATOM      3  C2  UNL d   1       1.865   1.752  -0.666  0.00  0.00    -0.005 A 
ATOM      4  C3  UNL d   1       2.188   0.856   0.354  0.00  0.00     0.006 A 
ATOM      5  C4  UNL d   1       1.341  -0.215   0.643  0.00  0.00    -0.005 A 
ATOM      6  C5  UNL d   1       0.162  -0.399  -0.086  0.00  0.00    -0.074 A 
ATOM      7  C6  UNL d   1      -0.764  -1.539   0.218  0.00  0.00     0.077 C 
ATOM      8  C7  UNL d   1      -0.159   0.509  -1.105  0.00  0.00    -0.001 A 
ENDROOT
TORSDOF 0
ENDMDL
