MODEL 1
REMARK minimizedAffinity 4.23977327
REMARK minimizedRMSD -1
REMARK  2 active torsions:
REMARK  status: ('A' for Active; 'I' for Inactive)
REMARK    1  A    between atoms: C1_2  and  C2_3 
REMARK    2  A    between atoms: C2_3  and  C3_4 
ROOT
ATOM      1  C3  UNL d   1       2.955  -3.211  -0.132  0.00  0.00    -0.075 A 
ATOM      2  C4  UNL d   1       4.101  -4.010  -0.251  0.00  0.00     0.002 A 
ATOM      3  C5  UNL d   1       4.297  -5.099   0.600  0.00  0.00     0.002 A 
ATOM      4  C6  UNL d   1       3.358  -5.395   1.585  0.00  0.00    -0.004 A 
ATOM      5  C7  UNL d   1       2.224  -4.597   1.723  0.00  0.00     0.002 A 
ATOM      6  C8  UNL d   1       2.023  -3.510   0.870  0.00  0.00     0.002 A 
ENDROOT
BRANCH   1   7
ATOM      7  C2  UNL d   1       2.723  -2.049  -1.068  0.00  0.00     0.056 C 
BRANCH   7   8
ATOM      8  C1  UNL d   1       1.930  -0.895  -0.446  0.00  0.00     0.007 C 
ATOM      9  C   UNL d   1       2.628   0.452  -0.577  0.00  0.00     0.009 C 
ENDBRANCH   7   8
ENDBRANCH   1   7
TORSDOF 2
ENDMDL
