MODEL 1
REMARK minimizedAffinity 1.33568215
REMARK minimizedRMSD -1
REMARK  2 active torsions:
REMARK  status: ('A' for Active; 'I' for Inactive)
REMARK    1  A    between atoms: C1_2  and  C2_3 
REMARK    2  A    between atoms: C2_3  and  C3_4 
ROOT
ATOM      1  C3  UNL d   1       1.711  -4.826   1.540  0.00  0.00    -0.075 A 
ATOM      2  C4  UNL d   1       2.010  -3.673   0.800  0.00  0.00     0.002 A 
ATOM      3  C5  UNL d   1       3.135  -3.633  -0.025  0.00  0.00     0.002 A 
ATOM      4  C6  UNL d   1       3.977  -4.739  -0.114  0.00  0.00    -0.004 A 
ATOM      5  C7  UNL d   1       3.698  -5.884   0.629  0.00  0.00     0.002 A 
ATOM      6  C8  UNL d   1       2.571  -5.928   1.452  0.00  0.00     0.002 A 
ENDROOT
BRANCH   1   7
ATOM      7  C2  UNL d   1       0.479  -4.886   2.412  0.00  0.00     0.056 C 
BRANCH   7   8
ATOM      8  C1  UNL d   1      -0.242  -3.543   2.565  0.00  0.00     0.007 C 
ATOM      9  C   UNL d   1      -1.673  -3.684   3.068  0.00  0.00     0.009 C 
ENDBRANCH   7   8
ENDBRANCH   1   7
TORSDOF 2
ENDMDL
