MODEL 1
REMARK minimizedAffinity 5.32119894
REMARK minimizedRMSD -1
REMARK  2 active torsions:
REMARK  status: ('A' for Active; 'I' for Inactive)
REMARK    1  A    between atoms: C1_2  and  C2_3 
REMARK    2  A    between atoms: C2_3  and  C3_4 
ROOT
ATOM      1  C3  UNL d   1      -2.150  -0.190   1.178  0.00  0.00    -0.075 A 
ATOM      2  C4  UNL d   1      -1.136  -0.700   2.002  0.00  0.00     0.002 A 
ATOM      3  C5  UNL d   1       0.074  -1.126   1.455  0.00  0.00     0.002 A 
ATOM      4  C6  UNL d   1       0.282  -1.058   0.079  0.00  0.00    -0.004 A 
ATOM      5  C7  UNL d   1      -0.725  -0.570  -0.751  0.00  0.00     0.002 A 
ATOM      6  C8  UNL d   1      -1.935  -0.138  -0.206  0.00  0.00     0.002 A 
ENDROOT
BRANCH   1   7
ATOM      7  C2  UNL d   1      -3.451   0.300   1.767  0.00  0.00     0.056 C 
BRANCH   7   8
ATOM      8  C1  UNL d   1      -4.698  -0.215   1.041  0.00  0.00     0.007 C 
ATOM      9  C   UNL d   1      -5.999   0.167   1.736  0.00  0.00     0.009 C 
ENDBRANCH   7   8
ENDBRANCH   1   7
TORSDOF 2
ENDMDL
