MODEL 1
REMARK minimizedAffinity 1.54592657
REMARK minimizedRMSD -1
REMARK  2 active torsions:
REMARK  status: ('A' for Active; 'I' for Inactive)
REMARK    1  A    between atoms: C1_2  and  C2_3 
REMARK    2  A    between atoms: C2_3  and  C3_4 
ROOT
ATOM      1  C3  UNL d   1       0.697  -1.509   0.653  0.00  0.00    -0.075 A 
ATOM      2  C4  UNL d   1       0.205  -1.528   1.966  0.00  0.00     0.002 A 
ATOM      3  C5  UNL d   1      -1.013  -0.923   2.275  0.00  0.00     0.002 A 
ATOM      4  C6  UNL d   1      -1.749  -0.284   1.279  0.00  0.00    -0.004 A 
ATOM      5  C7  UNL d   1      -1.263  -0.245  -0.026  0.00  0.00     0.002 A 
ATOM      6  C8  UNL d   1      -0.046  -0.853  -0.338  0.00  0.00     0.002 A 
ENDROOT
BRANCH   1   7
ATOM      7  C2  UNL d   1       2.001  -2.187   0.306  0.00  0.00     0.056 C 
BRANCH   7   8
ATOM      8  C1  UNL d   1       2.192  -3.551   0.978  0.00  0.00     0.007 C 
ATOM      9  C   UNL d   1       3.346  -4.353   0.391  0.00  0.00     0.009 C 
ENDBRANCH   7   8
ENDBRANCH   1   7
TORSDOF 2
ENDMDL
