MODEL 1
REMARK minimizedAffinity -5.83658838
REMARK minimizedRMSD -1
REMARK  2 active torsions:
REMARK  status: ('A' for Active; 'I' for Inactive)
REMARK    1  A    between atoms: C1_2  and  C2_3 
REMARK    2  A    between atoms: C2_3  and  C3_4 
ROOT
ATOM      1  C3  UNL d   1       1.626  -1.883   0.880  0.00  0.00    -0.075 A 
ATOM      2  C4  UNL d   1       1.234  -1.843   2.226  0.00  0.00     0.002 A 
ATOM      3  C5  UNL d   1       0.052  -1.204   2.601  0.00  0.00     0.002 A 
ATOM      4  C6  UNL d   1      -0.747  -0.590   1.638  0.00  0.00    -0.004 A 
ATOM      5  C7  UNL d   1      -0.359  -0.610   0.300  0.00  0.00     0.002 A 
ATOM      6  C8  UNL d   1       0.822  -1.252  -0.078  0.00  0.00     0.002 A 
ENDROOT
BRANCH   1   7
ATOM      7  C2  UNL d   1       2.890  -2.598   0.465  0.00  0.00     0.056 C 
BRANCH   7   8
ATOM      8  C1  UNL d   1       2.873  -4.105   0.740  0.00  0.00     0.007 C 
ATOM      9  C   UNL d   1       3.835  -4.525   1.844  0.00  0.00     0.009 C 
ENDBRANCH   7   8
ENDBRANCH   1   7
TORSDOF 2
ENDMDL
