MODEL 1
REMARK minimizedAffinity 0.94011426
REMARK minimizedRMSD -1
REMARK  2 active torsions:
REMARK  status: ('A' for Active; 'I' for Inactive)
REMARK    1  A    between atoms: C1_2  and  C2_3 
REMARK    2  A    between atoms: C2_3  and  C3_4 
ROOT
ATOM      1  C3  UNL d   1       2.455  -2.156  -0.122  0.00  0.00    -0.075 A 
ATOM      2  C4  UNL d   1       3.709  -2.604  -0.563  0.00  0.00     0.002 A 
ATOM      3  C5  UNL d   1       4.145  -3.895  -0.266  0.00  0.00     0.002 A 
ATOM      4  C6  UNL d   1       3.339  -4.751   0.482  0.00  0.00    -0.004 A 
ATOM      5  C7  UNL d   1       2.098  -4.311   0.939  0.00  0.00     0.002 A 
ATOM      6  C8  UNL d   1       1.658  -3.020   0.640  0.00  0.00     0.002 A 
ENDROOT
BRANCH   1   7
ATOM      7  C2  UNL d   1       1.966  -0.769  -0.465  0.00  0.00     0.056 C 
BRANCH   7   8
ATOM      8  C1  UNL d   1       3.009   0.332  -0.250  0.00  0.00     0.007 C 
ATOM      9  C   UNL d   1       3.168   1.252  -1.453  0.00  0.00     0.009 C 
ENDBRANCH   7   8
ENDBRANCH   1   7
TORSDOF 2
ENDMDL
