MODEL 1
REMARK minimizedAffinity 2.21316481
REMARK minimizedRMSD -1
REMARK  2 active torsions:
REMARK  status: ('A' for Active; 'I' for Inactive)
REMARK    1  A    between atoms: C1_2  and  C2_3 
REMARK    2  A    between atoms: C2_3  and  C3_4 
ROOT
ATOM      1  C3  UNL d   1       1.576  -4.134   2.278  0.00  0.00    -0.075 A 
ATOM      2  C4  UNL d   1       1.975  -3.459   1.114  0.00  0.00     0.002 A 
ATOM      3  C5  UNL d   1       1.411  -2.227   0.781  0.00  0.00     0.002 A 
ATOM      4  C6  UNL d   1       0.437  -1.660   1.600  0.00  0.00    -0.004 A 
ATOM      5  C7  UNL d   1       0.022  -2.328   2.749  0.00  0.00     0.002 A 
ATOM      6  C8  UNL d   1       0.587  -3.559   3.087  0.00  0.00     0.002 A 
ENDROOT
BRANCH   1   7
ATOM      7  C2  UNL d   1       2.203  -5.453   2.659  0.00  0.00     0.056 C 
BRANCH   7   8
ATOM      8  C1  UNL d   1       3.576  -5.322   3.327  0.00  0.00     0.007 C 
ATOM      9  C   UNL d   1       4.692  -6.000   2.543  0.00  0.00     0.009 C 
ENDBRANCH   7   8
ENDBRANCH   1   7
TORSDOF 2
ENDMDL
