MODEL 1
REMARK minimizedAffinity 1.20664406
REMARK minimizedRMSD -1
REMARK  2 active torsions:
REMARK  status: ('A' for Active; 'I' for Inactive)
REMARK    1  A    between atoms: C1_2  and  C2_3 
REMARK    2  A    between atoms: C2_3  and  C3_4 
ROOT
ATOM      1  C3  UNL d   1       0.120  -1.108   0.849  0.00  0.00    -0.075 A 
ATOM      2  C4  UNL d   1      -0.786  -0.615  -0.101  0.00  0.00     0.002 A 
ATOM      3  C5  UNL d   1      -1.954   0.031   0.302  0.00  0.00     0.002 A 
ATOM      4  C6  UNL d   1      -2.237   0.182   1.658  0.00  0.00    -0.004 A 
ATOM      5  C7  UNL d   1      -1.353  -0.319   2.611  0.00  0.00     0.002 A 
ATOM      6  C8  UNL d   1      -0.181  -0.961   2.210  0.00  0.00     0.002 A 
ENDROOT
BRANCH   1   7
ATOM      7  C2  UNL d   1       1.401  -1.782   0.419  0.00  0.00     0.056 C 
BRANCH   7   8
ATOM      8  C1  UNL d   1       1.721  -3.066   1.192  0.00  0.00     0.007 C 
ATOM      9  C   UNL d   1       2.924  -3.817   0.638  0.00  0.00     0.009 C 
ENDBRANCH   7   8
ENDBRANCH   1   7
TORSDOF 2
ENDMDL
