MODEL 1
REMARK minimizedAffinity 7.16480827
REMARK minimizedRMSD -1
REMARK  0 active torsions:
REMARK  status: ('A' for Active; 'I' for Inactive)
ROOT
ATOM      1  N1  IND d   1       3.853  -1.073   1.548  0.00  0.00    -0.196 N 
ATOM      2  C2  IND d   1       4.478   0.139   1.645  0.00  0.00     0.054 A 
ATOM      3  C3  IND d   1       4.106   0.943   0.623  0.00  0.00    -0.031 A 
ATOM      4  C4  IND d   1       2.409   0.511  -1.264  0.00  0.00     0.051 A 
ATOM      5  C5  IND d   1       1.610  -0.465  -1.791  0.00  0.00    -0.031 A 
ATOM      6  C6  IND d   1       1.514  -1.717  -1.220  0.00  0.00     0.015 A 
ATOM      7  C7  IND d   1       2.208  -2.038  -0.087  0.00  0.00    -0.016 A 
ATOM      8  C8  IND d   1       3.025  -1.053   0.447  0.00  0.00    -0.047 A 
ATOM      9  C9  IND d   1       3.160   0.206  -0.153  0.00  0.00    -0.096 A 
ATOM     10  HN1 IND d   1       3.959  -1.736   2.085  0.00  0.00     0.298 HD
ENDROOT
TORSDOF 0
ENDMDL
