MODEL 1
REMARK minimizedAffinity 15.3524799
REMARK minimizedRMSD -1
REMARK  0 active torsions:
REMARK  status: ('A' for Active; 'I' for Inactive)
ROOT
ATOM      1  N1  IND d   1      -5.777   3.760   5.319  0.00  0.00    -0.196 N 
ATOM      2  C2  IND d   1      -5.998   4.976   5.903  0.00  0.00     0.054 A 
ATOM      3  C3  IND d   1      -5.963   5.957   4.973  0.00  0.00    -0.031 A 
ATOM      4  C4  IND d   1      -5.661   5.783   2.423  0.00  0.00     0.051 A 
ATOM      5  C5  IND d   1      -5.390   4.885   1.429  0.00  0.00    -0.031 A 
ATOM      6  C6  IND d   1      -5.233   3.539   1.686  0.00  0.00     0.015 A 
ATOM      7  C7  IND d   1      -5.354   3.036   2.950  0.00  0.00    -0.016 A 
ATOM      8  C8  IND d   1      -5.622   3.946   3.963  0.00  0.00    -0.047 A 
ATOM      9  C9  IND d   1      -5.740   5.319   3.715  0.00  0.00    -0.096 A 
ATOM     10  HN1 IND d   1      -5.740   3.005   5.730  0.00  0.00     0.298 HD
ENDROOT
TORSDOF 0
ENDMDL
