MODEL 1
REMARK minimizedAffinity 4.11919546
REMARK minimizedRMSD -1
REMARK  0 active torsions:
REMARK  status: ('A' for Active; 'I' for Inactive)
ROOT
ATOM      1  N1  IND d   1      -4.019   5.997   5.059  0.00  0.00    -0.196 N 
ATOM      2  C2  IND d   1      -5.032   6.000   5.977  0.00  0.00     0.054 A 
ATOM      3  C3  IND d   1      -5.970   5.085   5.645  0.00  0.00    -0.031 A 
ATOM      4  C4  IND d   1      -5.998   3.405   3.695  0.00  0.00     0.051 A 
ATOM      5  C5  IND d   1      -5.309   3.049   2.570  0.00  0.00    -0.031 A 
ATOM      6  C6  IND d   1      -4.128   3.667   2.212  0.00  0.00     0.015 A 
ATOM      7  C7  IND d   1      -3.586   4.663   2.975  0.00  0.00    -0.016 A 
ATOM      8  C8  IND d   1      -4.287   5.032   4.113  0.00  0.00    -0.047 A 
ATOM      9  C9  IND d   1      -5.507   4.437   4.459  0.00  0.00    -0.096 A 
ATOM     10  HN1 IND d   1      -3.330   6.512   5.070  0.00  0.00     0.298 HD
ENDROOT
TORSDOF 0
ENDMDL
