MODEL 1
REMARK minimizedAffinity 7.25480032
REMARK minimizedRMSD -1
REMARK  0 active torsions:
REMARK  status: ('A' for Active; 'I' for Inactive)
ROOT
ATOM      1  N1  IND d   1       0.952   1.713  -1.563  0.00  0.00    -0.196 N 
ATOM      2  C2  IND d   1      -0.177   0.942  -1.592  0.00  0.00     0.054 A 
ATOM      3  C3  IND d   1       0.001  -0.181  -0.861  0.00  0.00    -0.031 A 
ATOM      4  C4  IND d   1       2.027  -0.909   0.550  0.00  0.00     0.051 A 
ATOM      5  C5  IND d   1       3.310  -0.552   0.859  0.00  0.00    -0.031 A 
ATOM      6  C6  IND d   1       3.882   0.604   0.367  0.00  0.00     0.015 A 
ATOM      7  C7  IND d   1       3.187   1.454  -0.445  0.00  0.00    -0.016 A 
ATOM      8  C8  IND d   1       1.887   1.091  -0.765  0.00  0.00    -0.047 A 
ATOM      9  C9  IND d   1       1.314  -0.102  -0.304  0.00  0.00    -0.096 A 
ATOM     10  HN1 IND d   1       1.059   2.460  -1.974  0.00  0.00     0.298 HD
ENDROOT
TORSDOF 0
ENDMDL
