MODEL 1
REMARK minimizedAffinity 5.73397732
REMARK minimizedRMSD -1
REMARK  0 active torsions:
REMARK  status: ('A' for Active; 'I' for Inactive)
ROOT
ATOM      1  N1  IND d   1      -2.209   5.801   3.719  0.00  0.00    -0.196 N 
ATOM      2  C2  IND d   1      -1.506   5.954   4.882  0.00  0.00     0.054 A 
ATOM      3  C3  IND d   1      -2.349   5.999   5.938  0.00  0.00    -0.031 A 
ATOM      4  C4  IND d   1      -4.910   5.738   6.000  0.00  0.00     0.051 A 
ATOM      5  C5  IND d   1      -6.000   5.614   5.185  0.00  0.00    -0.031 A 
ATOM      6  C6  IND d   1      -5.879   5.543   3.812  0.00  0.00     0.015 A 
ATOM      7  C7  IND d   1      -4.658   5.580   3.201  0.00  0.00    -0.016 A 
ATOM      8  C8  IND d   1      -3.549   5.713   4.025  0.00  0.00    -0.047 A 
ATOM      9  C9  IND d   1      -3.668   5.829   5.416  0.00  0.00    -0.096 A 
ATOM     10  HN1 IND d   1      -1.870   5.766   2.930  0.00  0.00     0.298 HD
ENDROOT
TORSDOF 0
ENDMDL
