MODEL 1
REMARK minimizedAffinity 12.4586458
REMARK minimizedRMSD -1
REMARK  0 active torsions:
REMARK  status: ('A' for Active; 'I' for Inactive)
ROOT
ATOM      1  N1  IND d   1       3.718   1.093  -2.820  0.00  0.00    -0.196 N 
ATOM      2  C2  IND d   1       4.957   1.653  -2.678  0.00  0.00     0.054 A 
ATOM      3  C3  IND d   1       5.247   1.831  -1.370  0.00  0.00    -0.031 A 
ATOM      4  C4  IND d   1       3.877   1.182   0.711  0.00  0.00     0.051 A 
ATOM      5  C5  IND d   1       2.664   0.677   1.088  0.00  0.00    -0.031 A 
ATOM      6  C6  IND d   1       1.723   0.274   0.163  0.00  0.00     0.015 A 
ATOM      7  C7  IND d   1       1.965   0.351  -1.180  0.00  0.00    -0.016 A 
ATOM      8  C8  IND d   1       3.192   0.870  -1.566  0.00  0.00    -0.047 A 
ATOM      9  C9  IND d   1       4.135   1.320  -0.632  0.00  0.00    -0.096 A 
ATOM     10  HN1 IND d   1       3.332   0.910  -3.566  0.00  0.00     0.298 HD
ENDROOT
TORSDOF 0
ENDMDL
