MODEL 1
REMARK minimizedAffinity 5.66606617
REMARK minimizedRMSD -1
REMARK  0 active torsions:
REMARK  status: ('A' for Active; 'I' for Inactive)
ROOT
ATOM      1  N1  IND d   1       3.147   0.803  -1.600  0.00  0.00    -0.196 N 
ATOM      2  C2  IND d   1       3.580   1.624  -0.597  0.00  0.00     0.054 A 
ATOM      3  C3  IND d   1       3.523   0.985   0.593  0.00  0.00    -0.031 A 
ATOM      4  C4  IND d   1       2.847  -1.444   1.113  0.00  0.00     0.051 A 
ATOM      5  C5  IND d   1       2.342  -2.571   0.528  0.00  0.00    -0.031 A 
ATOM      6  C6  IND d   1       2.077  -2.633  -0.825  0.00  0.00     0.015 A 
ATOM      7  C7  IND d   1       2.318  -1.569  -1.648  0.00  0.00    -0.016 A 
ATOM      8  C8  IND d   1       2.824  -0.421  -1.055  0.00  0.00    -0.047 A 
ATOM      9  C9  IND d   1       3.056  -0.338   0.324  0.00  0.00    -0.096 A 
ATOM     10  HN1 IND d   1       3.086   1.014  -2.431  0.00  0.00     0.298 HD
ENDROOT
TORSDOF 0
ENDMDL
