MODEL 1
REMARK minimizedAffinity 8.80309486
REMARK minimizedRMSD -1
REMARK  1 active torsions:
REMARK  status: ('A' for Active; 'I' for Inactive)
REMARK    1  A    between atoms: C3_4  and  O_7 
ROOT
ATOM      1  C   UNL d   1       4.527  -3.983  -1.047  0.00  0.00    -0.033 A 
ATOM      2  C1  UNL d   1       4.206  -3.301  -2.222  0.00  0.00     0.039 A 
ATOM      3  C2  UNL d   1       4.244  -3.965  -3.449  0.00  0.00    -0.080 A 
ATOM      4  C3  UNL d   1       4.603  -5.310  -3.488  0.00  0.00     0.150 A 
ATOM      5  C4  UNL d   1       4.920  -5.996  -2.320  0.00  0.00    -0.007 A 
ATOM      6  C5  UNL d   1       4.882  -5.331  -1.096  0.00  0.00     0.039 A 
ENDROOT
BRANCH   4   7
ATOM      7  O   UNL d   1       4.659  -5.999  -4.662  0.00  0.00    -0.526 OA
ATOM      8  H5  UNL d   1       4.443  -5.390  -5.388  0.00  0.00     0.418 HD
ENDBRANCH   4   7
TORSDOF 1
ENDMDL
