MODEL 1
REMARK minimizedAffinity 2.67015481
REMARK minimizedRMSD -1
REMARK  1 active torsions:
REMARK  status: ('A' for Active; 'I' for Inactive)
REMARK    1  A    between atoms: C3_4  and  O_7 
ROOT
ATOM      1  C   UNL d   1       0.457   3.671  -1.215  0.00  0.00    -0.033 A 
ATOM      2  C1  UNL d   1      -0.580   2.772  -0.957  0.00  0.00     0.039 A 
ATOM      3  C2  UNL d   1      -0.892   2.423   0.358  0.00  0.00    -0.080 A 
ATOM      4  C3  UNL d   1      -0.162   2.979   1.404  0.00  0.00     0.150 A 
ATOM      5  C4  UNL d   1       0.869   3.878   1.155  0.00  0.00    -0.007 A 
ATOM      6  C5  UNL d   1       1.180   4.225  -0.159  0.00  0.00     0.039 A 
ENDROOT
BRANCH   4   7
ATOM      7  O   UNL d   1      -0.428   2.665   2.704  0.00  0.00    -0.526 OA
ATOM      8  H5  UNL d   1      -1.146   2.010   2.722  0.00  0.00     0.418 HD
ENDBRANCH   4   7
TORSDOF 1
ENDMDL
