MODEL 1
REMARK minimizedAffinity 5.90546608
REMARK minimizedRMSD -1
REMARK  1 active torsions:
REMARK  status: ('A' for Active; 'I' for Inactive)
REMARK    1  A    between atoms: C3_4  and  O_7 
ROOT
ATOM      1  C   UNL d   1      -0.018   4.143  -2.223  0.00  0.00    -0.033 A 
ATOM      2  C1  UNL d   1       0.704   4.875  -1.279  0.00  0.00     0.039 A 
ATOM      3  C2  UNL d   1       0.772   4.436   0.045  0.00  0.00    -0.080 A 
ATOM      4  C3  UNL d   1       0.115   3.264   0.410  0.00  0.00     0.150 A 
ATOM      5  C4  UNL d   1      -0.602   2.527  -0.527  0.00  0.00    -0.007 A 
ATOM      6  C5  UNL d   1      -0.670   2.968  -1.848  0.00  0.00     0.039 A 
ENDROOT
BRANCH   4   7
ATOM      7  O   UNL d   1       0.149   2.798   1.691  0.00  0.00    -0.526 OA
ATOM      8  H5  UNL d   1       0.657   3.424   2.233  0.00  0.00     0.418 HD
ENDBRANCH   4   7
TORSDOF 1
ENDMDL
