MODEL 1
REMARK minimizedAffinity -2.73139811
REMARK minimizedRMSD -1
REMARK  1 active torsions:
REMARK  status: ('A' for Active; 'I' for Inactive)
REMARK    1  A    between atoms: C3_4  and  O_7 
ROOT
ATOM      1  C   UNL d   1      -5.194   4.486  -1.873  0.00  0.00    -0.033 A 
ATOM      2  C1  UNL d   1      -4.389   4.865  -2.949  0.00  0.00     0.039 A 
ATOM      3  C2  UNL d   1      -4.386   4.108  -4.122  0.00  0.00    -0.080 A 
ATOM      4  C3  UNL d   1      -5.192   2.976  -4.207  0.00  0.00     0.150 A 
ATOM      5  C4  UNL d   1      -5.999   2.594  -3.140  0.00  0.00    -0.007 A 
ATOM      6  C5  UNL d   1      -6.000   3.351  -1.969  0.00  0.00     0.039 A 
ENDROOT
BRANCH   4   7
ATOM      7  O   UNL d   1      -5.219   2.202  -5.329  0.00  0.00    -0.526 OA
ATOM      8  H5  UNL d   1      -4.590   2.571  -5.972  0.00  0.00     0.418 HD
ENDBRANCH   4   7
TORSDOF 1
ENDMDL
