MODEL 1
REMARK minimizedAffinity 0.960074723
REMARK minimizedRMSD -1
REMARK  1 active torsions:
REMARK  status: ('A' for Active; 'I' for Inactive)
REMARK    1  A    between atoms: C3_4  and  O_7 
ROOT
ATOM      1  C   UNL d   1       1.906  -1.492   0.118  0.00  0.00    -0.033 A 
ATOM      2  C1  UNL d   1       1.980  -2.882   0.011  0.00  0.00     0.039 A 
ATOM      3  C2  UNL d   1       0.961  -3.589  -0.631  0.00  0.00    -0.080 A 
ATOM      4  C3  UNL d   1      -0.123  -2.896  -1.162  0.00  0.00     0.150 A 
ATOM      5  C4  UNL d   1      -0.201  -1.510  -1.062  0.00  0.00    -0.007 A 
ATOM      6  C5  UNL d   1       0.817  -0.806  -0.419  0.00  0.00     0.039 A 
ENDROOT
BRANCH   4   7
ATOM      7  O   UNL d   1      -1.143  -3.543  -1.793  0.00  0.00    -0.526 OA
ATOM      8  H5  UNL d   1      -0.968  -4.498  -1.761  0.00  0.00     0.418 HD
ENDBRANCH   4   7
TORSDOF 1
ENDMDL
