MODEL 1
REMARK minimizedAffinity 8.82536411
REMARK minimizedRMSD -1
REMARK  1 active torsions:
REMARK  status: ('A' for Active; 'I' for Inactive)
REMARK    1  A    between atoms: C3_4  and  O_7 
ROOT
ATOM      1  C   UNL d   1      -6.000   0.976  -3.055  0.00  0.00    -0.033 A 
ATOM      2  C1  UNL d   1      -5.993   2.199  -3.728  0.00  0.00     0.039 A 
ATOM      3  C2  UNL d   1      -5.991   3.394  -3.008  0.00  0.00    -0.080 A 
ATOM      4  C3  UNL d   1      -5.994   3.354  -1.616  0.00  0.00     0.150 A 
ATOM      5  C4  UNL d   1      -5.997   2.139  -0.939  0.00  0.00    -0.007 A 
ATOM      6  C5  UNL d   1      -6.000   0.946  -1.660  0.00  0.00     0.039 A 
ENDROOT
BRANCH   4   7
ATOM      7  O   UNL d   1      -5.997   4.494  -0.870  0.00  0.00    -0.526 OA
ATOM      8  H5  UNL d   1      -6.024   5.256  -1.472  0.00  0.00     0.418 HD
ENDBRANCH   4   7
TORSDOF 1
ENDMDL
