MODEL 1
REMARK minimizedAffinity 16.5946007
REMARK minimizedRMSD -1
REMARK  1 active torsions:
REMARK  status: ('A' for Active; 'I' for Inactive)
REMARK    1  A    between atoms: C3_4  and  O_7 
ROOT
ATOM      1  C   UNL d   1      -1.525   5.727  -2.121  0.00  0.00    -0.033 A 
ATOM      2  C1  UNL d   1      -1.166   5.998  -0.799  0.00  0.00     0.039 A 
ATOM      3  C2  UNL d   1      -0.450   5.054  -0.061  0.00  0.00    -0.080 A 
ATOM      4  C3  UNL d   1      -0.098   3.845  -0.655  0.00  0.00     0.150 A 
ATOM      5  C4  UNL d   1      -0.449   3.570  -1.972  0.00  0.00    -0.007 A 
ATOM      6  C5  UNL d   1      -1.165   4.513  -2.708  0.00  0.00     0.039 A 
ENDROOT
BRANCH   4   7
ATOM      7  O   UNL d   1       0.596   2.891   0.028  0.00  0.00    -0.526 OA
ATOM      8  H5  UNL d   1       0.744   3.208   0.934  0.00  0.00     0.418 HD
ENDBRANCH   4   7
TORSDOF 1
ENDMDL
