MODEL 1
REMARK minimizedAffinity 1.01887894
REMARK minimizedRMSD -1
REMARK  1 active torsions:
REMARK  status: ('A' for Active; 'I' for Inactive)
REMARK    1  A    between atoms: C3_4  and  O_7 
ROOT
ATOM      1  C   UNL d   1      -4.165  -2.642   5.465  0.00  0.00    -0.033 A 
ATOM      2  C1  UNL d   1      -5.367  -2.173   5.997  0.00  0.00     0.039 A 
ATOM      3  C2  UNL d   1      -6.000  -1.066   5.428  0.00  0.00    -0.080 A 
ATOM      4  C3  UNL d   1      -5.421  -0.438   4.329  0.00  0.00     0.150 A 
ATOM      5  C4  UNL d   1      -4.225  -0.903   3.791  0.00  0.00    -0.007 A 
ATOM      6  C5  UNL d   1      -3.594  -2.008   4.361  0.00  0.00     0.039 A 
ENDROOT
BRANCH   4   7
ATOM      7  O   UNL d   1      -5.998   0.648   3.742  0.00  0.00    -0.526 OA
ATOM      8  H5  UNL d   1      -6.804   0.874   4.238  0.00  0.00     0.418 HD
ENDBRANCH   4   7
TORSDOF 1
ENDMDL
