MODEL 1
REMARK minimizedAffinity 4.91766357
REMARK minimizedRMSD -1
REMARK  1 active torsions:
REMARK  status: ('A' for Active; 'I' for Inactive)
REMARK    1  A    between atoms: C3_4  and  O_7 
ROOT
ATOM      1  C   UNL d   1      -5.460  -1.902   6.000  0.00  0.00    -0.033 A 
ATOM      2  C1  UNL d   1      -4.538  -2.275   5.019  0.00  0.00     0.039 A 
ATOM      3  C2  UNL d   1      -4.158  -1.362   4.034  0.00  0.00    -0.080 A 
ATOM      4  C3  UNL d   1      -4.705  -0.082   4.040  0.00  0.00     0.150 A 
ATOM      5  C4  UNL d   1      -5.620   0.297   5.016  0.00  0.00    -0.007 A 
ATOM      6  C5  UNL d   1      -6.000  -0.616   5.999  0.00  0.00     0.039 A 
ENDROOT
BRANCH   4   7
ATOM      7  O   UNL d   1      -4.367   0.842   3.096  0.00  0.00    -0.526 OA
ATOM      8  H5  UNL d   1      -3.748   0.431   2.470  0.00  0.00     0.418 HD
ENDBRANCH   4   7
TORSDOF 1
ENDMDL
