MODEL 1
REMARK minimizedAffinity 3.52925491
REMARK minimizedRMSD -1
REMARK  1 active torsions:
REMARK  status: ('A' for Active; 'I' for Inactive)
REMARK    1  A    between atoms: C3_4  and  O_7 
ROOT
ATOM      1  C   UNL d   1      -0.708  -3.514  -5.436  0.00  0.00    -0.033 A 
ATOM      2  C1  UNL d   1      -1.873  -2.993  -4.870  0.00  0.00     0.039 A 
ATOM      3  C2  UNL d   1      -3.049  -3.746  -4.870  0.00  0.00    -0.080 A 
ATOM      4  C3  UNL d   1      -3.047  -5.017  -5.437  0.00  0.00     0.150 A 
ATOM      5  C4  UNL d   1      -1.889  -5.544  -6.000  0.00  0.00    -0.007 A 
ATOM      6  C5  UNL d   1      -0.716  -4.791  -6.000  0.00  0.00     0.039 A 
ENDROOT
BRANCH   4   7
ATOM      7  O   UNL d   1      -4.171  -5.787  -5.465  0.00  0.00    -0.526 OA
ATOM      8  H5  UNL d   1      -4.900  -5.282  -5.067  0.00  0.00     0.418 HD
ENDBRANCH   4   7
TORSDOF 1
ENDMDL
