MODEL 1
REMARK minimizedAffinity 3.51250887
REMARK minimizedRMSD -1
REMARK  1 active torsions:
REMARK  status: ('A' for Active; 'I' for Inactive)
REMARK    1  A    between atoms: C3_4  and  O_7 
ROOT
ATOM      1  C   UNL d   1      -1.492  -4.886  -4.200  0.00  0.00    -0.033 A 
ATOM      2  C1  UNL d   1      -1.495  -3.767  -3.365  0.00  0.00     0.039 A 
ATOM      3  C2  UNL d   1      -0.725  -3.761  -2.201  0.00  0.00    -0.080 A 
ATOM      4  C3  UNL d   1       0.043  -4.879  -1.884  0.00  0.00     0.150 A 
ATOM      5  C4  UNL d   1       0.053  -5.995  -2.713  0.00  0.00    -0.007 A 
ATOM      6  C5  UNL d   1      -0.717  -6.000  -3.875  0.00  0.00     0.039 A 
ENDROOT
BRANCH   4   7
ATOM      7  O   UNL d   1       0.807  -4.921  -0.755  0.00  0.00    -0.526 OA
ATOM      8  H5  UNL d   1       0.679  -4.092  -0.265  0.00  0.00     0.418 HD
ENDBRANCH   4   7
TORSDOF 1
ENDMDL
