MODEL 1
REMARK minimizedAffinity 0.772354305
REMARK minimizedRMSD -1
REMARK  1 active torsions:
REMARK  status: ('A' for Active; 'I' for Inactive)
REMARK    1  A    between atoms: C3_4  and  O_7 
ROOT
ATOM      1  C   UNL d   1      -4.504   1.499  -5.112  0.00  0.00    -0.033 A 
ATOM      2  C1  UNL d   1      -5.483   0.727  -4.483  0.00  0.00     0.039 A 
ATOM      3  C2  UNL d   1      -5.999   1.123  -3.248  0.00  0.00    -0.080 A 
ATOM      4  C3  UNL d   1      -5.529   2.291  -2.653  0.00  0.00     0.150 A 
ATOM      5  C4  UNL d   1      -4.557   3.066  -3.276  0.00  0.00    -0.007 A 
ATOM      6  C5  UNL d   1      -4.042   2.669  -4.509  0.00  0.00     0.039 A 
ENDROOT
BRANCH   4   7
ATOM      7  O   UNL d   1      -5.999   2.715  -1.446  0.00  0.00    -0.526 OA
ATOM      8  H5  UNL d   1      -6.645   2.065  -1.122  0.00  0.00     0.418 HD
ENDBRANCH   4   7
TORSDOF 1
ENDMDL
