MODEL 1
REMARK minimizedAffinity 3.73984385
REMARK minimizedRMSD -1
REMARK  1 active torsions:
REMARK  status: ('A' for Active; 'I' for Inactive)
REMARK    1  A    between atoms: C3_4  and  O_7 
ROOT
ATOM      1  C   UNL d   1      -0.979   4.420  -0.564  0.00  0.00    -0.033 A 
ATOM      2  C1  UNL d   1      -1.894   4.879  -1.514  0.00  0.00     0.039 A 
ATOM      3  C2  UNL d   1      -1.441   5.413  -2.722  0.00  0.00    -0.080 A 
ATOM      4  C3  UNL d   1      -0.072   5.482  -2.967  0.00  0.00     0.150 A 
ATOM      5  C4  UNL d   1       0.845   5.024  -2.027  0.00  0.00    -0.007 A 
ATOM      6  C5  UNL d   1       0.390   4.492  -0.822  0.00  0.00     0.039 A 
ENDROOT
BRANCH   4   7
ATOM      7  O   UNL d   1       0.418   6.000  -4.129  0.00  0.00    -0.526 OA
ATOM      8  H5  UNL d   1      -0.330   6.303  -4.671  0.00  0.00     0.418 HD
ENDBRANCH   4   7
TORSDOF 1
ENDMDL
