MODEL 1
REMARK minimizedAffinity -2.07854724
REMARK minimizedRMSD -1
REMARK  1 active torsions:
REMARK  status: ('A' for Active; 'I' for Inactive)
REMARK    1  A    between atoms: C1_2  and  C2_3 
ROOT
ATOM      1  C2  UNL d   1      -3.930   2.403  -2.313  0.00  0.00    -0.073 A 
ATOM      2  C3  UNL d   1      -5.132   2.925  -1.823  0.00  0.00    -0.002 A 
ATOM      3  C4  UNL d   1      -6.000   3.613  -2.673  0.00  0.00     0.004 A 
ATOM      4  C5  UNL d   1      -5.678   3.779  -4.019  0.00  0.00    -0.004 A 
ATOM      5  C6  UNL d   1      -4.486   3.255  -4.530  0.00  0.00    -0.075 A 
ATOM      6  C7  UNL d   1      -4.124   3.428  -5.976  0.00  0.00     0.076 C 
ATOM      7  C8  UNL d   1      -3.619   2.568  -3.670  0.00  0.00     0.001 A 
ENDROOT
BRANCH   1   8
ATOM      8  C1  UNL d   1      -2.993   1.654  -1.401  0.00  0.00     0.053 C 
ATOM      9  C   UNL d   1      -3.724   0.626  -0.551  0.00  0.00     0.018 C 
ENDBRANCH   1   8
TORSDOF 1
ENDMDL
