MODEL 1
REMARK minimizedAffinity 0.473163456
REMARK minimizedRMSD -1
REMARK  1 active torsions:
REMARK  status: ('A' for Active; 'I' for Inactive)
REMARK    1  A    between atoms: C1_2  and  C2_3 
ROOT
ATOM      1  C2  UNL d   1      -5.083   1.887  -4.691  0.00  0.00    -0.073 A 
ATOM      2  C3  UNL d   1      -4.970   2.649  -5.860  0.00  0.00    -0.002 A 
ATOM      3  C4  UNL d   1      -4.117   3.753  -5.901  0.00  0.00     0.004 A 
ATOM      4  C5  UNL d   1      -3.366   4.102  -4.779  0.00  0.00    -0.004 A 
ATOM      5  C6  UNL d   1      -3.457   3.346  -3.606  0.00  0.00    -0.075 A 
ATOM      6  C7  UNL d   1      -2.657   3.710  -2.390  0.00  0.00     0.076 C 
ATOM      7  C8  UNL d   1      -4.317   2.241  -3.571  0.00  0.00     0.001 A 
ENDROOT
BRANCH   1   8
ATOM      8  C1  UNL d   1      -5.998   0.690  -4.644  0.00  0.00     0.053 C 
ATOM      9  C   UNL d   1      -5.998  -0.079  -5.955  0.00  0.00     0.018 C 
ENDBRANCH   1   8
TORSDOF 1
ENDMDL
