MODEL 1
REMARK minimizedAffinity -0.796971977
REMARK minimizedRMSD -1
REMARK  1 active torsions:
REMARK  status: ('A' for Active; 'I' for Inactive)
REMARK    1  A    between atoms: C1_2  and  C2_3 
ROOT
ATOM      1  C2  UNL d   1       0.036   2.517   1.694  0.00  0.00    -0.073 A 
ATOM      2  C3  UNL d   1      -0.193   3.859   1.371  0.00  0.00    -0.002 A 
ATOM      3  C4  UNL d   1      -0.177   4.276   0.039  0.00  0.00     0.004 A 
ATOM      4  C5  UNL d   1       0.061   3.355  -0.982  0.00  0.00    -0.004 A 
ATOM      5  C6  UNL d   1       0.280   2.007  -0.679  0.00  0.00    -0.075 A 
ATOM      6  C7  UNL d   1       0.539   1.005  -1.766  0.00  0.00     0.076 C 
ATOM      7  C8  UNL d   1       0.265   1.597   0.661  0.00  0.00     0.001 A 
ENDROOT
BRANCH   1   8
ATOM      8  C1  UNL d   1       0.013   2.061   3.130  0.00  0.00     0.053 C 
ATOM      9  C   UNL d   1       0.656   0.694   3.305  0.00  0.00     0.018 C 
ENDBRANCH   1   8
TORSDOF 1
ENDMDL
