MODEL 1
REMARK minimizedAffinity 9.98409271
REMARK minimizedRMSD -1
REMARK  1 active torsions:
REMARK  status: ('A' for Active; 'I' for Inactive)
REMARK    1  A    between atoms: C1_2  and  C2_3 
ROOT
ATOM      1  C2  UNL d   1       1.512  -2.643  -0.570  0.00  0.00    -0.073 A 
ATOM      2  C3  UNL d   1       2.100  -3.857  -0.198  0.00  0.00    -0.002 A 
ATOM      3  C4  UNL d   1       1.408  -5.057  -0.370  0.00  0.00     0.004 A 
ATOM      4  C5  UNL d   1       0.127  -5.056  -0.922  0.00  0.00    -0.004 A 
ATOM      5  C6  UNL d   1      -0.472  -3.854  -1.312  0.00  0.00    -0.075 A 
ATOM      6  C7  UNL d   1      -1.850  -3.836  -1.905  0.00  0.00     0.076 C 
ATOM      7  C8  UNL d   1       0.228  -2.653  -1.133  0.00  0.00     0.001 A 
ENDROOT
BRANCH   1   8
ATOM      8  C1  UNL d   1       2.257  -1.346  -0.392  0.00  0.00     0.053 C 
ATOM      9  C   UNL d   1       3.694  -1.570   0.052  0.00  0.00     0.018 C 
ENDBRANCH   1   8
TORSDOF 1
ENDMDL
