MODEL 1
REMARK minimizedAffinity 4.24646473
REMARK minimizedRMSD -1
REMARK  1 active torsions:
REMARK  status: ('A' for Active; 'I' for Inactive)
REMARK    1  A    between atoms: C1_2  and  C2_3 
ROOT
ATOM      1  C2  UNL d   1      -2.626   4.119  -2.312  0.00  0.00    -0.073 A 
ATOM      2  C3  UNL d   1      -2.389   5.496  -2.231  0.00  0.00    -0.002 A 
ATOM      3  C4  UNL d   1      -1.459   5.999  -1.319  0.00  0.00     0.004 A 
ATOM      4  C5  UNL d   1      -0.754   5.131  -0.485  0.00  0.00    -0.004 A 
ATOM      5  C6  UNL d   1      -0.969   3.751  -0.560  0.00  0.00    -0.075 A 
ATOM      6  C7  UNL d   1      -0.220   2.805   0.332  0.00  0.00     0.076 C 
ATOM      7  C8  UNL d   1      -1.905   3.254  -1.476  0.00  0.00     0.001 A 
ENDROOT
BRANCH   1   8
ATOM      8  C1  UNL d   1      -3.623   3.572  -3.300  0.00  0.00     0.053 C 
ATOM      9  C   UNL d   1      -4.906   3.117  -2.622  0.00  0.00     0.018 C 
ENDBRANCH   1   8
TORSDOF 1
ENDMDL
