MODEL 1
REMARK minimizedAffinity -0.0211786292
REMARK minimizedRMSD -1
REMARK  1 active torsions:
REMARK  status: ('A' for Active; 'I' for Inactive)
REMARK    1  A    between atoms: C1_2  and  C2_3 
ROOT
ATOM      1  C2  UNL d   1       0.099   2.001  -0.690  0.00  0.00    -0.073 A 
ATOM      2  C3  UNL d   1       0.756   1.255  -1.675  0.00  0.00    -0.002 A 
ATOM      3  C4  UNL d   1       0.183   0.083  -2.171  0.00  0.00     0.004 A 
ATOM      4  C5  UNL d   1      -1.054  -0.350  -1.694  0.00  0.00    -0.004 A 
ATOM      5  C6  UNL d   1      -1.732   0.389  -0.719  0.00  0.00    -0.075 A 
ATOM      6  C7  UNL d   1      -3.062  -0.065  -0.194  0.00  0.00     0.076 C 
ATOM      7  C8  UNL d   1      -1.149   1.563  -0.224  0.00  0.00     0.001 A 
ENDROOT
BRANCH   1   8
ATOM      8  C1  UNL d   1       0.711   3.270  -0.155  0.00  0.00     0.053 C 
ATOM      9  C   UNL d   1      -0.062   4.504  -0.594  0.00  0.00     0.018 C 
ENDBRANCH   1   8
TORSDOF 1
ENDMDL
