MODEL 1
REMARK minimizedAffinity -5.43676376
REMARK minimizedRMSD -1
REMARK  0 active torsions:
REMARK  status: ('A' for Active; 'I' for Inactive)
ROOT
ATOM      1  C   UNL d   1      -2.241   2.961   1.038  0.00  0.00    -0.002 A 
ATOM      2  C1  UNL d   1      -1.573   3.518  -0.043  0.00  0.00     0.010 A 
ATOM      3  C2  UNL d   1      -0.593   2.793  -0.723  0.00  0.00     0.041 A 
ATOM      4  C3  UNL d   1      -0.294   1.484  -0.295  0.00  0.00    -0.075 A 
ATOM      5  S   UNL d   1       0.867   0.408  -0.977  0.00  0.00     0.015 SA
ATOM      6  C4  UNL d   1       0.504  -0.817   0.151  0.00  0.00     0.022 A 
ATOM      7  C5  UNL d   1      -0.477  -0.432   1.033  0.00  0.00     0.026 A 
ATOM      8  C6  UNL d   1      -0.954   0.901   0.790  0.00  0.00    -0.082 A 
ATOM      9  C7  UNL d   1      -1.942   1.663   1.460  0.00  0.00     0.045 A 
ENDROOT
TORSDOF 0
ENDMDL
