MODEL 1
REMARK minimizedAffinity -5.68953276
REMARK minimizedRMSD -1
REMARK  0 active torsions:
REMARK  status: ('A' for Active; 'I' for Inactive)
ROOT
ATOM      1  C   UNL d   1      -1.060   3.508  -0.144  0.00  0.00    -0.002 A 
ATOM      2  C1  UNL d   1      -1.784   3.155   0.986  0.00  0.00     0.010 A 
ATOM      3  C2  UNL d   1      -1.615   1.899   1.574  0.00  0.00     0.041 A 
ATOM      4  C3  UNL d   1      -0.697   0.997   1.002  0.00  0.00    -0.075 A 
ATOM      5  S   UNL d   1      -0.324  -0.594   1.551  0.00  0.00     0.015 SA
ATOM      6  C4  UNL d   1       0.805  -0.842   0.298  0.00  0.00     0.022 A 
ATOM      7  C5  UNL d   1       0.907   0.252  -0.528  0.00  0.00     0.026 A 
ATOM      8  C6  UNL d   1       0.044   1.330  -0.135  0.00  0.00    -0.082 A 
ATOM      9  C7  UNL d   1      -0.150   2.610  -0.708  0.00  0.00     0.045 A 
ENDROOT
TORSDOF 0
ENDMDL
