MODEL 1
REMARK minimizedAffinity -3.49471784
REMARK minimizedRMSD -1
REMARK  0 active torsions:
REMARK  status: ('A' for Active; 'I' for Inactive)
ROOT
ATOM      1  C   UNL d   1      -1.165   2.906   1.661  0.00  0.00    -0.002 A 
ATOM      2  C1  UNL d   1      -1.188   1.641   2.231  0.00  0.00     0.010 A 
ATOM      3  C2  UNL d   1      -0.605   0.555   1.574  0.00  0.00     0.041 A 
ATOM      4  C3  UNL d   1       0.009   0.765   0.323  0.00  0.00    -0.075 A 
ATOM      5  S   UNL d   1       0.787  -0.415  -0.664  0.00  0.00     0.015 SA
ATOM      6  C4  UNL d   1       1.169   0.733  -1.864  0.00  0.00     0.022 A 
ATOM      7  C5  UNL d   1       0.721   1.991  -1.537  0.00  0.00     0.026 A 
ATOM      8  C6  UNL d   1       0.045   2.030  -0.270  0.00  0.00    -0.082 A 
ATOM      9  C7  UNL d   1      -0.555   3.110   0.421  0.00  0.00     0.045 A 
ENDROOT
TORSDOF 0
ENDMDL
