MODEL 1
REMARK minimizedAffinity -2.75303078
REMARK minimizedRMSD -1
REMARK  0 active torsions:
REMARK  status: ('A' for Active; 'I' for Inactive)
ROOT
ATOM      1  C   UNL d   1       0.011  -3.248  -3.022  0.00  0.00    -0.002 A 
ATOM      2  C1  UNL d   1      -0.408  -3.752  -1.799  0.00  0.00     0.010 A 
ATOM      3  C2  UNL d   1      -0.563  -2.907  -0.698  0.00  0.00     0.041 A 
ATOM      4  C3  UNL d   1      -0.290  -1.533  -0.850  0.00  0.00    -0.075 A 
ATOM      5  S   UNL d   1      -0.411  -0.310   0.359  0.00  0.00     0.015 SA
ATOM      6  C4  UNL d   1       0.089   0.911  -0.721  0.00  0.00     0.022 A 
ATOM      7  C5  UNL d   1       0.347   0.415  -1.977  0.00  0.00     0.026 A 
ATOM      8  C6  UNL d   1       0.132  -1.002  -2.072  0.00  0.00    -0.082 A 
ATOM      9  C7  UNL d   1       0.281  -1.885  -3.169  0.00  0.00     0.045 A 
ENDROOT
TORSDOF 0
ENDMDL
