MODEL 1
REMARK minimizedAffinity -5.41482735
REMARK minimizedRMSD -1
REMARK  0 active torsions:
REMARK  status: ('A' for Active; 'I' for Inactive)
ROOT
ATOM      1  C   UNL d   1      -2.142   3.265   1.178  0.00  0.00    -0.002 A 
ATOM      2  C1  UNL d   1      -1.523   3.603  -0.017  0.00  0.00     0.010 A 
ATOM      3  C2  UNL d   1      -0.633   2.719  -0.631  0.00  0.00     0.041 A 
ATOM      4  C3  UNL d   1      -0.375   1.477  -0.018  0.00  0.00    -0.075 A 
ATOM      5  S   UNL d   1       0.676   0.235  -0.587  0.00  0.00     0.015 SA
ATOM      6  C4  UNL d   1       0.328  -0.773   0.742  0.00  0.00     0.022 A 
ATOM      7  C5  UNL d   1      -0.567  -0.192   1.609  0.00  0.00     0.026 A 
ATOM      8  C6  UNL d   1      -0.988   1.114   1.185  0.00  0.00    -0.082 A 
ATOM      9  C7  UNL d   1      -1.884   2.032   1.783  0.00  0.00     0.045 A 
ENDROOT
TORSDOF 0
ENDMDL
