MODEL 1
REMARK minimizedAffinity -3.52838087
REMARK minimizedRMSD -1
REMARK  0 active torsions:
REMARK  status: ('A' for Active; 'I' for Inactive)
ROOT
ATOM      1  C   UNL d   1      -1.220   0.226   2.304  0.00  0.00    -0.002 A 
ATOM      2  C1  UNL d   1      -0.522  -0.686   1.525  0.00  0.00     0.010 A 
ATOM      3  C2  UNL d   1       0.191  -0.262   0.402  0.00  0.00     0.041 A 
ATOM      4  C3  UNL d   1       0.193   1.108   0.073  0.00  0.00    -0.075 A 
ATOM      5  S   UNL d   1       0.996   1.857  -1.256  0.00  0.00     0.015 SA
ATOM      6  C4  UNL d   1       0.433   3.406  -0.820  0.00  0.00     0.022 A 
ATOM      7  C5  UNL d   1      -0.350   3.370   0.309  0.00  0.00     0.026 A 
ATOM      8  C6  UNL d   1      -0.502   2.046   0.843  0.00  0.00    -0.082 A 
ATOM      9  C7  UNL d   1      -1.216   1.584   1.975  0.00  0.00     0.045 A 
ENDROOT
TORSDOF 0
ENDMDL
