MODEL 1
REMARK minimizedAffinity -5.14957809
REMARK minimizedRMSD -1
REMARK  0 active torsions:
REMARK  status: ('A' for Active; 'I' for Inactive)
ROOT
ATOM      1  C   UNL d   1       0.212  -4.216  -1.678  0.00  0.00    -0.002 A 
ATOM      2  C1  UNL d   1       0.344  -3.416  -2.804  0.00  0.00     0.010 A 
ATOM      3  C2  UNL d   1       0.468  -2.031  -2.680  0.00  0.00     0.041 A 
ATOM      4  C3  UNL d   1       0.458  -1.458  -1.393  0.00  0.00    -0.075 A 
ATOM      5  S   UNL d   1       0.595   0.215  -0.999  0.00  0.00     0.015 SA
ATOM      6  C4  UNL d   1       0.483  -0.093   0.674  0.00  0.00     0.022 A 
ATOM      7  C5  UNL d   1       0.343  -1.434   0.943  0.00  0.00     0.026 A 
ATOM      8  C6  UNL d   1       0.327  -2.243  -0.244  0.00  0.00    -0.082 A 
ATOM      9  C7  UNL d   1       0.203  -3.644  -0.403  0.00  0.00     0.045 A 
ENDROOT
TORSDOF 0
ENDMDL
