MODEL 1
REMARK minimizedAffinity -3.34730291
REMARK minimizedRMSD -1
REMARK  0 active torsions:
REMARK  status: ('A' for Active; 'I' for Inactive)
ROOT
ATOM      1  C   UNL d   1       0.766  -3.732  -2.031  0.00  0.00    -0.002 A 
ATOM      2  C1  UNL d   1       1.289  -4.013  -0.777  0.00  0.00     0.010 A 
ATOM      3  C2  UNL d   1       1.282  -3.045   0.229  0.00  0.00     0.041 A 
ATOM      4  C3  UNL d   1       0.733  -1.778  -0.049  0.00  0.00    -0.075 A 
ATOM      5  S   UNL d   1       0.614  -0.437   1.028  0.00  0.00     0.015 SA
ATOM      6  C4  UNL d   1      -0.134   0.540  -0.151  0.00  0.00     0.022 A 
ATOM      7  C5  UNL d   1      -0.298  -0.125  -1.343  0.00  0.00     0.026 A 
ATOM      8  C6  UNL d   1       0.199  -1.471  -1.304  0.00  0.00    -0.082 A 
ATOM      9  C7  UNL d   1       0.222  -2.474  -2.303  0.00  0.00     0.045 A 
ENDROOT
TORSDOF 0
ENDMDL
