MODEL 1
REMARK minimizedAffinity -3.40630412
REMARK minimizedRMSD -1
REMARK  0 active torsions:
REMARK  status: ('A' for Active; 'I' for Inactive)
ROOT
ATOM      1  C   UNL d   1       1.237   1.565  -1.455  0.00  0.00    -0.002 A 
ATOM      2  C1  UNL d   1       1.632   0.435  -0.752  0.00  0.00     0.010 A 
ATOM      3  C2  UNL d   1       0.860  -0.047   0.307  0.00  0.00     0.041 A 
ATOM      4  C3  UNL d   1      -0.326   0.630   0.650  0.00  0.00    -0.075 A 
ATOM      5  S   UNL d   1      -1.430   0.221   1.910  0.00  0.00     0.015 SA
ATOM      6  C4  UNL d   1      -2.451   1.535   1.544  0.00  0.00     0.022 A 
ATOM      7  C5  UNL d   1      -1.977   2.279   0.489  0.00  0.00     0.026 A 
ATOM      8  C6  UNL d   1      -0.745   1.769  -0.043  0.00  0.00    -0.082 A 
ATOM      9  C7  UNL d   1       0.059   2.234  -1.112  0.00  0.00     0.045 A 
ENDROOT
TORSDOF 0
ENDMDL
