MODEL 1
REMARK minimizedAffinity -4.60082769
REMARK minimizedRMSD -1
REMARK  0 active torsions:
REMARK  status: ('A' for Active; 'I' for Inactive)
ROOT
ATOM      1  C   UNL d   1      -2.107   2.887   0.975  0.00  0.00    -0.002 A 
ATOM      2  C1  UNL d   1      -1.622   3.210  -0.284  0.00  0.00     0.010 A 
ATOM      3  C2  UNL d   1      -0.677   2.395  -0.911  0.00  0.00     0.041 A 
ATOM      4  C3  UNL d   1      -0.225   1.239  -0.245  0.00  0.00    -0.075 A 
ATOM      5  S   UNL d   1       0.928   0.093  -0.819  0.00  0.00     0.015 SA
ATOM      6  C4  UNL d   1       0.802  -0.853   0.594  0.00  0.00     0.022 A 
ATOM      7  C5  UNL d   1      -0.092  -0.321   1.492  0.00  0.00     0.026 A 
ATOM      8  C6  UNL d   1      -0.700   0.893   1.023  0.00  0.00    -0.082 A 
ATOM      9  C7  UNL d   1      -1.657   1.739   1.633  0.00  0.00     0.045 A 
ENDROOT
TORSDOF 0
ENDMDL
