MODEL 1
REMARK minimizedAffinity -0.895214319
REMARK minimizedRMSD -1
REMARK  0 active torsions:
REMARK  status: ('A' for Active; 'I' for Inactive)
ROOT
ATOM      1  C   UNL d   1      -0.020   4.057  -0.037  0.00  0.00    -0.002 A 
ATOM      2  C1  UNL d   1       0.559   3.342  -1.076  0.00  0.00     0.010 A 
ATOM      3  C2  UNL d   1       0.595   1.946  -1.043  0.00  0.00     0.041 A 
ATOM      4  C3  UNL d   1       0.032   1.276   0.060  0.00  0.00    -0.075 A 
ATOM      5  S   UNL d   1      -0.040  -0.428   0.315  0.00  0.00     0.015 SA
ATOM      6  C4  UNL d   1      -0.842  -0.246   1.808  0.00  0.00     0.022 A 
ATOM      7  C5  UNL d   1      -1.058   1.075   2.120  0.00  0.00     0.026 A 
ATOM      8  C6  UNL d   1      -0.558   1.974   1.117  0.00  0.00    -0.082 A 
ATOM      9  C7  UNL d   1      -0.578   3.388   1.056  0.00  0.00     0.045 A 
ENDROOT
TORSDOF 0
ENDMDL
