MODEL 1
REMARK minimizedAffinity 0.646643102
REMARK minimizedRMSD -1
REMARK  0 active torsions:
REMARK  status: ('A' for Active; 'I' for Inactive)
ROOT
ATOM      1  C   UNL d   1      -0.679   5.987  -4.552  0.00  0.00     0.078 C 
ATOM      2  C1  UNL d   1      -1.916   5.999  -3.704  0.00  0.00    -0.077 A 
ATOM      3  C2  UNL d   1      -1.833   5.999  -2.307  0.00  0.00    -0.001 A 
ATOM      4  C3  UNL d   1      -2.993   6.000  -1.530  0.00  0.00     0.003 A 
ATOM      5  C4  UNL d   1      -4.244   5.999  -2.142  0.00  0.00    -0.005 A 
ATOM      6  C5  UNL d   1      -4.338   5.997  -3.532  0.00  0.00     0.003 A 
ATOM      7  C6  UNL d   1      -3.179   5.996  -4.311  0.00  0.00    -0.001 A 
ENDROOT
TORSDOF 0
ENDMDL
