MODEL 1
REMARK minimizedAffinity 6.06689644
REMARK minimizedRMSD -1
REMARK  0 active torsions:
REMARK  status: ('A' for Active; 'I' for Inactive)
ROOT
ATOM      1  C   UNL d   1       4.409   3.498  -4.128  0.00  0.00     0.078 C 
ATOM      2  C1  UNL d   1       3.204   4.226  -4.645  0.00  0.00    -0.077 A 
ATOM      3  C2  UNL d   1       1.911   3.822  -4.291  0.00  0.00    -0.001 A 
ATOM      4  C3  UNL d   1       0.798   4.503  -4.788  0.00  0.00     0.003 A 
ATOM      5  C4  UNL d   1       0.967   5.592  -5.641  0.00  0.00    -0.005 A 
ATOM      6  C5  UNL d   1       2.250   6.000  -6.000  0.00  0.00     0.003 A 
ATOM      7  C6  UNL d   1       3.364   5.320  -5.505  0.00  0.00    -0.001 A 
ENDROOT
TORSDOF 0
ENDMDL
