MODEL 1
REMARK minimizedAffinity -1.73543644
REMARK minimizedRMSD -1
REMARK  0 active torsions:
REMARK  status: ('A' for Active; 'I' for Inactive)
ROOT
ATOM      1  C   UNL d   1       1.517   5.922  -4.764  0.00  0.00     0.078 C 
ATOM      2  C1  UNL d   1       0.047   5.956  -4.466  0.00  0.00    -0.077 A 
ATOM      3  C2  UNL d   1      -0.420   5.954  -3.146  0.00  0.00    -0.001 A 
ATOM      4  C3  UNL d   1      -1.791   5.977  -2.883  0.00  0.00     0.003 A 
ATOM      5  C4  UNL d   1      -2.705   6.000  -3.934  0.00  0.00    -0.005 A 
ATOM      6  C5  UNL d   1      -2.249   6.000  -5.251  0.00  0.00     0.003 A 
ATOM      7  C6  UNL d   1      -0.879   5.978  -5.516  0.00  0.00    -0.001 A 
ENDROOT
TORSDOF 0
ENDMDL
