MODEL 1
REMARK minimizedAffinity 3.09373808
REMARK minimizedRMSD -1
REMARK  0 active torsions:
REMARK  status: ('A' for Active; 'I' for Inactive)
ROOT
ATOM      1  C   UNL d   1       0.066  -1.603   1.151  0.00  0.00     0.078 C 
ATOM      2  C1  UNL d   1       0.466  -0.247   0.651  0.00  0.00    -0.077 A 
ATOM      3  C2  UNL d   1       0.796   0.782   1.541  0.00  0.00    -0.001 A 
ATOM      4  C3  UNL d   1       1.157   2.042   1.062  0.00  0.00     0.003 A 
ATOM      5  C4  UNL d   1       1.190   2.285  -0.310  0.00  0.00    -0.005 A 
ATOM      6  C5  UNL d   1       0.861   1.268  -1.204  0.00  0.00     0.003 A 
ATOM      7  C6  UNL d   1       0.500   0.008  -0.726  0.00  0.00    -0.001 A 
ENDROOT
TORSDOF 0
ENDMDL
