MODEL 1
REMARK minimizedAffinity 3.13653731
REMARK minimizedRMSD -1
REMARK  0 active torsions:
REMARK  status: ('A' for Active; 'I' for Inactive)
ROOT
ATOM      1  C   UNL d   1      -0.049  -1.766   0.936  0.00  0.00     0.078 C 
ATOM      2  C1  UNL d   1       0.619  -0.507   0.470  0.00  0.00    -0.077 A 
ATOM      3  C2  UNL d   1       1.374   0.277   1.350  0.00  0.00    -0.001 A 
ATOM      4  C3  UNL d   1       1.982   1.451   0.905  0.00  0.00     0.003 A 
ATOM      5  C4  UNL d   1       1.841   1.853  -0.422  0.00  0.00    -0.005 A 
ATOM      6  C5  UNL d   1       1.090   1.080  -1.305  0.00  0.00     0.003 A 
ATOM      7  C6  UNL d   1       0.481  -0.095  -0.862  0.00  0.00    -0.001 A 
ENDROOT
TORSDOF 0
ENDMDL
