MODEL 1
REMARK minimizedAffinity -1.73814738
REMARK minimizedRMSD -1
REMARK  0 active torsions:
REMARK  status: ('A' for Active; 'I' for Inactive)
ROOT
ATOM      1  C   UNL d   1      -1.673   5.974  -3.652  0.00  0.00     0.078 C 
ATOM      2  C1  UNL d   1      -0.263   5.985  -4.163  0.00  0.00    -0.077 A 
ATOM      3  C2  UNL d   1       0.005   5.971  -5.538  0.00  0.00    -0.001 A 
ATOM      4  C3  UNL d   1       1.322   5.973  -6.000  0.00  0.00     0.003 A 
ATOM      5  C4  UNL d   1       2.381   5.987  -5.094  0.00  0.00    -0.005 A 
ATOM      6  C5  UNL d   1       2.124   5.998  -3.725  0.00  0.00     0.003 A 
ATOM      7  C6  UNL d   1       0.808   5.997  -3.261  0.00  0.00    -0.001 A 
ENDROOT
TORSDOF 0
ENDMDL
