MODEL 1
REMARK minimizedAffinity -3.08236051
REMARK minimizedRMSD -1
REMARK  0 active torsions:
REMARK  status: ('A' for Active; 'I' for Inactive)
ROOT
ATOM      1  C   UNL d   1       0.609   2.938  -0.241  0.00  0.00     0.078 C 
ATOM      2  C1  UNL d   1       1.447   2.279   0.813  0.00  0.00    -0.077 A 
ATOM      3  C2  UNL d   1       2.839   2.198   0.683  0.00  0.00    -0.001 A 
ATOM      4  C3  UNL d   1       3.605   1.573   1.668  0.00  0.00     0.003 A 
ATOM      5  C4  UNL d   1       2.989   1.022   2.789  0.00  0.00    -0.005 A 
ATOM      6  C5  UNL d   1       1.604   1.095   2.927  0.00  0.00     0.003 A 
ATOM      7  C6  UNL d   1       0.836   1.720   1.943  0.00  0.00    -0.001 A 
ENDROOT
TORSDOF 0
ENDMDL
