MODEL 1
REMARK minimizedAffinity -3.92342544
REMARK minimizedRMSD -1
REMARK  0 active torsions:
REMARK  status: ('A' for Active; 'I' for Inactive)
ROOT
ATOM      1  C   UNL d   1       1.379   5.259  -4.122  0.00  0.00     0.078 C 
ATOM      2  C1  UNL d   1      -0.105   5.469  -4.078  0.00  0.00    -0.077 A 
ATOM      3  C2  UNL d   1      -0.752   5.798  -2.880  0.00  0.00    -0.001 A 
ATOM      4  C3  UNL d   1      -2.135   5.981  -2.852  0.00  0.00     0.003 A 
ATOM      5  C4  UNL d   1      -2.884   5.836  -4.017  0.00  0.00    -0.005 A 
ATOM      6  C5  UNL d   1      -2.250   5.506  -5.213  0.00  0.00     0.003 A 
ATOM      7  C6  UNL d   1      -0.867   5.322  -5.244  0.00  0.00    -0.001 A 
ENDROOT
TORSDOF 0
ENDMDL
