MODEL 1
REMARK minimizedAffinity -0.0661012307
REMARK minimizedRMSD -1
REMARK  0 active torsions:
REMARK  status: ('A' for Active; 'I' for Inactive)
ROOT
ATOM      1  C   UNL d   1      -3.492  -1.952  -2.025  0.00  0.00     0.078 C 
ATOM      2  C1  UNL d   1      -4.140  -3.022  -1.198  0.00  0.00    -0.077 A 
ATOM      3  C2  UNL d   1      -4.168  -4.352  -1.634  0.00  0.00    -0.001 A 
ATOM      4  C3  UNL d   1      -4.783  -5.336  -0.858  0.00  0.00     0.003 A 
ATOM      5  C4  UNL d   1      -5.376  -5.000   0.357  0.00  0.00    -0.005 A 
ATOM      6  C5  UNL d   1      -5.355  -3.678   0.797  0.00  0.00     0.003 A 
ATOM      7  C6  UNL d   1      -4.741  -2.693   0.023  0.00  0.00    -0.001 A 
ENDROOT
TORSDOF 0
ENDMDL
