MODEL 1
REMARK minimizedAffinity -1.44799638
REMARK minimizedRMSD -1
REMARK  0 active torsions:
REMARK  status: ('A' for Active; 'I' for Inactive)
ROOT
ATOM      1  C   UNL d   1      -0.455   6.000  -2.744  0.00  0.00     0.078 C 
ATOM      2  C1  UNL d   1       0.677   5.891  -3.721  0.00  0.00    -0.077 A 
ATOM      3  C2  UNL d   1       0.447   5.952  -5.101  0.00  0.00    -0.001 A 
ATOM      4  C3  UNL d   1       1.509   5.839  -6.000  0.00  0.00     0.003 A 
ATOM      5  C4  UNL d   1       2.808   5.664  -5.529  0.00  0.00    -0.005 A 
ATOM      6  C5  UNL d   1       3.047   5.600  -4.158  0.00  0.00     0.003 A 
ATOM      7  C6  UNL d   1       1.987   5.712  -3.258  0.00  0.00    -0.001 A 
ENDROOT
TORSDOF 0
ENDMDL
