MODEL 1
REMARK minimizedAffinity 0.691317201
REMARK minimizedRMSD -1
REMARK  0 active torsions:
REMARK  status: ('A' for Active; 'I' for Inactive)
ROOT
ATOM      1  C   UNL d   1      -5.934   5.999  -0.904  0.00  0.00     0.078 C 
ATOM      2  C1  UNL d   1      -4.773   5.961  -1.851  0.00  0.00    -0.077 A 
ATOM      3  C2  UNL d   1      -3.457   5.902  -1.377  0.00  0.00    -0.001 A 
ATOM      4  C3  UNL d   1      -2.385   5.877  -2.271  0.00  0.00     0.003 A 
ATOM      5  C4  UNL d   1      -2.618   5.912  -3.644  0.00  0.00    -0.005 A 
ATOM      6  C5  UNL d   1      -3.924   5.972  -4.125  0.00  0.00     0.003 A 
ATOM      7  C6  UNL d   1      -4.997   5.997  -3.233  0.00  0.00    -0.001 A 
ENDROOT
TORSDOF 0
ENDMDL
