MODEL 1
REMARK minimizedAffinity 0.195521206
REMARK minimizedRMSD -1
REMARK  0 active torsions:
REMARK  status: ('A' for Active; 'I' for Inactive)
ROOT
ATOM      1  C   UNL d   1       2.635   3.365   1.107  0.00  0.00     0.078 C 
ATOM      2  C1  UNL d   1       1.864   2.148   0.691  0.00  0.00    -0.077 A 
ATOM      3  C2  UNL d   1       1.396   1.231   1.641  0.00  0.00    -0.001 A 
ATOM      4  C3  UNL d   1       0.688   0.098   1.238  0.00  0.00     0.003 A 
ATOM      5  C4  UNL d   1       0.443  -0.131  -0.114  0.00  0.00    -0.005 A 
ATOM      6  C5  UNL d   1       0.907   0.774  -1.066  0.00  0.00     0.003 A 
ATOM      7  C6  UNL d   1       1.615   1.908  -0.666  0.00  0.00    -0.001 A 
ENDROOT
TORSDOF 0
ENDMDL
