MODEL 1
REMARK minimizedAffinity -3.43266273
REMARK minimizedRMSD -1
REMARK  0 active torsions:
REMARK  status: ('A' for Active; 'I' for Inactive)
ROOT
ATOM      1  C   UNL d   1       1.184   5.990  -4.130  0.00  0.00     0.078 C 
ATOM      2  C1  UNL d   1      -0.232   5.998  -3.637  0.00  0.00    -0.077 A 
ATOM      3  C2  UNL d   1      -0.518   5.997  -2.266  0.00  0.00    -0.001 A 
ATOM      4  C3  UNL d   1      -1.841   5.995  -1.821  0.00  0.00     0.003 A 
ATOM      5  C4  UNL d   1      -2.889   5.994  -2.741  0.00  0.00    -0.005 A 
ATOM      6  C5  UNL d   1      -2.613   5.992  -4.107  0.00  0.00     0.003 A 
ATOM      7  C6  UNL d   1      -1.291   5.994  -4.553  0.00  0.00    -0.001 A 
ENDROOT
TORSDOF 0
ENDMDL
