MODEL 1
REMARK minimizedAffinity -0.891691744
REMARK minimizedRMSD -1
REMARK  0 active torsions:
REMARK  status: ('A' for Active; 'I' for Inactive)
ROOT
ATOM      1  C   UNL d   1       1.760   5.986  -3.748  0.00  0.00     0.078 C 
ATOM      2  C1  UNL d   1       0.340   5.998  -3.265  0.00  0.00    -0.077 A 
ATOM      3  C2  UNL d   1       0.044   5.995  -1.896  0.00  0.00    -0.001 A 
ATOM      4  C3  UNL d   1      -1.282   5.996  -1.461  0.00  0.00     0.003 A 
ATOM      5  C4  UNL d   1      -2.323   5.999  -2.387  0.00  0.00    -0.005 A 
ATOM      6  C5  UNL d   1      -2.038   6.000  -3.751  0.00  0.00     0.003 A 
ATOM      7  C6  UNL d   1      -0.713   5.999  -4.189  0.00  0.00    -0.001 A 
ENDROOT
TORSDOF 0
ENDMDL
