MODEL 1
REMARK minimizedAffinity -0.800907075
REMARK minimizedRMSD -1
REMARK  0 active torsions:
REMARK  status: ('A' for Active; 'I' for Inactive)
ROOT
ATOM      1  C   UNL d   1      -2.406  -0.654   3.116  0.00  0.00     0.078 C 
ATOM      2  C1  UNL d   1      -1.310  -0.070   2.275  0.00  0.00    -0.077 A 
ATOM      3  C2  UNL d   1      -1.169  -0.424   0.927  0.00  0.00    -0.001 A 
ATOM      4  C3  UNL d   1      -0.139   0.121   0.159  0.00  0.00     0.003 A 
ATOM      5  C4  UNL d   1       0.759   1.021   0.729  0.00  0.00    -0.005 A 
ATOM      6  C5  UNL d   1       0.627   1.378   2.070  0.00  0.00     0.003 A 
ATOM      7  C6  UNL d   1      -0.402   0.834   2.840  0.00  0.00    -0.001 A 
ENDROOT
TORSDOF 0
ENDMDL
