MODEL 1
REMARK minimizedAffinity 3.73595762
REMARK minimizedRMSD -1
REMARK  2 active torsions:
REMARK  status: ('A' for Active; 'I' for Inactive)
REMARK    1  A    between atoms: C2'_3  and  C1'_4 
REMARK    2  A    between atoms: C1'_4  and  C1_5 
ROOT
ATOM      1  C1  I4B d   1      -2.616  -1.336  -0.866  0.00  0.00    -0.075 A 
ATOM      2  C2  I4B d   1      -3.025  -0.073  -1.215  0.00  0.00     0.003 A 
ATOM      3  C3  I4B d   1      -3.397   0.212  -2.551  0.00  0.00     0.002 A 
ATOM      4  C4  I4B d   1      -3.297  -0.775  -3.510  0.00  0.00    -0.004 A 
ATOM      5  C5  I4B d   1      -2.903  -2.061  -3.150  0.00  0.00     0.002 A 
ATOM      6  C6  I4B d   1      -2.572  -2.347  -1.818  0.00  0.00     0.003 A 
ENDROOT
BRANCH   1   7
ATOM      7  C1' I4B d   1      -2.199  -1.594   0.547  0.00  0.00     0.060 C 
BRANCH   7   8
ATOM      8  C2' I4B d   1      -1.271  -0.474   0.972  0.00  0.00    -0.013 C 
ATOM      9  C4' I4B d   1      -2.046   0.720   1.463  0.00  0.00     0.013 C 
ATOM     10  C3' I4B d   1      -0.361  -1.006   2.039  0.00  0.00     0.013 C 
ENDBRANCH   7   8
ENDBRANCH   1   7
TORSDOF 2
ENDMDL
