MODEL 1
REMARK minimizedAffinity 20.0193214
REMARK minimizedRMSD -1
REMARK  2 active torsions:
REMARK  status: ('A' for Active; 'I' for Inactive)
REMARK    1  A    between atoms: C2'_3  and  C1'_4 
REMARK    2  A    between atoms: C1'_4  and  C1_5 
ROOT
ATOM      1  C1  I4B d   1      -1.446   0.371   0.414  0.00  0.00    -0.075 A 
ATOM      2  C2  I4B d   1      -1.912   1.077  -0.668  0.00  0.00     0.003 A 
ATOM      3  C3  I4B d   1      -2.910   0.521  -1.505  0.00  0.00     0.002 A 
ATOM      4  C4  I4B d   1      -3.374  -0.754  -1.255  0.00  0.00    -0.004 A 
ATOM      5  C5  I4B d   1      -2.917  -1.459  -0.145  0.00  0.00     0.002 A 
ATOM      6  C6  I4B d   1      -1.956  -0.888   0.702  0.00  0.00     0.003 A 
ENDROOT
BRANCH   1   7
ATOM      7  C1' I4B d   1      -0.368   0.975   1.258  0.00  0.00     0.060 C 
BRANCH   7   8
ATOM      8  C2' I4B d   1       0.305  -0.145   2.025  0.00  0.00    -0.013 C 
ATOM      9  C4' I4B d   1       1.462  -0.718   1.249  0.00  0.00     0.013 C 
ATOM     10  C3' I4B d   1       0.758   0.405   3.344  0.00  0.00     0.013 C 
ENDBRANCH   7   8
ENDBRANCH   1   7
TORSDOF 2
ENDMDL
