MODEL 1
REMARK minimizedAffinity 6.98555803
REMARK minimizedRMSD -1
REMARK  2 active torsions:
REMARK  status: ('A' for Active; 'I' for Inactive)
REMARK    1  A    between atoms: C2'_3  and  C1'_4 
REMARK    2  A    between atoms: C1'_4  and  C1_5 
ROOT
ATOM      1  C1  I4B d   1       0.792  -2.269   1.433  0.00  0.00    -0.075 A 
ATOM      2  C2  I4B d   1       1.081  -0.966   1.756  0.00  0.00     0.003 A 
ATOM      3  C3  I4B d   1       0.059   0.014   1.748  0.00  0.00     0.002 A 
ATOM      4  C4  I4B d   1      -1.218  -0.340   1.363  0.00  0.00    -0.004 A 
ATOM      5  C5  I4B d   1      -1.514  -1.665   1.058  0.00  0.00     0.002 A 
ATOM      6  C6  I4B d   1      -0.506  -2.638   1.104  0.00  0.00     0.003 A 
ENDROOT
BRANCH   1   7
ATOM      7  C1' I4B d   1       1.902  -3.271   1.420  0.00  0.00     0.060 C 
BRANCH   7   8
ATOM      8  C2' I4B d   1       1.835  -4.058   2.713  0.00  0.00    -0.013 C 
ATOM      9  C4' I4B d   1       2.102  -5.521   2.476  0.00  0.00     0.013 C 
ATOM     10  C3' I4B d   1       2.837  -3.472   3.663  0.00  0.00     0.013 C 
ENDBRANCH   7   8
ENDBRANCH   1   7
TORSDOF 2
ENDMDL
