MODEL 1
REMARK minimizedAffinity 13.2173452
REMARK minimizedRMSD -1
REMARK  2 active torsions:
REMARK  status: ('A' for Active; 'I' for Inactive)
REMARK    1  A    between atoms: C2'_3  and  C1'_4 
REMARK    2  A    between atoms: C1'_4  and  C1_5 
ROOT
ATOM      1  C1  I4B d   1       0.856  -0.623   2.876  0.00  0.00    -0.075 A 
ATOM      2  C2  I4B d   1       0.646  -0.648   4.232  0.00  0.00     0.003 A 
ATOM      3  C3  I4B d   1       1.128  -1.730   5.008  0.00  0.00     0.002 A 
ATOM      4  C4  I4B d   1       1.765  -2.783   4.384  0.00  0.00    -0.004 A 
ATOM      5  C5  I4B d   1       1.998  -2.745   3.012  0.00  0.00     0.002 A 
ATOM      6  C6  I4B d   1       1.551  -1.652   2.254  0.00  0.00     0.003 A 
ENDROOT
BRANCH   1   7
ATOM      7  C1' I4B d   1       0.305   0.520   2.082  0.00  0.00     0.060 C 
BRANCH   7   8
ATOM      8  C2' I4B d   1      -0.283  -0.041   0.804  0.00  0.00    -0.013 C 
ATOM      9  C4' I4B d   1      -1.737  -0.394   0.981  0.00  0.00     0.013 C 
ATOM     10  C3' I4B d   1      -0.102   0.983  -0.277  0.00  0.00     0.013 C 
ENDBRANCH   7   8
ENDBRANCH   1   7
TORSDOF 2
ENDMDL
