MODEL 1
REMARK minimizedAffinity 4.33258724
REMARK minimizedRMSD -1
REMARK  2 active torsions:
REMARK  status: ('A' for Active; 'I' for Inactive)
REMARK    1  A    between atoms: C2'_3  and  C1'_4 
REMARK    2  A    between atoms: C1'_4  and  C1_5 
ROOT
ATOM      1  C1  I4B d   1       2.782  -2.497   3.661  0.00  0.00    -0.075 A 
ATOM      2  C2  I4B d   1       1.888  -1.455   3.645  0.00  0.00     0.003 A 
ATOM      3  C3  I4B d   1       1.196  -1.091   4.826  0.00  0.00     0.002 A 
ATOM      4  C4  I4B d   1       1.389  -1.823   5.979  0.00  0.00    -0.004 A 
ATOM      5  C5  I4B d   1       2.313  -2.865   6.000  0.00  0.00     0.002 A 
ATOM      6  C6  I4B d   1       3.023  -3.196   4.837  0.00  0.00     0.003 A 
ENDROOT
BRANCH   1   7
ATOM      7  C1' I4B d   1       3.471  -2.876   2.388  0.00  0.00     0.060 C 
BRANCH   7   8
ATOM      8  C2' I4B d   1       2.460  -2.778   1.264  0.00  0.00    -0.013 C 
ATOM      9  C4' I4B d   1       2.965  -1.898   0.151  0.00  0.00     0.013 C 
ATOM     10  C3' I4B d   1       2.180  -4.167   0.771  0.00  0.00     0.013 C 
ENDBRANCH   7   8
ENDBRANCH   1   7
TORSDOF 2
ENDMDL
