MODEL 1
REMARK minimizedAffinity -1.38805771
REMARK minimizedRMSD -1
REMARK  0 active torsions:
REMARK  status: ('A' for Active; 'I' for Inactive)
ROOT
ATOM      1  C1  DEN d   1      -1.426   0.292   1.901  0.00  0.00     0.130 A 
ATOM      2  C2  DEN d   1      -2.632   0.534   1.114  0.00  0.00    -0.031 A 
ATOM      3  C3  DEN d   1      -2.305   0.299  -0.307  0.00  0.00     0.027 A 
ATOM      4  C4  DEN d   1      -0.061  -0.416  -1.358  0.00  0.00     0.027 A 
ATOM      5  C5  DEN d   1       1.253  -0.730  -1.093  0.00  0.00    -0.003 A 
ATOM      6  C6  DEN d   1       1.772  -0.692   0.175  0.00  0.00     0.001 A 
ATOM      7  C7  DEN d   1       0.959  -0.376   1.231  0.00  0.00     0.017 A 
ATOM      8  C8  DEN d   1      -0.366  -0.052   0.970  0.00  0.00    -0.094 A 
ATOM      9  C9  DEN d   1      -0.874  -0.108  -0.316  0.00  0.00    -0.072 A 
ENDROOT
TORSDOF 0
ENDMDL
