MODEL 1
REMARK minimizedAffinity 5.72706795
REMARK minimizedRMSD -1
REMARK  0 active torsions:
REMARK  status: ('A' for Active; 'I' for Inactive)
ROOT
ATOM      1  C1  DEN d   1       1.986   1.884  -4.273  0.00  0.00     0.130 A 
ATOM      2  C2  DEN d   1       0.821   1.230  -4.864  0.00  0.00    -0.031 A 
ATOM      3  C3  DEN d   1      -0.042   0.754  -3.765  0.00  0.00     0.027 A 
ATOM      4  C4  DEN d   1       0.307   0.967  -1.218  0.00  0.00     0.027 A 
ATOM      5  C5  DEN d   1       1.154   1.432  -0.237  0.00  0.00    -0.003 A 
ATOM      6  C6  DEN d   1       2.344   2.045  -0.528  0.00  0.00     0.001 A 
ATOM      7  C7  DEN d   1       2.699   2.250  -1.835  0.00  0.00     0.017 A 
ATOM      8  C8  DEN d   1       1.854   1.777  -2.831  0.00  0.00    -0.094 A 
ATOM      9  C9  DEN d   1       0.650   1.171  -2.516  0.00  0.00    -0.072 A 
ENDROOT
TORSDOF 0
ENDMDL
