MODEL 1
REMARK minimizedAffinity -6.0963335
REMARK minimizedRMSD -1
REMARK  0 active torsions:
REMARK  status: ('A' for Active; 'I' for Inactive)
ROOT
ATOM      1  C1  DEN d   1       1.039  -0.711   0.194  0.00  0.00     0.130 A 
ATOM      2  C2  DEN d   1      -0.017  -0.199  -0.676  0.00  0.00    -0.031 A 
ATOM      3  C3  DEN d   1      -0.910   0.648   0.141  0.00  0.00     0.027 A 
ATOM      4  C4  DEN d   1      -0.758   1.217   2.652  0.00  0.00     0.027 A 
ATOM      5  C5  DEN d   1      -0.042   1.007   3.809  0.00  0.00    -0.003 A 
ATOM      6  C6  DEN d   1       1.056   0.189   3.850  0.00  0.00     0.001 A 
ATOM      7  C7  DEN d   1       1.497  -0.413   2.701  0.00  0.00     0.017 A 
ATOM      8  C8  DEN d   1       0.775  -0.212   1.532  0.00  0.00    -0.094 A 
ATOM      9  C9  DEN d   1      -0.325   0.628   1.508  0.00  0.00    -0.072 A 
ENDROOT
TORSDOF 0
ENDMDL
