MODEL 1
REMARK minimizedAffinity -2.62057018
REMARK minimizedRMSD -1
REMARK  0 active torsions:
REMARK  status: ('A' for Active; 'I' for Inactive)
ROOT
ATOM      1  C1  DEN d   1      -2.365  -0.227   1.448  0.00  0.00     0.130 A 
ATOM      2  C2  DEN d   1      -2.191  -0.583   0.042  0.00  0.00    -0.031 A 
ATOM      3  C3  DEN d   1      -0.784  -0.324  -0.323  0.00  0.00     0.027 A 
ATOM      4  C4  DEN d   1       1.133   0.585   1.144  0.00  0.00     0.027 A 
ATOM      5  C5  DEN d   1       1.465   1.042   2.400  0.00  0.00    -0.003 A 
ATOM      6  C6  DEN d   1       0.544   1.138   3.409  0.00  0.00     0.001 A 
ATOM      7  C7  DEN d   1      -0.746   0.731   3.192  0.00  0.00     0.017 A 
ATOM      8  C8  DEN d   1      -1.090   0.277   1.926  0.00  0.00    -0.094 A 
ATOM      9  C9  DEN d   1      -0.142   0.175   0.923  0.00  0.00    -0.072 A 
ENDROOT
TORSDOF 0
ENDMDL
