MODEL 1
REMARK minimizedAffinity -5.53387547
REMARK minimizedRMSD -1
REMARK  1 active torsions:
REMARK  status: ('A' for Active; 'I' for Inactive)
REMARK    1  A    between atoms: C1_2  and  C2_3 
ROOT
ATOM      1  C2  UNL d   1       0.464   0.181  -0.080  0.00  0.00    -0.073 A 
ATOM      2  C3  UNL d   1       0.176   1.409   0.527  0.00  0.00    -0.002 A 
ATOM      3  C4  UNL d   1       1.002   1.908   1.534  0.00  0.00     0.004 A 
ATOM      4  C5  UNL d   1       2.127   1.190   1.940  0.00  0.00    -0.004 A 
ATOM      5  C6  UNL d   1       2.438  -0.033   1.337  0.00  0.00    -0.075 A 
ATOM      6  C7  UNL d   1       3.643  -0.819   1.764  0.00  0.00     0.076 C 
ATOM      7  C8  UNL d   1       1.602  -0.529   0.328  0.00  0.00     0.001 A 
ENDROOT
BRANCH   1   8
ATOM      8  C1  UNL d   1      -0.422  -0.359  -1.173  0.00  0.00     0.053 C 
ATOM      9  C   UNL d   1      -1.893  -0.089  -0.900  0.00  0.00     0.018 C 
ENDBRANCH   1   8
TORSDOF 1
ENDMDL
