MODEL 1
REMARK minimizedAffinity -3.59920478
REMARK minimizedRMSD -1
REMARK  1 active torsions:
REMARK  status: ('A' for Active; 'I' for Inactive)
REMARK    1  A    between atoms: C1_2  and  C2_3 
ROOT
ATOM      1  C2  UNL d   1      -0.796   0.145  -0.553  0.00  0.00    -0.073 A 
ATOM      2  C3  UNL d   1      -0.513  -1.226  -0.552  0.00  0.00    -0.002 A 
ATOM      3  C4  UNL d   1       0.681  -1.698  -0.006  0.00  0.00     0.004 A 
ATOM      4  C5  UNL d   1       1.599  -0.808   0.550  0.00  0.00    -0.004 A 
ATOM      5  C6  UNL d   1       1.329   0.564   0.569  0.00  0.00    -0.075 A 
ATOM      6  C7  UNL d   1       2.308   1.535   1.162  0.00  0.00     0.076 C 
ATOM      7  C8  UNL d   1       0.129   1.031   0.016  0.00  0.00     0.001 A 
ENDROOT
BRANCH   1   8
ATOM      8  C1  UNL d   1      -2.087   0.660  -1.136  0.00  0.00     0.053 C 
ATOM      9  C   UNL d   1      -2.316   0.152  -2.551  0.00  0.00     0.018 C 
ENDBRANCH   1   8
TORSDOF 1
ENDMDL
