MODEL 1
REMARK minimizedAffinity -0.230932653
REMARK minimizedRMSD -1
REMARK  1 active torsions:
REMARK  status: ('A' for Active; 'I' for Inactive)
REMARK    1  A    between atoms: C1_2  and  C2_3 
ROOT
ATOM      1  C2  UNL d   1      -1.294  -0.005  -0.755  0.00  0.00    -0.073 A 
ATOM      2  C3  UNL d   1      -1.873  -0.930   0.121  0.00  0.00    -0.002 A 
ATOM      3  C4  UNL d   1      -1.165  -1.384   1.234  0.00  0.00     0.004 A 
ATOM      4  C5  UNL d   1       0.124  -0.914   1.487  0.00  0.00    -0.004 A 
ATOM      5  C6  UNL d   1       0.714   0.020   0.629  0.00  0.00    -0.075 A 
ATOM      6  C7  UNL d   1       2.101   0.534   0.885  0.00  0.00     0.076 C 
ATOM      7  C8  UNL d   1      -0.002   0.469  -0.488  0.00  0.00     0.001 A 
ENDROOT
BRANCH   1   8
ATOM      8  C1  UNL d   1      -2.057   0.494  -1.955  0.00  0.00     0.053 C 
ATOM      9  C   UNL d   1      -2.407  -0.632  -2.916  0.00  0.00     0.018 C 
ENDBRANCH   1   8
TORSDOF 1
ENDMDL
