MODEL 1
REMARK minimizedAffinity 2.1240859
REMARK minimizedRMSD -1
REMARK  1 active torsions:
REMARK  status: ('A' for Active; 'I' for Inactive)
REMARK    1  A    between atoms: C1_2  and  C2_3 
ROOT
ATOM      1  C2  UNL d   1       2.390  -0.010   2.500  0.00  0.00    -0.073 A 
ATOM      2  C3  UNL d   1       3.381  -0.308   1.558  0.00  0.00    -0.002 A 
ATOM      3  C4  UNL d   1       3.097  -1.138   0.473  0.00  0.00     0.004 A 
ATOM      4  C5  UNL d   1       1.819  -1.673   0.315  0.00  0.00    -0.004 A 
ATOM      5  C6  UNL d   1       0.811  -1.378   1.238  0.00  0.00    -0.075 A 
ATOM      6  C7  UNL d   1      -0.569  -1.947   1.084  0.00  0.00     0.076 C 
ATOM      7  C8  UNL d   1       1.105  -0.545   2.327  0.00  0.00     0.001 A 
ENDROOT
BRANCH   1   8
ATOM      8  C1  UNL d   1       2.691   0.891   3.670  0.00  0.00     0.053 C 
ATOM      9  C   UNL d   1       2.602   2.361   3.294  0.00  0.00     0.018 C 
ENDBRANCH   1   8
TORSDOF 1
ENDMDL
