MODEL 1
REMARK minimizedAffinity -3.68633151
REMARK minimizedRMSD -1
REMARK  0 active torsions:
REMARK  status: ('A' for Active; 'I' for Inactive)
ROOT
ATOM      1  C   UNL d   1      -2.732   1.401   3.162  0.00  0.00     0.023 A 
ATOM      2  C1  UNL d   1      -3.240   0.908   1.961  0.00  0.00     0.003 A 
ATOM      3  C2  UNL d   1      -2.402   0.235   1.070  0.00  0.00     0.048 A 
ATOM      4  C3  UNL d   1      -1.056   0.056   1.389  0.00  0.00     0.023 A 
ATOM      5  C4  UNL d   1      -0.543   0.547   2.591  0.00  0.00     0.048 A 
ATOM      6  C5  UNL d   1      -1.385   1.221   3.477  0.00  0.00     0.003 A 
ATOM      7  I   UNL d   1       0.194  -0.946   0.065  0.00  0.00    -0.146 I 
ENDROOT
TORSDOF 0
ENDMDL
