MODEL 1
REMARK minimizedAffinity -3.83131242
REMARK minimizedRMSD -1
REMARK  0 active torsions:
REMARK  status: ('A' for Active; 'I' for Inactive)
ROOT
ATOM      1  C   UNL d   1      -2.267   1.317   3.286  0.00  0.00     0.023 A 
ATOM      2  C1  UNL d   1      -1.131   1.956   2.788  0.00  0.00     0.003 A 
ATOM      3  C2  UNL d   1      -0.363   1.345   1.795  0.00  0.00     0.048 A 
ATOM      4  C3  UNL d   1      -0.737   0.095   1.303  0.00  0.00     0.023 A 
ATOM      5  C4  UNL d   1      -1.872  -0.548   1.797  0.00  0.00     0.048 A 
ATOM      6  C5  UNL d   1      -2.637   0.066   2.791  0.00  0.00     0.003 A 
ATOM      7  I   UNL d   1       0.405  -0.816  -0.176  0.00  0.00    -0.146 I 
ENDROOT
TORSDOF 0
ENDMDL
