MODEL 1
REMARK minimizedAffinity -2.11088443
REMARK minimizedRMSD -1
REMARK  0 active torsions:
REMARK  status: ('A' for Active; 'I' for Inactive)
ROOT
ATOM      1  C   UNL d   1       1.822  -0.509  -2.268  0.00  0.00     0.023 A 
ATOM      2  C1  UNL d   1       1.613  -1.448  -1.258  0.00  0.00     0.003 A 
ATOM      3  C2  UNL d   1       0.701  -1.182  -0.234  0.00  0.00     0.048 A 
ATOM      4  C3  UNL d   1      -0.000   0.023  -0.229  0.00  0.00     0.023 A 
ATOM      5  C4  UNL d   1       0.205   0.965  -1.238  0.00  0.00     0.048 A 
ATOM      6  C5  UNL d   1       1.119   0.695  -2.259  0.00  0.00     0.003 A 
ATOM      7  I   UNL d   1      -1.359   0.421   1.293  0.00  0.00    -0.146 I 
ENDROOT
TORSDOF 0
ENDMDL
