MODEL 1
REMARK minimizedAffinity -1.94229448
REMARK minimizedRMSD -1
REMARK  0 active torsions:
REMARK  status: ('A' for Active; 'I' for Inactive)
ROOT
ATOM      1  C   UNL d   1       1.646  -1.022  -1.648  0.00  0.00     0.023 A 
ATOM      2  C1  UNL d   1       1.262  -1.969  -0.698  0.00  0.00     0.003 A 
ATOM      3  C2  UNL d   1       0.381  -1.616   0.326  0.00  0.00     0.048 A 
ATOM      4  C3  UNL d   1      -0.114  -0.314   0.394  0.00  0.00     0.023 A 
ATOM      5  C4  UNL d   1       0.266   0.637  -0.555  0.00  0.00     0.048 A 
ATOM      6  C5  UNL d   1       1.148   0.279  -1.576  0.00  0.00     0.003 A 
ATOM      7  I   UNL d   1      -1.426   0.214   1.917  0.00  0.00    -0.146 I 
ENDROOT
TORSDOF 0
ENDMDL
