MODEL 1
REMARK minimizedAffinity -3.6404531
REMARK minimizedRMSD -1
REMARK  0 active torsions:
REMARK  status: ('A' for Active; 'I' for Inactive)
ROOT
ATOM      1  C   UNL d   1       1.989  -0.956  -1.509  0.00  0.00     0.023 A 
ATOM      2  C1  UNL d   1       1.560   0.372  -1.531  0.00  0.00     0.003 A 
ATOM      3  C2  UNL d   1       0.504   0.779  -0.714  0.00  0.00     0.048 A 
ATOM      4  C3  UNL d   1      -0.120  -0.146   0.123  0.00  0.00     0.023 A 
ATOM      5  C4  UNL d   1       0.306  -1.475   0.148  0.00  0.00     0.048 A 
ATOM      6  C5  UNL d   1       1.362  -1.878  -0.671  0.00  0.00     0.003 A 
ATOM      7  I   UNL d   1      -1.693   0.457   1.340  0.00  0.00    -0.146 I 
ENDROOT
TORSDOF 0
ENDMDL
