MODEL 1
REMARK minimizedAffinity -1.29823744
REMARK minimizedRMSD -1
REMARK  0 active torsions:
REMARK  status: ('A' for Active; 'I' for Inactive)
ROOT
ATOM      1  C   UNL d   1      -0.023   2.073   0.191  0.00  0.00     0.023 A 
ATOM      2  C1  UNL d   1      -0.662   0.837   0.086  0.00  0.00     0.003 A 
ATOM      3  C2  UNL d   1      -1.235   0.248   1.214  0.00  0.00     0.048 A 
ATOM      4  C3  UNL d   1      -1.166   0.900   2.445  0.00  0.00     0.023 A 
ATOM      5  C4  UNL d   1      -0.528   2.136   2.555  0.00  0.00     0.048 A 
ATOM      6  C5  UNL d   1       0.044   2.722   1.424  0.00  0.00     0.003 A 
ATOM      7  I   UNL d   1      -2.018   0.024   4.127  0.00  0.00    -0.146 I 
ENDROOT
TORSDOF 0
ENDMDL
