MODEL 1
REMARK minimizedAffinity -0.561158121
REMARK minimizedRMSD -1
REMARK  0 active torsions:
REMARK  status: ('A' for Active; 'I' for Inactive)
ROOT
ATOM      1  C   UNL d   1       0.649  -1.303  -0.446  0.00  0.00     0.023 A 
ATOM      2  C1  UNL d   1      -0.233  -0.261  -0.734  0.00  0.00     0.003 A 
ATOM      3  C2  UNL d   1      -0.813   0.471   0.304  0.00  0.00     0.048 A 
ATOM      4  C3  UNL d   1      -0.506   0.157   1.627  0.00  0.00     0.023 A 
ATOM      5  C4  UNL d   1       0.377  -0.883   1.920  0.00  0.00     0.048 A 
ATOM      6  C5  UNL d   1       0.954  -1.613   0.879  0.00  0.00     0.003 A 
ATOM      7  I   UNL d   1      -1.369   1.246   3.173  0.00  0.00    -0.146 I 
ENDROOT
TORSDOF 0
ENDMDL
