MODEL 1
REMARK minimizedAffinity -4.24118757
REMARK minimizedRMSD -1
REMARK  0 active torsions:
REMARK  status: ('A' for Active; 'I' for Inactive)
ROOT
ATOM      1  C   UNL d   1       2.665  -0.714  -2.515  0.00  0.00     0.023 A 
ATOM      2  C1  UNL d   1       1.868   0.426  -2.611  0.00  0.00     0.003 A 
ATOM      3  C2  UNL d   1       0.849   0.648  -1.682  0.00  0.00     0.048 A 
ATOM      4  C3  UNL d   1       0.633  -0.275  -0.659  0.00  0.00     0.023 A 
ATOM      5  C4  UNL d   1       1.429  -1.418  -0.559  0.00  0.00     0.048 A 
ATOM      6  C5  UNL d   1       2.446  -1.635  -1.491  0.00  0.00     0.003 A 
ATOM      7  I   UNL d   1      -0.883   0.052   0.724  0.00  0.00    -0.146 I 
ENDROOT
TORSDOF 0
ENDMDL
