MODEL 1
REMARK minimizedAffinity -1.72445035
REMARK minimizedRMSD -1
REMARK  0 active torsions:
REMARK  status: ('A' for Active; 'I' for Inactive)
ROOT
ATOM      1  C   UNL d   1       1.324  -1.314  -1.103  0.00  0.00     0.023 A 
ATOM      2  C1  UNL d   1       0.719  -0.091  -1.397  0.00  0.00     0.003 A 
ATOM      3  C2  UNL d   1      -0.087   0.537  -0.446  0.00  0.00     0.048 A 
ATOM      4  C3  UNL d   1      -0.284  -0.063   0.798  0.00  0.00     0.023 A 
ATOM      5  C4  UNL d   1       0.320  -1.285   1.097  0.00  0.00     0.048 A 
ATOM      6  C5  UNL d   1       1.124  -1.910   0.142  0.00  0.00     0.003 A 
ATOM      7  I   UNL d   1      -1.484   0.870   2.216  0.00  0.00    -0.146 I 
ENDROOT
TORSDOF 0
ENDMDL
