MODEL 1
REMARK minimizedAffinity -0.670247853
REMARK minimizedRMSD -1
REMARK  0 active torsions:
REMARK  status: ('A' for Active; 'I' for Inactive)
ROOT
ATOM      1  C   UNL d   1      -0.256  -0.911  -0.555  0.00  0.00     0.023 A 
ATOM      2  C1  UNL d   1       0.425  -1.083   0.650  0.00  0.00     0.003 A 
ATOM      3  C2  UNL d   1       0.045  -0.354   1.779  0.00  0.00     0.048 A 
ATOM      4  C3  UNL d   1      -1.018   0.545   1.696  0.00  0.00     0.023 A 
ATOM      5  C4  UNL d   1      -1.703   0.719   0.492  0.00  0.00     0.048 A 
ATOM      6  C5  UNL d   1      -1.319  -0.011  -0.634  0.00  0.00     0.003 A 
ATOM      7  I   UNL d   1      -1.586   1.631   3.374  0.00  0.00    -0.146 I 
ENDROOT
TORSDOF 0
ENDMDL
