MODEL 1
REMARK minimizedAffinity -3.50721192
REMARK minimizedRMSD -1
REMARK  0 active torsions:
REMARK  status: ('A' for Active; 'I' for Inactive)
ROOT
ATOM      1  C   UNL d   1      -2.179   1.473   3.381  0.00  0.00     0.023 A 
ATOM      2  C1  UNL d   1      -2.642   1.519   2.066  0.00  0.00     0.003 A 
ATOM      3  C2  UNL d   1      -1.919   0.895   1.048  0.00  0.00     0.048 A 
ATOM      4  C3  UNL d   1      -0.733   0.227   1.351  0.00  0.00     0.023 A 
ATOM      5  C4  UNL d   1      -0.266   0.178   2.666  0.00  0.00     0.048 A 
ATOM      6  C5  UNL d   1      -0.993   0.803   3.681  0.00  0.00     0.003 A 
ATOM      7  I   UNL d   1       0.346  -0.702  -0.163  0.00  0.00    -0.146 I 
ENDROOT
TORSDOF 0
ENDMDL
