MODEL 1
REMARK minimizedAffinity -0.255705863
REMARK minimizedRMSD -1
REMARK  0 active torsions:
REMARK  status: ('A' for Active; 'I' for Inactive)
ROOT
ATOM      1  C   UNL d   1       1.028  -1.324  -0.098  0.00  0.00     0.023 A 
ATOM      2  C1  UNL d   1       0.334  -0.149  -0.383  0.00  0.00     0.003 A 
ATOM      3  C2  UNL d   1       0.546   0.513  -1.595  0.00  0.00     0.048 A 
ATOM      4  C3  UNL d   1       1.453  -0.008  -2.517  0.00  0.00     0.023 A 
ATOM      5  C4  UNL d   1       2.149  -1.185  -2.237  0.00  0.00     0.048 A 
ATOM      6  C5  UNL d   1       1.934  -1.842  -1.024  0.00  0.00     0.003 A 
ATOM      7  I   UNL d   1       1.769   0.974  -4.321  0.00  0.00    -0.146 I 
ENDROOT
TORSDOF 0
ENDMDL
