MODEL 1
REMARK minimizedAffinity -1.43249786
REMARK minimizedRMSD -1
REMARK  0 active torsions:
REMARK  status: ('A' for Active; 'I' for Inactive)
ROOT
ATOM      1  C   UNL d   1      -2.698   1.274   3.330  0.00  0.00     0.023 A 
ATOM      2  C1  UNL d   1      -1.583   1.911   2.784  0.00  0.00     0.003 A 
ATOM      3  C2  UNL d   1      -0.916   1.343   1.697  0.00  0.00     0.048 A 
ATOM      4  C3  UNL d   1      -1.369   0.138   1.160  0.00  0.00     0.023 A 
ATOM      5  C4  UNL d   1      -2.485  -0.502   1.702  0.00  0.00     0.048 A 
ATOM      6  C5  UNL d   1      -3.148   0.069   2.790  0.00  0.00     0.003 A 
ATOM      7  I   UNL d   1      -0.377  -0.709  -0.458  0.00  0.00    -0.146 I 
ENDROOT
TORSDOF 0
ENDMDL
