MODEL 1
REMARK minimizedAffinity -4.02706099
REMARK minimizedRMSD -1
REMARK  0 active torsions:
REMARK  status: ('A' for Active; 'I' for Inactive)
ROOT
ATOM      1  C   UNL d   1       0.219  -1.856   0.551  0.00  0.00     0.023 A 
ATOM      2  C1  UNL d   1       1.337  -1.957  -0.277  0.00  0.00     0.003 A 
ATOM      3  C2  UNL d   1       1.635  -0.933  -1.178  0.00  0.00     0.048 A 
ATOM      4  C3  UNL d   1       0.810   0.190  -1.246  0.00  0.00     0.023 A 
ATOM      5  C4  UNL d   1      -0.309   0.296  -0.419  0.00  0.00     0.048 A 
ATOM      6  C5  UNL d   1      -0.603  -0.731   0.480  0.00  0.00     0.003 A 
ATOM      7  I   UNL d   1       1.252   1.715  -2.587  0.00  0.00    -0.146 I 
ENDROOT
TORSDOF 0
ENDMDL
