MODEL 1
REMARK minimizedAffinity 1.96772528
REMARK minimizedRMSD -1
REMARK  0 active torsions:
REMARK  status: ('A' for Active; 'I' for Inactive)
ROOT
ATOM      1  C   UNL d   1      -2.254   1.411   3.833  0.00  0.00     0.023 A 
ATOM      2  C1  UNL d   1      -1.517   0.232   3.945  0.00  0.00     0.003 A 
ATOM      3  C2  UNL d   1      -0.918  -0.328   2.815  0.00  0.00     0.048 A 
ATOM      4  C3  UNL d   1      -1.059   0.296   1.576  0.00  0.00     0.023 A 
ATOM      5  C4  UNL d   1      -1.795   1.477   1.459  0.00  0.00     0.048 A 
ATOM      6  C5  UNL d   1      -2.393   2.032   2.592  0.00  0.00     0.003 A 
ATOM      7  I   UNL d   1      -0.168  -0.536  -0.108  0.00  0.00    -0.146 I 
ENDROOT
TORSDOF 0
ENDMDL
