MODEL 1
REMARK minimizedAffinity -0.953889787
REMARK minimizedRMSD -1
REMARK  0 active torsions:
REMARK  status: ('A' for Active; 'I' for Inactive)
ROOT
ATOM      1  C   UNL d   1       0.317  -1.607   0.458  0.00  0.00     0.023 A 
ATOM      2  C1  UNL d   1       1.256  -1.936  -0.520  0.00  0.00     0.003 A 
ATOM      3  C2  UNL d   1       1.556  -1.026  -1.536  0.00  0.00     0.048 A 
ATOM      4  C3  UNL d   1       0.914   0.211  -1.568  0.00  0.00     0.023 A 
ATOM      5  C4  UNL d   1      -0.026   0.545  -0.591  0.00  0.00     0.048 A 
ATOM      6  C5  UNL d   1      -0.323  -0.369   0.422  0.00  0.00     0.003 A 
ATOM      7  I   UNL d   1       1.358   1.567  -3.079  0.00  0.00    -0.146 I 
ENDROOT
TORSDOF 0
ENDMDL
