MODEL 1
REMARK minimizedAffinity -3.09857512
REMARK minimizedRMSD -1
REMARK  0 active torsions:
REMARK  status: ('A' for Active; 'I' for Inactive)
ROOT
ATOM      1  C   UNL d   1       1.746  -0.491  -1.307  0.00  0.00     0.023 A 
ATOM      2  C1  UNL d   1       1.506   0.862  -1.070  0.00  0.00     0.003 A 
ATOM      3  C2  UNL d   1       0.460   1.251  -0.231  0.00  0.00     0.048 A 
ATOM      4  C3  UNL d   1      -0.342   0.281   0.369  0.00  0.00     0.023 A 
ATOM      5  C4  UNL d   1      -0.105  -1.075   0.136  0.00  0.00     0.048 A 
ATOM      6  C5  UNL d   1       0.941  -1.459  -0.704  0.00  0.00     0.003 A 
ATOM      7  I   UNL d   1      -1.900   0.857   1.619  0.00  0.00    -0.146 I 
ENDROOT
TORSDOF 0
ENDMDL
