MODEL 1
REMARK minimizedAffinity 3.6713233
REMARK minimizedRMSD -1
REMARK  0 active torsions:
REMARK  status: ('A' for Active; 'I' for Inactive)
ROOT
ATOM      1  C   UNL d   1      -0.890  -2.299  -0.162  0.00  0.00     0.077 C 
ATOM      2  C1  UNL d   1       0.176  -2.485   0.877  0.00  0.00    -0.074 A 
ATOM      3  C2  UNL d   1       0.520  -1.445   1.747  0.00  0.00    -0.005 A 
ATOM      4  C3  UNL d   1       1.508  -1.636   2.714  0.00  0.00     0.006 A 
ATOM      5  C4  UNL d   1       2.159  -2.865   2.820  0.00  0.00    -0.005 A 
ATOM      6  C5  UNL d   1       1.827  -3.916   1.960  0.00  0.00    -0.074 A 
ATOM      7  C6  UNL d   1       2.511  -5.247   2.067  0.00  0.00     0.077 C 
ATOM      8  C7  UNL d   1       0.830  -3.719   0.995  0.00  0.00    -0.001 A 
ENDROOT
TORSDOF 0
ENDMDL
