MODEL 1
REMARK minimizedAffinity 10.6597023
REMARK minimizedRMSD -1
REMARK  0 active torsions:
REMARK  status: ('A' for Active; 'I' for Inactive)
ROOT
ATOM      1  C   UNL d   1      -0.867  -1.739  -1.252  0.00  0.00     0.077 C 
ATOM      2  C1  UNL d   1      -0.168  -1.065  -0.109  0.00  0.00    -0.074 A 
ATOM      3  C2  UNL d   1      -0.816  -0.090   0.656  0.00  0.00    -0.005 A 
ATOM      4  C3  UNL d   1      -0.156   0.521   1.722  0.00  0.00     0.006 A 
ATOM      5  C4  UNL d   1       1.157   0.165   2.033  0.00  0.00    -0.005 A 
ATOM      6  C5  UNL d   1       1.821  -0.808   1.279  0.00  0.00    -0.074 A 
ATOM      7  C6  UNL d   1       3.229  -1.209   1.605  0.00  0.00     0.077 C 
ATOM      8  C7  UNL d   1       1.148  -1.422   0.214  0.00  0.00    -0.001 A 
ENDROOT
TORSDOF 0
ENDMDL
