MODEL 1
REMARK minimizedAffinity 11.3184166
REMARK minimizedRMSD -1
REMARK  0 active torsions:
REMARK  status: ('A' for Active; 'I' for Inactive)
ROOT
ATOM      1  C   UNL d   1      -2.514  -2.347  -0.877  0.00  0.00     0.077 C 
ATOM      2  C1  UNL d   1      -1.160  -1.971  -0.354  0.00  0.00    -0.074 A 
ATOM      3  C2  UNL d   1      -1.024  -1.251   0.838  0.00  0.00    -0.005 A 
ATOM      4  C3  UNL d   1       0.242  -0.916   1.317  0.00  0.00     0.006 A 
ATOM      5  C4  UNL d   1       1.384  -1.297   0.610  0.00  0.00    -0.005 A 
ATOM      6  C5  UNL d   1       1.268  -2.018  -0.582  0.00  0.00    -0.074 A 
ATOM      7  C6  UNL d   1       2.485  -2.444  -1.349  0.00  0.00     0.077 C 
ATOM      8  C7  UNL d   1      -0.008  -2.357  -1.054  0.00  0.00    -0.001 A 
ENDROOT
TORSDOF 0
ENDMDL
