MODEL 1
REMARK minimizedAffinity 5.2131176
REMARK minimizedRMSD -1
REMARK  0 active torsions:
REMARK  status: ('A' for Active; 'I' for Inactive)
ROOT
ATOM      1  C   UNL d   1       5.999  -1.577   2.963  0.00  0.00     0.077 C 
ATOM      2  C1  UNL d   1       4.542  -1.242   2.844  0.00  0.00    -0.074 A 
ATOM      3  C2  UNL d   1       4.115  -0.152   2.079  0.00  0.00    -0.005 A 
ATOM      4  C3  UNL d   1       2.756   0.141   1.969  0.00  0.00     0.006 A 
ATOM      5  C4  UNL d   1       1.811  -0.651   2.622  0.00  0.00    -0.005 A 
ATOM      6  C5  UNL d   1       2.219  -1.746   3.391  0.00  0.00    -0.074 A 
ATOM      7  C6  UNL d   1       1.216  -2.614   4.091  0.00  0.00     0.077 C 
ATOM      8  C7  UNL d   1       3.586  -2.039   3.490  0.00  0.00    -0.001 A 
ENDROOT
TORSDOF 0
ENDMDL
