MODEL 1
REMARK minimizedAffinity 1.19433296
REMARK minimizedRMSD -1
REMARK  0 active torsions:
REMARK  status: ('A' for Active; 'I' for Inactive)
ROOT
ATOM      1  C   UNL d   1       1.142  -3.399   4.753  0.00  0.00     0.077 C 
ATOM      2  C1  UNL d   1       2.227  -2.543   4.170  0.00  0.00    -0.074 A 
ATOM      3  C2  UNL d   1       1.933  -1.551   3.229  0.00  0.00    -0.005 A 
ATOM      4  C3  UNL d   1       2.952  -0.757   2.703  0.00  0.00     0.006 A 
ATOM      5  C4  UNL d   1       4.272  -0.946   3.111  0.00  0.00    -0.005 A 
ATOM      6  C5  UNL d   1       4.586  -1.933   4.051  0.00  0.00    -0.074 A 
ATOM      7  C6  UNL d   1       5.999  -2.143   4.508  0.00  0.00     0.077 C 
ATOM      8  C7  UNL d   1       3.556  -2.722   4.581  0.00  0.00    -0.001 A 
ENDROOT
TORSDOF 0
ENDMDL
