MODEL 1
REMARK minimizedAffinity 7.04832983
REMARK minimizedRMSD -1
REMARK  0 active torsions:
REMARK  status: ('A' for Active; 'I' for Inactive)
ROOT
ATOM      1  C   UNL d   1       2.190   0.660   2.571  0.00  0.00     0.077 C 
ATOM      2  C1  UNL d   1       2.543  -0.563   3.364  0.00  0.00    -0.074 A 
ATOM      3  C2  UNL d   1       3.876  -0.869   3.657  0.00  0.00    -0.005 A 
ATOM      4  C3  UNL d   1       4.189  -2.005   4.404  0.00  0.00     0.006 A 
ATOM      5  C4  UNL d   1       3.174  -2.846   4.863  0.00  0.00    -0.005 A 
ATOM      6  C5  UNL d   1       1.835  -2.555   4.580  0.00  0.00    -0.074 A 
ATOM      7  C6  UNL d   1       0.732  -3.442   5.075  0.00  0.00     0.077 C 
ATOM      8  C7  UNL d   1       1.529  -1.408   3.836  0.00  0.00    -0.001 A 
ENDROOT
TORSDOF 0
ENDMDL
