MODEL 1
REMARK minimizedAffinity 0.791772068
REMARK minimizedRMSD -1
REMARK  0 active torsions:
REMARK  status: ('A' for Active; 'I' for Inactive)
ROOT
ATOM      1  C   UNL d   1       1.319  -3.547   4.480  0.00  0.00     0.077 C 
ATOM      2  C1  UNL d   1       2.288  -2.540   3.934  0.00  0.00    -0.074 A 
ATOM      3  C2  UNL d   1       1.862  -1.529   3.067  0.00  0.00    -0.005 A 
ATOM      4  C3  UNL d   1       2.773  -0.594   2.575  0.00  0.00     0.006 A 
ATOM      5  C4  UNL d   1       4.117  -0.661   2.945  0.00  0.00    -0.005 A 
ATOM      6  C5  UNL d   1       4.561  -1.665   3.812  0.00  0.00    -0.074 A 
ATOM      7  C6  UNL d   1       6.000  -1.745   4.228  0.00  0.00     0.077 C 
ATOM      8  C7  UNL d   1       3.638  -2.596   4.308  0.00  0.00    -0.001 A 
ENDROOT
TORSDOF 0
ENDMDL
