MODEL 1
REMARK minimizedAffinity 2.6587553
REMARK minimizedRMSD -1
REMARK  0 active torsions:
REMARK  status: ('A' for Active; 'I' for Inactive)
ROOT
ATOM      1  C   UNL d   1       5.973  -2.316   5.545  0.00  0.00     0.077 C 
ATOM      2  C1  UNL d   1       4.588  -2.238   4.974  0.00  0.00    -0.074 A 
ATOM      3  C2  UNL d   1       3.609  -3.170   5.333  0.00  0.00    -0.005 A 
ATOM      4  C3  UNL d   1       2.323  -3.080   4.802  0.00  0.00     0.006 A 
ATOM      5  C4  UNL d   1       2.002  -2.057   3.908  0.00  0.00    -0.005 A 
ATOM      6  C5  UNL d   1       2.967  -1.115   3.538  0.00  0.00    -0.074 A 
ATOM      7  C6  UNL d   1       2.637  -0.004   2.586  0.00  0.00     0.077 C 
ATOM      8  C7  UNL d   1       4.256  -1.209   4.082  0.00  0.00    -0.001 A 
ENDROOT
TORSDOF 0
ENDMDL
