MODEL 1
REMARK minimizedAffinity 7.95641708
REMARK minimizedRMSD -1
REMARK  0 active torsions:
REMARK  status: ('A' for Active; 'I' for Inactive)
ROOT
ATOM      1  C   UNL d   1      -5.926  -1.466  -5.800  0.00  0.00     0.077 C 
ATOM      2  C1  UNL d   1      -5.958  -0.412  -4.734  0.00  0.00    -0.074 A 
ATOM      3  C2  UNL d   1      -5.980  -0.760  -3.379  0.00  0.00    -0.005 A 
ATOM      4  C3  UNL d   1      -6.000   0.231  -2.398  0.00  0.00     0.006 A 
ATOM      5  C4  UNL d   1      -5.999   1.579  -2.761  0.00  0.00    -0.005 A 
ATOM      6  C5  UNL d   1      -5.976   1.946  -4.110  0.00  0.00    -0.074 A 
ATOM      7  C6  UNL d   1      -5.965   3.390  -4.517  0.00  0.00     0.077 C 
ATOM      8  C7  UNL d   1      -5.949   0.944  -5.090  0.00  0.00    -0.001 A 
ENDROOT
TORSDOF 0
ENDMDL
