MODEL 1
REMARK minimizedAffinity 9.01931667
REMARK minimizedRMSD -1
REMARK  2 active torsions:
REMARK  status: ('A' for Active; 'I' for Inactive)
REMARK    1  A    between atoms: C1_2  and  C2_3 
REMARK    2  A    between atoms: C2_3  and  C3_4 
ROOT
ATOM      1  C3  UNL d   1       4.165   0.541  -1.911  0.00  0.00    -0.075 A 
ATOM      2  C4  UNL d   1       3.442  -0.586  -1.496  0.00  0.00     0.002 A 
ATOM      3  C5  UNL d   1       2.300  -0.444  -0.708  0.00  0.00     0.002 A 
ATOM      4  C6  UNL d   1       1.872   0.823  -0.317  0.00  0.00    -0.004 A 
ATOM      5  C7  UNL d   1       2.592   1.949  -0.710  0.00  0.00     0.002 A 
ATOM      6  C8  UNL d   1       3.733   1.810  -1.502  0.00  0.00     0.002 A 
ENDROOT
BRANCH   1   7
ATOM      7  C2  UNL d   1       5.386   0.396  -2.789  0.00  0.00     0.056 C 
BRANCH   7   8
ATOM      8  C1  UNL d   1       6.000  -1.007  -2.776  0.00  0.00     0.007 C 
ATOM      9  C   UNL d   1       6.000  -1.675  -4.144  0.00  0.00     0.009 C 
ENDBRANCH   7   8
ENDBRANCH   1   7
TORSDOF 2
ENDMDL
