MODEL 1
REMARK minimizedAffinity 8.20512486
REMARK minimizedRMSD -1
REMARK  2 active torsions:
REMARK  status: ('A' for Active; 'I' for Inactive)
REMARK    1  A    between atoms: C1_2  and  C2_3 
REMARK    2  A    between atoms: C2_3  and  C3_4 
ROOT
ATOM      1  C3  UNL d   1       0.914  -0.821   0.809  0.00  0.00    -0.075 A 
ATOM      2  C4  UNL d   1       0.221  -1.939   0.324  0.00  0.00     0.002 A 
ATOM      3  C5  UNL d   1      -0.985  -2.332   0.905  0.00  0.00     0.002 A 
ATOM      4  C6  UNL d   1      -1.507  -1.619   1.982  0.00  0.00    -0.004 A 
ATOM      5  C7  UNL d   1      -0.818  -0.517   2.483  0.00  0.00     0.002 A 
ATOM      6  C8  UNL d   1       0.387  -0.119   1.901  0.00  0.00     0.002 A 
ENDROOT
BRANCH   1   7
ATOM      7  C2  UNL d   1       2.205  -0.373   0.165  0.00  0.00     0.056 C 
BRANCH   7   8
ATOM      8  C1  UNL d   1       2.160   1.051  -0.399  0.00  0.00     0.007 C 
ATOM      9  C   UNL d   1       2.178   1.094  -1.921  0.00  0.00     0.009 C 
ENDBRANCH   7   8
ENDBRANCH   1   7
TORSDOF 2
ENDMDL
