MODEL 1
REMARK minimizedAffinity 13.442522
REMARK minimizedRMSD -1
REMARK  2 active torsions:
REMARK  status: ('A' for Active; 'I' for Inactive)
REMARK    1  A    between atoms: C1_2  and  C2_3 
REMARK    2  A    between atoms: C2_3  and  C3_4 
ROOT
ATOM      1  C3  UNL d   1      -1.936   3.378  -3.710  0.00  0.00    -0.075 A 
ATOM      2  C4  UNL d   1      -0.649   3.156  -4.222  0.00  0.00     0.002 A 
ATOM      3  C5  UNL d   1       0.409   3.993  -3.865  0.00  0.00     0.002 A 
ATOM      4  C6  UNL d   1       0.193   5.065  -3.002  0.00  0.00    -0.004 A 
ATOM      5  C7  UNL d   1      -1.084   5.305  -2.501  0.00  0.00     0.002 A 
ATOM      6  C8  UNL d   1      -2.144   4.467  -2.853  0.00  0.00     0.002 A 
ENDROOT
BRANCH   1   7
ATOM      7  C2  UNL d   1      -3.079   2.459  -4.069  0.00  0.00     0.056 C 
BRANCH   7   8
ATOM      8  C1  UNL d   1      -4.057   3.050  -5.090  0.00  0.00     0.007 C 
ATOM      9  C   UNL d   1      -5.485   2.552  -4.911  0.00  0.00     0.009 C 
ENDBRANCH   7   8
ENDBRANCH   1   7
TORSDOF 2
ENDMDL
