MODEL 1
REMARK minimizedAffinity 8.65266037
REMARK minimizedRMSD -1
REMARK  2 active torsions:
REMARK  status: ('A' for Active; 'I' for Inactive)
REMARK    1  A    between atoms: C1_2  and  C2_3 
REMARK    2  A    between atoms: C2_3  and  C3_4 
ROOT
ATOM      1  C3  UNL d   1      -0.459  -1.037   2.126  0.00  0.00    -0.075 A 
ATOM      2  C4  UNL d   1      -0.242  -2.124   1.266  0.00  0.00     0.002 A 
ATOM      3  C5  UNL d   1       0.826  -2.113   0.367  0.00  0.00     0.002 A 
ATOM      4  C6  UNL d   1       1.681  -1.015   0.310  0.00  0.00    -0.004 A 
ATOM      5  C7  UNL d   1       1.464   0.077   1.147  0.00  0.00     0.002 A 
ATOM      6  C8  UNL d   1       0.400   0.067   2.051  0.00  0.00     0.002 A 
ENDROOT
BRANCH   1   7
ATOM      7  C2  UNL d   1      -1.595  -1.055   3.121  0.00  0.00     0.056 C 
BRANCH   7   8
ATOM      8  C1  UNL d   1      -1.454  -2.125   4.209  0.00  0.00     0.007 C 
ATOM      9  C   UNL d   1      -1.059  -1.555   5.565  0.00  0.00     0.009 C 
ENDBRANCH   7   8
ENDBRANCH   1   7
TORSDOF 2
ENDMDL
