MODEL 1
REMARK minimizedAffinity 1.44227886
REMARK minimizedRMSD -1
REMARK  2 active torsions:
REMARK  status: ('A' for Active; 'I' for Inactive)
REMARK    1  A    between atoms: C1_2  and  C2_3 
REMARK    2  A    between atoms: C2_3  and  C3_4 
ROOT
ATOM      1  C3  UNL d   1      -2.478   3.426  -3.103  0.00  0.00    -0.075 A 
ATOM      2  C4  UNL d   1      -1.231   3.001  -3.585  0.00  0.00     0.002 A 
ATOM      3  C5  UNL d   1      -0.075   3.724  -3.292  0.00  0.00     0.002 A 
ATOM      4  C6  UNL d   1      -0.151   4.884  -2.523  0.00  0.00    -0.004 A 
ATOM      5  C7  UNL d   1      -1.386   5.324  -2.053  0.00  0.00     0.002 A 
ATOM      6  C8  UNL d   1      -2.544   4.600  -2.341  0.00  0.00     0.002 A 
ENDROOT
BRANCH   1   7
ATOM      7  C2  UNL d   1      -3.729   2.632  -3.392  0.00  0.00     0.056 C 
BRANCH   7   8
ATOM      8  C1  UNL d   1      -4.479   3.085  -4.649  0.00  0.00     0.007 C 
ATOM      9  C   UNL d   1      -5.988   2.903  -4.546  0.00  0.00     0.009 C 
ENDBRANCH   7   8
ENDBRANCH   1   7
TORSDOF 2
ENDMDL
