MODEL 1
REMARK minimizedAffinity 17.2484016
REMARK minimizedRMSD -1
REMARK  2 active torsions:
REMARK  status: ('A' for Active; 'I' for Inactive)
REMARK    1  A    between atoms: C1_2  and  C2_3 
REMARK    2  A    between atoms: C2_3  and  C3_4 
ROOT
ATOM      1  C3  UNL d   1      -1.612  -4.430  -1.262  0.00  0.00    -0.075 A 
ATOM      2  C4  UNL d   1      -2.804  -3.808  -0.866  0.00  0.00     0.002 A 
ATOM      3  C5  UNL d   1      -2.793  -2.815   0.115  0.00  0.00     0.002 A 
ATOM      4  C6  UNL d   1      -1.594  -2.441   0.717  0.00  0.00    -0.004 A 
ATOM      5  C7  UNL d   1      -0.405  -3.065   0.343  0.00  0.00     0.002 A 
ATOM      6  C8  UNL d   1      -0.413  -4.055  -0.641  0.00  0.00     0.002 A 
ENDROOT
BRANCH   1   7
ATOM      7  C2  UNL d   1      -1.613  -5.484  -2.344  0.00  0.00     0.056 C 
BRANCH   7   8
ATOM      8  C1  UNL d   1      -0.215  -5.905  -2.807  0.00  0.00     0.007 C 
ATOM      9  C   UNL d   1      -0.087  -6.000  -4.322  0.00  0.00     0.009 C 
ENDBRANCH   7   8
ENDBRANCH   1   7
TORSDOF 2
ENDMDL
