MODEL 1
REMARK minimizedAffinity 15.3777304
REMARK minimizedRMSD -1
REMARK  2 active torsions:
REMARK  status: ('A' for Active; 'I' for Inactive)
REMARK    1  A    between atoms: C1_2  and  C2_3 
REMARK    2  A    between atoms: C2_3  and  C3_4 
ROOT
ATOM      1  C3  UNL d   1      -0.564   3.835  -3.590  0.00  0.00    -0.075 A 
ATOM      2  C4  UNL d   1      -1.831   3.311  -3.885  0.00  0.00     0.002 A 
ATOM      3  C5  UNL d   1      -1.969   2.263  -4.795  0.00  0.00     0.002 A 
ATOM      4  C6  UNL d   1      -0.847   1.733  -5.428  0.00  0.00    -0.004 A 
ATOM      5  C7  UNL d   1       0.415   2.257  -5.155  0.00  0.00     0.002 A 
ATOM      6  C8  UNL d   1       0.557   3.303  -4.242  0.00  0.00     0.002 A 
ENDROOT
BRANCH   1   7
ATOM      7  C2  UNL d   1      -0.404   4.950  -2.584  0.00  0.00     0.056 C 
BRANCH   7   8
ATOM      8  C1  UNL d   1      -1.540   5.978  -2.606  0.00  0.00     0.007 C 
ATOM      9  C   UNL d   1      -2.356   5.998  -1.320  0.00  0.00     0.009 C 
ENDBRANCH   7   8
ENDBRANCH   1   7
TORSDOF 2
ENDMDL
