MODEL 1
REMARK minimizedAffinity 11.0668278
REMARK minimizedRMSD -1
REMARK  2 active torsions:
REMARK  status: ('A' for Active; 'I' for Inactive)
REMARK    1  A    between atoms: C1_2  and  C2_3 
REMARK    2  A    between atoms: C2_3  and  C3_4 
ROOT
ATOM      1  C3  UNL d   1      -1.404  -5.208  -2.899  0.00  0.00    -0.075 A 
ATOM      2  C4  UNL d   1      -1.552  -5.205  -4.294  0.00  0.00     0.002 A 
ATOM      3  C5  UNL d   1      -0.497  -5.594  -5.119  0.00  0.00     0.002 A 
ATOM      4  C6  UNL d   1       0.721  -5.980  -4.563  0.00  0.00    -0.004 A 
ATOM      5  C7  UNL d   1       0.885  -5.971  -3.180  0.00  0.00     0.002 A 
ATOM      6  C8  UNL d   1      -0.171  -5.587  -2.351  0.00  0.00     0.002 A 
ENDROOT
BRANCH   1   7
ATOM      7  C2  UNL d   1      -2.551  -4.816  -1.999  0.00  0.00     0.056 C 
BRANCH   7   8
ATOM      8  C1  UNL d   1      -3.511  -5.966  -1.676  0.00  0.00     0.007 C 
ATOM      9  C   UNL d   1      -3.943  -5.996  -0.216  0.00  0.00     0.009 C 
ENDBRANCH   7   8
ENDBRANCH   1   7
TORSDOF 2
ENDMDL
