MODEL 1
REMARK minimizedAffinity 3.91693187
REMARK minimizedRMSD -1
REMARK  2 active torsions:
REMARK  status: ('A' for Active; 'I' for Inactive)
REMARK    1  A    between atoms: C1_2  and  C2_3 
REMARK    2  A    between atoms: C2_3  and  C3_4 
ROOT
ATOM      1  C3  UNL d   1       1.524  -0.857   1.286  0.00  0.00    -0.075 A 
ATOM      2  C4  UNL d   1       1.169  -2.210   1.383  0.00  0.00     0.002 A 
ATOM      3  C5  UNL d   1      -0.166  -2.583   1.540  0.00  0.00     0.002 A 
ATOM      4  C6  UNL d   1      -1.160  -1.610   1.611  0.00  0.00    -0.004 A 
ATOM      5  C7  UNL d   1      -0.817  -0.262   1.532  0.00  0.00     0.002 A 
ATOM      6  C8  UNL d   1       0.518   0.114   1.371  0.00  0.00     0.002 A 
ENDROOT
BRANCH   1   7
ATOM      7  C2  UNL d   1       2.964  -0.448   1.087  0.00  0.00     0.056 C 
BRANCH   7   8
ATOM      8  C1  UNL d   1       3.812  -0.511   2.362  0.00  0.00     0.007 C 
ATOM      9  C   UNL d   1       5.285  -0.787   2.091  0.00  0.00     0.009 C 
ENDBRANCH   7   8
ENDBRANCH   1   7
TORSDOF 2
ENDMDL
