MODEL 1
REMARK minimizedAffinity 10.5628405
REMARK minimizedRMSD -1
REMARK  2 active torsions:
REMARK  status: ('A' for Active; 'I' for Inactive)
REMARK    1  A    between atoms: C1_2  and  C2_3 
REMARK    2  A    between atoms: C2_3  and  C3_4 
ROOT
ATOM      1  C3  UNL d   1      -0.485   3.943  -3.624  0.00  0.00    -0.075 A 
ATOM      2  C4  UNL d   1       0.420   3.006  -4.144  0.00  0.00     0.002 A 
ATOM      3  C5  UNL d   1      -0.040   1.829  -4.735  0.00  0.00     0.002 A 
ATOM      4  C6  UNL d   1      -1.407   1.569  -4.805  0.00  0.00    -0.004 A 
ATOM      5  C7  UNL d   1      -2.314   2.485  -4.277  0.00  0.00     0.002 A 
ATOM      6  C8  UNL d   1      -1.857   3.665  -3.689  0.00  0.00     0.002 A 
ENDROOT
BRANCH   1   7
ATOM      7  C2  UNL d   1       0.005   5.232  -3.010  0.00  0.00     0.056 C 
BRANCH   7   8
ATOM      8  C1  UNL d   1      -1.069   5.999  -2.230  0.00  0.00     0.007 C 
ATOM      9  C   UNL d   1      -0.995   5.773  -0.726  0.00  0.00     0.009 C 
ENDBRANCH   7   8
ENDBRANCH   1   7
TORSDOF 2
ENDMDL
