MODEL 1
REMARK minimizedAffinity 7.06210899
REMARK minimizedRMSD -1
REMARK  2 active torsions:
REMARK  status: ('A' for Active; 'I' for Inactive)
REMARK    1  A    between atoms: C1_2  and  C2_3 
REMARK    2  A    between atoms: C2_3  and  C3_4 
ROOT
ATOM      1  C3  UNL d   1       1.043  -0.510   1.115  0.00  0.00    -0.075 A 
ATOM      2  C4  UNL d   1       0.217  -0.001   2.128  0.00  0.00     0.002 A 
ATOM      3  C5  UNL d   1      -1.056  -0.531   2.337  0.00  0.00     0.002 A 
ATOM      4  C6  UNL d   1      -1.524  -1.566   1.531  0.00  0.00    -0.004 A 
ATOM      5  C7  UNL d   1      -0.719  -2.068   0.511  0.00  0.00     0.002 A 
ATOM      6  C8  UNL d   1       0.557  -1.543   0.302  0.00  0.00     0.002 A 
ENDROOT
BRANCH   1   7
ATOM      7  C2  UNL d   1       2.434   0.039   0.903  0.00  0.00     0.056 C 
BRANCH   7   8
ATOM      8  C1  UNL d   1       3.432  -0.351   1.998  0.00  0.00     0.007 C 
ATOM      9  C   UNL d   1       2.855  -0.238   3.403  0.00  0.00     0.009 C 
ENDBRANCH   7   8
ENDBRANCH   1   7
TORSDOF 2
ENDMDL
