MODEL 1
REMARK minimizedAffinity -3.41294456
REMARK minimizedRMSD -1
REMARK  2 active torsions:
REMARK  status: ('A' for Active; 'I' for Inactive)
REMARK    1  A    between atoms: C1_2  and  C2_3 
REMARK    2  A    between atoms: C2_3  and  C3_4 
ROOT
ATOM      1  C3  UNL d   1      -0.946   0.791   0.508  0.00  0.00    -0.075 A 
ATOM      2  C4  UNL d   1       0.055  -0.178   0.341  0.00  0.00     0.002 A 
ATOM      3  C5  UNL d   1       1.117   0.044  -0.535  0.00  0.00     0.002 A 
ATOM      4  C6  UNL d   1       1.187   1.230  -1.263  0.00  0.00    -0.004 A 
ATOM      5  C7  UNL d   1       0.190   2.192  -1.118  0.00  0.00     0.002 A 
ATOM      6  C8  UNL d   1      -0.871   1.975  -0.238  0.00  0.00     0.002 A 
ENDROOT
BRANCH   1   7
ATOM      7  C2  UNL d   1      -2.082   0.569   1.477  0.00  0.00     0.056 C 
BRANCH   7   8
ATOM      8  C1  UNL d   1      -1.939   1.340   2.794  0.00  0.00     0.007 C 
ATOM      9  C   UNL d   1      -2.310   0.513   4.017  0.00  0.00     0.009 C 
ENDBRANCH   7   8
ENDBRANCH   1   7
TORSDOF 2
ENDMDL
