MODEL 1
REMARK minimizedAffinity -2.27176666
REMARK minimizedRMSD -1
REMARK  2 active torsions:
REMARK  status: ('A' for Active; 'I' for Inactive)
REMARK    1  A    between atoms: C1_2  and  C2_3 
REMARK    2  A    between atoms: C2_3  and  C3_4 
ROOT
ATOM      1  C3  UNL d   1      -1.057   0.734   1.516  0.00  0.00    -0.075 A 
ATOM      2  C4  UNL d   1      -1.993  -0.204   1.974  0.00  0.00     0.002 A 
ATOM      3  C5  UNL d   1      -2.528  -0.102   3.259  0.00  0.00     0.002 A 
ATOM      4  C6  UNL d   1      -2.127   0.931   4.103  0.00  0.00    -0.004 A 
ATOM      5  C7  UNL d   1      -1.185   1.859   3.665  0.00  0.00     0.002 A 
ATOM      6  C8  UNL d   1      -0.652   1.762   2.378  0.00  0.00     0.002 A 
ENDROOT
BRANCH   1   7
ATOM      7  C2  UNL d   1      -0.497   0.647   0.116  0.00  0.00     0.056 C 
BRANCH   7   8
ATOM      8  C1  UNL d   1       0.950   1.137  -0.008  0.00  0.00     0.007 C 
ATOM      9  C   UNL d   1       1.163   2.084  -1.182  0.00  0.00     0.009 C 
ENDBRANCH   7   8
ENDBRANCH   1   7
TORSDOF 2
ENDMDL
