MODEL 1
REMARK minimizedAffinity -5.47246218
REMARK minimizedRMSD -1
REMARK  2 active torsions:
REMARK  status: ('A' for Active; 'I' for Inactive)
REMARK    1  A    between atoms: C1_2  and  C2_3 
REMARK    2  A    between atoms: C2_3  and  C3_4 
ROOT
ATOM      1  C3  UNL d   1       0.025  -0.260  -0.035  0.00  0.00    -0.075 A 
ATOM      2  C4  UNL d   1       0.760   0.846  -0.487  0.00  0.00     0.002 A 
ATOM      3  C5  UNL d   1       1.954   0.665  -1.186  0.00  0.00     0.002 A 
ATOM      4  C6  UNL d   1       2.433  -0.620  -1.432  0.00  0.00    -0.004 A 
ATOM      5  C7  UNL d   1       1.719  -1.725  -0.973  0.00  0.00     0.002 A 
ATOM      6  C8  UNL d   1       0.522  -1.547  -0.278  0.00  0.00     0.002 A 
ENDROOT
BRANCH   1   7
ATOM      7  C2  UNL d   1      -1.283  -0.071   0.695  0.00  0.00     0.056 C 
BRANCH   7   8
ATOM      8  C1  UNL d   1      -1.231   0.983   1.806  0.00  0.00     0.007 C 
ATOM      9  C   UNL d   1      -2.102   0.635   3.006  0.00  0.00     0.009 C 
ENDBRANCH   7   8
ENDBRANCH   1   7
TORSDOF 2
ENDMDL
