MODEL 1
REMARK minimizedAffinity -3.73865676
REMARK minimizedRMSD -1
REMARK  2 active torsions:
REMARK  status: ('A' for Active; 'I' for Inactive)
REMARK    1  A    between atoms: C1_2  and  C2_3 
REMARK    2  A    between atoms: C2_3  and  C3_4 
ROOT
ATOM      1  C3  UNL d   1       1.281   0.382  -0.278  0.00  0.00    -0.075 A 
ATOM      2  C4  UNL d   1       0.456  -0.487   0.452  0.00  0.00     0.002 A 
ATOM      3  C5  UNL d   1      -0.907  -0.222   0.587  0.00  0.00     0.002 A 
ATOM      4  C6  UNL d   1      -1.460   0.916   0.005  0.00  0.00    -0.004 A 
ATOM      5  C7  UNL d   1      -0.647   1.794  -0.709  0.00  0.00     0.002 A 
ATOM      6  C8  UNL d   1       0.716   1.530  -0.850  0.00  0.00     0.002 A 
ENDROOT
BRANCH   1   7
ATOM      7  C2  UNL d   1       2.751   0.086  -0.453  0.00  0.00     0.056 C 
BRANCH   7   8
ATOM      8  C1  UNL d   1       3.071  -0.784  -1.674  0.00  0.00     0.007 C 
ATOM      9  C   UNL d   1       1.980  -1.797  -1.992  0.00  0.00     0.009 C 
ENDBRANCH   7   8
ENDBRANCH   1   7
TORSDOF 2
ENDMDL
