MODEL 1
REMARK minimizedAffinity -4.63551092
REMARK minimizedRMSD -1
REMARK  2 active torsions:
REMARK  status: ('A' for Active; 'I' for Inactive)
REMARK    1  A    between atoms: C1_2  and  C2_3 
REMARK    2  A    between atoms: C2_3  and  C3_4 
ROOT
ATOM      1  C3  UNL d   1      -0.718   0.530   1.058  0.00  0.00    -0.075 A 
ATOM      2  C4  UNL d   1      -0.091   1.461   1.898  0.00  0.00     0.002 A 
ATOM      3  C5  UNL d   1      -0.730   1.918   3.051  0.00  0.00     0.002 A 
ATOM      4  C6  UNL d   1      -2.006   1.460   3.372  0.00  0.00    -0.004 A 
ATOM      5  C7  UNL d   1      -2.645   0.548   2.536  0.00  0.00     0.002 A 
ATOM      6  C8  UNL d   1      -2.006   0.085   1.384  0.00  0.00     0.002 A 
ENDROOT
BRANCH   1   7
ATOM      7  C2  UNL d   1      -0.020   0.008  -0.175  0.00  0.00     0.056 C 
BRANCH   7   8
ATOM      8  C1  UNL d   1       0.704  -1.326   0.035  0.00  0.00     0.007 C 
ATOM      9  C   UNL d   1       1.693  -1.654  -1.076  0.00  0.00     0.009 C 
ENDBRANCH   7   8
ENDBRANCH   1   7
TORSDOF 2
ENDMDL
