MODEL 1
REMARK minimizedAffinity -4.15238619
REMARK minimizedRMSD -1
REMARK  2 active torsions:
REMARK  status: ('A' for Active; 'I' for Inactive)
REMARK    1  A    between atoms: C1_2  and  C2_3 
REMARK    2  A    between atoms: C2_3  and  C3_4 
ROOT
ATOM      1  C3  UNL d   1       0.191  -0.022  -0.197  0.00  0.00    -0.075 A 
ATOM      2  C4  UNL d   1       0.198  -1.418  -0.057  0.00  0.00     0.002 A 
ATOM      3  C5  UNL d   1       1.298  -2.166  -0.479  0.00  0.00     0.002 A 
ATOM      4  C6  UNL d   1       2.396  -1.532  -1.055  0.00  0.00    -0.004 A 
ATOM      5  C7  UNL d   1       2.393  -0.147  -1.214  0.00  0.00     0.002 A 
ATOM      6  C8  UNL d   1       1.296   0.604  -0.788  0.00  0.00     0.002 A 
ENDROOT
BRANCH   1   7
ATOM      7  C2  UNL d   1      -0.983   0.796   0.285  0.00  0.00     0.056 C 
BRANCH   7   8
ATOM      8  C1  UNL d   1      -1.607   0.285   1.588  0.00  0.00     0.007 C 
ATOM      9  C   UNL d   1      -1.518   1.287   2.731  0.00  0.00     0.009 C 
ENDBRANCH   7   8
ENDBRANCH   1   7
TORSDOF 2
ENDMDL
