MODEL 1
REMARK minimizedAffinity -3.85672998
REMARK minimizedRMSD -1
REMARK  2 active torsions:
REMARK  status: ('A' for Active; 'I' for Inactive)
REMARK    1  A    between atoms: C1_2  and  C2_3 
REMARK    2  A    between atoms: C2_3  and  C3_4 
ROOT
ATOM      1  C3  UNL d   1       0.490  -0.035  -0.536  0.00  0.00    -0.075 A 
ATOM      2  C4  UNL d   1       1.381  -1.027  -0.969  0.00  0.00     0.002 A 
ATOM      3  C5  UNL d   1       2.223  -0.797  -2.057  0.00  0.00     0.002 A 
ATOM      4  C6  UNL d   1       2.179   0.422  -2.731  0.00  0.00    -0.004 A 
ATOM      5  C7  UNL d   1       1.286   1.409  -2.319  0.00  0.00     0.002 A 
ATOM      6  C8  UNL d   1       0.445   1.183  -1.228  0.00  0.00     0.002 A 
ENDROOT
BRANCH   1   7
ATOM      7  C2  UNL d   1      -0.404  -0.267   0.659  0.00  0.00     0.056 C 
BRANCH   7   8
ATOM      8  C1  UNL d   1      -1.516   0.775   0.818  0.00  0.00     0.007 C 
ATOM      9  C   UNL d   1      -1.909   1.017   2.269  0.00  0.00     0.009 C 
ENDBRANCH   7   8
ENDBRANCH   1   7
TORSDOF 2
ENDMDL
