MODEL 1
REMARK minimizedAffinity -4.42972231
REMARK minimizedRMSD -1
REMARK  2 active torsions:
REMARK  status: ('A' for Active; 'I' for Inactive)
REMARK    1  A    between atoms: C1_2  and  C2_3 
REMARK    2  A    between atoms: C2_3  and  C3_4 
ROOT
ATOM      1  C3  UNL d   1       0.565  -0.222  -0.796  0.00  0.00    -0.075 A 
ATOM      2  C4  UNL d   1       0.613   0.911  -1.622  0.00  0.00     0.002 A 
ATOM      3  C5  UNL d   1       1.480   0.955  -2.714  0.00  0.00     0.002 A 
ATOM      4  C6  UNL d   1       2.316  -0.125  -2.988  0.00  0.00    -0.004 A 
ATOM      5  C7  UNL d   1       2.289  -1.249  -2.165  0.00  0.00     0.002 A 
ATOM      6  C8  UNL d   1       1.419  -1.298  -1.074  0.00  0.00     0.002 A 
ENDROOT
BRANCH   1   7
ATOM      7  C2  UNL d   1      -0.392  -0.288   0.370  0.00  0.00     0.056 C 
BRANCH   7   8
ATOM      8  C1  UNL d   1      -1.583   0.669   0.255  0.00  0.00     0.007 C 
ATOM      9  C   UNL d   1      -2.202   1.021   1.601  0.00  0.00     0.009 C 
ENDBRANCH   7   8
ENDBRANCH   1   7
TORSDOF 2
ENDMDL
