MODEL 1
REMARK minimizedAffinity -5.02330685
REMARK minimizedRMSD -1
REMARK  2 active torsions:
REMARK  status: ('A' for Active; 'I' for Inactive)
REMARK    1  A    between atoms: C1_2  and  C2_3 
REMARK    2  A    between atoms: C2_3  and  C3_4 
ROOT
ATOM      1  C3  UNL d   1      -0.633   0.343   1.278  0.00  0.00    -0.075 A 
ATOM      2  C4  UNL d   1      -0.069   0.958   2.406  0.00  0.00     0.002 A 
ATOM      3  C5  UNL d   1      -0.852   1.241   3.525  0.00  0.00     0.002 A 
ATOM      4  C6  UNL d   1      -2.208   0.923   3.528  0.00  0.00    -0.004 A 
ATOM      5  C7  UNL d   1      -2.783   0.327   2.407  0.00  0.00     0.002 A 
ATOM      6  C8  UNL d   1      -2.001   0.039   1.288  0.00  0.00     0.002 A 
ENDROOT
BRANCH   1   7
ATOM      7  C2  UNL d   1       0.215   0.008   0.075  0.00  0.00     0.056 C 
BRANCH   7   8
ATOM      8  C1  UNL d   1       0.490  -1.490  -0.097  0.00  0.00     0.007 C 
ATOM      9  C   UNL d   1       1.586  -1.787  -1.111  0.00  0.00     0.009 C 
ENDBRANCH   7   8
ENDBRANCH   1   7
TORSDOF 2
ENDMDL
