MODEL 1
REMARK minimizedAffinity -1.23074341
REMARK minimizedRMSD -1
REMARK  1 active torsions:
REMARK  status: ('A' for Active; 'I' for Inactive)
REMARK    1  A    between atoms: C3_4  and  O_7 
ROOT
ATOM      1  C   UNL d   1      -1.152   0.809   2.325  0.00  0.00    -0.033 A 
ATOM      2  C1  UNL d   1      -0.806   1.605   1.232  0.00  0.00     0.039 A 
ATOM      3  C2  UNL d   1      -0.176   1.037   0.123  0.00  0.00    -0.080 A 
ATOM      4  C3  UNL d   1       0.102  -0.327   0.120  0.00  0.00     0.150 A 
ATOM      5  C4  UNL d   1      -0.243  -1.127   1.204  0.00  0.00    -0.007 A 
ATOM      6  C5  UNL d   1      -0.872  -0.558   2.311  0.00  0.00     0.039 A 
ENDROOT
BRANCH   4   7
ATOM      7  O   UNL d   1       0.720  -0.927  -0.937  0.00  0.00    -0.526 OA
ATOM      8  H5  UNL d   1       0.924  -0.246  -1.600  0.00  0.00     0.418 HD
ENDBRANCH   4   7
TORSDOF 1
ENDMDL
