MODEL 1
REMARK minimizedAffinity -4.90592003
REMARK minimizedRMSD -1
REMARK  1 active torsions:
REMARK  status: ('A' for Active; 'I' for Inactive)
REMARK    1  A    between atoms: C3_4  and  O_7 
ROOT
ATOM      1  C   UNL d   1       1.098  -0.483  -1.730  0.00  0.00    -0.033 A 
ATOM      2  C1  UNL d   1       1.361  -1.793  -2.136  0.00  0.00     0.039 A 
ATOM      3  C2  UNL d   1       0.316  -2.619  -2.551  0.00  0.00    -0.080 A 
ATOM      4  C3  UNL d   1      -0.986  -2.125  -2.558  0.00  0.00     0.150 A 
ATOM      5  C4  UNL d   1      -1.254  -0.819  -2.160  0.00  0.00    -0.007 A 
ATOM      6  C5  UNL d   1      -0.209   0.004  -1.744  0.00  0.00     0.039 A 
ENDROOT
BRANCH   4   7
ATOM      7  O   UNL d   1      -2.039  -2.896  -2.952  0.00  0.00    -0.526 OA
ATOM      8  H5  UNL d   1      -1.707  -3.782  -3.172  0.00  0.00     0.418 HD
ENDBRANCH   4   7
TORSDOF 1
ENDMDL
