MODEL 1
REMARK minimizedAffinity -2.22843528
REMARK minimizedRMSD -1
REMARK  1 active torsions:
REMARK  status: ('A' for Active; 'I' for Inactive)
REMARK    1  A    between atoms: C3_4  and  O_7 
ROOT
ATOM      1  C   UNL d   1       1.121  -0.845  -0.754  0.00  0.00    -0.033 A 
ATOM      2  C1  UNL d   1       0.464  -0.741   0.474  0.00  0.00     0.039 A 
ATOM      3  C2  UNL d   1      -0.302   0.389   0.765  0.00  0.00    -0.080 A 
ATOM      4  C3  UNL d   1      -0.405   1.406  -0.181  0.00  0.00     0.150 A 
ATOM      5  C4  UNL d   1       0.243   1.308  -1.407  0.00  0.00    -0.007 A 
ATOM      6  C5  UNL d   1       1.009   0.179  -1.695  0.00  0.00     0.039 A 
ENDROOT
BRANCH   4   7
ATOM      7  O   UNL d   1      -1.138   2.531   0.059  0.00  0.00    -0.526 OA
ATOM      8  H5  UNL d   1      -1.505   2.473   0.957  0.00  0.00     0.418 HD
ENDBRANCH   4   7
TORSDOF 1
ENDMDL
