MODEL 1
REMARK minimizedAffinity -5.5510788
REMARK minimizedRMSD -1
REMARK  1 active torsions:
REMARK  status: ('A' for Active; 'I' for Inactive)
REMARK    1  A    between atoms: C3_4  and  O_7 
ROOT
ATOM      1  C   UNL d   1      -2.415   2.976   1.168  0.00  0.00    -0.033 A 
ATOM      2  C1  UNL d   1      -1.630   1.890   1.561  0.00  0.00     0.039 A 
ATOM      3  C2  UNL d   1      -0.441   1.606   0.886  0.00  0.00    -0.080 A 
ATOM      4  C3  UNL d   1      -0.049   2.414  -0.177  0.00  0.00     0.150 A 
ATOM      5  C4  UNL d   1      -0.825   3.500  -0.571  0.00  0.00    -0.007 A 
ATOM      6  C5  UNL d   1      -2.012   3.781   0.103  0.00  0.00     0.039 A 
ENDROOT
BRANCH   4   7
ATOM      7  O   UNL d   1       1.101   2.174  -0.869  0.00  0.00    -0.526 OA
ATOM      8  H5  UNL d   1       1.518   1.376  -0.504  0.00  0.00     0.418 HD
ENDBRANCH   4   7
TORSDOF 1
ENDMDL
