MODEL 1
REMARK minimizedAffinity -4.74239826
REMARK minimizedRMSD -1
REMARK  1 active torsions:
REMARK  status: ('A' for Active; 'I' for Inactive)
REMARK    1  A    between atoms: C3_4  and  O_7 
ROOT
ATOM      1  C   UNL d   1       0.617   1.147  -0.713  0.00  0.00    -0.033 A 
ATOM      2  C1  UNL d   1       0.163   2.436  -0.999  0.00  0.00     0.039 A 
ATOM      3  C2  UNL d   1      -0.959   2.945  -0.343  0.00  0.00    -0.080 A 
ATOM      4  C3  UNL d   1      -1.617   2.156   0.597  0.00  0.00     0.150 A 
ATOM      5  C4  UNL d   1      -1.168   0.872   0.890  0.00  0.00    -0.007 A 
ATOM      6  C5  UNL d   1      -0.047   0.366   0.232  0.00  0.00     0.039 A 
ENDROOT
BRANCH   4   7
ATOM      7  O   UNL d   1      -2.719   2.607   1.260  0.00  0.00    -0.526 OA
ATOM      8  H5  UNL d   1      -2.931   3.498   0.935  0.00  0.00     0.418 HD
ENDBRANCH   4   7
TORSDOF 1
ENDMDL
