MODEL 1
REMARK minimizedAffinity -2.47064734
REMARK minimizedRMSD -1
REMARK  1 active torsions:
REMARK  status: ('A' for Active; 'I' for Inactive)
REMARK    1  A    between atoms: C3_4  and  O_7 
ROOT
ATOM      1  C   UNL d   1      -0.715  -0.253   1.849  0.00  0.00    -0.033 A 
ATOM      2  C1  UNL d   1      -0.978   1.106   2.032  0.00  0.00     0.039 A 
ATOM      3  C2  UNL d   1      -0.618   2.028   1.047  0.00  0.00    -0.080 A 
ATOM      4  C3  UNL d   1       0.002   1.578  -0.115  0.00  0.00     0.150 A 
ATOM      5  C4  UNL d   1       0.264   0.225  -0.306  0.00  0.00    -0.007 A 
ATOM      6  C5  UNL d   1      -0.095  -0.693   0.680  0.00  0.00     0.039 A 
ENDROOT
BRANCH   4   7
ATOM      7  O   UNL d   1       0.376   2.440  -1.103  0.00  0.00    -0.526 OA
ATOM      8  H5  UNL d   1       0.158   3.345  -0.821  0.00  0.00     0.418 HD
ENDBRANCH   4   7
TORSDOF 1
ENDMDL
