MODEL 1
REMARK minimizedAffinity -4.71876431
REMARK minimizedRMSD -1
REMARK  1 active torsions:
REMARK  status: ('A' for Active; 'I' for Inactive)
REMARK    1  A    between atoms: C3_4  and  O_7 
ROOT
ATOM      1  C   UNL d   1       0.300   0.355  -2.593  0.00  0.00    -0.033 A 
ATOM      2  C1  UNL d   1       0.735   0.232  -1.272  0.00  0.00     0.039 A 
ATOM      3  C2  UNL d   1       1.076  -1.022  -0.762  0.00  0.00    -0.080 A 
ATOM      4  C3  UNL d   1       0.979  -2.143  -1.581  0.00  0.00     0.150 A 
ATOM      5  C4  UNL d   1       0.550  -2.027  -2.899  0.00  0.00    -0.007 A 
ATOM      6  C5  UNL d   1       0.209  -0.774  -3.407  0.00  0.00     0.039 A 
ENDROOT
BRANCH   4   7
ATOM      7  O   UNL d   1       1.296  -3.388  -1.126  0.00  0.00    -0.526 OA
ATOM      8  H5  UNL d   1       1.549  -3.319  -0.190  0.00  0.00     0.418 HD
ENDBRANCH   4   7
TORSDOF 1
ENDMDL
