MODEL 1
REMARK minimizedAffinity -5.07590437
REMARK minimizedRMSD -1
REMARK  1 active torsions:
REMARK  status: ('A' for Active; 'I' for Inactive)
REMARK    1  A    between atoms: C3_4  and  O_7 
ROOT
ATOM      1  C   UNL d   1      -0.361   3.521  -0.251  0.00  0.00    -0.033 A 
ATOM      2  C1  UNL d   1      -1.326   4.193   0.501  0.00  0.00     0.039 A 
ATOM      3  C2  UNL d   1      -2.330   3.475   1.154  0.00  0.00    -0.080 A 
ATOM      4  C3  UNL d   1      -2.356   2.087   1.049  0.00  0.00     0.150 A 
ATOM      5  C4  UNL d   1      -1.394   1.411   0.306  0.00  0.00    -0.007 A 
ATOM      6  C5  UNL d   1      -0.394   2.129  -0.347  0.00  0.00     0.039 A 
ENDROOT
BRANCH   4   7
ATOM      7  O   UNL d   1      -3.318   1.344   1.665  0.00  0.00    -0.526 OA
ATOM      8  H5  UNL d   1      -3.930   1.947   2.119  0.00  0.00     0.418 HD
ENDBRANCH   4   7
TORSDOF 1
ENDMDL
