MODEL 1
REMARK minimizedAffinity -4.1069541
REMARK minimizedRMSD -1
REMARK  1 active torsions:
REMARK  status: ('A' for Active; 'I' for Inactive)
REMARK    1  A    between atoms: C3_4  and  O_7 
ROOT
ATOM      1  C   UNL d   1      -2.096   2.480   0.874  0.00  0.00    -0.033 A 
ATOM      2  C1  UNL d   1      -1.735   2.392  -0.472  0.00  0.00     0.039 A 
ATOM      3  C2  UNL d   1      -0.996   1.299  -0.928  0.00  0.00    -0.080 A 
ATOM      4  C3  UNL d   1      -0.625   0.302  -0.030  0.00  0.00     0.150 A 
ATOM      5  C4  UNL d   1      -0.984   0.381   1.311  0.00  0.00    -0.007 A 
ATOM      6  C5  UNL d   1      -1.722   1.474   1.765  0.00  0.00     0.039 A 
ENDROOT
BRANCH   4   7
ATOM      7  O   UNL d   1       0.101  -0.781  -0.428  0.00  0.00    -0.526 OA
ATOM      8  H5  UNL d   1       0.302  -0.687  -1.374  0.00  0.00     0.418 HD
ENDBRANCH   4   7
TORSDOF 1
ENDMDL
