MODEL 1
REMARK minimizedAffinity -2.77694917
REMARK minimizedRMSD -1
REMARK  1 active torsions:
REMARK  status: ('A' for Active; 'I' for Inactive)
REMARK    1  A    between atoms: C3_4  and  O_7 
ROOT
ATOM      1  C   UNL d   1       0.065   1.499  -0.426  0.00  0.00    -0.033 A 
ATOM      2  C1  UNL d   1      -0.587   0.569   0.386  0.00  0.00     0.039 A 
ATOM      3  C2  UNL d   1      -1.474   1.001   1.374  0.00  0.00    -0.080 A 
ATOM      4  C3  UNL d   1      -1.700   2.364   1.539  0.00  0.00     0.150 A 
ATOM      5  C4  UNL d   1      -1.057   3.297   0.732  0.00  0.00    -0.007 A 
ATOM      6  C5  UNL d   1      -0.172   2.863  -0.254  0.00  0.00     0.039 A 
ENDROOT
BRANCH   4   7
ATOM      7  O   UNL d   1      -2.553   2.834   2.494  0.00  0.00    -0.526 OA
ATOM      8  H5  UNL d   1      -2.902   2.078   2.994  0.00  0.00     0.418 HD
ENDBRANCH   4   7
TORSDOF 1
ENDMDL
