MODEL 1
REMARK minimizedAffinity -5.31434584
REMARK minimizedRMSD -1
REMARK  1 active torsions:
REMARK  status: ('A' for Active; 'I' for Inactive)
REMARK    1  A    between atoms: C3_4  and  O_7 
ROOT
ATOM      1  C   UNL d   1      -1.594   3.832   0.478  0.00  0.00    -0.033 A 
ATOM      2  C1  UNL d   1      -0.631   3.686  -0.523  0.00  0.00     0.039 A 
ATOM      3  C2  UNL d   1      -0.050   2.439  -0.758  0.00  0.00    -0.080 A 
ATOM      4  C3  UNL d   1      -0.440   1.347   0.012  0.00  0.00     0.150 A 
ATOM      5  C4  UNL d   1      -1.401   1.484   1.008  0.00  0.00    -0.007 A 
ATOM      6  C5  UNL d   1      -1.980   2.731   1.242  0.00  0.00     0.039 A 
ENDROOT
BRANCH   4   7
ATOM      7  O   UNL d   1       0.102   0.111  -0.177  0.00  0.00    -0.526 OA
ATOM      8  H5  UNL d   1       0.773   0.173  -0.878  0.00  0.00     0.418 HD
ENDBRANCH   4   7
TORSDOF 1
ENDMDL
