MODEL 1
REMARK minimizedAffinity -4.57003975
REMARK minimizedRMSD -1
REMARK  1 active torsions:
REMARK  status: ('A' for Active; 'I' for Inactive)
REMARK    1  A    between atoms: C3_4  and  O_7 
ROOT
ATOM      1  C   UNL d   1      -1.680   3.540   0.567  0.00  0.00    -0.033 A 
ATOM      2  C1  UNL d   1      -1.972   2.455   1.396  0.00  0.00     0.039 A 
ATOM      3  C2  UNL d   1      -1.375   1.214   1.161  0.00  0.00    -0.080 A 
ATOM      4  C3  UNL d   1      -0.488   1.074   0.097  0.00  0.00     0.150 A 
ATOM      5  C4  UNL d   1      -0.190   2.152  -0.730  0.00  0.00    -0.007 A 
ATOM      6  C5  UNL d   1      -0.788   3.389  -0.494  0.00  0.00     0.039 A 
ENDROOT
BRANCH   4   7
ATOM      7  O   UNL d   1       0.115  -0.118  -0.175  0.00  0.00    -0.526 OA
ATOM      8  H5  UNL d   1      -0.208  -0.779   0.461  0.00  0.00     0.418 HD
ENDBRANCH   4   7
TORSDOF 1
ENDMDL
