MODEL 1
REMARK minimizedAffinity -5.18504143
REMARK minimizedRMSD -1
REMARK  1 active torsions:
REMARK  status: ('A' for Active; 'I' for Inactive)
REMARK    1  A    between atoms: C3_4  and  O_7 
ROOT
ATOM      1  C   UNL d   1      -1.666   1.954   1.184  0.00  0.00    -0.033 A 
ATOM      2  C1  UNL d   1      -1.375   2.216  -0.156  0.00  0.00     0.039 A 
ATOM      3  C2  UNL d   1      -0.589   1.325  -0.889  0.00  0.00    -0.080 A 
ATOM      4  C3  UNL d   1      -0.100   0.177  -0.272  0.00  0.00     0.150 A 
ATOM      5  C4  UNL d   1      -0.389  -0.092   1.062  0.00  0.00    -0.007 A 
ATOM      6  C5  UNL d   1      -1.174   0.799   1.793  0.00  0.00     0.039 A 
ENDROOT
BRANCH   4   7
ATOM      7  O   UNL d   1       0.675  -0.719  -0.945  0.00  0.00    -0.526 OA
ATOM      8  H5  UNL d   1       0.815  -0.388  -1.847  0.00  0.00     0.418 HD
ENDBRANCH   4   7
TORSDOF 1
ENDMDL
