MODEL 1
REMARK minimizedAffinity -3.83212924
REMARK minimizedRMSD -1
REMARK  1 active torsions:
REMARK  status: ('A' for Active; 'I' for Inactive)
REMARK    1  A    between atoms: C3_4  and  O_7 
ROOT
ATOM      1  C   UNL d   1      -1.553   1.863   1.473  0.00  0.00    -0.033 A 
ATOM      2  C1  UNL d   1      -1.551   0.535   1.903  0.00  0.00     0.039 A 
ATOM      3  C2  UNL d   1      -0.824  -0.427   1.200  0.00  0.00    -0.080 A 
ATOM      4  C3  UNL d   1      -0.102  -0.049   0.072  0.00  0.00     0.150 A 
ATOM      5  C4  UNL d   1      -0.096   1.273  -0.360  0.00  0.00    -0.007 A 
ATOM      6  C5  UNL d   1      -0.824   2.233   0.342  0.00  0.00     0.039 A 
ENDROOT
BRANCH   4   7
ATOM      7  O   UNL d   1       0.619  -0.954  -0.649  0.00  0.00    -0.526 OA
ATOM      8  H5  UNL d   1       0.499  -1.832  -0.250  0.00  0.00     0.418 HD
ENDBRANCH   4   7
TORSDOF 1
ENDMDL
