MODEL 1
REMARK minimizedAffinity -4.08117962
REMARK minimizedRMSD -1
REMARK  1 active torsions:
REMARK  status: ('A' for Active; 'I' for Inactive)
REMARK    1  A    between atoms: C3_4  and  O_7 
ROOT
ATOM      1  C   UNL d   1      -0.719   2.732   1.125  0.00  0.00    -0.033 A 
ATOM      2  C1  UNL d   1      -0.799   1.532   1.835  0.00  0.00     0.039 A 
ATOM      3  C2  UNL d   1      -0.213   0.374   1.321  0.00  0.00    -0.080 A 
ATOM      4  C3  UNL d   1       0.450   0.429   0.098  0.00  0.00     0.150 A 
ATOM      5  C4  UNL d   1       0.537   1.621  -0.613  0.00  0.00    -0.007 A 
ATOM      6  C5  UNL d   1      -0.050   2.777  -0.099  0.00  0.00     0.039 A 
ENDROOT
BRANCH   4   7
ATOM      7  O   UNL d   1       1.034  -0.676  -0.446  0.00  0.00    -0.526 OA
ATOM      8  H5  UNL d   1       0.869  -1.433   0.141  0.00  0.00     0.418 HD
ENDBRANCH   4   7
TORSDOF 1
ENDMDL
