MODEL 1
REMARK minimizedAffinity -4.00360727
REMARK minimizedRMSD -1
REMARK  1 active torsions:
REMARK  status: ('A' for Active; 'I' for Inactive)
REMARK    1  A    between atoms: C3_4  and  O_7 
ROOT
ATOM      1  C   UNL d   1      -0.232  -0.498   1.563  0.00  0.00    -0.033 A 
ATOM      2  C1  UNL d   1       0.642  -0.626   0.482  0.00  0.00     0.039 A 
ATOM      3  C2  UNL d   1       0.895   0.469  -0.347  0.00  0.00    -0.080 A 
ATOM      4  C3  UNL d   1       0.269   1.684  -0.084  0.00  0.00     0.150 A 
ATOM      5  C4  UNL d   1      -0.600   1.820   0.994  0.00  0.00    -0.007 A 
ATOM      6  C5  UNL d   1      -0.852   0.725   1.820  0.00  0.00     0.039 A 
ENDROOT
BRANCH   4   7
ATOM      7  O   UNL d   1       0.481   2.779  -0.868  0.00  0.00    -0.526 OA
ATOM      8  H5  UNL d   1       1.081   2.530  -1.590  0.00  0.00     0.418 HD
ENDBRANCH   4   7
TORSDOF 1
ENDMDL
