MODEL 1
REMARK minimizedAffinity 7.84746599
REMARK minimizedRMSD -1
REMARK  0 active torsions:
REMARK  status: ('A' for Active; 'I' for Inactive)
ROOT
ATOM      1  O1  BZF d   1       1.474   3.041  -2.419  0.00  0.00    -0.204 OA
ATOM      2  C2  BZF d   1       1.295   1.792  -1.858  0.00  0.00     0.174 A 
ATOM      3  C3  BZF d   1       1.250   1.873  -0.512  0.00  0.00    -0.012 A 
ATOM      4  C3A BZF d   1       1.318   3.272  -0.218  0.00  0.00    -0.107 A 
ATOM      5  C4  BZF d   1       1.301   3.988   0.945  0.00  0.00     0.055 A 
ATOM      6  C5  BZF d   1       1.459   5.337   0.892  0.00  0.00    -0.016 A 
ATOM      7  C6  BZF d   1       1.642   6.000  -0.304  0.00  0.00     0.022 A 
ATOM      8  C7  BZF d   1       1.661   5.333  -1.483  0.00  0.00     0.029 A 
ATOM      9  C7A BZF d   1       1.468   3.974  -1.436  0.00  0.00     0.058 A 
ENDROOT
TORSDOF 0
ENDMDL
