MODEL 1
REMARK minimizedAffinity 0.615028381
REMARK minimizedRMSD -1
REMARK  0 active torsions:
REMARK  status: ('A' for Active; 'I' for Inactive)
ROOT
ATOM      1  O1  BZF d   1       0.939   4.237  -1.826  0.00  0.00    -0.204 OA
ATOM      2  C2  BZF d   1       1.385   4.839  -0.666  0.00  0.00     0.174 A 
ATOM      3  C3  BZF d   1       1.796   3.915   0.226  0.00  0.00    -0.012 A 
ATOM      4  C3A BZF d   1       1.680   2.660  -0.453  0.00  0.00    -0.107 A 
ATOM      5  C4  BZF d   1       1.953   1.371  -0.096  0.00  0.00     0.055 A 
ATOM      6  C5  BZF d   1       1.659   0.368  -0.965  0.00  0.00    -0.016 A 
ATOM      7  C6  BZF d   1       1.089   0.618  -2.196  0.00  0.00     0.022 A 
ATOM      8  C7  BZF d   1       0.804   1.881  -2.596  0.00  0.00     0.029 A 
ATOM      9  C7A BZF d   1       1.130   2.899  -1.734  0.00  0.00     0.058 A 
ENDROOT
TORSDOF 0
ENDMDL
