MODEL 1
REMARK minimizedAffinity 2.66699648
REMARK minimizedRMSD -1
REMARK  0 active torsions:
REMARK  status: ('A' for Active; 'I' for Inactive)
ROOT
ATOM      1  O1  BZF d   1      -3.351  -3.441   5.687  0.00  0.00    -0.204 OA
ATOM      2  C2  BZF d   1      -3.825  -4.641   5.194  0.00  0.00     0.174 A 
ATOM      3  C3  BZF d   1      -3.198  -4.968   4.046  0.00  0.00    -0.012 A 
ATOM      4  C3A BZF d   1      -2.209  -3.952   3.855  0.00  0.00    -0.107 A 
ATOM      5  C4  BZF d   1      -1.259  -3.735   2.898  0.00  0.00     0.055 A 
ATOM      6  C5  BZF d   1      -0.501  -2.609   2.964  0.00  0.00    -0.016 A 
ATOM      7  C6  BZF d   1      -0.668  -1.678   3.968  0.00  0.00     0.022 A 
ATOM      8  C7  BZF d   1      -1.594  -1.853   4.942  0.00  0.00     0.029 A 
ATOM      9  C7A BZF d   1      -2.340  -3.005   4.897  0.00  0.00     0.058 A 
ENDROOT
TORSDOF 0
ENDMDL
