MODEL 1
REMARK minimizedAffinity 4.13518715
REMARK minimizedRMSD -1
REMARK  0 active torsions:
REMARK  status: ('A' for Active; 'I' for Inactive)
ROOT
ATOM      1  O1  BZF d   1      -3.316   0.297   2.596  0.00  0.00    -0.204 OA
ATOM      2  C2  BZF d   1      -3.233   1.625   2.969  0.00  0.00     0.174 A 
ATOM      3  C3  BZF d   1      -2.329   1.788   3.957  0.00  0.00    -0.012 A 
ATOM      4  C3A BZF d   1      -1.748   0.496   4.153  0.00  0.00    -0.107 A 
ATOM      5  C4  BZF d   1      -0.778   0.019   4.988  0.00  0.00     0.055 A 
ATOM      6  C5  BZF d   1      -0.495  -1.310   4.981  0.00  0.00    -0.016 A 
ATOM      7  C6  BZF d   1      -1.166  -2.191   4.158  0.00  0.00     0.022 A 
ATOM      8  C7  BZF d   1      -2.133  -1.765   3.310  0.00  0.00     0.029 A 
ATOM      9  C7A BZF d   1      -2.398  -0.417   3.290  0.00  0.00     0.058 A 
ENDROOT
TORSDOF 0
ENDMDL
