MODEL 1
REMARK minimizedAffinity -2.6755116
REMARK minimizedRMSD -1
REMARK  0 active torsions:
REMARK  status: ('A' for Active; 'I' for Inactive)
ROOT
ATOM      1  O1  BZF d   1       1.320   1.630  -2.430  0.00  0.00    -0.204 OA
ATOM      2  C2  BZF d   1       1.495   0.343  -1.959  0.00  0.00     0.174 A 
ATOM      3  C3  BZF d   1       1.659   0.341  -0.621  0.00  0.00    -0.012 A 
ATOM      4  C3A BZF d   1       1.490   1.703  -0.219  0.00  0.00    -0.107 A 
ATOM      5  C4  BZF d   1       1.521   2.336   0.991  0.00  0.00     0.055 A 
ATOM      6  C5  BZF d   1       1.390   3.688   1.033  0.00  0.00    -0.016 A 
ATOM      7  C6  BZF d   1       1.232   4.438  -0.114  0.00  0.00     0.022 A 
ATOM      8  C7  BZF d   1       1.190   3.855  -1.336  0.00  0.00     0.029 A 
ATOM      9  C7A BZF d   1       1.289   2.485  -1.379  0.00  0.00     0.058 A 
ENDROOT
TORSDOF 0
ENDMDL
