MODEL 1
REMARK minimizedAffinity 4.67262125
REMARK minimizedRMSD -1
REMARK  0 active torsions:
REMARK  status: ('A' for Active; 'I' for Inactive)
ROOT
ATOM      1  O1  BZF d   1       0.430   5.234  -1.254  0.00  0.00    -0.204 OA
ATOM      2  C2  BZF d   1       1.533   5.686  -0.556  0.00  0.00     0.174 A 
ATOM      3  C3  BZF d   1       2.442   4.700  -0.408  0.00  0.00    -0.012 A 
ATOM      4  C3A BZF d   1       1.911   3.587  -1.133  0.00  0.00    -0.107 A 
ATOM      5  C4  BZF d   1       2.363   2.320  -1.372  0.00  0.00     0.055 A 
ATOM      6  C5  BZF d   1       1.570   1.455  -2.057  0.00  0.00    -0.016 A 
ATOM      7  C6  BZF d   1       0.321   1.820  -2.514  0.00  0.00     0.022 A 
ATOM      8  C7  BZF d   1      -0.168   3.067  -2.306  0.00  0.00     0.029 A 
ATOM      9  C7A BZF d   1       0.644   3.954  -1.642  0.00  0.00     0.058 A 
ENDROOT
TORSDOF 0
ENDMDL
