MODEL 1
REMARK minimizedAffinity 3.16051769
REMARK minimizedRMSD -1
REMARK  0 active torsions:
REMARK  status: ('A' for Active; 'I' for Inactive)
ROOT
ATOM      1  O1  BZF d   1       1.124  -0.077   1.366  0.00  0.00    -0.204 OA
ATOM      2  C2  BZF d   1       1.115   1.163   1.975  0.00  0.00     0.174 A 
ATOM      3  C3  BZF d   1       1.324   2.142   1.070  0.00  0.00    -0.012 A 
ATOM      4  C3A BZF d   1       1.382   1.478  -0.196  0.00  0.00    -0.107 A 
ATOM      5  C4  BZF d   1       1.554   1.915  -1.478  0.00  0.00     0.055 A 
ATOM      6  C5  BZF d   1       1.635   1.002  -2.482  0.00  0.00    -0.016 A 
ATOM      7  C6  BZF d   1       1.554  -0.353  -2.239  0.00  0.00     0.022 A 
ATOM      8  C7  BZF d   1       1.378  -0.834  -0.984  0.00  0.00     0.029 A 
ATOM      9  C7A BZF d   1       1.263   0.087   0.028  0.00  0.00     0.058 A 
ENDROOT
TORSDOF 0
ENDMDL
