MODEL 1
REMARK minimizedAffinity -7.31028175
REMARK minimizedRMSD -1
REMARK  0 active torsions:
REMARK  status: ('A' for Active; 'I' for Inactive)
ROOT
ATOM      1  O1  BZF d   1       1.435   0.931  -2.487  0.00  0.00    -0.204 OA
ATOM      2  C2  BZF d   1       1.374  -0.383  -2.065  0.00  0.00     0.174 A 
ATOM      3  C3  BZF d   1       1.301  -0.452  -0.720  0.00  0.00    -0.012 A 
ATOM      4  C3A BZF d   1       1.225   0.907  -0.278  0.00  0.00    -0.107 A 
ATOM      5  C4  BZF d   1       1.119   1.489   0.952  0.00  0.00     0.055 A 
ATOM      6  C5  BZF d   1       1.142   2.845   1.046  0.00  0.00    -0.016 A 
ATOM      7  C6  BZF d   1       1.275   3.647  -0.068  0.00  0.00     0.022 A 
ATOM      8  C7  BZF d   1       1.378   3.116  -1.311  0.00  0.00     0.029 A 
ATOM      9  C7A BZF d   1       1.322   1.747  -1.412  0.00  0.00     0.058 A 
ENDROOT
TORSDOF 0
ENDMDL
