MODEL 1
REMARK minimizedAffinity -2.97217798
REMARK minimizedRMSD -1
REMARK  0 active torsions:
REMARK  status: ('A' for Active; 'I' for Inactive)
ROOT
ATOM      1  O1  BZF d   1       1.568  -0.192  -2.120  0.00  0.00    -0.204 OA
ATOM      2  C2  BZF d   1       1.461  -1.276  -1.270  0.00  0.00     0.174 A 
ATOM      3  C3  BZF d   1       1.294  -0.869   0.005  0.00  0.00    -0.012 A 
ATOM      4  C3A BZF d   1       1.205   0.557  -0.064  0.00  0.00    -0.107 A 
ATOM      5  C4  BZF d   1       1.021   1.532   0.875  0.00  0.00     0.055 A 
ATOM      6  C5  BZF d   1       1.056   2.835   0.489  0.00  0.00    -0.016 A 
ATOM      7  C6  BZF d   1       1.276   3.198  -0.824  0.00  0.00     0.022 A 
ATOM      8  C7  BZF d   1       1.458   2.266  -1.791  0.00  0.00     0.029 A 
ATOM      9  C7A BZF d   1       1.391   0.948  -1.410  0.00  0.00     0.058 A 
ENDROOT
TORSDOF 0
ENDMDL
