MODEL 1
REMARK minimizedAffinity -2.96416211
REMARK minimizedRMSD -1
REMARK  0 active torsions:
REMARK  status: ('A' for Active; 'I' for Inactive)
ROOT
ATOM      1  O1  BZF d   1       1.271   2.991  -2.615  0.00  0.00    -0.204 OA
ATOM      2  C2  BZF d   1       1.070   1.643  -2.389  0.00  0.00     0.174 A 
ATOM      3  C3  BZF d   1       1.073   1.375  -1.067  0.00  0.00    -0.012 A 
ATOM      4  C3A BZF d   1       1.196   2.647  -0.425  0.00  0.00    -0.107 A 
ATOM      5  C4  BZF d   1       1.241   3.038   0.883  0.00  0.00     0.055 A 
ATOM      6  C5  BZF d   1       1.441   4.350   1.174  0.00  0.00    -0.016 A 
ATOM      7  C6  BZF d   1       1.605   5.296   0.183  0.00  0.00     0.022 A 
ATOM      8  C7  BZF d   1       1.564   4.957  -1.128  0.00  0.00     0.029 A 
ATOM      9  C7A BZF d   1       1.329   3.637  -1.425  0.00  0.00     0.058 A 
ENDROOT
TORSDOF 0
ENDMDL
