MODEL 1
REMARK minimizedAffinity -2.89125538
REMARK minimizedRMSD -1
REMARK  0 active torsions:
REMARK  status: ('A' for Active; 'I' for Inactive)
ROOT
ATOM      1  O1  BZF d   1       1.632   3.664   0.810  0.00  0.00    -0.204 OA
ATOM      2  C2  BZF d   1       1.649   4.537  -0.261  0.00  0.00     0.174 A 
ATOM      3  C3  BZF d   1       1.573   3.864  -1.428  0.00  0.00    -0.012 A 
ATOM      4  C3A BZF d   1       1.411   2.491  -1.060  0.00  0.00    -0.107 A 
ATOM      5  C4  BZF d   1       1.263   1.338  -1.778  0.00  0.00     0.055 A 
ATOM      6  C5  BZF d   1       1.202   0.153  -1.117  0.00  0.00    -0.016 A 
ATOM      7  C6  BZF d   1       1.291   0.082   0.258  0.00  0.00     0.022 A 
ATOM      8  C7  BZF d   1       1.434   1.199   1.013  0.00  0.00     0.029 A 
ATOM      9  C7A BZF d   1       1.462   2.401   0.350  0.00  0.00     0.058 A 
ENDROOT
TORSDOF 0
ENDMDL
