MODEL 1
REMARK minimizedAffinity -1.6073482
REMARK minimizedRMSD -1
REMARK  0 active torsions:
REMARK  status: ('A' for Active; 'I' for Inactive)
ROOT
ATOM      1  O1  BZF d   1      -4.470   1.890   3.382  0.00  0.00    -0.204 OA
ATOM      2  C2  BZF d   1      -4.094   1.939   2.054  0.00  0.00     0.174 A 
ATOM      3  C3  BZF d   1      -2.751   1.939   1.936  0.00  0.00    -0.012 A 
ATOM      4  C3A BZF d   1      -2.256   1.793   3.271  0.00  0.00    -0.107 A 
ATOM      5  C4  BZF d   1      -1.001   1.709   3.803  0.00  0.00     0.055 A 
ATOM      6  C5  BZF d   1      -0.860   1.645   5.153  0.00  0.00    -0.016 A 
ATOM      7  C6  BZF d   1      -1.949   1.667   5.999  0.00  0.00     0.022 A 
ATOM      8  C7  BZF d   1      -3.213   1.744   5.518  0.00  0.00     0.029 A 
ATOM      9  C7A BZF d   1      -3.361   1.776   4.153  0.00  0.00     0.058 A 
ENDROOT
TORSDOF 0
ENDMDL
