MODEL 1
REMARK minimizedAffinity -0.0130179767
REMARK minimizedRMSD -1
REMARK  0 active torsions:
REMARK  status: ('A' for Active; 'I' for Inactive)
ROOT
ATOM      1  O1  BZF d   1       1.736   3.844   0.662  0.00  0.00    -0.204 OA
ATOM      2  C2  BZF d   1       1.450   4.911  -0.168  0.00  0.00     0.174 A 
ATOM      3  C3  BZF d   1       1.323   4.501  -1.447  0.00  0.00    -0.012 A 
ATOM      4  C3A BZF d   1       1.452   3.077  -1.400  0.00  0.00    -0.107 A 
ATOM      5  C4  BZF d   1       1.400   2.098  -2.351  0.00  0.00     0.055 A 
ATOM      6  C5  BZF d   1       1.638   0.810  -1.987  0.00  0.00    -0.016 A 
ATOM      7  C6  BZF d   1       1.935   0.467  -0.684  0.00  0.00     0.022 A 
ATOM      8  C7  BZF d   1       1.993   1.403   0.295  0.00  0.00     0.029 A 
ATOM      9  C7A BZF d   1       1.720   2.700  -0.064  0.00  0.00     0.058 A 
ENDROOT
TORSDOF 0
ENDMDL
