MODEL 1
REMARK minimizedAffinity 1.79144037
REMARK minimizedRMSD -1
REMARK  0 active torsions:
REMARK  status: ('A' for Active; 'I' for Inactive)
ROOT
ATOM      1  O1  BZF d   1      -4.155  -0.943   2.574  0.00  0.00    -0.204 OA
ATOM      2  C2  BZF d   1      -5.250  -1.631   3.058  0.00  0.00     0.174 A 
ATOM      3  C3  BZF d   1      -6.000  -0.839   3.852  0.00  0.00    -0.012 A 
ATOM      4  C3A BZF d   1      -5.381   0.449   3.790  0.00  0.00    -0.107 A 
ATOM      5  C4  BZF d   1      -5.671   1.658   4.355  0.00  0.00     0.055 A 
ATOM      6  C5  BZF d   1      -4.825   2.702   4.152  0.00  0.00    -0.016 A 
ATOM      7  C6  BZF d   1      -3.678   2.571   3.397  0.00  0.00     0.022 A 
ATOM      8  C7  BZF d   1      -3.351   1.393   2.813  0.00  0.00     0.029 A 
ATOM      9  C7A BZF d   1      -4.221   0.345   2.988  0.00  0.00     0.058 A 
ENDROOT
TORSDOF 0
ENDMDL
