MODEL 1
REMARK minimizedAffinity 2.70683718
REMARK minimizedRMSD -1
REMARK  0 active torsions:
REMARK  status: ('A' for Active; 'I' for Inactive)
ROOT
ATOM      1  O1  BZF d   1       2.013   2.445  -0.773  0.00  0.00    -0.204 OA
ATOM      2  C2  BZF d   1       1.298   2.827  -1.892  0.00  0.00     0.174 A 
ATOM      3  C3  BZF d   1       0.665   1.770  -2.439  0.00  0.00    -0.012 A 
ATOM      4  C3A BZF d   1       0.930   0.675  -1.556  0.00  0.00    -0.107 A 
ATOM      5  C4  BZF d   1       0.559  -0.640  -1.553  0.00  0.00     0.055 A 
ATOM      6  C5  BZF d   1       1.047  -1.462  -0.588  0.00  0.00    -0.016 A 
ATOM      7  C6  BZF d   1       1.912  -1.005   0.385  0.00  0.00     0.022 A 
ATOM      8  C7  BZF d   1       2.304   0.292   0.426  0.00  0.00     0.029 A 
ATOM      9  C7A BZF d   1       1.786   1.132  -0.528  0.00  0.00     0.058 A 
ENDROOT
TORSDOF 0
ENDMDL
