MODEL 1
REMARK minimizedAffinity -3.82956743
REMARK minimizedRMSD -1
REMARK  0 active torsions:
REMARK  status: ('A' for Active; 'I' for Inactive)
ROOT
ATOM      1  O1  BZF d   1       1.403   3.842   0.834  0.00  0.00    -0.204 OA
ATOM      2  C2  BZF d   1       1.641   4.816  -0.116  0.00  0.00     0.174 A 
ATOM      3  C3  BZF d   1       1.671   4.282  -1.353  0.00  0.00    -0.012 A 
ATOM      4  C3A BZF d   1       1.344   2.900  -1.174  0.00  0.00    -0.107 A 
ATOM      5  C4  BZF d   1       1.200   1.850  -2.035  0.00  0.00     0.055 A 
ATOM      6  C5  BZF d   1       0.949   0.613  -1.532  0.00  0.00    -0.016 A 
ATOM      7  C6  BZF d   1       0.841   0.389  -0.175  0.00  0.00     0.022 A 
ATOM      8  C7  BZF d   1       0.972   1.400   0.718  0.00  0.00     0.029 A 
ATOM      9  C7A BZF d   1       1.193   2.657   0.211  0.00  0.00     0.058 A 
ENDROOT
TORSDOF 0
ENDMDL
