MODEL 1
REMARK minimizedAffinity 2.72523189
REMARK minimizedRMSD -1
REMARK  0 active torsions:
REMARK  status: ('A' for Active; 'I' for Inactive)
ROOT
ATOM      1  O1  BZF d   1       1.614   3.930   0.593  0.00  0.00    -0.204 OA
ATOM      2  C2  BZF d   1       1.776   4.870  -0.406  0.00  0.00     0.174 A 
ATOM      3  C3  BZF d   1       1.669   4.299  -1.623  0.00  0.00    -0.012 A 
ATOM      4  C3A BZF d   1       1.332   2.932  -1.369  0.00  0.00    -0.107 A 
ATOM      5  C4  BZF d   1       1.079   1.861  -2.177  0.00  0.00     0.055 A 
ATOM      6  C5  BZF d   1       0.854   0.646  -1.613  0.00  0.00    -0.016 A 
ATOM      7  C6  BZF d   1       0.879   0.464  -0.246  0.00  0.00     0.022 A 
ATOM      8  C7  BZF d   1       1.121   1.497   0.597  0.00  0.00     0.029 A 
ATOM      9  C7A BZF d   1       1.317   2.734   0.031  0.00  0.00     0.058 A 
ENDROOT
TORSDOF 0
ENDMDL
