MODEL 1
REMARK minimizedAffinity 10.0355225
REMARK minimizedRMSD -1
REMARK  0 active torsions:
REMARK  status: ('A' for Active; 'I' for Inactive)
ROOT
ATOM      1  O1  BZF d   1       1.307   2.655  -2.716  0.00  0.00    -0.204 OA
ATOM      2  C2  BZF d   1       1.086   1.329  -2.400  0.00  0.00     0.174 A 
ATOM      3  C3  BZF d   1       1.138   1.139  -1.066  0.00  0.00    -0.012 A 
ATOM      4  C3A BZF d   1       1.317   2.444  -0.507  0.00  0.00    -0.107 A 
ATOM      5  C4  BZF d   1       1.426   2.911   0.771  0.00  0.00     0.055 A 
ATOM      6  C5  BZF d   1       1.667   4.233   0.974  0.00  0.00    -0.016 A 
ATOM      7  C6  BZF d   1       1.810   5.114  -0.078  0.00  0.00     0.022 A 
ATOM      8  C7  BZF d   1       1.705   4.699  -1.364  0.00  0.00     0.029 A 
ATOM      9  C7A BZF d   1       1.429   3.369  -1.571  0.00  0.00     0.058 A 
ENDROOT
TORSDOF 0
ENDMDL
