MODEL 1
REMARK minimizedAffinity -0.421084672
REMARK minimizedRMSD -1
REMARK  1 active torsions:
REMARK  status: ('A' for Active; 'I' for Inactive)
REMARK    1  A    between atoms: N_2  and  C1_3 
ROOT
ATOM      1  C1  UNL d   1       5.483   1.402   5.381  0.00  0.00     0.143 A 
ATOM      2  C2  UNL d   1       6.000   2.651   5.744  0.00  0.00    -0.057 A 
ATOM      3  C3  UNL d   1       5.682   3.807   5.021  0.00  0.00     0.033 A 
ATOM      4  C4  UNL d   1       4.862   3.730   3.900  0.00  0.00    -0.042 A 
ATOM      5  C5  UNL d   1       4.357   2.496   3.506  0.00  0.00     0.033 A 
ATOM      6  C6  UNL d   1       4.672   1.346   4.236  0.00  0.00    -0.057 A 
ENDROOT
BRANCH   1   7
ATOM      7  N   UNL d   1       5.840   0.202   6.000  0.00  0.00    -0.732 N 
ATOM      8  C   UNL d   1       4.992  -0.965   5.889  0.00  0.00     0.284 C 
ATOM      9  H3  UNL d   1       6.834   0.003   5.917  0.00  0.00     0.395 HD
ENDBRANCH   1   7
TORSDOF 1
ENDMDL
