MODEL 1
REMARK minimizedAffinity -3.05886173
REMARK minimizedRMSD -1
REMARK  1 active torsions:
REMARK  status: ('A' for Active; 'I' for Inactive)
REMARK    1  A    between atoms: N_2  and  C1_3 
ROOT
ATOM      1  C1  UNL d   1      -0.303   0.178  -0.566  0.00  0.00     0.143 A 
ATOM      2  C2  UNL d   1      -0.186  -1.155  -0.157  0.00  0.00    -0.057 A 
ATOM      3  C3  UNL d   1       0.877  -1.957  -0.590  0.00  0.00     0.033 A 
ATOM      4  C4  UNL d   1       1.830  -1.446  -1.464  0.00  0.00    -0.042 A 
ATOM      5  C5  UNL d   1       1.721  -0.131  -1.903  0.00  0.00     0.033 A 
ATOM      6  C6  UNL d   1       0.660   0.666  -1.462  0.00  0.00    -0.057 A 
ENDROOT
BRANCH   1   7
ATOM      7  N   UNL d   1      -1.390   0.996  -0.249  0.00  0.00    -0.732 N 
ATOM      8  C   UNL d   1      -1.969   0.973   1.077  0.00  0.00     0.284 C 
ATOM      9  H3  UNL d   1      -1.305   1.927  -0.650  0.00  0.00     0.395 HD
ENDBRANCH   1   7
TORSDOF 1
ENDMDL
