MODEL 1
REMARK minimizedAffinity -0.568502605
REMARK minimizedRMSD -1
REMARK  1 active torsions:
REMARK  status: ('A' for Active; 'I' for Inactive)
REMARK    1  A    between atoms: N_2  and  C1_3 
ROOT
ATOM      1  C1  UNL d   1      -1.403   0.266   0.130  0.00  0.00     0.143 A 
ATOM      2  C2  UNL d   1      -1.238   1.403  -0.668  0.00  0.00    -0.057 A 
ATOM      3  C3  UNL d   1      -0.074   1.599  -1.421  0.00  0.00     0.033 A 
ATOM      4  C4  UNL d   1       0.961   0.672  -1.366  0.00  0.00    -0.042 A 
ATOM      5  C5  UNL d   1       0.829  -0.454  -0.561  0.00  0.00     0.033 A 
ATOM      6  C6  UNL d   1      -0.338  -0.647   0.184  0.00  0.00    -0.057 A 
ENDROOT
BRANCH   1   7
ATOM      7  N   UNL d   1      -2.494   0.063   0.978  0.00  0.00    -0.732 N 
ATOM      8  C   UNL d   1      -2.428   0.450   2.371  0.00  0.00     0.284 C 
ATOM      9  H3  UNL d   1      -3.381   0.279   0.528  0.00  0.00     0.395 HD
ENDBRANCH   1   7
TORSDOF 1
ENDMDL
