MODEL 1
REMARK minimizedAffinity -4.71294117
REMARK minimizedRMSD -1
REMARK  1 active torsions:
REMARK  status: ('A' for Active; 'I' for Inactive)
REMARK    1  A    between atoms: N_2  and  C1_3 
ROOT
ATOM      1  C1  UNL d   1      -0.135  -0.421   0.276  0.00  0.00     0.143 A 
ATOM      2  C2  UNL d   1       0.362  -1.668   0.668  0.00  0.00    -0.057 A 
ATOM      3  C3  UNL d   1       1.392  -2.295  -0.043  0.00  0.00     0.033 A 
ATOM      4  C4  UNL d   1       1.926  -1.696  -1.180  0.00  0.00    -0.042 A 
ATOM      5  C5  UNL d   1       1.430  -0.468  -1.602  0.00  0.00     0.033 A 
ATOM      6  C6  UNL d   1       0.406   0.156  -0.884  0.00  0.00    -0.057 A 
ENDROOT
BRANCH   1   7
ATOM      7  N   UNL d   1      -1.225   0.208   0.883  0.00  0.00    -0.732 N 
ATOM      8  C   UNL d   1      -1.427   0.115   2.313  0.00  0.00     0.284 C 
ATOM      9  H3  UNL d   1      -1.405   1.132   0.497  0.00  0.00     0.395 HD
ENDBRANCH   1   7
TORSDOF 1
ENDMDL
