MODEL 1
REMARK minimizedAffinity -4.59143591
REMARK minimizedRMSD -1
REMARK  1 active torsions:
REMARK  status: ('A' for Active; 'I' for Inactive)
REMARK    1  A    between atoms: N_2  and  C1_3 
ROOT
ATOM      1  C1  UNL d   1       0.675  -0.595  -0.287  0.00  0.00     0.143 A 
ATOM      2  C2  UNL d   1       1.018  -1.722  -1.042  0.00  0.00    -0.057 A 
ATOM      3  C3  UNL d   1       2.265  -1.823  -1.670  0.00  0.00     0.033 A 
ATOM      4  C4  UNL d   1       3.184  -0.783  -1.578  0.00  0.00    -0.042 A 
ATOM      5  C5  UNL d   1       2.855   0.357  -0.853  0.00  0.00     0.033 A 
ATOM      6  C6  UNL d   1       1.611   0.450  -0.222  0.00  0.00    -0.057 A 
ENDROOT
BRANCH   1   7
ATOM      7  N   UNL d   1      -0.585  -0.393   0.280  0.00  0.00    -0.732 N 
ATOM      8  C   UNL d   1      -1.292   0.855   0.080  0.00  0.00     0.284 C 
ATOM      9  H3  UNL d   1      -1.176  -1.219   0.219  0.00  0.00     0.395 HD
ENDBRANCH   1   7
TORSDOF 1
ENDMDL
