MODEL 1
REMARK minimizedAffinity -3.47064662
REMARK minimizedRMSD -1
REMARK  1 active torsions:
REMARK  status: ('A' for Active; 'I' for Inactive)
REMARK    1  A    between atoms: N_2  and  C1_3 
ROOT
ATOM      1  C1  UNL d   1       0.393  -0.274  -0.631  0.00  0.00     0.143 A 
ATOM      2  C2  UNL d   1       1.192   0.515  -1.465  0.00  0.00    -0.057 A 
ATOM      3  C3  UNL d   1       2.499   0.132  -1.793  0.00  0.00     0.033 A 
ATOM      4  C4  UNL d   1       3.040  -1.036  -1.267  0.00  0.00    -0.042 A 
ATOM      5  C5  UNL d   1       2.273  -1.823  -0.416  0.00  0.00     0.033 A 
ATOM      6  C6  UNL d   1       0.967  -1.439  -0.098  0.00  0.00    -0.057 A 
ENDROOT
BRANCH   1   7
ATOM      7  N   UNL d   1      -0.878   0.101  -0.189  0.00  0.00    -0.732 N 
ATOM      8  C   UNL d   1      -1.103   0.449   1.197  0.00  0.00     0.284 C 
ATOM      9  H3  UNL d   1      -1.357   0.706  -0.852  0.00  0.00     0.395 HD
ENDBRANCH   1   7
TORSDOF 1
ENDMDL
