MODEL 1
REMARK minimizedAffinity -4.79986572
REMARK minimizedRMSD -1
REMARK  1 active torsions:
REMARK  status: ('A' for Active; 'I' for Inactive)
REMARK    1  A    between atoms: N_2  and  C1_3 
ROOT
ATOM      1  C1  UNL d   1       1.725   0.938  -1.703  0.00  0.00     0.143 A 
ATOM      2  C2  UNL d   1       0.553   0.766  -0.959  0.00  0.00    -0.057 A 
ATOM      3  C3  UNL d   1       0.181  -0.493  -0.472  0.00  0.00     0.033 A 
ATOM      4  C4  UNL d   1       0.962  -1.610  -0.745  0.00  0.00    -0.042 A 
ATOM      5  C5  UNL d   1       2.118  -1.467  -1.504  0.00  0.00     0.033 A 
ATOM      6  C6  UNL d   1       2.489  -0.207  -1.982  0.00  0.00    -0.057 A 
ENDROOT
BRANCH   1   7
ATOM      7  N   UNL d   1       2.098   2.145  -2.299  0.00  0.00    -0.732 N 
ATOM      8  C   UNL d   1       1.097   3.114  -2.690  0.00  0.00     0.284 C 
ATOM      9  H3  UNL d   1       2.925   2.552  -1.867  0.00  0.00     0.395 HD
ENDBRANCH   1   7
TORSDOF 1
ENDMDL
