MODEL 1
REMARK minimizedAffinity -1.66833305
REMARK minimizedRMSD -1
REMARK  1 active torsions:
REMARK  status: ('A' for Active; 'I' for Inactive)
REMARK    1  A    between atoms: N_2  and  C1_3 
ROOT
ATOM      1  C1  UNL d   1      -2.598  -1.115   3.662  0.00  0.00     0.143 A 
ATOM      2  C2  UNL d   1      -2.015  -0.989   2.397  0.00  0.00    -0.057 A 
ATOM      3  C3  UNL d   1      -1.610   0.258   1.904  0.00  0.00     0.033 A 
ATOM      4  C4  UNL d   1      -1.808   1.408   2.661  0.00  0.00    -0.042 A 
ATOM      5  C5  UNL d   1      -2.408   1.310   3.911  0.00  0.00     0.033 A 
ATOM      6  C6  UNL d   1      -2.804   0.062   4.400  0.00  0.00    -0.057 A 
ENDROOT
BRANCH   1   7
ATOM      7  N   UNL d   1      -3.111  -2.312   4.167  0.00  0.00    -0.732 N 
ATOM      8  C   UNL d   1      -4.394  -2.341   4.835  0.00  0.00     0.284 C 
ATOM      9  H3  UNL d   1      -2.951  -3.098   3.540  0.00  0.00     0.395 HD
ENDBRANCH   1   7
TORSDOF 1
ENDMDL
