MODEL 1
REMARK minimizedAffinity -4.72469139
REMARK minimizedRMSD -1
REMARK  1 active torsions:
REMARK  status: ('A' for Active; 'I' for Inactive)
REMARK    1  A    between atoms: N_2  and  C1_3 
ROOT
ATOM      1  C1  UNL d   1       0.532  -0.492  -0.268  0.00  0.00     0.143 A 
ATOM      2  C2  UNL d   1       1.065  -1.572  -0.980  0.00  0.00    -0.057 A 
ATOM      3  C3  UNL d   1       2.051  -1.382  -1.956  0.00  0.00     0.033 A 
ATOM      4  C4  UNL d   1       2.501  -0.101  -2.259  0.00  0.00    -0.042 A 
ATOM      5  C5  UNL d   1       1.967   0.989  -1.581  0.00  0.00     0.033 A 
ATOM      6  C6  UNL d   1       0.988   0.793  -0.603  0.00  0.00    -0.057 A 
ENDROOT
BRANCH   1   7
ATOM      7  N   UNL d   1      -0.520  -0.606   0.645  0.00  0.00    -0.732 N 
ATOM      8  C   UNL d   1      -1.077   0.571   1.278  0.00  0.00     0.284 C 
ATOM      9  H3  UNL d   1      -1.215  -1.289   0.353  0.00  0.00     0.395 HD
ENDBRANCH   1   7
TORSDOF 1
ENDMDL
