MODEL 1
REMARK minimizedAffinity -5.28110647
REMARK minimizedRMSD -1
REMARK  1 active torsions:
REMARK  status: ('A' for Active; 'I' for Inactive)
REMARK    1  A    between atoms: N_2  and  C1_3 
ROOT
ATOM      1  C1  UNL d   1      -2.723   0.236   2.742  0.00  0.00     0.143 A 
ATOM      2  C2  UNL d   1      -3.996   0.522   3.246  0.00  0.00    -0.057 A 
ATOM      3  C3  UNL d   1      -4.727  -0.436   3.960  0.00  0.00     0.033 A 
ATOM      4  C4  UNL d   1      -4.207  -1.711   4.157  0.00  0.00    -0.042 A 
ATOM      5  C5  UNL d   1      -2.954  -2.026   3.643  0.00  0.00     0.033 A 
ATOM      6  C6  UNL d   1      -2.226  -1.063   2.938  0.00  0.00    -0.057 A 
ENDROOT
BRANCH   1   7
ATOM      7  N   UNL d   1      -1.988   1.113   1.941  0.00  0.00    -0.732 N 
ATOM      8  C   UNL d   1      -1.754   0.815   0.544  0.00  0.00     0.284 C 
ATOM      9  H3  UNL d   1      -2.213   2.088   2.125  0.00  0.00     0.395 HD
ENDBRANCH   1   7
TORSDOF 1
ENDMDL
