MODEL 1
REMARK minimizedAffinity 0.221641436
REMARK minimizedRMSD -1
REMARK  1 active torsions:
REMARK  status: ('A' for Active; 'I' for Inactive)
REMARK    1  A    between atoms: N_2  and  C1_3 
ROOT
ATOM      1  C1  UNL d   1      -0.102   0.226  -1.580  0.00  0.00     0.143 A 
ATOM      2  C2  UNL d   1       0.945  -0.341  -2.315  0.00  0.00    -0.057 A 
ATOM      3  C3  UNL d   1       1.583  -1.511  -1.886  0.00  0.00     0.033 A 
ATOM      4  C4  UNL d   1       1.202  -2.121  -0.695  0.00  0.00    -0.042 A 
ATOM      5  C5  UNL d   1       0.181  -1.561   0.064  0.00  0.00     0.033 A 
ATOM      6  C6  UNL d   1      -0.457  -0.397  -0.373  0.00  0.00    -0.057 A 
ENDROOT
BRANCH   1   7
ATOM      7  N   UNL d   1      -0.710   1.441  -1.903  0.00  0.00    -0.732 N 
ATOM      8  C   UNL d   1       0.090   2.591  -2.269  0.00  0.00     0.284 C 
ATOM      9  H3  UNL d   1      -1.546   1.319  -2.470  0.00  0.00     0.395 HD
ENDBRANCH   1   7
TORSDOF 1
ENDMDL
