MODEL 1
REMARK minimizedAffinity 0.963264406
REMARK minimizedRMSD -1
REMARK  0 active torsions:
REMARK  status: ('A' for Active; 'I' for Inactive)
ROOT
ATOM      1  C4' PXY d   1      -1.486   0.224  -4.773  0.00  0.00     0.077 C 
ATOM      2  C1' PXY d   1      -4.456   3.295  -0.879  0.00  0.00     0.077 C 
ATOM      3  C1  PXY d   1      -3.683   2.497  -1.910  0.00  0.00    -0.082 A 
ATOM      4  C2  PXY d   1      -3.245   1.286  -1.605  0.00  0.00     0.003 A 
ATOM      5  C3  PXY d   1      -2.517   0.563  -2.515  0.00  0.00     0.003 A 
ATOM      6  C4  PXY d   1      -2.279   1.063  -3.767  0.00  0.00    -0.082 A 
ATOM      7  C5  PXY d   1      -2.732   2.293  -4.089  0.00  0.00     0.003 A 
ATOM      8  C6  PXY d   1      -3.434   3.028  -3.138  0.00  0.00     0.003 A 
ENDROOT
TORSDOF 0
ENDMDL
