MODEL 1
REMARK minimizedAffinity -2.89082742
REMARK minimizedRMSD -1
REMARK  0 active torsions:
REMARK  status: ('A' for Active; 'I' for Inactive)
ROOT
ATOM      1  C4' PXY d   1      -2.494  -0.243  -2.269  0.00  0.00     0.077 C 
ATOM      2  C1' PXY d   1      -2.874   5.249  -4.031  0.00  0.00     0.077 C 
ATOM      3  C1  PXY d   1      -2.787   3.808  -3.568  0.00  0.00    -0.082 A 
ATOM      4  C2  PXY d   1      -1.679   3.372  -2.990  0.00  0.00     0.003 A 
ATOM      5  C3  PXY d   1      -1.572   2.064  -2.595  0.00  0.00     0.003 A 
ATOM      6  C4  PXY d   1      -2.629   1.206  -2.744  0.00  0.00    -0.082 A 
ATOM      7  C5  PXY d   1      -3.767   1.646  -3.322  0.00  0.00     0.003 A 
ATOM      8  C6  PXY d   1      -3.840   2.967  -3.755  0.00  0.00     0.003 A 
ENDROOT
TORSDOF 0
ENDMDL
