MODEL 1
REMARK minimizedAffinity 2.67396092
REMARK minimizedRMSD -1
REMARK  0 active torsions:
REMARK  status: ('A' for Active; 'I' for Inactive)
ROOT
ATOM      1  C4' PXY d   1      -4.626   3.286  -0.841  0.00  0.00     0.077 C 
ATOM      2  C1' PXY d   1      -2.210   4.273  -5.999  0.00  0.00     0.077 C 
ATOM      3  C1  PXY d   1      -2.838   4.025  -4.641  0.00  0.00    -0.082 A 
ATOM      4  C2  PXY d   1      -3.199   2.798  -4.302  0.00  0.00     0.003 A 
ATOM      5  C3  PXY d   1      -3.797   2.561  -3.091  0.00  0.00     0.003 A 
ATOM      6  C4  PXY d   1      -3.980   3.581  -2.197  0.00  0.00    -0.082 A 
ATOM      7  C5  PXY d   1      -3.604   4.834  -2.531  0.00  0.00     0.003 A 
ATOM      8  C6  PXY d   1      -3.036   5.061  -3.782  0.00  0.00     0.003 A 
ENDROOT
TORSDOF 0
ENDMDL
