MODEL 1
REMARK minimizedAffinity 2.21941686
REMARK minimizedRMSD -1
REMARK  0 active torsions:
REMARK  status: ('A' for Active; 'I' for Inactive)
ROOT
ATOM      1  C4' PXY d   1      -2.278   1.523  -1.242  0.00  0.00     0.077 C 
ATOM      2  C1' PXY d   1      -4.369   6.000  -4.243  0.00  0.00     0.077 C 
ATOM      3  C1  PXY d   1      -3.827   4.830  -3.445  0.00  0.00    -0.082 A 
ATOM      4  C2  PXY d   1      -2.707   4.239  -3.830  0.00  0.00     0.003 A 
ATOM      5  C3  PXY d   1      -2.220   3.160  -3.139  0.00  0.00     0.003 A 
ATOM      6  C4  PXY d   1      -2.857   2.714  -2.012  0.00  0.00    -0.082 A 
ATOM      7  C5  PXY d   1      -3.994   3.318  -1.607  0.00  0.00     0.003 A 
ATOM      8  C6  PXY d   1      -4.494   4.386  -2.346  0.00  0.00     0.003 A 
ENDROOT
TORSDOF 0
ENDMDL
