MODEL 1
REMARK minimizedAffinity -0.676003754
REMARK minimizedRMSD -1
REMARK  0 active torsions:
REMARK  status: ('A' for Active; 'I' for Inactive)
ROOT
ATOM      1  C4' PXY d   1       0.149  -1.950   1.451  0.00  0.00     0.077 C 
ATOM      2  C1' PXY d   1      -4.182   0.324   4.532  0.00  0.00     0.077 C 
ATOM      3  C1  PXY d   1      -3.055  -0.277   3.716  0.00  0.00    -0.082 A 
ATOM      4  C2  PXY d   1      -1.893  -0.533   4.294  0.00  0.00     0.003 A 
ATOM      5  C3  PXY d   1      -0.853  -1.047   3.563  0.00  0.00     0.003 A 
ATOM      6  C4  PXY d   1      -1.020  -1.352   2.239  0.00  0.00    -0.082 A 
ATOM      7  C5  PXY d   1      -2.207  -1.104   1.644  0.00  0.00     0.003 A 
ATOM      8  C6  PXY d   1      -3.237  -0.543   2.394  0.00  0.00     0.003 A 
ENDROOT
TORSDOF 0
ENDMDL
