MODEL 1
REMARK minimizedAffinity -2.87315106
REMARK minimizedRMSD -1
REMARK  0 active torsions:
REMARK  status: ('A' for Active; 'I' for Inactive)
ROOT
ATOM      1  C4' PXY d   1      -3.403   5.050  -3.687  0.00  0.00     0.077 C 
ATOM      2  C1' PXY d   1      -0.662   0.200  -2.145  0.00  0.00     0.077 C 
ATOM      3  C1  PXY d   1      -1.372   1.478  -2.542  0.00  0.00    -0.082 A 
ATOM      4  C2  PXY d   1      -2.654   1.441  -2.868  0.00  0.00     0.003 A 
ATOM      5  C3  PXY d   1      -3.303   2.583  -3.262  0.00  0.00     0.003 A 
ATOM      6  C4  PXY d   1      -2.648   3.785  -3.270  0.00  0.00    -0.082 A 
ATOM      7  C5  PXY d   1      -1.342   3.833  -2.928  0.00  0.00     0.003 A 
ATOM      8  C6  PXY d   1      -0.691   2.656  -2.572  0.00  0.00     0.003 A 
ENDROOT
TORSDOF 0
ENDMDL
