MODEL 1
REMARK minimizedAffinity -4.36071777
REMARK minimizedRMSD -1
REMARK  0 active torsions:
REMARK  status: ('A' for Active; 'I' for Inactive)
ROOT
ATOM      1  C4' PXY d   1      -2.738   4.796  -3.782  0.00  0.00     0.077 C 
ATOM      2  C1' PXY d   1      -1.574  -0.325  -1.365  0.00  0.00     0.077 C 
ATOM      3  C1  PXY d   1      -1.875   1.024  -1.989  0.00  0.00    -0.082 A 
ATOM      4  C2  PXY d   1      -2.816   1.122  -2.913  0.00  0.00     0.003 A 
ATOM      5  C3  PXY d   1      -3.079   2.328  -3.510  0.00  0.00     0.003 A 
ATOM      6  C4  PXY d   1      -2.407   3.456  -3.119  0.00  0.00    -0.082 A 
ATOM      7  C5  PXY d   1      -1.453   3.365  -2.169  0.00  0.00     0.003 A 
ATOM      8  C6  PXY d   1      -1.173   2.124  -1.604  0.00  0.00     0.003 A 
ENDROOT
TORSDOF 0
ENDMDL
