MODEL 1
REMARK minimizedAffinity -2.51302457
REMARK minimizedRMSD -1
REMARK  0 active torsions:
REMARK  status: ('A' for Active; 'I' for Inactive)
ROOT
ATOM      1  C   UNL d   1       1.821  -0.115  -2.221  0.00  0.00     0.124 A 
ATOM      2  C1  UNL d   1       1.030   1.026  -2.215  0.00  0.00     0.062 A 
ATOM      3  C2  UNL d   1      -0.037   1.134  -1.328  0.00  0.00     0.162 A 
ATOM      4  C3  UNL d   1      -0.320   0.098  -0.438  0.00  0.00    -0.034 A 
ATOM      5  C4  UNL d   1       0.479  -1.047  -0.450  0.00  0.00     0.162 A 
ATOM      6  C5  UNL d   1       1.545  -1.150  -1.339  0.00  0.00     0.062 A 
ATOM      7  F   UNL d   1       2.307  -2.253  -1.343  0.00  0.00    -0.097 F 
ATOM      8  F1  UNL d   1       0.235  -2.062   0.392  0.00  0.00    -0.096 F 
ATOM      9  I   UNL d   1      -1.915   0.255   0.890  0.00  0.00    -0.060 I 
ATOM     10  F2  UNL d   1      -0.784   2.248  -1.345  0.00  0.00    -0.096 F 
ATOM     11  F3  UNL d   1       1.294   2.027  -3.067  0.00  0.00    -0.097 F 
ATOM     12  F4  UNL d   1       2.846  -0.216  -3.076  0.00  0.00    -0.092 F 
ENDROOT
TORSDOF 0
ENDMDL
