MODEL 1
REMARK minimizedAffinity 1.52355504
REMARK minimizedRMSD -1
REMARK  0 active torsions:
REMARK  status: ('A' for Active; 'I' for Inactive)
ROOT
ATOM      1  C   UNL d   1       1.478   0.055  -2.098  0.00  0.00     0.124 A 
ATOM      2  C1  UNL d   1       0.630   1.149  -2.001  0.00  0.00     0.062 A 
ATOM      3  C2  UNL d   1      -0.329   1.205  -0.993  0.00  0.00     0.162 A 
ATOM      4  C3  UNL d   1      -0.443   0.164  -0.072  0.00  0.00    -0.034 A 
ATOM      5  C4  UNL d   1       0.413  -0.934  -0.176  0.00  0.00     0.162 A 
ATOM      6  C5  UNL d   1       1.369  -0.985  -1.186  0.00  0.00     0.062 A 
ATOM      7  F   UNL d   1       2.188  -2.043  -1.277  0.00  0.00    -0.097 F 
ATOM      8  F1  UNL d   1       0.331  -1.952   0.692  0.00  0.00    -0.096 F 
ATOM      9  I   UNL d   1      -1.874   0.244   1.436  0.00  0.00    -0.060 I 
ATOM     10  F2  UNL d   1      -1.135   2.275  -0.924  0.00  0.00    -0.096 F 
ATOM     11  F3  UNL d   1       0.732   2.155  -2.882  0.00  0.00    -0.097 F 
ATOM     12  F4  UNL d   1       2.398   0.003  -3.069  0.00  0.00    -0.092 F 
ENDROOT
TORSDOF 0
ENDMDL
