MODEL 1
REMARK minimizedAffinity -1.58893108
REMARK minimizedRMSD -1
REMARK  0 active torsions:
REMARK  status: ('A' for Active; 'I' for Inactive)
ROOT
ATOM      1  C   UNL d   1      -1.916   0.720  -0.215  0.00  0.00     0.124 A 
ATOM      2  C1  UNL d   1      -1.518  -0.535   0.223  0.00  0.00     0.062 A 
ATOM      3  C2  UNL d   1      -0.196  -0.942   0.072  0.00  0.00     0.162 A 
ATOM      4  C3  UNL d   1       0.740  -0.092  -0.518  0.00  0.00    -0.034 A 
ATOM      5  C4  UNL d   1       0.331   1.169  -0.956  0.00  0.00     0.162 A 
ATOM      6  C5  UNL d   1      -0.992   1.571  -0.804  0.00  0.00     0.062 A 
ATOM      7  F   UNL d   1      -1.375   2.785  -1.227  0.00  0.00    -0.097 F 
ATOM      8  F1  UNL d   1       1.204   2.012  -1.528  0.00  0.00    -0.096 F 
ATOM      9  I   UNL d   1       2.718  -0.696  -0.745  0.00  0.00    -0.060 I 
ATOM     10  F2  UNL d   1       0.161  -2.161   0.504  0.00  0.00    -0.096 F 
ATOM     11  F3  UNL d   1      -2.410  -1.359   0.791  0.00  0.00    -0.097 F 
ATOM     12  F4  UNL d   1      -3.190   1.109  -0.070  0.00  0.00    -0.092 F 
ENDROOT
TORSDOF 0
ENDMDL
