MODEL 1
REMARK minimizedAffinity -0.93830061
REMARK minimizedRMSD -1
REMARK  0 active torsions:
REMARK  status: ('A' for Active; 'I' for Inactive)
ROOT
ATOM      1  C   UNL d   1       1.391  -1.905  -0.726  0.00  0.00     0.124 A 
ATOM      2  C1  UNL d   1       0.109  -2.118  -0.239  0.00  0.00     0.062 A 
ATOM      3  C2  UNL d   1      -0.654  -1.046   0.216  0.00  0.00     0.162 A 
ATOM      4  C3  UNL d   1      -0.138   0.249   0.184  0.00  0.00    -0.034 A 
ATOM      5  C4  UNL d   1       1.153   0.455  -0.306  0.00  0.00     0.162 A 
ATOM      6  C5  UNL d   1       1.911  -0.619  -0.759  0.00  0.00     0.062 A 
ATOM      7  F   UNL d   1       3.150  -0.411  -1.230  0.00  0.00    -0.097 F 
ATOM      8  F1  UNL d   1       1.680   1.688  -0.351  0.00  0.00    -0.096 F 
ATOM      9  I   UNL d   1      -1.276   1.854   0.863  0.00  0.00    -0.060 I 
ATOM     10  F2  UNL d   1      -1.890  -1.282   0.681  0.00  0.00    -0.096 F 
ATOM     11  F3  UNL d   1      -0.396  -3.360  -0.205  0.00  0.00    -0.097 F 
ATOM     12  F4  UNL d   1       2.123  -2.938  -1.162  0.00  0.00    -0.092 F 
ENDROOT
TORSDOF 0
ENDMDL
