MODEL 1
REMARK minimizedAffinity -2.91452599
REMARK minimizedRMSD -1
REMARK  0 active torsions:
REMARK  status: ('A' for Active; 'I' for Inactive)
ROOT
ATOM      1  C   UNL d   1       2.538   0.294  -2.131  0.00  0.00     0.124 A 
ATOM      2  C1  UNL d   1       2.115  -0.806  -1.398  0.00  0.00     0.062 A 
ATOM      3  C2  UNL d   1       0.918  -0.757  -0.690  0.00  0.00     0.162 A 
ATOM      4  C3  UNL d   1       0.134   0.397  -0.712  0.00  0.00    -0.034 A 
ATOM      5  C4  UNL d   1       0.567   1.499  -1.451  0.00  0.00     0.162 A 
ATOM      6  C5  UNL d   1       1.764   1.445  -2.157  0.00  0.00     0.062 A 
ATOM      7  F   UNL d   1       2.171   2.509  -2.864  0.00  0.00    -0.097 F 
ATOM      8  F1  UNL d   1      -0.162   2.624  -1.494  0.00  0.00    -0.096 F 
ATOM      9  I   UNL d   1      -1.657   0.474   0.345  0.00  0.00    -0.060 I 
ATOM     10  F2  UNL d   1       0.533  -1.835   0.010  0.00  0.00    -0.096 F 
ATOM     11  F3  UNL d   1       2.862  -1.920  -1.371  0.00  0.00    -0.097 F 
ATOM     12  F4  UNL d   1       3.691   0.244  -2.811  0.00  0.00    -0.092 F 
ENDROOT
TORSDOF 0
ENDMDL
