MODEL 1
REMARK minimizedAffinity -2.95967984
REMARK minimizedRMSD -1
REMARK  0 active torsions:
REMARK  status: ('A' for Active; 'I' for Inactive)
ROOT
ATOM      1  C   UNL d   1       2.610   0.625  -1.104  0.00  0.00     0.124 A 
ATOM      2  C1  UNL d   1       1.646   1.623  -1.062  0.00  0.00     0.062 A 
ATOM      3  C2  UNL d   1       0.419   1.387  -0.448  0.00  0.00     0.162 A 
ATOM      4  C3  UNL d   1       0.149   0.146   0.129  0.00  0.00    -0.034 A 
ATOM      5  C4  UNL d   1       1.122  -0.853   0.082  0.00  0.00     0.162 A 
ATOM      6  C5  UNL d   1       2.347  -0.612  -0.532  0.00  0.00     0.062 A 
ATOM      7  F   UNL d   1       3.276  -1.578  -0.571  0.00  0.00    -0.097 F 
ATOM      8  F1  UNL d   1       0.895  -2.057   0.628  0.00  0.00    -0.096 F 
ATOM      9  I   UNL d   1      -1.685  -0.211   1.047  0.00  0.00    -0.060 I 
ATOM     10  F2  UNL d   1      -0.493   2.370  -0.423  0.00  0.00    -0.096 F 
ATOM     11  F3  UNL d   1       1.898   2.819  -1.614  0.00  0.00    -0.097 F 
ATOM     12  F4  UNL d   1       3.789   0.854  -1.695  0.00  0.00    -0.092 F 
ENDROOT
TORSDOF 0
ENDMDL
