MODEL 1
REMARK minimizedAffinity -2.59695387
REMARK minimizedRMSD -1
REMARK  0 active torsions:
REMARK  status: ('A' for Active; 'I' for Inactive)
ROOT
ATOM      1  C   UNL d   1       0.716  -0.740  -0.740  0.00  0.00     0.124 A 
ATOM      2  C1  UNL d   1      -0.472  -1.198  -0.187  0.00  0.00     0.062 A 
ATOM      3  C2  UNL d   1      -1.141  -0.434   0.764  0.00  0.00     0.162 A 
ATOM      4  C3  UNL d   1      -0.625   0.797   1.169  0.00  0.00    -0.034 A 
ATOM      5  C4  UNL d   1       0.571   1.250   0.609  0.00  0.00     0.162 A 
ATOM      6  C5  UNL d   1       1.236   0.483  -0.342  0.00  0.00     0.062 A 
ATOM      7  F   UNL d   1       2.384   0.927  -0.875  0.00  0.00    -0.097 F 
ATOM      8  F1  UNL d   1       1.095   2.430   0.975  0.00  0.00    -0.096 F 
ATOM      9  I   UNL d   1      -1.623   1.942   2.591  0.00  0.00    -0.060 I 
ATOM     10  F2  UNL d   1      -2.287  -0.902   1.282  0.00  0.00    -0.096 F 
ATOM     11  F3  UNL d   1      -0.975  -2.380  -0.570  0.00  0.00    -0.097 F 
ATOM     12  F4  UNL d   1       1.359  -1.478  -1.654  0.00  0.00    -0.092 F 
ENDROOT
TORSDOF 0
ENDMDL
