MODEL 1
REMARK minimizedAffinity -2.79937649
REMARK minimizedRMSD -1
REMARK  0 active torsions:
REMARK  status: ('A' for Active; 'I' for Inactive)
ROOT
ATOM      1  C   UNL d   1      -1.545   0.722  -0.630  0.00  0.00     0.124 A 
ATOM      2  C1  UNL d   1      -1.090  -0.578  -0.456  0.00  0.00     0.062 A 
ATOM      3  C2  UNL d   1       0.252  -0.883  -0.663  0.00  0.00     0.162 A 
ATOM      4  C3  UNL d   1       1.150   0.113  -1.045  0.00  0.00    -0.034 A 
ATOM      5  C4  UNL d   1       0.685   1.418  -1.219  0.00  0.00     0.162 A 
ATOM      6  C5  UNL d   1      -0.657   1.718  -1.011  0.00  0.00     0.062 A 
ATOM      7  F   UNL d   1      -1.095   2.975  -1.180  0.00  0.00    -0.097 F 
ATOM      8  F1  UNL d   1       1.521   2.400  -1.586  0.00  0.00    -0.096 F 
ATOM      9  I   UNL d   1       3.157  -0.340  -1.355  0.00  0.00    -0.060 I 
ATOM     10  F2  UNL d   1       0.664  -2.148  -0.488  0.00  0.00    -0.096 F 
ATOM     11  F3  UNL d   1      -1.946  -1.542  -0.089  0.00  0.00    -0.097 F 
ATOM     12  F4  UNL d   1      -2.837   1.013  -0.431  0.00  0.00    -0.092 F 
ENDROOT
TORSDOF 0
ENDMDL
