MODEL 1
REMARK minimizedAffinity -0.942614377
REMARK minimizedRMSD -1
REMARK  0 active torsions:
REMARK  status: ('A' for Active; 'I' for Inactive)
ROOT
ATOM      1  C   UNL d   1      -0.959  -0.315   0.141  0.00  0.00     0.124 A 
ATOM      2  C1  UNL d   1      -0.237   0.850  -0.080  0.00  0.00     0.062 A 
ATOM      3  C2  UNL d   1       1.076   0.784  -0.535  0.00  0.00     0.162 A 
ATOM      4  C3  UNL d   1       1.677  -0.452  -0.774  0.00  0.00    -0.034 A 
ATOM      5  C4  UNL d   1       0.945  -1.619  -0.549  0.00  0.00     0.162 A 
ATOM      6  C5  UNL d   1      -0.368  -1.548  -0.094  0.00  0.00     0.062 A 
ATOM      7  F   UNL d   1      -1.064  -2.674   0.119  0.00  0.00    -0.097 F 
ATOM      8  F1  UNL d   1       1.491  -2.824  -0.769  0.00  0.00    -0.096 F 
ATOM      9  I   UNL d   1       3.641  -0.555  -1.456  0.00  0.00    -0.060 I 
ATOM     10  F2  UNL d   1       1.750   1.926  -0.740  0.00  0.00    -0.096 F 
ATOM     11  F3  UNL d   1      -0.806   2.043   0.147  0.00  0.00    -0.097 F 
ATOM     12  F4  UNL d   1      -2.222  -0.248   0.580  0.00  0.00    -0.092 F 
ENDROOT
TORSDOF 0
ENDMDL
