MODEL 1
REMARK minimizedAffinity 4.10675812
REMARK minimizedRMSD -1
REMARK  0 active torsions:
REMARK  status: ('A' for Active; 'I' for Inactive)
ROOT
ATOM      1  C   UNL d   1      -2.215   1.098   3.347  0.00  0.00     0.124 A 
ATOM      2  C1  UNL d   1      -2.608   0.313   2.272  0.00  0.00     0.062 A 
ATOM      3  C2  UNL d   1      -1.844   0.285   1.109  0.00  0.00     0.162 A 
ATOM      4  C3  UNL d   1      -0.678   1.045   1.014  0.00  0.00    -0.034 A 
ATOM      5  C4  UNL d   1      -0.289   1.833   2.099  0.00  0.00     0.162 A 
ATOM      6  C5  UNL d   1      -1.056   1.857   3.259  0.00  0.00     0.062 A 
ATOM      7  F   UNL d   1      -0.675   2.617   4.297  0.00  0.00    -0.097 F 
ATOM      8  F1  UNL d   1       0.826   2.576   2.042  0.00  0.00    -0.096 F 
ATOM      9  I   UNL d   1       0.468   1.006  -0.723  0.00  0.00    -0.060 I 
ATOM     10  F2  UNL d   1      -2.247  -0.483   0.086  0.00  0.00    -0.096 F 
ATOM     11  F3  UNL d   1      -3.727  -0.421   2.353  0.00  0.00    -0.097 F 
ATOM     12  F4  UNL d   1      -2.952   1.124   4.464  0.00  0.00    -0.092 F 
ENDROOT
TORSDOF 0
ENDMDL
