MODEL 1
REMARK minimizedAffinity -2.97257948
REMARK minimizedRMSD -1
REMARK  0 active torsions:
REMARK  status: ('A' for Active; 'I' for Inactive)
ROOT
ATOM      1  C   UNL d   1      -0.911  -0.226   0.660  0.00  0.00     0.124 A 
ATOM      2  C1  UNL d   1      -0.365   0.979   0.243  0.00  0.00     0.062 A 
ATOM      3  C2  UNL d   1       0.778   0.992  -0.551  0.00  0.00     0.162 A 
ATOM      4  C3  UNL d   1       1.382  -0.205  -0.935  0.00  0.00    -0.034 A 
ATOM      5  C4  UNL d   1       0.827  -1.414  -0.511  0.00  0.00     0.162 A 
ATOM      6  C5  UNL d   1      -0.315  -1.421   0.283  0.00  0.00     0.062 A 
ATOM      7  F   UNL d   1      -0.842  -2.587   0.685  0.00  0.00    -0.097 F 
ATOM      8  F1  UNL d   1       1.382  -2.583  -0.862  0.00  0.00    -0.096 F 
ATOM      9  I   UNL d   1       3.091  -0.190  -2.123  0.00  0.00    -0.060 I 
ATOM     10  F2  UNL d   1       1.284   2.172  -0.940  0.00  0.00    -0.096 F 
ATOM     11  F3  UNL d   1      -0.938   2.135   0.607  0.00  0.00    -0.097 F 
ATOM     12  F4  UNL d   1      -2.010  -0.236   1.425  0.00  0.00    -0.092 F 
ENDROOT
TORSDOF 0
ENDMDL
