MODEL 1
REMARK minimizedAffinity -0.730471849
REMARK minimizedRMSD -1
REMARK  0 active torsions:
REMARK  status: ('A' for Active; 'I' for Inactive)
ROOT
ATOM      1  C   UNL d   1       1.315  -0.437  -1.348  0.00  0.00     0.124 A 
ATOM      2  C1  UNL d   1       0.594   0.746  -1.260  0.00  0.00     0.062 A 
ATOM      3  C2  UNL d   1      -0.155   1.026  -0.122  0.00  0.00     0.162 A 
ATOM      4  C3  UNL d   1      -0.187   0.122   0.940  0.00  0.00    -0.034 A 
ATOM      5  C4  UNL d   1       0.540  -1.066   0.844  0.00  0.00     0.162 A 
ATOM      6  C5  UNL d   1       1.287  -1.342  -0.296  0.00  0.00     0.062 A 
ATOM      7  F   UNL d   1       1.983  -2.485  -0.379  0.00  0.00    -0.097 F 
ATOM      8  F1  UNL d   1       0.531  -1.958   1.846  0.00  0.00    -0.096 F 
ATOM      9  I   UNL d   1      -1.307   0.537   2.645  0.00  0.00    -0.060 I 
ATOM     10  F2  UNL d   1      -0.842   2.177  -0.064  0.00  0.00    -0.096 F 
ATOM     11  F3  UNL d   1       0.619   1.621  -2.276  0.00  0.00    -0.097 F 
ATOM     12  F4  UNL d   1       2.035  -0.704  -2.445  0.00  0.00    -0.092 F 
ENDROOT
TORSDOF 0
ENDMDL
