MODEL 1
REMARK minimizedAffinity -5.20933008
REMARK minimizedRMSD -1
REMARK  0 active torsions:
REMARK  status: ('A' for Active; 'I' for Inactive)
ROOT
ATOM      1  C   UNL d   1       2.134   0.563  -1.866  0.00  0.00     0.124 A 
ATOM      2  C1  UNL d   1       1.153   1.536  -2.000  0.00  0.00     0.062 A 
ATOM      3  C2  UNL d   1       0.009   1.490  -1.209  0.00  0.00     0.162 A 
ATOM      4  C3  UNL d   1      -0.161   0.467  -0.275  0.00  0.00    -0.034 A 
ATOM      5  C4  UNL d   1       0.830  -0.508  -0.147  0.00  0.00     0.162 A 
ATOM      6  C5  UNL d   1       1.971  -0.458  -0.940  0.00  0.00     0.062 A 
ATOM      7  F   UNL d   1       2.918  -1.399  -0.810  0.00  0.00    -0.097 F 
ATOM      8  F1  UNL d   1       0.698  -1.505   0.740  0.00  0.00    -0.096 F 
ATOM      9  I   UNL d   1      -1.870   0.395   0.909  0.00  0.00    -0.060 I 
ATOM     10  F2  UNL d   1      -0.922   2.443  -1.360  0.00  0.00    -0.096 F 
ATOM     11  F3  UNL d   1       1.308   2.522  -2.895  0.00  0.00    -0.097 F 
ATOM     12  F4  UNL d   1       3.233   0.609  -2.630  0.00  0.00    -0.092 F 
ENDROOT
TORSDOF 0
ENDMDL
