MODEL 1
REMARK minimizedAffinity -1.65965319
REMARK minimizedRMSD -1
REMARK  0 active torsions:
REMARK  status: ('A' for Active; 'I' for Inactive)
ROOT
ATOM      1  C   UNL d   1       1.322   1.802  -1.177  0.00  0.00     0.124 A 
ATOM      2  C1  UNL d   1       2.100   0.691  -0.881  0.00  0.00     0.062 A 
ATOM      3  C2  UNL d   1       1.496  -0.511  -0.522  0.00  0.00     0.162 A 
ATOM      4  C3  UNL d   1       0.106  -0.608  -0.457  0.00  0.00    -0.034 A 
ATOM      5  C4  UNL d   1      -0.670   0.514  -0.755  0.00  0.00     0.162 A 
ATOM      6  C5  UNL d   1      -0.061   1.713  -1.114  0.00  0.00     0.062 A 
ATOM      7  F   UNL d   1      -0.814   2.785  -1.399  0.00  0.00    -0.097 F 
ATOM      8  F1  UNL d   1      -2.009   0.456  -0.703  0.00  0.00    -0.096 F 
ATOM      9  I   UNL d   1      -0.801  -2.403   0.079  0.00  0.00    -0.060 I 
ATOM     10  F2  UNL d   1       2.272  -1.568  -0.242  0.00  0.00    -0.096 F 
ATOM     11  F3  UNL d   1       3.437   0.775  -0.941  0.00  0.00    -0.097 F 
ATOM     12  F4  UNL d   1       1.906   2.957  -1.521  0.00  0.00    -0.092 F 
ENDROOT
TORSDOF 0
ENDMDL
