MODEL 1
REMARK minimizedAffinity 3.55494046
REMARK minimizedRMSD -1
REMARK  0 active torsions:
REMARK  status: ('A' for Active; 'I' for Inactive)
ROOT
ATOM      1  C2' OXE d   1       0.372   0.834  -2.142  0.00  0.00     0.078 C 
ATOM      2  C1' OXE d   1      -1.005  -0.770  -0.294  0.00  0.00     0.078 C 
ATOM      3  C1  OXE d   1       0.455  -0.492  -0.035  0.00  0.00    -0.078 A 
ATOM      4  C2  OXE d   1       1.132   0.255  -0.968  0.00  0.00    -0.078 A 
ATOM      5  C3  OXE d   1       2.466   0.586  -0.750  0.00  0.00     0.003 A 
ATOM      6  C4  OXE d   1       3.165   0.038   0.333  0.00  0.00    -0.002 A 
ATOM      7  C5  OXE d   1       2.504  -0.758   1.274  0.00  0.00    -0.002 A 
ATOM      8  C6  OXE d   1       1.142  -0.997   1.129  0.00  0.00     0.003 A 
ENDROOT
TORSDOF 0
ENDMDL
