MODEL 1
REMARK minimizedAffinity 0.454646647
REMARK minimizedRMSD -1
REMARK  0 active torsions:
REMARK  status: ('A' for Active; 'I' for Inactive)
ROOT
ATOM      1  C2' OXE d   1      -0.549  -0.897  -0.733  0.00  0.00     0.078 C 
ATOM      2  C1' OXE d   1       0.520  -0.102   1.737  0.00  0.00     0.078 C 
ATOM      3  C1  OXE d   1       1.476  -0.294   0.586  0.00  0.00    -0.078 A 
ATOM      4  C2  OXE d   1       0.950  -0.729  -0.606  0.00  0.00    -0.078 A 
ATOM      5  C3  OXE d   1       1.779  -0.870  -1.715  0.00  0.00     0.003 A 
ATOM      6  C4  OXE d   1       3.165  -0.721  -1.587  0.00  0.00    -0.002 A 
ATOM      7  C5  OXE d   1       3.727  -0.318  -0.371  0.00  0.00    -0.002 A 
ATOM      8  C6  OXE d   1       2.893  -0.060   0.712  0.00  0.00     0.003 A 
ENDROOT
TORSDOF 0
ENDMDL
