MODEL 1
REMARK minimizedAffinity -3.71680307
REMARK minimizedRMSD -1
REMARK  0 active torsions:
REMARK  status: ('A' for Active; 'I' for Inactive)
ROOT
ATOM      1  C2' OXE d   1      -0.959  -1.664   5.350  0.00  0.00     0.078 C 
ATOM      2  C1' OXE d   1      -3.487  -1.293   4.187  0.00  0.00     0.078 C 
ATOM      3  C1  OXE d   1      -2.327  -0.521   3.610  0.00  0.00    -0.078 A 
ATOM      4  C2  OXE d   1      -1.102  -0.674   4.215  0.00  0.00    -0.078 A 
ATOM      5  C3  OXE d   1       0.012  -0.027   3.689  0.00  0.00     0.003 A 
ATOM      6  C4  OXE d   1      -0.131   0.896   2.645  0.00  0.00    -0.002 A 
ATOM      7  C5  OXE d   1      -1.376   1.096   2.040  0.00  0.00    -0.002 A 
ATOM      8  C6  OXE d   1      -2.473   0.365   2.482  0.00  0.00     0.003 A 
ENDROOT
TORSDOF 0
ENDMDL
