MODEL 1
REMARK minimizedAffinity 5.40842485
REMARK minimizedRMSD -1
REMARK  0 active torsions:
REMARK  status: ('A' for Active; 'I' for Inactive)
ROOT
ATOM      1  C2' OXE d   1      -3.257  -0.204  -0.162  0.00  0.00     0.078 C 
ATOM      2  C1' OXE d   1      -3.194  -1.987   2.005  0.00  0.00     0.078 C 
ATOM      3  C1  OXE d   1      -2.500  -0.658   2.168  0.00  0.00    -0.078 A 
ATOM      4  C2  OXE d   1      -2.496   0.190   1.086  0.00  0.00    -0.078 A 
ATOM      5  C3  OXE d   1      -1.918   1.450   1.201  0.00  0.00     0.003 A 
ATOM      6  C4  OXE d   1      -1.207   1.802   2.355  0.00  0.00    -0.002 A 
ATOM      7  C5  OXE d   1      -1.165   0.938   3.454  0.00  0.00    -0.002 A 
ATOM      8  C6  OXE d   1      -1.841  -0.276   3.392  0.00  0.00     0.003 A 
ENDROOT
TORSDOF 0
ENDMDL
