MODEL 1
REMARK minimizedAffinity -0.704493761
REMARK minimizedRMSD -1
REMARK  0 active torsions:
REMARK  status: ('A' for Active; 'I' for Inactive)
ROOT
ATOM      1  C2' OXE d   1       1.479  -5.677  -2.640  0.00  0.00     0.078 C 
ATOM      2  C1' OXE d   1      -1.148  -5.714  -3.629  0.00  0.00     0.078 C 
ATOM      3  C1  OXE d   1      -0.361  -4.435  -3.770  0.00  0.00    -0.078 A 
ATOM      4  C2  OXE d   1       0.907  -4.412  -3.241  0.00  0.00    -0.078 A 
ATOM      5  C3  OXE d   1       1.696  -3.275  -3.392  0.00  0.00     0.003 A 
ATOM      6  C4  OXE d   1       1.156  -2.105  -3.940  0.00  0.00    -0.002 A 
ATOM      7  C5  OXE d   1      -0.147  -2.095  -4.449  0.00  0.00    -0.002 A 
ATOM      8  C6  OXE d   1      -0.903  -3.262  -4.410  0.00  0.00     0.003 A 
ENDROOT
TORSDOF 0
ENDMDL
