MODEL 1
REMARK minimizedAffinity 1.88047087
REMARK minimizedRMSD -1
REMARK  0 active torsions:
REMARK  status: ('A' for Active; 'I' for Inactive)
ROOT
ATOM      1  C2' OXE d   1      -3.586  -0.269  -1.138  0.00  0.00     0.078 C 
ATOM      2  C1' OXE d   1      -2.196  -2.271   0.256  0.00  0.00     0.078 C 
ATOM      3  C1  OXE d   1      -2.158  -0.870   0.813  0.00  0.00    -0.078 A 
ATOM      4  C2  OXE d   1      -2.802   0.112   0.099  0.00  0.00    -0.078 A 
ATOM      5  C3  OXE d   1      -2.843   1.412   0.596  0.00  0.00     0.003 A 
ATOM      6  C4  OXE d   1      -2.107   1.758   1.736  0.00  0.00    -0.002 A 
ATOM      7  C5  OXE d   1      -1.412   0.781   2.456  0.00  0.00    -0.002 A 
ATOM      8  C6  OXE d   1      -1.462  -0.542   2.032  0.00  0.00     0.003 A 
ENDROOT
TORSDOF 0
ENDMDL
