MODEL 1
REMARK minimizedAffinity 7.94323158
REMARK minimizedRMSD -1
REMARK  0 active torsions:
REMARK  status: ('A' for Active; 'I' for Inactive)
ROOT
ATOM      1  C2' OXE d   1      -2.332   2.331   1.888  0.00  0.00     0.078 C 
ATOM      2  C1' OXE d   1      -0.306   0.424   1.515  0.00  0.00     0.078 C 
ATOM      3  C1  OXE d   1      -1.594  -0.033   2.155  0.00  0.00    -0.078 A 
ATOM      4  C2  OXE d   1      -2.561   0.917   2.376  0.00  0.00    -0.078 A 
ATOM      5  C3  OXE d   1      -3.789   0.539   2.913  0.00  0.00     0.003 A 
ATOM      6  C4  OXE d   1      -3.989  -0.768   3.372  0.00  0.00    -0.002 A 
ATOM      7  C5  OXE d   1      -3.002  -1.743   3.192  0.00  0.00    -0.002 A 
ATOM      8  C6  OXE d   1      -1.817  -1.402   2.549  0.00  0.00     0.003 A 
ENDROOT
TORSDOF 0
ENDMDL
