MODEL 1
REMARK minimizedAffinity -2.03749728
REMARK minimizedRMSD -1
REMARK  0 active torsions:
REMARK  status: ('A' for Active; 'I' for Inactive)
ROOT
ATOM      1  C2' OXE d   1      -0.527  -0.041   2.292  0.00  0.00     0.078 C 
ATOM      2  C1' OXE d   1      -0.829  -1.643   0.007  0.00  0.00     0.078 C 
ATOM      3  C1  OXE d   1      -1.813  -0.519   0.213  0.00  0.00    -0.078 A 
ATOM      4  C2  OXE d   1      -1.686   0.231   1.358  0.00  0.00    -0.078 A 
ATOM      5  C3  OXE d   1      -2.534   1.314   1.570  0.00  0.00     0.003 A 
ATOM      6  C4  OXE d   1      -3.609   1.553   0.705  0.00  0.00    -0.002 A 
ATOM      7  C5  OXE d   1      -3.780   0.776  -0.446  0.00  0.00    -0.002 A 
ATOM      8  C6  OXE d   1      -2.868  -0.234  -0.728  0.00  0.00     0.003 A 
ENDROOT
TORSDOF 0
ENDMDL
