MODEL 1
REMARK minimizedAffinity -2.6310029
REMARK minimizedRMSD -1
REMARK  1 active torsions:
REMARK  status: ('A' for Active; 'I' for Inactive)
REMARK    1  A    between atoms: N_2  and  C1_3 
ROOT
ATOM      1  C1  UNL d   1      -0.193   0.624  -0.685  0.00  0.00     0.143 A 
ATOM      2  C2  UNL d   1       0.963   0.702   0.099  0.00  0.00    -0.057 A 
ATOM      3  C3  UNL d   1       0.984   0.214   1.412  0.00  0.00     0.033 A 
ATOM      4  C4  UNL d   1      -0.163  -0.336   1.975  0.00  0.00    -0.042 A 
ATOM      5  C5  UNL d   1      -1.331  -0.400   1.222  0.00  0.00     0.033 A 
ATOM      6  C6  UNL d   1      -1.344   0.083  -0.090  0.00  0.00    -0.057 A 
ENDROOT
BRANCH   1   7
ATOM      7  N   UNL d   1      -0.306   1.181  -1.961  0.00  0.00    -0.732 N 
ATOM      8  C   UNL d   1      -1.384   2.093  -2.275  0.00  0.00     0.284 C 
ATOM      9  H3  UNL d   1       0.595   1.454  -2.347  0.00  0.00     0.395 HD
ENDBRANCH   1   7
TORSDOF 1
ENDMDL
