MODEL 1
REMARK minimizedAffinity -4.59973669
REMARK minimizedRMSD -1
REMARK  1 active torsions:
REMARK  status: ('A' for Active; 'I' for Inactive)
REMARK    1  A    between atoms: N_2  and  C1_3 
ROOT
ATOM      1  C1  UNL d   1      -0.151   0.346   0.309  0.00  0.00     0.143 A 
ATOM      2  C2  UNL d   1      -0.954   0.265   1.452  0.00  0.00    -0.057 A 
ATOM      3  C3  UNL d   1      -0.418  -0.108   2.691  0.00  0.00     0.033 A 
ATOM      4  C4  UNL d   1       0.929  -0.436   2.803  0.00  0.00    -0.042 A 
ATOM      5  C5  UNL d   1       1.740  -0.387   1.675  0.00  0.00     0.033 A 
ATOM      6  C6  UNL d   1       1.201  -0.008   0.442  0.00  0.00    -0.057 A 
ENDROOT
BRANCH   1   7
ATOM      7  N   UNL d   1      -0.644   0.614  -0.970  0.00  0.00    -0.732 N 
ATOM      8  C   UNL d   1      -0.387   1.888  -1.606  0.00  0.00     0.284 C 
ATOM      9  H3  UNL d   1      -0.564  -0.186  -1.593  0.00  0.00     0.395 HD
ENDBRANCH   1   7
TORSDOF 1
ENDMDL
