MODEL 1
REMARK minimizedAffinity -4.18281078
REMARK minimizedRMSD -1
REMARK  1 active torsions:
REMARK  status: ('A' for Active; 'I' for Inactive)
REMARK    1  A    between atoms: N_2  and  C1_3 
ROOT
ATOM      1  C1  UNL d   1      -0.283  -0.069  -0.016  0.00  0.00     0.143 A 
ATOM      2  C2  UNL d   1      -1.092  -0.536   1.026  0.00  0.00    -0.057 A 
ATOM      3  C3  UNL d   1      -0.561  -0.801   2.294  0.00  0.00     0.033 A 
ATOM      4  C4  UNL d   1       0.798  -0.632   2.535  0.00  0.00    -0.042 A 
ATOM      5  C5  UNL d   1       1.625  -0.193   1.508  0.00  0.00     0.033 A 
ATOM      6  C6  UNL d   1       1.089   0.077   0.245  0.00  0.00    -0.057 A 
ENDROOT
BRANCH   1   7
ATOM      7  N   UNL d   1      -0.732   0.119  -1.325  0.00  0.00    -0.732 N 
ATOM      8  C   UNL d   1      -0.491   1.368  -2.016  0.00  0.00     0.284 C 
ATOM      9  H3  UNL d   1      -0.600  -0.708  -1.904  0.00  0.00     0.395 HD
ENDBRANCH   1   7
TORSDOF 1
ENDMDL
