MODEL 1
REMARK minimizedAffinity -2.32041049
REMARK minimizedRMSD -1
REMARK  1 active torsions:
REMARK  status: ('A' for Active; 'I' for Inactive)
REMARK    1  A    between atoms: N_2  and  C1_3 
ROOT
ATOM      1  C1  UNL d   1       0.890  -0.262   0.802  0.00  0.00     0.143 A 
ATOM      2  C2  UNL d   1      -0.500  -0.103   0.804  0.00  0.00    -0.057 A 
ATOM      3  C3  UNL d   1      -1.241  -0.167  -0.382  0.00  0.00     0.033 A 
ATOM      4  C4  UNL d   1      -0.598  -0.364  -1.600  0.00  0.00    -0.042 A 
ATOM      5  C5  UNL d   1       0.785  -0.499  -1.630  0.00  0.00     0.033 A 
ATOM      6  C6  UNL d   1       1.518  -0.441  -0.440  0.00  0.00    -0.057 A 
ENDROOT
BRANCH   1   7
ATOM      7  N   UNL d   1       1.692  -0.110   1.935  0.00  0.00    -0.732 N 
ATOM      8  C   UNL d   1       1.481  -0.936   3.104  0.00  0.00     0.284 C 
ATOM      9  H3  UNL d   1       2.671   0.037   1.701  0.00  0.00     0.395 HD
ENDBRANCH   1   7
TORSDOF 1
ENDMDL
