MODEL 1
REMARK minimizedAffinity -1.27640331
REMARK minimizedRMSD -1
REMARK  1 active torsions:
REMARK  status: ('A' for Active; 'I' for Inactive)
REMARK    1  A    between atoms: N_2  and  C1_3 
ROOT
ATOM      1  C1  UNL d   1       0.434  -0.601   0.738  0.00  0.00     0.143 A 
ATOM      2  C2  UNL d   1       1.471  -0.899  -0.152  0.00  0.00    -0.057 A 
ATOM      3  C3  UNL d   1       1.303  -0.757  -1.535  0.00  0.00     0.033 A 
ATOM      4  C4  UNL d   1       0.082  -0.341  -2.055  0.00  0.00    -0.042 A 
ATOM      5  C5  UNL d   1      -0.971  -0.064  -1.190  0.00  0.00     0.033 A 
ATOM      6  C6  UNL d   1      -0.795  -0.201   0.191  0.00  0.00    -0.057 A 
ENDROOT
BRANCH   1   7
ATOM      7  N   UNL d   1       0.507  -0.816   2.117  0.00  0.00    -0.732 N 
ATOM      8  C   UNL d   1      -0.384  -1.755   2.764  0.00  0.00     0.284 C 
ATOM      9  H3  UNL d   1       1.466  -0.853   2.454  0.00  0.00     0.395 HD
ENDBRANCH   1   7
TORSDOF 1
ENDMDL
