MODEL 1
REMARK minimizedAffinity -3.53764963
REMARK minimizedRMSD -1
REMARK  1 active torsions:
REMARK  status: ('A' for Active; 'I' for Inactive)
REMARK    1  A    between atoms: N_2  and  C1_3 
ROOT
ATOM      1  C1  UNL d   1       0.122  -0.110   0.110  0.00  0.00     0.143 A 
ATOM      2  C2  UNL d   1      -0.922  -0.129   1.041  0.00  0.00    -0.057 A 
ATOM      3  C3  UNL d   1      -0.707  -0.532   2.365  0.00  0.00     0.033 A 
ATOM      4  C4  UNL d   1       0.554  -0.951   2.774  0.00  0.00    -0.042 A 
ATOM      5  C5  UNL d   1       1.601  -0.964   1.860  0.00  0.00     0.033 A 
ATOM      6  C6  UNL d   1       1.382  -0.555   0.541  0.00  0.00    -0.057 A 
ENDROOT
BRANCH   1   7
ATOM      7  N   UNL d   1      -0.049   0.185  -1.245  0.00  0.00    -0.732 N 
ATOM      8  C   UNL d   1      -0.816   1.341  -1.656  0.00  0.00     0.284 C 
ATOM      9  H3  UNL d   1       0.800   0.036  -1.785  0.00  0.00     0.395 HD
ENDBRANCH   1   7
TORSDOF 1
ENDMDL
