MODEL 1
REMARK minimizedAffinity -3.88527679
REMARK minimizedRMSD -1
REMARK  1 active torsions:
REMARK  status: ('A' for Active; 'I' for Inactive)
REMARK    1  A    between atoms: N_2  and  C1_3 
ROOT
ATOM      1  C1  UNL d   1       0.445  -0.890   1.128  0.00  0.00     0.143 A 
ATOM      2  C2  UNL d   1      -0.649  -0.207   0.586  0.00  0.00    -0.057 A 
ATOM      3  C3  UNL d   1      -0.834  -0.116  -0.799  0.00  0.00     0.033 A 
ATOM      4  C4  UNL d   1       0.091  -0.684  -1.669  0.00  0.00    -0.042 A 
ATOM      5  C5  UNL d   1       1.199  -1.345  -1.152  0.00  0.00     0.033 A 
ATOM      6  C6  UNL d   1       1.375  -1.439   0.232  0.00  0.00    -0.057 A 
ENDROOT
BRANCH   1   7
ATOM      7  N   UNL d   1       0.736  -0.931   2.494  0.00  0.00    -0.732 N 
ATOM      8  C   UNL d   1       1.893  -0.239   3.022  0.00  0.00     0.284 C 
ATOM      9  H3  UNL d   1      -0.097  -0.848   3.072  0.00  0.00     0.395 HD
ENDBRANCH   1   7
TORSDOF 1
ENDMDL
