MODEL 1
REMARK minimizedAffinity -5.09011841
REMARK minimizedRMSD -1
REMARK  1 active torsions:
REMARK  status: ('A' for Active; 'I' for Inactive)
REMARK    1  A    between atoms: N_2  and  C1_3 
ROOT
ATOM      1  C1  UNL d   1       0.608  -0.951   0.391  0.00  0.00     0.143 A 
ATOM      2  C2  UNL d   1      -0.192  -1.548   1.372  0.00  0.00    -0.057 A 
ATOM      3  C3  UNL d   1       0.026  -1.306   2.733  0.00  0.00     0.033 A 
ATOM      4  C4  UNL d   1       1.070  -0.482   3.141  0.00  0.00    -0.042 A 
ATOM      5  C5  UNL d   1       1.893   0.102   2.185  0.00  0.00     0.033 A 
ATOM      6  C6  UNL d   1       1.666  -0.138   0.826  0.00  0.00    -0.057 A 
ENDROOT
BRANCH   1   7
ATOM      7  N   UNL d   1       0.503  -1.230  -0.974  0.00  0.00    -0.732 N 
ATOM      8  C   UNL d   1       1.597  -1.857  -1.684  0.00  0.00     0.284 C 
ATOM      9  H3  UNL d   1      -0.415  -1.585  -1.228  0.00  0.00     0.395 HD
ENDBRANCH   1   7
TORSDOF 1
ENDMDL
