MODEL 1
REMARK minimizedAffinity 4.73880672
REMARK minimizedRMSD -1
REMARK  0 active torsions:
REMARK  status: ('A' for Active; 'I' for Inactive)
ROOT
ATOM      1  O1  BZF d   1      -1.870   2.993   1.686  0.00  0.00    -0.204 OA
ATOM      2  C2  BZF d   1      -0.669   2.573   1.150  0.00  0.00     0.174 A 
ATOM      3  C3  BZF d   1      -0.439   1.278   1.447  0.00  0.00    -0.012 A 
ATOM      4  C3A BZF d   1      -1.611   0.837   2.139  0.00  0.00    -0.107 A 
ATOM      5  C4  BZF d   1      -1.989  -0.360   2.676  0.00  0.00     0.055 A 
ATOM      6  C5  BZF d   1      -3.167  -0.439   3.349  0.00  0.00    -0.016 A 
ATOM      7  C6  BZF d   1      -3.987   0.659   3.509  0.00  0.00     0.022 A 
ATOM      8  C7  BZF d   1      -3.657   1.866   2.989  0.00  0.00     0.029 A 
ATOM      9  C7A BZF d   1      -2.483   1.941   2.280  0.00  0.00     0.058 A 
ENDROOT
TORSDOF 0
ENDMDL
