MODEL 1
REMARK minimizedAffinity 2.21158314
REMARK minimizedRMSD -1
REMARK  0 active torsions:
REMARK  status: ('A' for Active; 'I' for Inactive)
ROOT
ATOM      1  O1  BZF d   1       0.017   2.898   1.502  0.00  0.00    -0.204 OA
ATOM      2  C2  BZF d   1       1.141   2.287   0.980  0.00  0.00     0.174 A 
ATOM      3  C3  BZF d   1       0.981   0.948   0.937  0.00  0.00    -0.012 A 
ATOM      4  C3A BZF d   1      -0.360   0.715   1.378  0.00  0.00    -0.107 A 
ATOM      5  C4  BZF d   1      -1.113  -0.413   1.537  0.00  0.00     0.055 A 
ATOM      6  C5  BZF d   1      -2.363  -0.305   2.057  0.00  0.00    -0.016 A 
ATOM      7  C6  BZF d   1      -2.890   0.914   2.433  0.00  0.00     0.022 A 
ATOM      8  C7  BZF d   1      -2.183   2.061   2.290  0.00  0.00     0.029 A 
ATOM      9  C7A BZF d   1      -0.931   1.958   1.734  0.00  0.00     0.058 A 
ENDROOT
TORSDOF 0
ENDMDL
