MODEL 1
REMARK minimizedAffinity 7.28370428
REMARK minimizedRMSD -1
REMARK  0 active torsions:
REMARK  status: ('A' for Active; 'I' for Inactive)
ROOT
ATOM      1  O1  BZF d   1      -3.470   0.528   2.957  0.00  0.00    -0.204 OA
ATOM      2  C2  BZF d   1      -4.022   1.689   3.465  0.00  0.00     0.174 A 
ATOM      3  C3  BZF d   1      -3.226   2.748   3.211  0.00  0.00    -0.012 A 
ATOM      4  C3A BZF d   1      -2.152   2.230   2.419  0.00  0.00    -0.107 A 
ATOM      5  C4  BZF d   1      -1.052   2.798   1.844  0.00  0.00     0.055 A 
ATOM      6  C5  BZF d   1      -0.159   2.003   1.198  0.00  0.00    -0.016 A 
ATOM      7  C6  BZF d   1      -0.333   0.637   1.113  0.00  0.00     0.022 A 
ATOM      8  C7  BZF d   1      -1.411   0.028   1.663  0.00  0.00     0.029 A 
ATOM      9  C7A BZF d   1      -2.332   0.834   2.289  0.00  0.00     0.058 A 
ENDROOT
TORSDOF 0
ENDMDL
