MODEL 1
REMARK minimizedAffinity -5.56036758
REMARK minimizedRMSD -1
REMARK  0 active torsions:
REMARK  status: ('A' for Active; 'I' for Inactive)
ROOT
ATOM      1  O1  BZF d   1      -0.597   2.977   1.944  0.00  0.00    -0.204 OA
ATOM      2  C2  BZF d   1       0.559   3.258   1.242  0.00  0.00     0.174 A 
ATOM      3  C3  BZF d   1       1.087   2.132   0.720  0.00  0.00    -0.012 A 
ATOM      4  C3A BZF d   1       0.156   1.095   1.043  0.00  0.00    -0.107 A 
ATOM      5  C4  BZF d   1       0.116  -0.245   0.784  0.00  0.00     0.055 A 
ATOM      6  C5  BZF d   1      -0.896  -0.989   1.303  0.00  0.00    -0.016 A 
ATOM      7  C6  BZF d   1      -1.880  -0.427   2.090  0.00  0.00     0.022 A 
ATOM      8  C7  BZF d   1      -1.886   0.899   2.371  0.00  0.00     0.029 A 
ATOM      9  C7A BZF d   1      -0.883   1.659   1.820  0.00  0.00     0.058 A 
ENDROOT
TORSDOF 0
ENDMDL
