MODEL 1
REMARK minimizedAffinity 8.75708294
REMARK minimizedRMSD -1
REMARK  0 active torsions:
REMARK  status: ('A' for Active; 'I' for Inactive)
ROOT
ATOM      1  O1  BZF d   1      -2.470   3.411   2.639  0.00  0.00    -0.204 OA
ATOM      2  C2  BZF d   1      -1.345   2.974   1.966  0.00  0.00     0.174 A 
ATOM      3  C3  BZF d   1      -1.289   1.627   1.953  0.00  0.00    -0.012 A 
ATOM      4  C3A BZF d   1      -2.498   1.193   2.583  0.00  0.00    -0.107 A 
ATOM      5  C4  BZF d   1      -3.027  -0.037   2.854  0.00  0.00     0.055 A 
ATOM      6  C5  BZF d   1      -4.193  -0.116   3.547  0.00  0.00    -0.016 A 
ATOM      7  C6  BZF d   1      -4.854   1.012   3.987  0.00  0.00     0.022 A 
ATOM      8  C7  BZF d   1      -4.371   2.254   3.737  0.00  0.00     0.029 A 
ATOM      9  C7A BZF d   1      -3.210   2.338   3.009  0.00  0.00     0.058 A 
ENDROOT
TORSDOF 0
ENDMDL
