MODEL 1
REMARK minimizedAffinity 3.2617681
REMARK minimizedRMSD -1
REMARK  0 active torsions:
REMARK  status: ('A' for Active; 'I' for Inactive)
ROOT
ATOM      1  O1  BZF d   1      -1.830   2.924   2.247  0.00  0.00    -0.204 OA
ATOM      2  C2  BZF d   1      -2.640   2.212   3.110  0.00  0.00     0.174 A 
ATOM      3  C3  BZF d   1      -2.410   0.888   2.999  0.00  0.00    -0.012 A 
ATOM      4  C3A BZF d   1      -1.328   0.771   2.071  0.00  0.00    -0.107 A 
ATOM      5  C4  BZF d   1      -0.637  -0.293   1.564  0.00  0.00     0.055 A 
ATOM      6  C5  BZF d   1       0.316  -0.072   0.621  0.00  0.00    -0.016 A 
ATOM      7  C6  BZF d   1       0.599   1.196   0.158  0.00  0.00     0.022 A 
ATOM      8  C7  BZF d   1      -0.056   2.282   0.634  0.00  0.00     0.029 A 
ATOM      9  C7A BZF d   1      -0.996   2.066   1.612  0.00  0.00     0.058 A 
ENDROOT
TORSDOF 0
ENDMDL
