MODEL 1
REMARK minimizedAffinity 3.20331573
REMARK minimizedRMSD -1
REMARK  0 active torsions:
REMARK  status: ('A' for Active; 'I' for Inactive)
ROOT
ATOM      1  O1  BZF d   1      -2.392   1.415   2.536  0.00  0.00    -0.204 OA
ATOM      2  C2  BZF d   1      -2.406   2.751   2.184  0.00  0.00     0.174 A 
ATOM      3  C3  BZF d   1      -1.282   3.081   1.514  0.00  0.00    -0.012 A 
ATOM      4  C3A BZF d   1      -0.561   1.854   1.362  0.00  0.00    -0.107 A 
ATOM      5  C4  BZF d   1       0.625   1.530   0.768  0.00  0.00     0.055 A 
ATOM      6  C5  BZF d   1       1.083   0.254   0.860  0.00  0.00    -0.016 A 
ATOM      7  C6  BZF d   1       0.384  -0.721   1.542  0.00  0.00     0.022 A 
ATOM      8  C7  BZF d   1      -0.800  -0.448   2.143  0.00  0.00     0.029 A 
ATOM      9  C7A BZF d   1      -1.281   0.833   2.024  0.00  0.00     0.058 A 
ENDROOT
TORSDOF 0
ENDMDL
