MODEL 1
REMARK minimizedAffinity -5.15861797
REMARK minimizedRMSD -1
REMARK  0 active torsions:
REMARK  status: ('A' for Active; 'I' for Inactive)
ROOT
ATOM      1  O1  BZF d   1       0.024   2.546   1.539  0.00  0.00    -0.204 OA
ATOM      2  C2  BZF d   1       1.195   1.980   1.076  0.00  0.00     0.174 A 
ATOM      3  C3  BZF d   1       1.049   0.650   0.904  0.00  0.00    -0.012 A 
ATOM      4  C3A BZF d   1      -0.326   0.382   1.196  0.00  0.00    -0.107 A 
ATOM      5  C4  BZF d   1      -1.084  -0.754   1.187  0.00  0.00     0.055 A 
ATOM      6  C5  BZF d   1      -2.379  -0.687   1.594  0.00  0.00    -0.016 A 
ATOM      7  C6  BZF d   1      -2.946   0.496   2.020  0.00  0.00     0.022 A 
ATOM      8  C7  BZF d   1      -2.236   1.650   2.042  0.00  0.00     0.029 A 
ATOM      9  C7A BZF d   1      -0.936   1.592   1.600  0.00  0.00     0.058 A 
ENDROOT
TORSDOF 0
ENDMDL
