MODEL 1
REMARK minimizedAffinity 9.85139465
REMARK minimizedRMSD -1
REMARK  0 active torsions:
REMARK  status: ('A' for Active; 'I' for Inactive)
ROOT
ATOM      1  O1  BZF d   1      -5.790   4.719   2.081  0.00  0.00    -0.204 OA
ATOM      2  C2  BZF d   1      -5.713   5.293   0.827  0.00  0.00     0.174 A 
ATOM      3  C3  BZF d   1      -4.488   5.113   0.292  0.00  0.00    -0.012 A 
ATOM      4  C3A BZF d   1      -3.782   4.300   1.235  0.00  0.00    -0.107 A 
ATOM      5  C4  BZF d   1      -2.524   3.770   1.261  0.00  0.00     0.055 A 
ATOM      6  C5  BZF d   1      -2.118   3.084   2.361  0.00  0.00    -0.016 A 
ATOM      7  C6  BZF d   1      -2.943   2.912   3.454  0.00  0.00     0.022 A 
ATOM      8  C7  BZF d   1      -4.201   3.414   3.473  0.00  0.00     0.029 A 
ATOM      9  C7A BZF d   1      -4.625   4.081   2.349  0.00  0.00     0.058 A 
ENDROOT
TORSDOF 0
ENDMDL
