MODEL 1
REMARK minimizedAffinity -1.52752018
REMARK minimizedRMSD -1
REMARK  0 active torsions:
REMARK  status: ('A' for Active; 'I' for Inactive)
ROOT
ATOM      1  O1  BZF d   1      -0.791   2.890   2.799  0.00  0.00    -0.204 OA
ATOM      2  C2  BZF d   1      -2.094   2.471   2.985  0.00  0.00     0.174 A 
ATOM      3  C3  BZF d   1      -2.334   1.337   2.296  0.00  0.00    -0.012 A 
ATOM      4  C3A BZF d   1      -1.078   0.978   1.712  0.00  0.00    -0.107 A 
ATOM      5  C4  BZF d   1      -0.670  -0.062   0.927  0.00  0.00     0.055 A 
ATOM      6  C5  BZF d   1       0.608  -0.081   0.465  0.00  0.00    -0.016 A 
ATOM      7  C6  BZF d   1       1.502   0.925   0.766  0.00  0.00     0.022 A 
ATOM      8  C7  BZF d   1       1.146   1.975   1.546  0.00  0.00     0.029 A 
ATOM      9  C7A BZF d   1      -0.135   1.980   2.040  0.00  0.00     0.058 A 
ENDROOT
TORSDOF 0
ENDMDL
