MODEL 1
REMARK minimizedAffinity 2.88212419
REMARK minimizedRMSD -1
REMARK  0 active torsions:
REMARK  status: ('A' for Active; 'I' for Inactive)
ROOT
ATOM      1  O1  BZF d   1      -1.987   1.027   2.828  0.00  0.00    -0.204 OA
ATOM      2  C2  BZF d   1      -2.106   2.378   2.567  0.00  0.00     0.174 A 
ATOM      3  C3  BZF d   1      -1.196   2.770   1.652  0.00  0.00    -0.012 A 
ATOM      4  C3A BZF d   1      -0.523   1.572   1.252  0.00  0.00    -0.107 A 
ATOM      5  C4  BZF d   1       0.474   1.309   0.358  0.00  0.00     0.055 A 
ATOM      6  C5  BZF d   1       0.954   0.042   0.258  0.00  0.00    -0.016 A 
ATOM      7  C6  BZF d   1       0.465  -0.984   1.039  0.00  0.00     0.022 A 
ATOM      8  C7  BZF d   1      -0.528  -0.773   1.937  0.00  0.00     0.029 A 
ATOM      9  C7A BZF d   1      -1.038   0.500   2.017  0.00  0.00     0.058 A 
ENDROOT
TORSDOF 0
ENDMDL
