MODEL 1
REMARK minimizedAffinity -4.70020437
REMARK minimizedRMSD -1
REMARK  0 active torsions:
REMARK  status: ('A' for Active; 'I' for Inactive)
ROOT
ATOM      1  O1  BZF d   1       1.712   1.925   0.372  0.00  0.00    -0.204 OA
ATOM      2  C2  BZF d   1       2.458   0.842  -0.052  0.00  0.00     0.174 A 
ATOM      3  C3  BZF d   1       1.851  -0.316   0.278  0.00  0.00    -0.012 A 
ATOM      4  C3A BZF d   1       0.606   0.067   0.869  0.00  0.00    -0.107 A 
ATOM      5  C4  BZF d   1      -0.446  -0.637   1.383  0.00  0.00     0.055 A 
ATOM      6  C5  BZF d   1      -1.479   0.039   1.950  0.00  0.00    -0.016 A 
ATOM      7  C6  BZF d   1      -1.492   1.416   2.025  0.00  0.00     0.022 A 
ATOM      8  C7  BZF d   1      -0.474   2.158   1.524  0.00  0.00     0.029 A 
ATOM      9  C7A BZF d   1       0.556   1.479   0.921  0.00  0.00     0.058 A 
ENDROOT
TORSDOF 0
ENDMDL
