MODEL 1
REMARK minimizedAffinity -0.494571954
REMARK minimizedRMSD -1
REMARK  0 active torsions:
REMARK  status: ('A' for Active; 'I' for Inactive)
ROOT
ATOM      1  O1  BZF d   1      -2.848   2.180   2.906  0.00  0.00    -0.204 OA
ATOM      2  C2  BZF d   1      -3.671   1.091   3.120  0.00  0.00     0.174 A 
ATOM      3  C3  BZF d   1      -3.187  -0.004   2.499  0.00  0.00    -0.012 A 
ATOM      4  C3A BZF d   1      -1.939   0.405   1.933  0.00  0.00    -0.107 A 
ATOM      5  C4  BZF d   1      -0.980  -0.242   1.207  0.00  0.00     0.055 A 
ATOM      6  C5  BZF d   1       0.086   0.463   0.744  0.00  0.00    -0.016 A 
ATOM      7  C6  BZF d   1       0.221   1.815   0.982  0.00  0.00     0.022 A 
ATOM      8  C7  BZF d   1      -0.702   2.499   1.702  0.00  0.00     0.029 A 
ATOM      9  C7A BZF d   1      -1.763   1.783   2.199  0.00  0.00     0.058 A 
ENDROOT
TORSDOF 0
ENDMDL
