MODEL 1
REMARK minimizedAffinity 1.78634179
REMARK minimizedRMSD -1
REMARK  0 active torsions:
REMARK  status: ('A' for Active; 'I' for Inactive)
ROOT
ATOM      1  O1  BZF d   1      -2.363  -3.496  -3.313  0.00  0.00    -0.204 OA
ATOM      2  C2  BZF d   1      -2.847  -2.203  -3.269  0.00  0.00     0.174 A 
ATOM      3  C3  BZF d   1      -3.702  -2.048  -2.238  0.00  0.00    -0.012 A 
ATOM      4  C3A BZF d   1      -3.685  -3.298  -1.543  0.00  0.00    -0.107 A 
ATOM      5  C4  BZF d   1      -4.317  -3.759  -0.424  0.00  0.00     0.055 A 
ATOM      6  C5  BZF d   1      -4.140  -5.054  -0.051  0.00  0.00    -0.016 A 
ATOM      7  C6  BZF d   1      -3.343  -5.915  -0.776  0.00  0.00     0.022 A 
ATOM      8  C7  BZF d   1      -2.691  -5.503  -1.890  0.00  0.00     0.029 A 
ATOM      9  C7A BZF d   1      -2.842  -4.186  -2.251  0.00  0.00     0.058 A 
ENDROOT
TORSDOF 0
ENDMDL
