MODEL 1
REMARK minimizedAffinity -0.68206507
REMARK minimizedRMSD -1
REMARK  0 active torsions:
REMARK  status: ('A' for Active; 'I' for Inactive)
ROOT
ATOM      1  O1  BZF d   1      -2.764   0.805   2.628  0.00  0.00    -0.204 OA
ATOM      2  C2  BZF d   1      -2.972  -0.559   2.689  0.00  0.00     0.174 A 
ATOM      3  C3  BZF d   1      -1.996  -1.221   2.034  0.00  0.00    -0.012 A 
ATOM      4  C3A BZF d   1      -1.074  -0.211   1.611  0.00  0.00    -0.107 A 
ATOM      5  C4  BZF d   1       0.108  -0.245   0.928  0.00  0.00     0.055 A 
ATOM      6  C5  BZF d   1       0.722   0.925   0.613  0.00  0.00    -0.016 A 
ATOM      7  C6  BZF d   1       0.182   2.146   0.961  0.00  0.00     0.022 A 
ATOM      8  C7  BZF d   1      -0.986   2.230   1.644  0.00  0.00     0.029 A 
ATOM      9  C7A BZF d   1      -1.593   1.048   1.992  0.00  0.00     0.058 A 
ENDROOT
TORSDOF 0
ENDMDL
