MODEL 1
REMARK minimizedAffinity -3.14820433
REMARK minimizedRMSD -1
REMARK  0 active torsions:
REMARK  status: ('A' for Active; 'I' for Inactive)
ROOT
ATOM      1  O1  BZF d   1      -1.614   2.707   2.173  0.00  0.00    -0.204 OA
ATOM      2  C2  BZF d   1      -2.842   2.207   2.562  0.00  0.00     0.174 A 
ATOM      3  C3  BZF d   1      -2.926   0.887   2.299  0.00  0.00    -0.012 A 
ATOM      4  C3A BZF d   1      -1.639   0.521   1.793  0.00  0.00    -0.107 A 
ATOM      5  C4  BZF d   1      -1.097  -0.659   1.371  0.00  0.00     0.055 A 
ATOM      6  C5  BZF d   1       0.166  -0.663   0.868  0.00  0.00    -0.016 A 
ATOM      7  C6  BZF d   1       0.912   0.493   0.768  0.00  0.00     0.022 A 
ATOM      8  C7  BZF d   1       0.419   1.687   1.179  0.00  0.00     0.029 A 
ATOM      9  C7A BZF d   1      -0.845   1.689   1.718  0.00  0.00     0.058 A 
ENDROOT
TORSDOF 0
ENDMDL
