MODEL 1
REMARK minimizedAffinity -1.93640447
REMARK minimizedRMSD -1
REMARK  0 active torsions:
REMARK  status: ('A' for Active; 'I' for Inactive)
ROOT
ATOM      1  O1  BZF d   1      -2.541   1.496   2.296  0.00  0.00    -0.204 OA
ATOM      2  C2  BZF d   1      -2.435   2.857   2.082  0.00  0.00     0.174 A 
ATOM      3  C3  BZF d   1      -1.200   3.177   1.645  0.00  0.00    -0.012 A 
ATOM      4  C3A BZF d   1      -0.518   1.929   1.494  0.00  0.00    -0.107 A 
ATOM      5  C4  BZF d   1       0.737   1.589   1.075  0.00  0.00     0.055 A 
ATOM      6  C5  BZF d   1       1.115   0.284   1.114  0.00  0.00    -0.016 A 
ATOM      7  C6  BZF d   1       0.267  -0.705   1.569  0.00  0.00     0.022 A 
ATOM      8  C7  BZF d   1      -0.989  -0.417   1.989  0.00  0.00     0.029 A 
ATOM      9  C7A BZF d   1      -1.386   0.897   1.921  0.00  0.00     0.058 A 
ENDROOT
TORSDOF 0
ENDMDL
