MODEL 1
REMARK minimizedAffinity -0.0625473261
REMARK minimizedRMSD -1
REMARK  0 active torsions:
REMARK  status: ('A' for Active; 'I' for Inactive)
ROOT
ATOM      1  N1  IND d   1      -0.250  -0.581  -0.977  0.00  0.00    -0.196 N 
ATOM      2  C2  IND d   1      -1.063   0.091  -0.109  0.00  0.00     0.054 A 
ATOM      3  C3  IND d   1      -0.418   0.321   1.057  0.00  0.00    -0.031 A 
ATOM      4  C4  IND d   1       2.008  -0.227   1.720  0.00  0.00     0.051 A 
ATOM      5  C5  IND d   1       3.128  -0.871   1.272  0.00  0.00    -0.031 A 
ATOM      6  C6  IND d   1       3.181  -1.460   0.025  0.00  0.00     0.015 A 
ATOM      7  C7  IND d   1       2.115  -1.418  -0.828  0.00  0.00    -0.016 A 
ATOM      8  C8  IND d   1       0.974  -0.771  -0.374  0.00  0.00    -0.047 A 
ATOM      9  C9  IND d   1       0.900  -0.209   0.906  0.00  0.00    -0.096 A 
ATOM     10  HN1 IND d   1      -0.466  -0.842  -1.768  0.00  0.00     0.298 HD
ENDROOT
TORSDOF 0
ENDMDL
