MODEL 1
REMARK minimizedAffinity -5.40229988
REMARK minimizedRMSD -1
REMARK  0 active torsions:
REMARK  status: ('A' for Active; 'I' for Inactive)
ROOT
ATOM      1  N1  IND d   1       0.963   1.907  -0.220  0.00  0.00    -0.196 N 
ATOM      2  C2  IND d   1      -0.311   1.712  -0.674  0.00  0.00     0.054 A 
ATOM      3  C3  IND d   1      -0.614   0.395  -0.674  0.00  0.00    -0.031 A 
ATOM      4  C4  IND d   1       0.793  -1.607   0.125  0.00  0.00     0.051 A 
ATOM      5  C5  IND d   1       2.037  -1.933   0.589  0.00  0.00    -0.031 A 
ATOM      6  C6  IND d   1       3.005  -0.976   0.814  0.00  0.00     0.015 A 
ATOM      7  C7  IND d   1       2.760   0.350   0.593  0.00  0.00    -0.016 A 
ATOM      8  C8  IND d   1       1.501   0.684   0.116  0.00  0.00    -0.047 A 
ATOM      9  C9  IND d   1       0.528  -0.287  -0.155  0.00  0.00    -0.096 A 
ATOM     10  HN1 IND d   1       1.362   2.666  -0.155  0.00  0.00     0.298 HD
ENDROOT
TORSDOF 0
ENDMDL
