MODEL 1
REMARK minimizedAffinity -1.21615946
REMARK minimizedRMSD -1
REMARK  0 active torsions:
REMARK  status: ('A' for Active; 'I' for Inactive)
ROOT
ATOM      1  N1  IND d   1      -0.437  -0.713  -1.040  0.00  0.00    -0.196 N 
ATOM      2  C2  IND d   1      -0.534  -2.048  -1.318  0.00  0.00     0.054 A 
ATOM      3  C3  IND d   1       0.433  -2.734  -0.669  0.00  0.00    -0.031 A 
ATOM      4  C4  IND d   1       2.216  -1.884   0.982  0.00  0.00     0.051 A 
ATOM      5  C5  IND d   1       2.722  -0.735   1.524  0.00  0.00    -0.031 A 
ATOM      6  C6  IND d   1       2.188   0.504   1.235  0.00  0.00     0.015 A 
ATOM      7  C7  IND d   1       1.117   0.641   0.398  0.00  0.00    -0.016 A 
ATOM      8  C8  IND d   1       0.604  -0.522  -0.159  0.00  0.00    -0.047 A 
ATOM      9  C9  IND d   1       1.168  -1.779   0.098  0.00  0.00    -0.096 A 
ATOM     10  HN1 IND d   1      -0.943  -0.095  -1.361  0.00  0.00     0.298 HD
ENDROOT
TORSDOF 0
ENDMDL
