MODEL 1
REMARK minimizedAffinity -3.38172603
REMARK minimizedRMSD -1
REMARK  0 active torsions:
REMARK  status: ('A' for Active; 'I' for Inactive)
ROOT
ATOM      1  N1  IND d   1       0.377  -0.901  -0.148  0.00  0.00    -0.196 N 
ATOM      2  C2  IND d   1       0.873  -2.158  -0.353  0.00  0.00     0.054 A 
ATOM      3  C3  IND d   1       2.225  -2.135  -0.357  0.00  0.00    -0.031 A 
ATOM      4  C4  IND d   1       3.828  -0.163   0.052  0.00  0.00     0.051 A 
ATOM      5  C5  IND d   1       3.845   1.190   0.246  0.00  0.00    -0.031 A 
ATOM      6  C6  IND d   1       2.682   1.929   0.323  0.00  0.00     0.015 A 
ATOM      7  C7  IND d   1       1.454   1.339   0.219  0.00  0.00    -0.016 A 
ATOM      8  C8  IND d   1       1.434  -0.033   0.015  0.00  0.00    -0.047 A 
ATOM      9  C9  IND d   1       2.611  -0.783  -0.106  0.00  0.00    -0.096 A 
ATOM     10  HN1 IND d   1      -0.456  -0.688  -0.126  0.00  0.00     0.298 HD
ENDROOT
TORSDOF 0
ENDMDL
