MODEL 1
REMARK minimizedAffinity -4.1420188
REMARK minimizedRMSD -1
REMARK  0 active torsions:
REMARK  status: ('A' for Active; 'I' for Inactive)
ROOT
ATOM      1  N1  IND d   1      -0.654  -0.108   1.088  0.00  0.00    -0.196 N 
ATOM      2  C2  IND d   1      -0.207   0.023  -0.197  0.00  0.00     0.054 A 
ATOM      3  C3  IND d   1      -1.189   0.508  -0.990  0.00  0.00    -0.031 A 
ATOM      4  C4  IND d   1      -3.574   1.252  -0.370  0.00  0.00     0.051 A 
ATOM      5  C5  IND d   1      -4.454   1.287   0.676  0.00  0.00    -0.031 A 
ATOM      6  C6  IND d   1      -4.104   0.853   1.938  0.00  0.00     0.015 A 
ATOM      7  C7  IND d   1      -2.852   0.376   2.206  0.00  0.00    -0.016 A 
ATOM      8  C8  IND d   1      -1.958   0.332   1.145  0.00  0.00    -0.047 A 
ATOM      9  C9  IND d   1      -2.321   0.731  -0.148  0.00  0.00    -0.096 A 
ATOM     10  HN1 IND d   1      -0.198  -0.414   1.749  0.00  0.00     0.298 HD
ENDROOT
TORSDOF 0
ENDMDL
