MODEL 1
REMARK minimizedAffinity -3.50419331
REMARK minimizedRMSD -1
REMARK  0 active torsions:
REMARK  status: ('A' for Active; 'I' for Inactive)
ROOT
ATOM      1  N1  IND d   1      -0.023   2.596  -0.274  0.00  0.00    -0.196 N 
ATOM      2  C2  IND d   1      -1.265   2.104  -0.562  0.00  0.00     0.054 A 
ATOM      3  C3  IND d   1      -1.335   0.791  -0.250  0.00  0.00    -0.031 A 
ATOM      4  C4  IND d   1       0.437  -0.729   0.836  0.00  0.00     0.051 A 
ATOM      5  C5  IND d   1       1.740  -0.740   1.249  0.00  0.00    -0.031 A 
ATOM      6  C6  IND d   1       2.537   0.384   1.175  0.00  0.00     0.015 A 
ATOM      7  C7  IND d   1       2.056   1.569   0.696  0.00  0.00    -0.016 A 
ATOM      8  C8  IND d   1       0.735   1.582   0.270  0.00  0.00    -0.047 A 
ATOM      9  C9  IND d   1      -0.066   0.434   0.302  0.00  0.00    -0.096 A 
ATOM     10  HN1 IND d   1       0.241   3.403  -0.409  0.00  0.00     0.298 HD
ENDROOT
TORSDOF 0
ENDMDL
