MODEL 1
REMARK minimizedAffinity -0.857801437
REMARK minimizedRMSD -1
REMARK  0 active torsions:
REMARK  status: ('A' for Active; 'I' for Inactive)
ROOT
ATOM      1  N1  IND d   1      -2.912   1.413   0.193  0.00  0.00    -0.196 N 
ATOM      2  C2  IND d   1      -3.652   0.861   1.201  0.00  0.00     0.054 A 
ATOM      3  C3  IND d   1      -2.917  -0.048   1.880  0.00  0.00    -0.031 A 
ATOM      4  C4  IND d   1      -0.449  -0.715   1.573  0.00  0.00     0.051 A 
ATOM      5  C5  IND d   1       0.629  -0.509   0.758  0.00  0.00    -0.031 A 
ATOM      6  C6  IND d   1       0.581   0.367  -0.307  0.00  0.00     0.015 A 
ATOM      7  C7  IND d   1      -0.548   1.083  -0.591  0.00  0.00    -0.016 A 
ATOM      8  C8  IND d   1      -1.646   0.871   0.230  0.00  0.00    -0.047 A 
ATOM      9  C9  IND d   1      -1.617  -0.049   1.286  0.00  0.00    -0.096 A 
ATOM     10  HN1 IND d   1      -3.191   2.000  -0.370  0.00  0.00     0.298 HD
ENDROOT
TORSDOF 0
ENDMDL
