MODEL 1
REMARK minimizedAffinity 5.93001366
REMARK minimizedRMSD -1
REMARK  0 active torsions:
REMARK  status: ('A' for Active; 'I' for Inactive)
ROOT
ATOM      1  C   UNL d   1       4.282  -2.800   0.544  0.00  0.00     0.077 C 
ATOM      2  C1  UNL d   1       3.626  -1.496   0.200  0.00  0.00    -0.074 A 
ATOM      3  C2  UNL d   1       3.880  -0.343   0.950  0.00  0.00    -0.005 A 
ATOM      4  C3  UNL d   1       3.270   0.865   0.613  0.00  0.00     0.006 A 
ATOM      5  C4  UNL d   1       2.400   0.932  -0.477  0.00  0.00    -0.005 A 
ATOM      6  C5  UNL d   1       2.134  -0.210  -1.239  0.00  0.00    -0.074 A 
ATOM      7  C6  UNL d   1       1.210  -0.152  -2.418  0.00  0.00     0.077 C 
ATOM      8  C7  UNL d   1       2.757  -1.418  -0.898  0.00  0.00    -0.001 A 
ENDROOT
TORSDOF 0
ENDMDL
