MODEL 1
REMARK minimizedAffinity 10.3152771
REMARK minimizedRMSD -1
REMARK  0 active torsions:
REMARK  status: ('A' for Active; 'I' for Inactive)
ROOT
ATOM      1  C   UNL d   1       5.999  -2.998   1.035  0.00  0.00     0.077 C 
ATOM      2  C1  UNL d   1       4.570  -2.708   0.686  0.00  0.00    -0.074 A 
ATOM      3  C2  UNL d   1       3.604  -3.719   0.711  0.00  0.00    -0.005 A 
ATOM      4  C3  UNL d   1       2.277  -3.431   0.393  0.00  0.00     0.006 A 
ATOM      5  C4  UNL d   1       1.903  -2.132   0.046  0.00  0.00    -0.005 A 
ATOM      6  C5  UNL d   1       2.855  -1.108   0.016  0.00  0.00    -0.074 A 
ATOM      7  C6  UNL d   1       2.468   0.295  -0.345  0.00  0.00     0.077 C 
ATOM      8  C7  UNL d   1       4.185  -1.404   0.344  0.00  0.00    -0.001 A 
ENDROOT
TORSDOF 0
ENDMDL
