MODEL 1
REMARK minimizedAffinity 5.56933594
REMARK minimizedRMSD -1
REMARK  0 active torsions:
REMARK  status: ('A' for Active; 'I' for Inactive)
ROOT
ATOM      1  C   UNL d   1       4.510  -2.285   0.387  0.00  0.00     0.077 C 
ATOM      2  C1  UNL d   1       3.840  -1.046  -0.128  0.00  0.00    -0.074 A 
ATOM      3  C2  UNL d   1       4.468   0.200  -0.041  0.00  0.00    -0.005 A 
ATOM      4  C3  UNL d   1       3.837   1.342  -0.534  0.00  0.00     0.006 A 
ATOM      5  C4  UNL d   1       2.573   1.250  -1.118  0.00  0.00    -0.005 A 
ATOM      6  C5  UNL d   1       1.929   0.012  -1.215  0.00  0.00    -0.074 A 
ATOM      7  C6  UNL d   1       0.575  -0.107  -1.848  0.00  0.00     0.077 C 
ATOM      8  C7  UNL d   1       2.573  -1.132  -0.723  0.00  0.00    -0.001 A 
ENDROOT
TORSDOF 0
ENDMDL
