MODEL 1
REMARK minimizedAffinity 5.50445604
REMARK minimizedRMSD -1
REMARK  0 active torsions:
REMARK  status: ('A' for Active; 'I' for Inactive)
ROOT
ATOM      1  C   UNL d   1       1.486  -0.368  -1.188  0.00  0.00     0.077 C 
ATOM      2  C1  UNL d   1       1.313   0.376   0.102  0.00  0.00    -0.074 A 
ATOM      3  C2  UNL d   1       2.416   0.901   0.783  0.00  0.00    -0.005 A 
ATOM      4  C3  UNL d   1       2.238   1.600   1.977  0.00  0.00     0.006 A 
ATOM      5  C4  UNL d   1       0.958   1.780   2.502  0.00  0.00    -0.005 A 
ATOM      6  C5  UNL d   1      -0.157   1.262   1.835  0.00  0.00    -0.074 A 
ATOM      7  C6  UNL d   1      -1.541   1.455   2.380  0.00  0.00     0.077 C 
ATOM      8  C7  UNL d   1       0.029   0.568   0.632  0.00  0.00    -0.001 A 
ENDROOT
TORSDOF 0
ENDMDL
