MODEL 1
REMARK minimizedAffinity 10.2098427
REMARK minimizedRMSD -1
REMARK  0 active torsions:
REMARK  status: ('A' for Active; 'I' for Inactive)
ROOT
ATOM      1  C   UNL d   1      -4.110   2.610   4.975  0.00  0.00     0.077 C 
ATOM      2  C1  UNL d   1      -3.397   1.864   3.886  0.00  0.00    -0.074 A 
ATOM      3  C2  UNL d   1      -4.095   1.017   3.019  0.00  0.00    -0.005 A 
ATOM      4  C3  UNL d   1      -3.420   0.337   2.006  0.00  0.00     0.006 A 
ATOM      5  C4  UNL d   1      -2.043   0.496   1.849  0.00  0.00    -0.005 A 
ATOM      6  C5  UNL d   1      -1.328   1.339   2.706  0.00  0.00    -0.074 A 
ATOM      7  C6  UNL d   1       0.151   1.529   2.546  0.00  0.00     0.077 C 
ATOM      8  C7  UNL d   1      -2.015   2.025   3.718  0.00  0.00    -0.001 A 
ENDROOT
TORSDOF 0
ENDMDL
