MODEL 1
REMARK minimizedAffinity 11.9480801
REMARK minimizedRMSD -1
REMARK  0 active torsions:
REMARK  status: ('A' for Active; 'I' for Inactive)
ROOT
ATOM      1  C   UNL d   1       1.300   1.354   5.996  0.00  0.00     0.077 C 
ATOM      2  C1  UNL d   1       0.940   1.415   4.541  0.00  0.00    -0.074 A 
ATOM      3  C2  UNL d   1      -0.397   1.471   4.133  0.00  0.00    -0.005 A 
ATOM      4  C3  UNL d   1      -0.716   1.537   2.777  0.00  0.00     0.006 A 
ATOM      5  C4  UNL d   1       0.297   1.548   1.817  0.00  0.00    -0.005 A 
ATOM      6  C5  UNL d   1       1.639   1.493   2.206  0.00  0.00    -0.074 A 
ATOM      7  C6  UNL d   1       2.739   1.513   1.187  0.00  0.00     0.077 C 
ATOM      8  C7  UNL d   1       1.951   1.434   3.571  0.00  0.00    -0.001 A 
ENDROOT
TORSDOF 0
ENDMDL
