MODEL 1
REMARK minimizedAffinity 16.4790287
REMARK minimizedRMSD -1
REMARK  0 active torsions:
REMARK  status: ('A' for Active; 'I' for Inactive)
ROOT
ATOM      1  C   UNL d   1      -4.869   2.999   4.397  0.00  0.00     0.077 C 
ATOM      2  C1  UNL d   1      -3.951   2.122   3.599  0.00  0.00    -0.074 A 
ATOM      3  C2  UNL d   1      -4.430   0.974   2.960  0.00  0.00    -0.005 A 
ATOM      4  C3  UNL d   1      -3.566   0.173   2.213  0.00  0.00     0.006 A 
ATOM      5  C4  UNL d   1      -2.217   0.512   2.097  0.00  0.00    -0.005 A 
ATOM      6  C5  UNL d   1      -1.721   1.657   2.727  0.00  0.00    -0.074 A 
ATOM      7  C6  UNL d   1      -0.276   2.042   2.604  0.00  0.00     0.077 C 
ATOM      8  C7  UNL d   1      -2.597   2.461   3.471  0.00  0.00    -0.001 A 
ENDROOT
TORSDOF 0
ENDMDL
