MODEL 1
REMARK minimizedAffinity 11.4342852
REMARK minimizedRMSD -1
REMARK  0 active torsions:
REMARK  status: ('A' for Active; 'I' for Inactive)
ROOT
ATOM      1  C   UNL d   1       4.849  -2.816   0.536  0.00  0.00     0.077 C 
ATOM      2  C1  UNL d   1       4.047  -1.591   0.210  0.00  0.00    -0.074 A 
ATOM      3  C2  UNL d   1       4.315  -0.369   0.835  0.00  0.00    -0.005 A 
ATOM      4  C3  UNL d   1       3.567   0.763   0.516  0.00  0.00     0.006 A 
ATOM      5  C4  UNL d   1       2.545   0.686  -0.431  0.00  0.00    -0.005 A 
ATOM      6  C5  UNL d   1       2.263  -0.527  -1.067  0.00  0.00    -0.074 A 
ATOM      7  C6  UNL d   1       1.174  -0.626  -2.094  0.00  0.00     0.077 C 
ATOM      8  C7  UNL d   1       3.024  -1.659  -0.746  0.00  0.00    -0.001 A 
ENDROOT
TORSDOF 0
ENDMDL
