MODEL 1
REMARK minimizedAffinity 12.5725737
REMARK minimizedRMSD -1
REMARK  0 active torsions:
REMARK  status: ('A' for Active; 'I' for Inactive)
ROOT
ATOM      1  C   UNL d   1      -0.022   1.420   2.894  0.00  0.00     0.077 C 
ATOM      2  C1  UNL d   1       1.100   1.240   1.915  0.00  0.00    -0.074 A 
ATOM      3  C2  UNL d   1       2.343   1.844   2.127  0.00  0.00    -0.005 A 
ATOM      4  C3  UNL d   1       3.380   1.660   1.213  0.00  0.00     0.006 A 
ATOM      5  C4  UNL d   1       3.185   0.871   0.079  0.00  0.00    -0.005 A 
ATOM      6  C5  UNL d   1       1.949   0.258  -0.150  0.00  0.00    -0.074 A 
ATOM      7  C6  UNL d   1       1.726  -0.601  -1.359  0.00  0.00     0.077 C 
ATOM      8  C7  UNL d   1       0.914   0.442   0.777  0.00  0.00    -0.001 A 
ENDROOT
TORSDOF 0
ENDMDL
