MODEL 1
REMARK minimizedAffinity 9.97954845
REMARK minimizedRMSD -1
REMARK  0 active torsions:
REMARK  status: ('A' for Active; 'I' for Inactive)
ROOT
ATOM      1  C   UNL d   1       0.371   0.675   1.277  0.00  0.00     0.077 C 
ATOM      2  C1  UNL d   1      -1.028   0.750   1.815  0.00  0.00    -0.074 A 
ATOM      3  C2  UNL d   1      -1.459   1.865   2.541  0.00  0.00    -0.005 A 
ATOM      4  C3  UNL d   1      -2.765   1.924   3.027  0.00  0.00     0.006 A 
ATOM      5  C4  UNL d   1      -3.651   0.872   2.792  0.00  0.00    -0.005 A 
ATOM      6  C5  UNL d   1      -3.238  -0.250   2.067  0.00  0.00    -0.074 A 
ATOM      7  C6  UNL d   1      -4.180  -1.385   1.797  0.00  0.00     0.077 C 
ATOM      8  C7  UNL d   1      -1.926  -0.299   1.576  0.00  0.00    -0.001 A 
ENDROOT
TORSDOF 0
ENDMDL
