MODEL 1
REMARK minimizedAffinity 11.9657831
REMARK minimizedRMSD -1
REMARK  0 active torsions:
REMARK  status: ('A' for Active; 'I' for Inactive)
ROOT
ATOM      1  C   UNL d   1       3.030  -3.110   0.249  0.00  0.00     0.077 C 
ATOM      2  C1  UNL d   1       3.050  -1.648  -0.082  0.00  0.00    -0.074 A 
ATOM      3  C2  UNL d   1       3.674  -0.727   0.767  0.00  0.00    -0.005 A 
ATOM      4  C3  UNL d   1       3.693   0.629   0.442  0.00  0.00     0.006 A 
ATOM      5  C4  UNL d   1       3.089   1.078  -0.734  0.00  0.00    -0.005 A 
ATOM      6  C5  UNL d   1       2.462   0.172  -1.595  0.00  0.00    -0.074 A 
ATOM      7  C6  UNL d   1       1.817   0.637  -2.867  0.00  0.00     0.077 C 
ATOM      8  C7  UNL d   1       2.453  -1.190  -1.265  0.00  0.00    -0.001 A 
ENDROOT
TORSDOF 0
ENDMDL
