MODEL 1
REMARK minimizedAffinity 7.81806517
REMARK minimizedRMSD -1
REMARK  0 active torsions:
REMARK  status: ('A' for Active; 'I' for Inactive)
ROOT
ATOM      1  C   UNL d   1      -2.411  -5.232  -1.754  0.00  0.00     0.077 C 
ATOM      2  C1  UNL d   1      -2.438  -4.171  -2.814  0.00  0.00    -0.074 A 
ATOM      3  C2  UNL d   1      -1.356  -3.302  -2.990  0.00  0.00    -0.005 A 
ATOM      4  C3  UNL d   1      -1.392  -2.327  -3.987  0.00  0.00     0.006 A 
ATOM      5  C4  UNL d   1      -2.508  -2.211  -4.817  0.00  0.00    -0.005 A 
ATOM      6  C5  UNL d   1      -3.599  -3.072  -4.657  0.00  0.00    -0.074 A 
ATOM      7  C6  UNL d   1      -4.802  -2.968  -5.546  0.00  0.00     0.077 C 
ATOM      8  C7  UNL d   1      -3.552  -4.054  -3.657  0.00  0.00    -0.001 A 
ENDROOT
TORSDOF 0
ENDMDL
