MODEL 1
REMARK minimizedAffinity 12.0782213
REMARK minimizedRMSD -1
REMARK  0 active torsions:
REMARK  status: ('A' for Active; 'I' for Inactive)
ROOT
ATOM      1  C   UNL d   1      -0.430   1.878   2.522  0.00  0.00     0.077 C 
ATOM      2  C1  UNL d   1      -1.787   1.330   2.852  0.00  0.00    -0.074 A 
ATOM      3  C2  UNL d   1      -2.035  -0.046   2.815  0.00  0.00    -0.005 A 
ATOM      4  C3  UNL d   1      -3.300  -0.541   3.134  0.00  0.00     0.006 A 
ATOM      5  C4  UNL d   1      -4.326   0.333   3.494  0.00  0.00    -0.005 A 
ATOM      6  C5  UNL d   1      -4.096   1.712   3.538  0.00  0.00    -0.074 A 
ATOM      7  C6  UNL d   1      -5.185   2.665   3.932  0.00  0.00     0.077 C 
ATOM      8  C7  UNL d   1      -2.821   2.201   3.222  0.00  0.00    -0.001 A 
ENDROOT
TORSDOF 0
ENDMDL
