MODEL 1
REMARK minimizedAffinity 13.1631145
REMARK minimizedRMSD -1
REMARK  0 active torsions:
REMARK  status: ('A' for Active; 'I' for Inactive)
ROOT
ATOM      1  C   UNL d   1       4.591  -2.641   0.526  0.00  0.00     0.077 C 
ATOM      2  C1  UNL d   1       4.060  -1.368  -0.063  0.00  0.00    -0.074 A 
ATOM      3  C2  UNL d   1       4.592  -0.129   0.306  0.00  0.00    -0.005 A 
ATOM      4  C3  UNL d   1       4.094   1.046  -0.257  0.00  0.00     0.006 A 
ATOM      5  C4  UNL d   1       3.060   0.994  -1.193  0.00  0.00    -0.005 A 
ATOM      6  C5  UNL d   1       2.516  -0.237  -1.574  0.00  0.00    -0.074 A 
ATOM      7  C6  UNL d   1       1.412  -0.312  -2.586  0.00  0.00     0.077 C 
ATOM      8  C7  UNL d   1       3.027  -1.414  -1.009  0.00  0.00    -0.001 A 
ENDROOT
TORSDOF 0
ENDMDL
