MODEL 1
REMARK minimizedAffinity 15.3438768
REMARK minimizedRMSD -1
REMARK  0 active torsions:
REMARK  status: ('A' for Active; 'I' for Inactive)
ROOT
ATOM      1  C   UNL d   1       3.152   1.281   0.620  0.00  0.00     0.077 C 
ATOM      2  C1  UNL d   1       3.004  -0.077   0.000  0.00  0.00    -0.074 A 
ATOM      3  C2  UNL d   1       1.930  -0.367  -0.847  0.00  0.00    -0.005 A 
ATOM      4  C3  UNL d   1       1.810  -1.632  -1.423  0.00  0.00     0.006 A 
ATOM      5  C4  UNL d   1       2.762  -2.618  -1.158  0.00  0.00    -0.005 A 
ATOM      6  C5  UNL d   1       3.844  -2.345  -0.314  0.00  0.00    -0.074 A 
ATOM      7  C6  UNL d   1       4.881  -3.390  -0.027  0.00  0.00     0.077 C 
ATOM      8  C7  UNL d   1       3.961  -1.070   0.255  0.00  0.00    -0.001 A 
ENDROOT
TORSDOF 0
ENDMDL
