MODEL 1
REMARK minimizedAffinity 13.7680264
REMARK minimizedRMSD -1
REMARK  0 active torsions:
REMARK  status: ('A' for Active; 'I' for Inactive)
ROOT
ATOM      1  C   UNL d   1      -2.832  -5.009  -2.594  0.00  0.00     0.077 C 
ATOM      2  C1  UNL d   1      -2.981  -4.099  -3.777  0.00  0.00    -0.074 A 
ATOM      3  C2  UNL d   1      -1.865  -3.500  -4.368  0.00  0.00    -0.005 A 
ATOM      4  C3  UNL d   1      -2.018  -2.663  -5.473  0.00  0.00     0.006 A 
ATOM      5  C4  UNL d   1      -3.288  -2.419  -5.998  0.00  0.00    -0.005 A 
ATOM      6  C5  UNL d   1      -4.416  -3.010  -5.421  0.00  0.00    -0.074 A 
ATOM      7  C6  UNL d   1      -5.787  -2.766  -5.979  0.00  0.00     0.077 C 
ATOM      8  C7  UNL d   1      -4.253  -3.855  -4.315  0.00  0.00    -0.001 A 
ENDROOT
TORSDOF 0
ENDMDL
