MODEL 1
REMARK minimizedAffinity 15.8118019
REMARK minimizedRMSD -1
REMARK  0 active torsions:
REMARK  status: ('A' for Active; 'I' for Inactive)
ROOT
ATOM      1  C   UNL d   1       3.166  -3.668   0.086  0.00  0.00     0.077 C 
ATOM      2  C1  UNL d   1       2.473  -2.456  -0.460  0.00  0.00    -0.074 A 
ATOM      3  C2  UNL d   1       1.798  -2.504  -1.684  0.00  0.00    -0.005 A 
ATOM      4  C3  UNL d   1       1.150  -1.371  -2.175  0.00  0.00     0.006 A 
ATOM      5  C4  UNL d   1       1.169  -0.180  -1.449  0.00  0.00    -0.005 A 
ATOM      6  C5  UNL d   1       1.838  -0.113  -0.222  0.00  0.00    -0.074 A 
ATOM      7  C6  UNL d   1       1.860   1.157   0.576  0.00  0.00     0.077 C 
ATOM      8  C7  UNL d   1       2.481  -1.258   0.268  0.00  0.00    -0.001 A 
ENDROOT
TORSDOF 0
ENDMDL
