MODEL 1
REMARK minimizedAffinity 9.47961998
REMARK minimizedRMSD -1
REMARK  0 active torsions:
REMARK  status: ('A' for Active; 'I' for Inactive)
ROOT
ATOM      1  C   UNL d   1      -0.988   1.942  -5.362  0.00  0.00     0.077 C 
ATOM      2  C1  UNL d   1      -1.662   3.231  -4.997  0.00  0.00    -0.074 A 
ATOM      3  C2  UNL d   1      -1.106   4.088  -4.041  0.00  0.00    -0.005 A 
ATOM      4  C3  UNL d   1      -1.740   5.288  -3.719  0.00  0.00     0.006 A 
ATOM      5  C4  UNL d   1      -2.934   5.643  -4.348  0.00  0.00    -0.005 A 
ATOM      6  C5  UNL d   1      -3.504   4.799  -5.306  0.00  0.00    -0.074 A 
ATOM      7  C6  UNL d   1      -4.782   5.171  -5.999  0.00  0.00     0.077 C 
ATOM      8  C7  UNL d   1      -2.858   3.599  -5.630  0.00  0.00    -0.001 A 
ENDROOT
TORSDOF 0
ENDMDL
