MODEL 1
REMARK minimizedAffinity 15.9519262
REMARK minimizedRMSD -1
REMARK  0 active torsions:
REMARK  status: ('A' for Active; 'I' for Inactive)
ROOT
ATOM      1  C   UNL d   1      -1.908   1.712   2.675  0.00  0.00     0.077 C 
ATOM      2  C1  UNL d   1      -0.436   1.585   2.935  0.00  0.00    -0.074 A 
ATOM      3  C2  UNL d   1       0.067   1.589   4.240  0.00  0.00    -0.005 A 
ATOM      4  C3  UNL d   1       1.437   1.461   4.466  0.00  0.00     0.006 A 
ATOM      5  C4  UNL d   1       2.317   1.328   3.391  0.00  0.00    -0.005 A 
ATOM      6  C5  UNL d   1       1.832   1.320   2.079  0.00  0.00    -0.074 A 
ATOM      7  C6  UNL d   1       2.764   1.168   0.913  0.00  0.00     0.077 C 
ATOM      8  C7  UNL d   1       0.453   1.443   1.861  0.00  0.00    -0.001 A 
ENDROOT
TORSDOF 0
ENDMDL
