MODEL 1
REMARK minimizedAffinity 9.33905602
REMARK minimizedRMSD -1
REMARK  0 active torsions:
REMARK  status: ('A' for Active; 'I' for Inactive)
ROOT
ATOM      1  C4' PXY d   1       1.549   1.452   3.818  0.00  0.00     0.077 C 
ATOM      2  C1' PXY d   1      -1.838   1.196  -0.860  0.00  0.00     0.077 C 
ATOM      3  C1  PXY d   1      -0.959   1.270   0.373  0.00  0.00    -0.082 A 
ATOM      4  C2  PXY d   1       0.352   1.139   0.251  0.00  0.00     0.003 A 
ATOM      5  C3  PXY d   1       1.159   1.171   1.359  0.00  0.00     0.003 A 
ATOM      6  C4  PXY d   1       0.623   1.393   2.599  0.00  0.00    -0.082 A 
ATOM      7  C5  PXY d   1      -0.712   1.539   2.731  0.00  0.00     0.003 A 
ATOM      8  C6  PXY d   1      -1.518   1.462   1.599  0.00  0.00     0.003 A 
ENDROOT
TORSDOF 0
ENDMDL
