MODEL 1
REMARK minimizedAffinity 2.07772112
REMARK minimizedRMSD -1
REMARK  0 active torsions:
REMARK  status: ('A' for Active; 'I' for Inactive)
ROOT
ATOM      1  C4' PXY d   1       0.680  -2.871  -0.319  0.00  0.00     0.077 C 
ATOM      2  C1' PXY d   1       4.492   1.474  -0.409  0.00  0.00     0.077 C 
ATOM      3  C1  PXY d   1       3.499   0.329  -0.395  0.00  0.00    -0.082 A 
ATOM      4  C2  PXY d   1       2.282   0.524   0.086  0.00  0.00     0.003 A 
ATOM      5  C3  PXY d   1       1.381  -0.509   0.135  0.00  0.00     0.003 A 
ATOM      6  C4  PXY d   1       1.713  -1.741  -0.362  0.00  0.00    -0.082 A 
ATOM      7  C5  PXY d   1       2.949  -1.945  -0.864  0.00  0.00     0.003 A 
ATOM      8  C6  PXY d   1       3.862  -0.895  -0.868  0.00  0.00     0.003 A 
ENDROOT
TORSDOF 0
ENDMDL
