MODEL 1
REMARK minimizedAffinity 5.28320122
REMARK minimizedRMSD -1
REMARK  0 active torsions:
REMARK  status: ('A' for Active; 'I' for Inactive)
ROOT
ATOM      1  C4' PXY d   1       4.415   1.077  -0.330  0.00  0.00     0.077 C 
ATOM      2  C1' PXY d   1       0.829  -3.453  -0.152  0.00  0.00     0.077 C 
ATOM      3  C1  PXY d   1       1.762  -2.259  -0.190  0.00  0.00    -0.082 A 
ATOM      4  C2  PXY d   1       2.540  -2.070  -1.243  0.00  0.00     0.003 A 
ATOM      5  C3  PXY d   1       3.413  -1.013  -1.281  0.00  0.00     0.003 A 
ATOM      6  C4  PXY d   1       3.451  -0.110  -0.252  0.00  0.00    -0.082 A 
ATOM      7  C5  PXY d   1       2.653  -0.289   0.821  0.00  0.00     0.003 A 
ATOM      8  C6  PXY d   1       1.803  -1.391   0.858  0.00  0.00     0.003 A 
ENDROOT
TORSDOF 0
ENDMDL
