MODEL 1
REMARK minimizedAffinity 1.0974803
REMARK minimizedRMSD -1
REMARK  0 active torsions:
REMARK  status: ('A' for Active; 'I' for Inactive)
ROOT
ATOM      1  C4' PXY d   1      -0.630   1.567  -0.336  0.00  0.00     0.077 C 
ATOM      2  C1' PXY d   1       0.839  -0.513   4.853  0.00  0.00     0.077 C 
ATOM      3  C1  PXY d   1       0.466   0.033   3.489  0.00  0.00    -0.082 A 
ATOM      4  C2  PXY d   1      -0.675   0.683   3.334  0.00  0.00     0.003 A 
ATOM      5  C3  PXY d   1      -1.043   1.155   2.101  0.00  0.00     0.003 A 
ATOM      6  C4  PXY d   1      -0.209   1.007   1.025  0.00  0.00    -0.082 A 
ATOM      7  C5  PXY d   1       0.963   0.354   1.177  0.00  0.00     0.003 A 
ATOM      8  C6  PXY d   1       1.299  -0.154   2.429  0.00  0.00     0.003 A 
ENDROOT
TORSDOF 0
ENDMDL
