MODEL 1
REMARK minimizedAffinity 3.41359115
REMARK minimizedRMSD -1
REMARK  0 active torsions:
REMARK  status: ('A' for Active; 'I' for Inactive)
ROOT
ATOM      1  C4' PXY d   1       2.102  -2.322   0.114  0.00  0.00     0.077 C 
ATOM      2  C1' PXY d   1       5.406   2.420   0.196  0.00  0.00     0.077 C 
ATOM      3  C1  PXY d   1       4.530   1.183   0.181  0.00  0.00    -0.082 A 
ATOM      4  C2  PXY d   1       5.089  -0.013   0.088  0.00  0.00     0.003 A 
ATOM      5  C3  PXY d   1       4.310  -1.140   0.041  0.00  0.00     0.003 A 
ATOM      6  C4  PXY d   1       2.948  -1.046   0.142  0.00  0.00    -0.082 A 
ATOM      7  C5  PXY d   1       2.371   0.169   0.248  0.00  0.00     0.003 A 
ATOM      8  C6  PXY d   1       3.177   1.304   0.253  0.00  0.00     0.003 A 
ENDROOT
TORSDOF 0
ENDMDL
