MODEL 1
REMARK minimizedAffinity 2.20592237
REMARK minimizedRMSD -1
REMARK  0 active torsions:
REMARK  status: ('A' for Active; 'I' for Inactive)
ROOT
ATOM      1  C4' PXY d   1      -1.650   1.360  -0.995  0.00  0.00     0.077 C 
ATOM      2  C1' PXY d   1       1.030   1.282   4.126  0.00  0.00     0.077 C 
ATOM      3  C1  PXY d   1       0.338   1.308   2.778  0.00  0.00    -0.082 A 
ATOM      4  C2  PXY d   1      -0.983   1.364   2.721  0.00  0.00     0.003 A 
ATOM      5  C3  PXY d   1      -1.626   1.356   1.510  0.00  0.00     0.003 A 
ATOM      6  C4  PXY d   1      -0.908   1.342   0.344  0.00  0.00    -0.082 A 
ATOM      7  C5  PXY d   1       0.440   1.295   0.394  0.00  0.00     0.003 A 
ATOM      8  C6  PXY d   1       1.073   1.263   1.633  0.00  0.00     0.003 A 
ENDROOT
TORSDOF 0
ENDMDL
