MODEL 1
REMARK minimizedAffinity -2.19605875
REMARK minimizedRMSD -1
REMARK  0 active torsions:
REMARK  status: ('A' for Active; 'I' for Inactive)
ROOT
ATOM      1  C4' PXY d   1       4.284  -0.267  -1.875  0.00  0.00     0.077 C 
ATOM      2  C1' PXY d   1       0.880  -0.874   2.757  0.00  0.00     0.077 C 
ATOM      3  C1  PXY d   1       1.779  -0.725   1.546  0.00  0.00    -0.082 A 
ATOM      4  C2  PXY d   1       1.951   0.468   1.001  0.00  0.00     0.003 A 
ATOM      5  C3  PXY d   1       2.736   0.615  -0.114  0.00  0.00     0.003 A 
ATOM      6  C4  PXY d   1       3.392  -0.462  -0.646  0.00  0.00    -0.082 A 
ATOM      7  C5  PXY d   1       3.230  -1.681  -0.090  0.00  0.00     0.003 A 
ATOM      8  C6  PXY d   1       2.397  -1.816   1.017  0.00  0.00     0.003 A 
ENDROOT
TORSDOF 0
ENDMDL
