MODEL 1
REMARK minimizedAffinity 7.13556528
REMARK minimizedRMSD -1
REMARK  0 active torsions:
REMARK  status: ('A' for Active; 'I' for Inactive)
ROOT
ATOM      1  C4' PXY d   1       1.613   1.164   3.403  0.00  0.00     0.077 C 
ATOM      2  C1' PXY d   1      -2.061   1.371  -1.055  0.00  0.00     0.077 C 
ATOM      3  C1  PXY d   1      -1.106   1.323   0.122  0.00  0.00    -0.082 A 
ATOM      4  C2  PXY d   1       0.193   1.189  -0.095  0.00  0.00     0.003 A 
ATOM      5  C3  PXY d   1       1.067   1.112   0.959  0.00  0.00     0.003 A 
ATOM      6  C4  PXY d   1       0.613   1.226   2.246  0.00  0.00    -0.082 A 
ATOM      7  C5  PXY d   1      -0.709   1.374   2.474  0.00  0.00     0.003 A 
ATOM      8  C6  PXY d   1      -1.584   1.409   1.393  0.00  0.00     0.003 A 
ENDROOT
TORSDOF 0
ENDMDL
