MODEL 1
REMARK minimizedAffinity 2.65646005
REMARK minimizedRMSD -1
REMARK  3 active torsions:
REMARK  status: ('A' for Active; 'I' for Inactive)
REMARK    1  A    between atoms: C3'_2  and  C2'_3 
REMARK    2  A    between atoms: C2'_3  and  C1'_4 
REMARK    3  A    between atoms: C1'_4  and  C1_5 
ROOT
ATOM      1  C1  N4B d   1       0.297   3.225   1.518  0.00  0.00    -0.075 A 
ATOM      2  C2  N4B d   1      -0.867   3.741   0.906  0.00  0.00     0.002 A 
ATOM      3  C3  N4B d   1      -2.010   3.922   1.646  0.00  0.00     0.002 A 
ATOM      4  C4  N4B d   1      -2.018   3.577   2.990  0.00  0.00    -0.004 A 
ATOM      5  C5  N4B d   1      -0.882   3.103   3.579  0.00  0.00     0.002 A 
ATOM      6  C6  N4B d   1       0.274   2.921   2.848  0.00  0.00     0.002 A 
ENDROOT
BRANCH   1   7
ATOM      7  C1' N4B d   1       1.544   2.930   0.730  0.00  0.00     0.057 C 
BRANCH   7   8
ATOM      8  C2' N4B d   1       2.679   3.811   1.242  0.00  0.00     0.009 C 
BRANCH   8   9
ATOM      9  C3' N4B d   1       3.840   3.867   0.264  0.00  0.00     0.004 C 
ATOM     10  C4' N4B d   1       3.863   5.133  -0.540  0.00  0.00     0.003 C 
ENDBRANCH   8   9
ENDBRANCH   7   8
ENDBRANCH   1   7
TORSDOF 3
ENDMDL
