MODEL 1
REMARK minimizedAffinity 3.0007689
REMARK minimizedRMSD -1
REMARK  3 active torsions:
REMARK  status: ('A' for Active; 'I' for Inactive)
REMARK    1  A    between atoms: C3'_2  and  C2'_3 
REMARK    2  A    between atoms: C2'_3  and  C1'_4 
REMARK    3  A    between atoms: C1'_4  and  C1_5 
ROOT
ATOM      1  C1  N4B d   1       0.909  -0.969  -1.833  0.00  0.00    -0.075 A 
ATOM      2  C2  N4B d   1       0.580  -2.221  -1.269  0.00  0.00     0.002 A 
ATOM      3  C3  N4B d   1      -0.185  -2.281  -0.130  0.00  0.00     0.002 A 
ATOM      4  C4  N4B d   1      -0.616  -1.107   0.470  0.00  0.00    -0.004 A 
ATOM      5  C5  N4B d   1      -0.315   0.097  -0.096  0.00  0.00     0.002 A 
ATOM      6  C6  N4B d   1       0.450   0.173  -1.242  0.00  0.00     0.002 A 
ENDROOT
BRANCH   1   7
ATOM      7  C1' N4B d   1       1.815  -0.849  -3.028  0.00  0.00     0.057 C 
BRANCH   7   8
ATOM      8  C2' N4B d   1       2.415  -2.217  -3.340  0.00  0.00     0.009 C 
BRANCH   8   9
ATOM      9  C3' N4B d   1       1.437  -3.111  -4.083  0.00  0.00     0.004 C 
ATOM     10  C4' N4B d   1       1.817  -4.560  -4.026  0.00  0.00     0.003 C 
ENDBRANCH   8   9
ENDBRANCH   7   8
ENDBRANCH   1   7
TORSDOF 3
ENDMDL
