MODEL 1
REMARK minimizedAffinity 3.16200447
REMARK minimizedRMSD -1
REMARK  3 active torsions:
REMARK  status: ('A' for Active; 'I' for Inactive)
REMARK    1  A    between atoms: C3'_2  and  C2'_3 
REMARK    2  A    between atoms: C2'_3  and  C1'_4 
REMARK    3  A    between atoms: C1'_4  and  C1_5 
ROOT
ATOM      1  C1  N4B d   1      -1.282  -3.610  -0.430  0.00  0.00    -0.075 A 
ATOM      2  C2  N4B d   1      -2.144  -2.721  -1.108  0.00  0.00     0.002 A 
ATOM      3  C3  N4B d   1      -3.343  -3.172  -1.604  0.00  0.00     0.002 A 
ATOM      4  C4  N4B d   1      -3.691  -4.506  -1.451  0.00  0.00    -0.004 A 
ATOM      5  C5  N4B d   1      -2.863  -5.352  -0.773  0.00  0.00     0.002 A 
ATOM      6  C6  N4B d   1      -1.657  -4.912  -0.265  0.00  0.00     0.002 A 
ENDROOT
BRANCH   1   7
ATOM      7  C1' N4B d   1       0.077  -3.184   0.055  0.00  0.00     0.057 C 
BRANCH   7   8
ATOM      8  C2' N4B d   1       0.166  -1.661   0.020  0.00  0.00     0.009 C 
BRANCH   8   9
ATOM      9  C3' N4B d   1       1.002  -1.115   1.164  0.00  0.00     0.004 C 
ATOM     10  C4' N4B d   1       1.874   0.033   0.750  0.00  0.00     0.003 C 
ENDBRANCH   8   9
ENDBRANCH   7   8
ENDBRANCH   1   7
TORSDOF 3
ENDMDL
