MODEL 1
REMARK minimizedAffinity 8.77438068
REMARK minimizedRMSD -1
REMARK  3 active torsions:
REMARK  status: ('A' for Active; 'I' for Inactive)
REMARK    1  A    between atoms: C3'_2  and  C2'_3 
REMARK    2  A    between atoms: C2'_3  and  C1'_4 
REMARK    3  A    between atoms: C1'_4  and  C1_5 
ROOT
ATOM      1  C1  N4B d   1       0.563  -1.204  -0.790  0.00  0.00    -0.075 A 
ATOM      2  C2  N4B d   1       1.344  -0.056  -1.050  0.00  0.00     0.002 A 
ATOM      3  C3  N4B d   1       0.784   1.194  -0.942  0.00  0.00     0.002 A 
ATOM      4  C4  N4B d   1      -0.553   1.319  -0.597  0.00  0.00    -0.004 A 
ATOM      5  C5  N4B d   1      -1.293   0.206  -0.323  0.00  0.00     0.002 A 
ATOM      6  C6  N4B d   1      -0.743  -1.056  -0.423  0.00  0.00     0.002 A 
ENDROOT
BRANCH   1   7
ATOM      7  C1' N4B d   1       1.108  -2.593  -0.978  0.00  0.00     0.057 C 
BRANCH   7   8
ATOM      8  C2' N4B d   1       2.178  -2.569  -2.066  0.00  0.00     0.009 C 
BRANCH   8   9
ATOM      9  C3' N4B d   1       1.651  -3.090  -3.392  0.00  0.00     0.004 C 
ATOM     10  C4' N4B d   1       1.828  -2.110  -4.513  0.00  0.00     0.003 C 
ENDBRANCH   8   9
ENDBRANCH   7   8
ENDBRANCH   1   7
TORSDOF 3
ENDMDL
