MODEL 1
REMARK minimizedAffinity -1.01859832
REMARK minimizedRMSD -1
REMARK  3 active torsions:
REMARK  status: ('A' for Active; 'I' for Inactive)
REMARK    1  A    between atoms: C3'_2  and  C2'_3 
REMARK    2  A    between atoms: C2'_3  and  C1'_4 
REMARK    3  A    between atoms: C1'_4  and  C1_5 
ROOT
ATOM      1  C1  N4B d   1       4.724   4.193   1.487  0.00  0.00    -0.075 A 
ATOM      2  C2  N4B d   1       5.383   3.324   2.384  0.00  0.00     0.002 A 
ATOM      3  C3  N4B d   1       5.916   3.817   3.550  0.00  0.00     0.002 A 
ATOM      4  C4  N4B d   1       5.820   5.172   3.830  0.00  0.00    -0.004 A 
ATOM      5  C5  N4B d   1       5.160   6.000   2.970  0.00  0.00     0.002 A 
ATOM      6  C6  N4B d   1       4.616   5.518   1.796  0.00  0.00     0.002 A 
ENDROOT
BRANCH   1   7
ATOM      7  C1' N4B d   1       4.201   3.716   0.160  0.00  0.00     0.057 C 
BRANCH   7   8
ATOM      8  C2' N4B d   1       4.047   4.911  -0.777  0.00  0.00     0.009 C 
BRANCH   8   9
ATOM      9  C3' N4B d   1       4.401   4.558  -2.211  0.00  0.00     0.004 C 
ATOM     10  C4' N4B d   1       4.664   5.766  -3.059  0.00  0.00     0.003 C 
ENDBRANCH   8   9
ENDBRANCH   7   8
ENDBRANCH   1   7
TORSDOF 3
ENDMDL
