MODEL 1
REMARK minimizedAffinity 1.58524442
REMARK minimizedRMSD -1
REMARK  3 active torsions:
REMARK  status: ('A' for Active; 'I' for Inactive)
REMARK    1  A    between atoms: C3'_2  and  C2'_3 
REMARK    2  A    between atoms: C2'_3  and  C1'_4 
REMARK    3  A    between atoms: C1'_4  and  C1_5 
ROOT
ATOM      1  C1  N4B d   1      -1.191  -1.829  -0.732  0.00  0.00    -0.075 A 
ATOM      2  C2  N4B d   1      -0.658  -0.536  -0.924  0.00  0.00     0.002 A 
ATOM      3  C3  N4B d   1       0.697  -0.332  -0.842  0.00  0.00     0.002 A 
ATOM      4  C4  N4B d   1       1.535  -1.399  -0.551  0.00  0.00    -0.004 A 
ATOM      5  C5  N4B d   1       1.014  -2.650  -0.392  0.00  0.00     0.002 A 
ATOM      6  C6  N4B d   1      -0.346  -2.870  -0.476  0.00  0.00     0.002 A 
ENDROOT
BRANCH   1   7
ATOM      7  C1' N4B d   1      -2.674  -2.085  -0.727  0.00  0.00     0.057 C 
BRANCH   7   8
ATOM      8  C2' N4B d   1      -2.975  -3.300  -1.599  0.00  0.00     0.009 C 
BRANCH   8   9
ATOM      9  C3' N4B d   1      -2.615  -4.602  -0.903  0.00  0.00     0.004 C 
ATOM     10  C4' N4B d   1      -3.401  -5.771  -1.416  0.00  0.00     0.003 C 
ENDBRANCH   8   9
ENDBRANCH   7   8
ENDBRANCH   1   7
TORSDOF 3
ENDMDL
