MODEL 1
REMARK minimizedAffinity -4.64945507
REMARK minimizedRMSD -1
REMARK  3 active torsions:
REMARK  status: ('A' for Active; 'I' for Inactive)
REMARK    1  A    between atoms: C3'_2  and  C2'_3 
REMARK    2  A    between atoms: C2'_3  and  C1'_4 
REMARK    3  A    between atoms: C1'_4  and  C1_5 
ROOT
ATOM      1  C1  N4B d   1       5.495   0.531   3.623  0.00  0.00    -0.075 A 
ATOM      2  C2  N4B d   1       5.648  -0.787   3.141  0.00  0.00     0.002 A 
ATOM      3  C3  N4B d   1       5.680  -1.840   4.022  0.00  0.00     0.002 A 
ATOM      4  C4  N4B d   1       5.579  -1.599   5.384  0.00  0.00    -0.004 A 
ATOM      5  C5  N4B d   1       5.406  -0.324   5.839  0.00  0.00     0.002 A 
ATOM      6  C6  N4B d   1       5.368   0.743   4.965  0.00  0.00     0.002 A 
ENDROOT
BRANCH   1   7
ATOM      7  C1' N4B d   1       5.540   1.722   2.705  0.00  0.00     0.057 C 
BRANCH   7   8
ATOM      8  C2' N4B d   1       5.710   2.990   3.537  0.00  0.00     0.009 C 
BRANCH   8   9
ATOM      9  C3' N4B d   1       5.158   4.214   2.827  0.00  0.00     0.004 C 
ATOM     10  C4' N4B d   1       5.179   4.077   1.333  0.00  0.00     0.003 C 
ENDBRANCH   8   9
ENDBRANCH   7   8
ENDBRANCH   1   7
TORSDOF 3
ENDMDL
