MODEL 1
REMARK minimizedAffinity 4.57714224
REMARK minimizedRMSD -1
REMARK  3 active torsions:
REMARK  status: ('A' for Active; 'I' for Inactive)
REMARK    1  A    between atoms: C3'_2  and  C2'_3 
REMARK    2  A    between atoms: C2'_3  and  C1'_4 
REMARK    3  A    between atoms: C1'_4  and  C1_5 
ROOT
ATOM      1  C1  N4B d   1       4.526   5.635   2.225  0.00  0.00    -0.075 A 
ATOM      2  C2  N4B d   1       5.779   5.996   2.766  0.00  0.00     0.002 A 
ATOM      3  C3  N4B d   1       5.974   5.965   4.125  0.00  0.00     0.002 A 
ATOM      4  C4  N4B d   1       4.930   5.596   4.960  0.00  0.00    -0.004 A 
ATOM      5  C5  N4B d   1       3.730   5.225   4.427  0.00  0.00     0.002 A 
ATOM      6  C6  N4B d   1       3.521   5.248   3.063  0.00  0.00     0.002 A 
ENDROOT
BRANCH   1   7
ATOM      7  C1' N4B d   1       4.239   5.736   0.751  0.00  0.00     0.057 C 
BRANCH   7   8
ATOM      8  C2' N4B d   1       4.062   4.333   0.178  0.00  0.00     0.009 C 
BRANCH   8   9
ATOM      9  C3' N4B d   1       4.617   4.221  -1.231  0.00  0.00     0.004 C 
ATOM     10  C4' N4B d   1       4.990   5.551  -1.816  0.00  0.00     0.003 C 
ENDBRANCH   8   9
ENDBRANCH   7   8
ENDBRANCH   1   7
TORSDOF 3
ENDMDL
