MODEL 1
REMARK minimizedAffinity -1.86682665
REMARK minimizedRMSD -1
REMARK  3 active torsions:
REMARK  status: ('A' for Active; 'I' for Inactive)
REMARK    1  A    between atoms: C3'_2  and  C2'_3 
REMARK    2  A    between atoms: C2'_3  and  C1'_4 
REMARK    3  A    between atoms: C1'_4  and  C1_5 
ROOT
ATOM      1  C1  N4B d   1       0.318   0.621   0.020  0.00  0.00    -0.075 A 
ATOM      2  C2  N4B d   1      -0.530   1.639   0.509  0.00  0.00     0.002 A 
ATOM      3  C3  N4B d   1      -1.814   1.339   0.893  0.00  0.00     0.002 A 
ATOM      4  C4  N4B d   1      -2.276   0.036   0.780  0.00  0.00    -0.004 A 
ATOM      5  C5  N4B d   1      -1.443  -0.946   0.331  0.00  0.00     0.002 A 
ATOM      6  C6  N4B d   1      -0.149  -0.659  -0.055  0.00  0.00     0.002 A 
ENDROOT
BRANCH   1   7
ATOM      7  C1' N4B d   1       1.701   0.917  -0.492  0.00  0.00     0.057 C 
BRANCH   7   8
ATOM      8  C2' N4B d   1       1.629   2.067  -1.492  0.00  0.00     0.009 C 
BRANCH   8   9
ATOM      9  C3' N4B d   1       1.484   1.569  -2.920  0.00  0.00     0.004 C 
ATOM     10  C4' N4B d   1       0.589   2.441  -3.750  0.00  0.00     0.003 C 
ENDBRANCH   8   9
ENDBRANCH   7   8
ENDBRANCH   1   7
TORSDOF 3
ENDMDL
