MODEL 1
REMARK minimizedAffinity -5.63926649
REMARK minimizedRMSD -1
REMARK  3 active torsions:
REMARK  status: ('A' for Active; 'I' for Inactive)
REMARK    1  A    between atoms: C3'_2  and  C2'_3 
REMARK    2  A    between atoms: C2'_3  and  C1'_4 
REMARK    3  A    between atoms: C1'_4  and  C1_5 
ROOT
ATOM      1  C1  N4B d   1       0.188   0.261   0.165  0.00  0.00    -0.075 A 
ATOM      2  C2  N4B d   1       1.209  -0.618   0.590  0.00  0.00     0.002 A 
ATOM      3  C3  N4B d   1       0.903  -1.914   0.925  0.00  0.00     0.002 A 
ATOM      4  C4  N4B d   1      -0.413  -2.346   0.863  0.00  0.00    -0.004 A 
ATOM      5  C5  N4B d   1      -1.389  -1.498   0.428  0.00  0.00     0.002 A 
ATOM      6  C6  N4B d   1      -1.096  -0.194   0.083  0.00  0.00     0.002 A 
ENDROOT
BRANCH   1   7
ATOM      7  C1' N4B d   1       0.461   1.711  -0.130  0.00  0.00     0.057 C 
BRANCH   7   8
ATOM      8  C2' N4B d   1       1.371   1.811  -1.350  0.00  0.00     0.009 C 
BRANCH   8   9
ATOM      9  C3' N4B d   1       0.604   2.204  -2.601  0.00  0.00     0.004 C 
ATOM     10  C4' N4B d   1       1.144   1.557  -3.841  0.00  0.00     0.003 C 
ENDBRANCH   8   9
ENDBRANCH   7   8
ENDBRANCH   1   7
TORSDOF 3
ENDMDL
