MODEL 1
REMARK minimizedAffinity -3.12612581
REMARK minimizedRMSD -1
REMARK  3 active torsions:
REMARK  status: ('A' for Active; 'I' for Inactive)
REMARK    1  A    between atoms: C3'_2  and  C2'_3 
REMARK    2  A    between atoms: C2'_3  and  C1'_4 
REMARK    3  A    between atoms: C1'_4  and  C1_5 
ROOT
ATOM      1  C1  N4B d   1      -0.150   1.206  -0.440  0.00  0.00    -0.075 A 
ATOM      2  C2  N4B d   1      -1.078   2.055   0.203  0.00  0.00     0.002 A 
ATOM      3  C3  N4B d   1      -2.124   1.517   0.913  0.00  0.00     0.002 A 
ATOM      4  C4  N4B d   1      -2.271   0.139   0.978  0.00  0.00    -0.004 A 
ATOM      5  C5  N4B d   1      -1.356  -0.674   0.376  0.00  0.00     0.002 A 
ATOM      6  C6  N4B d   1      -0.299  -0.147  -0.337  0.00  0.00     0.002 A 
ENDROOT
BRANCH   1   7
ATOM      7  C1' N4B d   1       0.959   1.748  -1.298  0.00  0.00     0.057 C 
BRANCH   7   8
ATOM      8  C2' N4B d   1       0.375   2.240  -2.620  0.00  0.00     0.009 C 
BRANCH   8   9
ATOM      9  C3' N4B d   1       1.459   2.622  -3.613  0.00  0.00     0.004 C 
ATOM     10  C4' N4B d   1       2.832   2.607  -3.009  0.00  0.00     0.003 C 
ENDBRANCH   8   9
ENDBRANCH   7   8
ENDBRANCH   1   7
TORSDOF 3
ENDMDL
