MODEL 1
REMARK minimizedAffinity -4.65135765
REMARK minimizedRMSD -1
REMARK  3 active torsions:
REMARK  status: ('A' for Active; 'I' for Inactive)
REMARK    1  A    between atoms: C3'_2  and  C2'_3 
REMARK    2  A    between atoms: C2'_3  and  C1'_4 
REMARK    3  A    between atoms: C1'_4  and  C1_5 
ROOT
ATOM      1  C1  N4B d   1       0.899   1.496  -1.400  0.00  0.00    -0.075 A 
ATOM      2  C2  N4B d   1       2.254   1.508  -1.798  0.00  0.00     0.002 A 
ATOM      3  C3  N4B d   1       2.590   1.886  -3.075  0.00  0.00     0.002 A 
ATOM      4  C4  N4B d   1       1.592   2.236  -3.972  0.00  0.00    -0.004 A 
ATOM      5  C5  N4B d   1       0.288   2.246  -3.572  0.00  0.00     0.002 A 
ATOM      6  C6  N4B d   1      -0.064   1.872  -2.290  0.00  0.00     0.002 A 
ENDROOT
BRANCH   1   7
ATOM      7  C1' N4B d   1       0.476   1.009  -0.041  0.00  0.00     0.057 C 
BRANCH   7   8
ATOM      8  C2' N4B d   1      -0.868   0.296  -0.161  0.00  0.00     0.009 C 
BRANCH   8   9
ATOM      9  C3' N4B d   1      -0.785  -1.153   0.289  0.00  0.00     0.004 C 
ATOM     10  C4' N4B d   1       0.598  -1.552   0.711  0.00  0.00     0.003 C 
ENDBRANCH   8   9
ENDBRANCH   7   8
ENDBRANCH   1   7
TORSDOF 3
ENDMDL
