MODEL 1
REMARK minimizedAffinity -5.35356903
REMARK minimizedRMSD -1
REMARK  3 active torsions:
REMARK  status: ('A' for Active; 'I' for Inactive)
REMARK    1  A    between atoms: C3'_2  and  C2'_3 
REMARK    2  A    between atoms: C2'_3  and  C1'_4 
REMARK    3  A    between atoms: C1'_4  and  C1_5 
ROOT
ATOM      1  C1  N4B d   1      -0.082  -0.061  -0.076  0.00  0.00    -0.075 A 
ATOM      2  C2  N4B d   1      -1.492  -0.068   0.006  0.00  0.00     0.002 A 
ATOM      3  C3  N4B d   1      -2.140  -1.121   0.602  0.00  0.00     0.002 A 
ATOM      4  C4  N4B d   1      -1.404  -2.184   1.104  0.00  0.00    -0.004 A 
ATOM      5  C5  N4B d   1      -0.041  -2.158   1.044  0.00  0.00     0.002 A 
ATOM      6  C6  N4B d   1       0.623  -1.104   0.451  0.00  0.00     0.002 A 
ENDROOT
BRANCH   1   7
ATOM      7  C1' N4B d   1       0.666   1.028  -0.794  0.00  0.00     0.057 C 
BRANCH   7   8
ATOM      8  C2' N4B d   1      -0.008   1.298  -2.136  0.00  0.00     0.009 C 
BRANCH   8   9
ATOM      9  C3' N4B d   1       0.871   2.126  -3.058  0.00  0.00     0.004 C 
ATOM     10  C4' N4B d   1       1.117   1.460  -4.379  0.00  0.00     0.003 C 
ENDBRANCH   8   9
ENDBRANCH   7   8
ENDBRANCH   1   7
TORSDOF 3
ENDMDL
