MODEL 1
REMARK minimizedAffinity -5.39537334
REMARK minimizedRMSD -1
REMARK  3 active torsions:
REMARK  status: ('A' for Active; 'I' for Inactive)
REMARK    1  A    between atoms: C3'_2  and  C2'_3 
REMARK    2  A    between atoms: C2'_3  and  C1'_4 
REMARK    3  A    between atoms: C1'_4  and  C1_5 
ROOT
ATOM      1  C1  N4B d   1      -0.254  -0.351   0.227  0.00  0.00    -0.075 A 
ATOM      2  C2  N4B d   1      -1.650  -0.370   0.434  0.00  0.00     0.002 A 
ATOM      3  C3  N4B d   1      -2.240  -1.451   1.042  0.00  0.00     0.002 A 
ATOM      4  C4  N4B d   1      -1.459  -2.528   1.432  0.00  0.00    -0.004 A 
ATOM      5  C5  N4B d   1      -0.107  -2.492   1.251  0.00  0.00     0.002 A 
ATOM      6  C6  N4B d   1       0.499  -1.410   0.645  0.00  0.00     0.002 A 
ENDROOT
BRANCH   1   7
ATOM      7  C1' N4B d   1       0.425   0.771  -0.511  0.00  0.00     0.057 C 
BRANCH   7   8
ATOM      8  C2' N4B d   1       0.047   0.701  -1.987  0.00  0.00     0.009 C 
BRANCH   8   9
ATOM      9  C3' N4B d   1       0.520   1.924  -2.754  0.00  0.00     0.004 C 
ATOM     10  C4' N4B d   1       1.466   1.583  -3.865  0.00  0.00     0.003 C 
ENDBRANCH   8   9
ENDBRANCH   7   8
ENDBRANCH   1   7
TORSDOF 3
ENDMDL
