MODEL 1
REMARK minimizedAffinity -4.8313446
REMARK minimizedRMSD -1
REMARK  3 active torsions:
REMARK  status: ('A' for Active; 'I' for Inactive)
REMARK    1  A    between atoms: C3'_2  and  C2'_3 
REMARK    2  A    between atoms: C2'_3  and  C1'_4 
REMARK    3  A    between atoms: C1'_4  and  C1_5 
ROOT
ATOM      1  C1  N4B d   1      -1.118  -0.147   0.687  0.00  0.00    -0.075 A 
ATOM      2  C2  N4B d   1      -0.457  -1.375   0.466  0.00  0.00     0.002 A 
ATOM      3  C3  N4B d   1      -1.015  -2.546   0.917  0.00  0.00     0.002 A 
ATOM      4  C4  N4B d   1      -2.219  -2.512   1.604  0.00  0.00    -0.004 A 
ATOM      5  C5  N4B d   1      -2.864  -1.324   1.791  0.00  0.00     0.002 A 
ATOM      6  C6  N4B d   1      -2.317  -0.140   1.340  0.00  0.00     0.002 A 
ENDROOT
BRANCH   1   7
ATOM      7  C1' N4B d   1      -0.505   1.167   0.288  0.00  0.00     0.057 C 
BRANCH   7   8
ATOM      8  C2' N4B d   1       0.644   0.911  -0.682  0.00  0.00     0.009 C 
BRANCH   8   9
ATOM      9  C3' N4B d   1       0.435   1.618  -2.010  0.00  0.00     0.004 C 
ATOM     10  C4' N4B d   1       1.725   2.006  -2.670  0.00  0.00     0.003 C 
ENDBRANCH   8   9
ENDBRANCH   7   8
ENDBRANCH   1   7
TORSDOF 3
ENDMDL
