MODEL 1
REMARK minimizedAffinity -4.76339436
REMARK minimizedRMSD -1
REMARK  3 active torsions:
REMARK  status: ('A' for Active; 'I' for Inactive)
REMARK    1  A    between atoms: C3'_2  and  C2'_3 
REMARK    2  A    between atoms: C2'_3  and  C1'_4 
REMARK    3  A    between atoms: C1'_4  and  C1_5 
ROOT
ATOM      1  C1  N4B d   1      -0.203  -0.009  -0.254  0.00  0.00    -0.075 A 
ATOM      2  C2  N4B d   1      -1.579   0.010   0.063  0.00  0.00     0.002 A 
ATOM      3  C3  N4B d   1      -2.139  -1.037   0.752  0.00  0.00     0.002 A 
ATOM      4  C4  N4B d   1      -1.351  -2.118   1.116  0.00  0.00    -0.004 A 
ATOM      5  C5  N4B d   1      -0.017  -2.118   0.828  0.00  0.00     0.002 A 
ATOM      6  C6  N4B d   1       0.560  -1.070   0.140  0.00  0.00     0.002 A 
ENDROOT
BRANCH   1   7
ATOM      7  C1' N4B d   1       0.437   1.073  -1.081  0.00  0.00     0.057 C 
BRANCH   7   8
ATOM      8  C2' N4B d   1      -0.427   1.341  -2.310  0.00  0.00     0.009 C 
BRANCH   8   9
ATOM      9  C3' N4B d   1       0.404   1.440  -3.577  0.00  0.00     0.004 C 
ATOM     10  C4' N4B d   1       1.796   1.937  -3.322  0.00  0.00     0.003 C 
ENDBRANCH   8   9
ENDBRANCH   7   8
ENDBRANCH   1   7
TORSDOF 3
ENDMDL
