MODEL 1
REMARK minimizedAffinity -4.54988337
REMARK minimizedRMSD -1
REMARK  3 active torsions:
REMARK  status: ('A' for Active; 'I' for Inactive)
REMARK    1  A    between atoms: C3'_2  and  C2'_3 
REMARK    2  A    between atoms: C2'_3  and  C1'_4 
REMARK    3  A    between atoms: C1'_4  and  C1_5 
ROOT
ATOM      1  C1  N4B d   1       0.302  -0.861   0.501  0.00  0.00    -0.075 A 
ATOM      2  C2  N4B d   1      -1.061  -0.528   0.342  0.00  0.00     0.002 A 
ATOM      3  C3  N4B d   1      -2.034  -1.381   0.804  0.00  0.00     0.002 A 
ATOM      4  C4  N4B d   1      -1.670  -2.575   1.408  0.00  0.00    -0.004 A 
ATOM      5  C5  N4B d   1      -0.350  -2.876   1.581  0.00  0.00     0.002 A 
ATOM      6  C6  N4B d   1       0.638  -2.027   1.125  0.00  0.00     0.002 A 
ENDROOT
BRANCH   1   7
ATOM      7  C1' N4B d   1       1.400  -0.001  -0.063  0.00  0.00     0.057 C 
BRANCH   7   8
ATOM      8  C2' N4B d   1       0.780   1.171  -0.817  0.00  0.00     0.009 C 
BRANCH   8   9
ATOM      9  C3' N4B d   1       1.756   1.795  -1.800  0.00  0.00     0.004 C 
ATOM     10  C4' N4B d   1       1.218   1.848  -3.199  0.00  0.00     0.003 C 
ENDBRANCH   8   9
ENDBRANCH   7   8
ENDBRANCH   1   7
TORSDOF 3
ENDMDL
