MODEL 1
REMARK minimizedAffinity -4.07366562
REMARK minimizedRMSD -1
REMARK  3 active torsions:
REMARK  status: ('A' for Active; 'I' for Inactive)
REMARK    1  A    between atoms: C3'_2  and  C2'_3 
REMARK    2  A    between atoms: C2'_3  and  C1'_4 
REMARK    3  A    between atoms: C1'_4  and  C1_5 
ROOT
ATOM      1  C1  N4B d   1       0.082  -0.624  -0.423  0.00  0.00    -0.075 A 
ATOM      2  C2  N4B d   1       0.702  -1.103   0.752  0.00  0.00     0.002 A 
ATOM      3  C3  N4B d   1       0.075  -2.053   1.521  0.00  0.00     0.002 A 
ATOM      4  C4  N4B d   1      -1.175  -2.523   1.146  0.00  0.00    -0.004 A 
ATOM      5  C5  N4B d   1      -1.755  -2.074  -0.004  0.00  0.00     0.002 A 
ATOM      6  C6  N4B d   1      -1.135  -1.123  -0.788  0.00  0.00     0.002 A 
ENDROOT
BRANCH   1   7
ATOM      7  C1' N4B d   1       0.689   0.476  -1.250  0.00  0.00     0.057 C 
BRANCH   7   8
ATOM      8  C2' N4B d   1      -0.424   1.241  -1.960  0.00  0.00     0.009 C 
BRANCH   8   9
ATOM      9  C3' N4B d   1       0.058   1.875  -3.254  0.00  0.00     0.004 C 
ATOM     10  C4' N4B d   1       1.553   1.893  -3.369  0.00  0.00     0.003 C 
ENDBRANCH   8   9
ENDBRANCH   7   8
ENDBRANCH   1   7
TORSDOF 3
ENDMDL
