MODEL 1
REMARK minimizedAffinity -5.92694473
REMARK minimizedRMSD -1
REMARK  3 active torsions:
REMARK  status: ('A' for Active; 'I' for Inactive)
REMARK    1  A    between atoms: C3'_2  and  C2'_3 
REMARK    2  A    between atoms: C2'_3  and  C1'_4 
REMARK    3  A    between atoms: C1'_4  and  C1_5 
ROOT
ATOM      1  C1  N4B d   1      -0.592  -0.065   0.928  0.00  0.00    -0.075 A 
ATOM      2  C2  N4B d   1      -0.035  -1.347   0.725  0.00  0.00     0.002 A 
ATOM      3  C3  N4B d   1      -0.713  -2.465   1.147  0.00  0.00     0.002 A 
ATOM      4  C4  N4B d   1      -1.934  -2.325   1.789  0.00  0.00    -0.004 A 
ATOM      5  C5  N4B d   1      -2.477  -1.085   1.959  0.00  0.00     0.002 A 
ATOM      6  C6  N4B d   1      -1.809   0.047   1.536  0.00  0.00     0.002 A 
ENDROOT
BRANCH   1   7
ATOM      7  C1' N4B d   1       0.150   1.190   0.561  0.00  0.00     0.057 C 
BRANCH   7   8
ATOM      8  C2' N4B d   1       0.408   1.198  -0.943  0.00  0.00     0.009 C 
BRANCH   8   9
ATOM      9  C3' N4B d   1       1.590   2.078  -1.312  0.00  0.00     0.004 C 
ATOM     10  C4' N4B d   1       1.579   2.490  -2.754  0.00  0.00     0.003 C 
ENDBRANCH   8   9
ENDBRANCH   7   8
ENDBRANCH   1   7
TORSDOF 3
ENDMDL
