MODEL 1
REMARK minimizedAffinity -4.74123192
REMARK minimizedRMSD -1
REMARK  3 active torsions:
REMARK  status: ('A' for Active; 'I' for Inactive)
REMARK    1  A    between atoms: C3'_2  and  C2'_3 
REMARK    2  A    between atoms: C2'_3  and  C1'_4 
REMARK    3  A    between atoms: C1'_4  and  C1_5 
ROOT
ATOM      1  C1  N4B d   1       0.222   0.018  -0.033  0.00  0.00    -0.075 A 
ATOM      2  C2  N4B d   1       1.065  -0.861   0.683  0.00  0.00     0.002 A 
ATOM      3  C3  N4B d   1       0.527  -1.930   1.356  0.00  0.00     0.002 A 
ATOM      4  C4  N4B d   1      -0.845  -2.130   1.343  0.00  0.00    -0.004 A 
ATOM      5  C5  N4B d   1      -1.649  -1.291   0.629  0.00  0.00     0.002 A 
ATOM      6  C6  N4B d   1      -1.123  -0.214  -0.056  0.00  0.00     0.002 A 
ENDROOT
BRANCH   1   7
ATOM      7  C1' N4B d   1       0.754   1.250  -0.713  0.00  0.00     0.057 C 
BRANCH   7   8
ATOM      8  C2' N4B d   1       0.329   1.236  -2.178  0.00  0.00     0.009 C 
BRANCH   8   9
ATOM      9  C3' N4B d   1       1.094   2.258  -3.002  0.00  0.00     0.004 C 
ATOM     10  C4' N4B d   1       2.315   2.773  -2.300  0.00  0.00     0.003 C 
ENDBRANCH   8   9
ENDBRANCH   7   8
ENDBRANCH   1   7
TORSDOF 3
ENDMDL
