MODEL 1
REMARK minimizedAffinity -3.00952315
REMARK minimizedRMSD -1
REMARK  1 active torsions:
REMARK  status: ('A' for Active; 'I' for Inactive)
REMARK    1  A    between atoms: C1_2  and  C2_3 
ROOT
ATOM      1  C2  UNL d   1       2.112   1.941   0.351  0.00  0.00    -0.073 A 
ATOM      2  C3  UNL d   1       2.451   2.962  -0.544  0.00  0.00    -0.002 A 
ATOM      3  C4  UNL d   1       1.468   3.821  -1.039  0.00  0.00     0.004 A 
ATOM      4  C5  UNL d   1       0.140   3.672  -0.640  0.00  0.00    -0.004 A 
ATOM      5  C6  UNL d   1      -0.217   2.665   0.262  0.00  0.00    -0.075 A 
ATOM      6  C7  UNL d   1      -1.641   2.490   0.700  0.00  0.00     0.076 C 
ATOM      7  C8  UNL d   1       0.775   1.805   0.753  0.00  0.00     0.001 A 
ENDROOT
BRANCH   1   8
ATOM      8  C1  UNL d   1       3.170   1.016   0.893  0.00  0.00     0.053 C 
ATOM      9  C   UNL d   1       2.716   0.311   2.162  0.00  0.00     0.018 C 
ENDBRANCH   1   8
TORSDOF 1
ENDMDL
