MODEL 1
REMARK minimizedAffinity 1.47043133
REMARK minimizedRMSD -1
REMARK  1 active torsions:
REMARK  status: ('A' for Active; 'I' for Inactive)
REMARK    1  A    between atoms: C1_2  and  C2_3 
ROOT
ATOM      1  C2  UNL d   1      -1.978  -1.839  -2.258  0.00  0.00    -0.073 A 
ATOM      2  C3  UNL d   1      -0.809  -2.242  -2.913  0.00  0.00    -0.002 A 
ATOM      3  C4  UNL d   1       0.370  -2.440  -2.192  0.00  0.00     0.004 A 
ATOM      4  C5  UNL d   1       0.390  -2.243  -0.812  0.00  0.00    -0.004 A 
ATOM      5  C6  UNL d   1      -0.771  -1.851  -0.138  0.00  0.00    -0.075 A 
ATOM      6  C7  UNL d   1      -0.765  -1.633   1.347  0.00  0.00     0.076 C 
ATOM      7  C8  UNL d   1      -1.950  -1.653  -0.868  0.00  0.00     0.001 A 
ENDROOT
BRANCH   1   8
ATOM      8  C1  UNL d   1      -3.255  -1.631  -3.030  0.00  0.00     0.053 C 
ATOM      9  C   UNL d   1      -3.261  -0.306  -3.776  0.00  0.00     0.018 C 
ENDBRANCH   1   8
TORSDOF 1
ENDMDL
