MODEL 1
REMARK minimizedAffinity 11.4401722
REMARK minimizedRMSD -1
REMARK  1 active torsions:
REMARK  status: ('A' for Active; 'I' for Inactive)
REMARK    1  A    between atoms: C1_2  and  C2_3 
ROOT
ATOM      1  C2  UNL d   1       2.496   2.576   0.297  0.00  0.00    -0.073 A 
ATOM      2  C3  UNL d   1       1.983   2.600   1.598  0.00  0.00    -0.002 A 
ATOM      3  C4  UNL d   1       2.079   1.472   2.415  0.00  0.00     0.004 A 
ATOM      4  C5  UNL d   1       2.695   0.314   1.942  0.00  0.00    -0.004 A 
ATOM      5  C6  UNL d   1       3.224   0.274   0.648  0.00  0.00    -0.075 A 
ATOM      6  C7  UNL d   1       3.888  -0.966   0.124  0.00  0.00     0.076 C 
ATOM      7  C8  UNL d   1       3.121   1.409  -0.167  0.00  0.00     0.001 A 
ENDROOT
BRANCH   1   8
ATOM      8  C1  UNL d   1       2.400   3.793  -0.587  0.00  0.00     0.053 C 
ATOM      9  C   UNL d   1       1.137   4.595  -0.317  0.00  0.00     0.018 C 
ENDBRANCH   1   8
TORSDOF 1
ENDMDL
