MODEL 1
REMARK minimizedAffinity -2.19821072
REMARK minimizedRMSD -1
REMARK  1 active torsions:
REMARK  status: ('A' for Active; 'I' for Inactive)
REMARK    1  A    between atoms: C1_2  and  C2_3 
ROOT
ATOM      1  C2  UNL d   1       1.230  -1.714   3.793  0.00  0.00    -0.073 A 
ATOM      2  C3  UNL d   1       0.392  -2.517   3.010  0.00  0.00    -0.002 A 
ATOM      3  C4  UNL d   1       0.020  -2.109   1.729  0.00  0.00     0.004 A 
ATOM      4  C5  UNL d   1       0.486  -0.899   1.215  0.00  0.00    -0.004 A 
ATOM      5  C6  UNL d   1       1.334  -0.088   1.977  0.00  0.00    -0.075 A 
ATOM      6  C7  UNL d   1       1.842   1.217   1.439  0.00  0.00     0.076 C 
ATOM      7  C8  UNL d   1       1.701  -0.504   3.264  0.00  0.00     0.001 A 
ENDROOT
BRANCH   1   8
ATOM      8  C1  UNL d   1       1.640  -2.154   5.175  0.00  0.00     0.053 C 
ATOM      9  C   UNL d   1       1.414  -3.643   5.389  0.00  0.00     0.018 C 
ENDBRANCH   1   8
TORSDOF 1
ENDMDL
