MODEL 1
REMARK minimizedAffinity 5.23197603
REMARK minimizedRMSD -1
REMARK  1 active torsions:
REMARK  status: ('A' for Active; 'I' for Inactive)
REMARK    1  A    between atoms: C1_2  and  C2_3 
ROOT
ATOM      1  C2  UNL d   1       0.954  -2.183   4.104  0.00  0.00    -0.073 A 
ATOM      2  C3  UNL d   1       1.867  -1.777   5.083  0.00  0.00    -0.002 A 
ATOM      3  C4  UNL d   1       2.531  -2.724   5.864  0.00  0.00     0.004 A 
ATOM      4  C5  UNL d   1       2.294  -4.084   5.669  0.00  0.00    -0.004 A 
ATOM      5  C6  UNL d   1       1.394  -4.510   4.687  0.00  0.00    -0.075 A 
ATOM      6  C7  UNL d   1       1.127  -5.970   4.466  0.00  0.00     0.076 C 
ATOM      7  C8  UNL d   1       0.729  -3.553   3.909  0.00  0.00     0.001 A 
ENDROOT
BRANCH   1   8
ATOM      8  C1  UNL d   1       0.239  -1.164   3.254  0.00  0.00     0.053 C 
ATOM      9  C   UNL d   1       1.058   0.105   3.075  0.00  0.00     0.018 C 
ENDBRANCH   1   8
TORSDOF 1
ENDMDL
