MODEL 1
REMARK minimizedAffinity -2.01467133
REMARK minimizedRMSD -1
REMARK  1 active torsions:
REMARK  status: ('A' for Active; 'I' for Inactive)
REMARK    1  A    between atoms: C1_2  and  C2_3 
ROOT
ATOM      1  C2  UNL d   1      -0.731   0.343  -0.416  0.00  0.00    -0.073 A 
ATOM      2  C3  UNL d   1       0.323   1.256  -0.302  0.00  0.00    -0.002 A 
ATOM      3  C4  UNL d   1       1.424   0.964   0.504  0.00  0.00     0.004 A 
ATOM      4  C5  UNL d   1       1.486  -0.245   1.198  0.00  0.00    -0.004 A 
ATOM      5  C6  UNL d   1       0.447  -1.175   1.087  0.00  0.00    -0.075 A 
ATOM      6  C7  UNL d   1       0.497  -2.479   1.828  0.00  0.00     0.076 C 
ATOM      7  C8  UNL d   1      -0.656  -0.873   0.278  0.00  0.00     0.001 A 
ENDROOT
BRANCH   1   8
ATOM      8  C1  UNL d   1      -1.920   0.651  -1.290  0.00  0.00     0.053 C 
ATOM      9  C   UNL d   1      -2.095  -0.376  -2.397  0.00  0.00     0.018 C 
ENDBRANCH   1   8
TORSDOF 1
ENDMDL
