MODEL 1
REMARK minimizedAffinity -3.41329288
REMARK minimizedRMSD -1
REMARK  1 active torsions:
REMARK  status: ('A' for Active; 'I' for Inactive)
REMARK    1  A    between atoms: C1_2  and  C2_3 
ROOT
ATOM      1  C2  UNL d   1      -0.075  -0.272   0.274  0.00  0.00    -0.073 A 
ATOM      2  C3  UNL d   1       0.490   1.007   0.347  0.00  0.00    -0.002 A 
ATOM      3  C4  UNL d   1       1.790   1.177   0.827  0.00  0.00     0.004 A 
ATOM      4  C5  UNL d   1       2.539   0.072   1.231  0.00  0.00    -0.004 A 
ATOM      5  C6  UNL d   1       1.996  -1.215   1.154  0.00  0.00    -0.075 A 
ATOM      6  C7  UNL d   1       2.789  -2.413   1.587  0.00  0.00     0.076 C 
ATOM      7  C8  UNL d   1       0.690  -1.377   0.674  0.00  0.00     0.001 A 
ENDROOT
BRANCH   1   8
ATOM      8  C1  UNL d   1      -1.475  -0.461  -0.249  0.00  0.00     0.053 C 
ATOM      9  C   UNL d   1      -1.836   0.577  -1.300  0.00  0.00     0.018 C 
ENDBRANCH   1   8
TORSDOF 1
ENDMDL
