MODEL 1
REMARK minimizedAffinity -5.77842999
REMARK minimizedRMSD -1
REMARK  1 active torsions:
REMARK  status: ('A' for Active; 'I' for Inactive)
REMARK    1  A    between atoms: C1_2  and  C2_3 
ROOT
ATOM      1  C2  UNL d   1       0.347   0.214   0.149  0.00  0.00    -0.073 A 
ATOM      2  C3  UNL d   1       1.304   1.109  -0.343  0.00  0.00    -0.002 A 
ATOM      3  C4  UNL d   1       2.626   1.040   0.099  0.00  0.00     0.004 A 
ATOM      4  C5  UNL d   1       3.006   0.074   1.030  0.00  0.00    -0.004 A 
ATOM      5  C6  UNL d   1       2.066  -0.838   1.524  0.00  0.00    -0.075 A 
ATOM      6  C7  UNL d   1       2.458  -1.882   2.527  0.00  0.00     0.076 C 
ATOM      7  C8  UNL d   1       0.740  -0.760   1.077  0.00  0.00     0.001 A 
ENDROOT
BRANCH   1   8
ATOM      8  C1  UNL d   1      -1.080   0.280  -0.331  0.00  0.00     0.053 C 
ATOM      9  C   UNL d   1      -2.031  -0.441   0.611  0.00  0.00     0.018 C 
ENDBRANCH   1   8
TORSDOF 1
ENDMDL
