MODEL 1
REMARK minimizedAffinity -4.99008703
REMARK minimizedRMSD -1
REMARK  1 active torsions:
REMARK  status: ('A' for Active; 'I' for Inactive)
REMARK    1  A    between atoms: C1_2  and  C2_3 
ROOT
ATOM      1  C2  UNL d   1      -1.142  -0.386  -0.020  0.00  0.00    -0.073 A 
ATOM      2  C3  UNL d   1      -1.525  -1.402   0.864  0.00  0.00    -0.002 A 
ATOM      3  C4  UNL d   1      -0.578  -2.014   1.686  0.00  0.00     0.004 A 
ATOM      4  C5  UNL d   1       0.757  -1.613   1.638  0.00  0.00    -0.004 A 
ATOM      5  C6  UNL d   1       1.157  -0.592   0.770  0.00  0.00    -0.075 A 
ATOM      6  C7  UNL d   1       2.589  -0.151   0.706  0.00  0.00     0.076 C 
ATOM      7  C8  UNL d   1       0.201   0.016  -0.054  0.00  0.00     0.001 A 
ENDROOT
BRANCH   1   8
ATOM      8  C1  UNL d   1      -2.162   0.283  -0.905  0.00  0.00     0.053 C 
ATOM      9  C   UNL d   1      -2.886  -0.715  -1.796  0.00  0.00     0.018 C 
ENDBRANCH   1   8
TORSDOF 1
ENDMDL
