MODEL 1
REMARK minimizedAffinity -3.10610294
REMARK minimizedRMSD -1
REMARK  1 active torsions:
REMARK  status: ('A' for Active; 'I' for Inactive)
REMARK    1  A    between atoms: C1_2  and  C2_3 
ROOT
ATOM      1  C2  UNL d   1       0.365   0.138   0.346  0.00  0.00    -0.073 A 
ATOM      2  C3  UNL d   1       1.380   1.101   0.366  0.00  0.00    -0.002 A 
ATOM      3  C4  UNL d   1       2.449   0.980   1.254  0.00  0.00     0.004 A 
ATOM      4  C5  UNL d   1       2.519  -0.107   2.125  0.00  0.00    -0.004 A 
ATOM      5  C6  UNL d   1       1.521  -1.087   2.112  0.00  0.00    -0.075 A 
ATOM      6  C7  UNL d   1       1.580  -2.261   3.044  0.00  0.00     0.076 C 
ATOM      7  C8  UNL d   1       0.449  -0.957   1.219  0.00  0.00     0.001 A 
ENDROOT
BRANCH   1   8
ATOM      8  C1  UNL d   1      -0.789   0.261  -0.615  0.00  0.00     0.053 C 
ATOM      9  C   UNL d   1      -2.108   0.490   0.105  0.00  0.00     0.018 C 
ENDBRANCH   1   8
TORSDOF 1
ENDMDL
