MODEL 1
REMARK minimizedAffinity -3.76677918
REMARK minimizedRMSD -1
REMARK  1 active torsions:
REMARK  status: ('A' for Active; 'I' for Inactive)
REMARK    1  A    between atoms: C1_2  and  C2_3 
ROOT
ATOM      1  C2  UNL d   1      -0.167  -0.668   0.395  0.00  0.00    -0.073 A 
ATOM      2  C3  UNL d   1       0.681  -1.741   0.097  0.00  0.00    -0.002 A 
ATOM      3  C4  UNL d   1       2.063  -1.605   0.229  0.00  0.00     0.004 A 
ATOM      4  C5  UNL d   1       2.611  -0.398   0.665  0.00  0.00    -0.004 A 
ATOM      5  C6  UNL d   1       1.779   0.682   0.978  0.00  0.00    -0.075 A 
ATOM      6  C7  UNL d   1       2.353   1.987   1.447  0.00  0.00     0.076 C 
ATOM      7  C8  UNL d   1       0.392   0.537   0.841  0.00  0.00     0.001 A 
ENDROOT
BRANCH   1   8
ATOM      8  C1  UNL d   1      -1.661  -0.813   0.260  0.00  0.00     0.053 C 
ATOM      9  C   UNL d   1      -2.145  -0.455  -1.136  0.00  0.00     0.018 C 
ENDBRANCH   1   8
TORSDOF 1
ENDMDL
