MODEL 1
REMARK minimizedAffinity -4.77686119
REMARK minimizedRMSD -1
REMARK  1 active torsions:
REMARK  status: ('A' for Active; 'I' for Inactive)
REMARK    1  A    between atoms: C1_2  and  C2_3 
ROOT
ATOM      1  C2  UNL d   1      -1.145   0.611  -0.905  0.00  0.00    -0.073 A 
ATOM      2  C3  UNL d   1      -1.718  -0.622  -1.235  0.00  0.00    -0.002 A 
ATOM      3  C4  UNL d   1      -2.600  -0.724  -2.312  0.00  0.00     0.004 A 
ATOM      4  C5  UNL d   1      -2.912   0.403  -3.073  0.00  0.00    -0.004 A 
ATOM      5  C6  UNL d   1      -2.340   1.642  -2.766  0.00  0.00    -0.075 A 
ATOM      6  C7  UNL d   1      -2.667   2.863  -3.573  0.00  0.00     0.076 C 
ATOM      7  C8  UNL d   1      -1.457   1.736  -1.682  0.00  0.00     0.001 A 
ENDROOT
BRANCH   1   8
ATOM      8  C1  UNL d   1      -0.187   0.725   0.252  0.00  0.00     0.053 C 
ATOM      9  C   UNL d   1       0.757  -0.465   0.330  0.00  0.00     0.018 C 
ENDBRANCH   1   8
TORSDOF 1
ENDMDL
