MODEL 1
REMARK minimizedAffinity -1.50840259
REMARK minimizedRMSD -1
REMARK  1 active torsions:
REMARK  status: ('A' for Active; 'I' for Inactive)
REMARK    1  A    between atoms: C1_2  and  C2_3 
ROOT
ATOM      1  C2  UNL d   1       1.200  -0.824   0.646  0.00  0.00    -0.073 A 
ATOM      2  C3  UNL d   1       0.027  -1.532   0.929  0.00  0.00    -0.002 A 
ATOM      3  C4  UNL d   1      -1.199  -0.868   0.993  0.00  0.00     0.004 A 
ATOM      4  C5  UNL d   1      -1.265   0.508   0.770  0.00  0.00    -0.004 A 
ATOM      5  C6  UNL d   1      -0.104   1.231   0.475  0.00  0.00    -0.075 A 
ATOM      6  C7  UNL d   1      -0.158   2.711   0.234  0.00  0.00     0.076 C 
ATOM      7  C8  UNL d   1       1.123   0.557   0.414  0.00  0.00     0.001 A 
ENDROOT
BRANCH   1   8
ATOM      8  C1  UNL d   1       2.525  -1.537   0.569  0.00  0.00     0.053 C 
ATOM      9  C   UNL d   1       3.633  -0.759   1.261  0.00  0.00     0.018 C 
ENDBRANCH   1   8
TORSDOF 1
ENDMDL
