MODEL 1
REMARK minimizedAffinity -4.02441645
REMARK minimizedRMSD -1
REMARK  1 active torsions:
REMARK  status: ('A' for Active; 'I' for Inactive)
REMARK    1  A    between atoms: C1_2  and  C2_3 
ROOT
ATOM      1  C2  UNL d   1      -2.066  -0.139  -1.327  0.00  0.00    -0.073 A 
ATOM      2  C3  UNL d   1      -2.314  -1.313  -2.049  0.00  0.00    -0.002 A 
ATOM      3  C4  UNL d   1      -3.038  -1.268  -3.241  0.00  0.00     0.004 A 
ATOM      4  C5  UNL d   1      -3.516  -0.051  -3.726  0.00  0.00    -0.004 A 
ATOM      5  C6  UNL d   1      -3.269   1.134  -3.026  0.00  0.00    -0.075 A 
ATOM      6  C7  UNL d   1      -3.778   2.451  -3.534  0.00  0.00     0.076 C 
ATOM      7  C8  UNL d   1      -2.543   1.081  -1.828  0.00  0.00     0.001 A 
ENDROOT
BRANCH   1   8
ATOM      8  C1  UNL d   1      -1.279  -0.182  -0.043  0.00  0.00     0.053 C 
ATOM      9  C   UNL d   1      -0.204   0.892   0.003  0.00  0.00     0.018 C 
ENDBRANCH   1   8
TORSDOF 1
ENDMDL
