MODEL 1
REMARK minimizedAffinity -3.95767665
REMARK minimizedRMSD -1
REMARK  0 active torsions:
REMARK  status: ('A' for Active; 'I' for Inactive)
ROOT
ATOM      1  O1  BZF d   1       1.174   0.581  -0.526  0.00  0.00    -0.204 OA
ATOM      2  C2  BZF d   1       0.177   0.857  -1.441  0.00  0.00     0.174 A 
ATOM      3  C3  BZF d   1      -1.005   0.358  -1.025  0.00  0.00    -0.012 A 
ATOM      4  C3A BZF d   1      -0.748  -0.188   0.272  0.00  0.00    -0.107 A 
ATOM      5  C4  BZF d   1      -1.531  -0.810   1.202  0.00  0.00     0.055 A 
ATOM      6  C5  BZF d   1      -0.957  -1.288   2.336  0.00  0.00    -0.016 A 
ATOM      7  C6  BZF d   1       0.397  -1.167   2.571  0.00  0.00     0.022 A 
ATOM      8  C7  BZF d   1       1.214  -0.553   1.681  0.00  0.00     0.029 A 
ATOM      9  C7A BZF d   1       0.631  -0.040   0.548  0.00  0.00     0.058 A 
ENDROOT
TORSDOF 0
ENDMDL
