MODEL 1
REMARK minimizedAffinity -2.1615026
REMARK minimizedRMSD -1
REMARK  0 active torsions:
REMARK  status: ('A' for Active; 'I' for Inactive)
ROOT
ATOM      1  O1  BZF d   1       1.480  -1.619   1.826  0.00  0.00    -0.204 OA
ATOM      2  C2  BZF d   1       0.843  -1.711   3.049  0.00  0.00     0.174 A 
ATOM      3  C3  BZF d   1      -0.332  -1.050   3.027  0.00  0.00    -0.012 A 
ATOM      4  C3A BZF d   1      -0.479  -0.588   1.680  0.00  0.00    -0.107 A 
ATOM      5  C4  BZF d   1      -1.450   0.119   1.031  0.00  0.00     0.055 A 
ATOM      6  C5  BZF d   1      -1.255   0.470  -0.267  0.00  0.00    -0.016 A 
ATOM      7  C6  BZF d   1      -0.100   0.136  -0.944  0.00  0.00     0.022 A 
ATOM      8  C7  BZF d   1       0.889  -0.570  -0.344  0.00  0.00     0.029 A 
ATOM      9  C7A BZF d   1       0.680  -0.954   0.958  0.00  0.00     0.058 A 
ENDROOT
TORSDOF 0
ENDMDL
