MODEL 1
REMARK minimizedAffinity -2.97100854
REMARK minimizedRMSD -1
REMARK  0 active torsions:
REMARK  status: ('A' for Active; 'I' for Inactive)
ROOT
ATOM      1  O1  BZF d   1      -0.767   3.288  -1.253  0.00  0.00    -0.204 OA
ATOM      2  C2  BZF d   1      -0.721   3.397  -2.629  0.00  0.00     0.174 A 
ATOM      3  C3  BZF d   1      -0.426   2.208  -3.194  0.00  0.00    -0.012 A 
ATOM      4  C3A BZF d   1      -0.370   1.279  -2.107  0.00  0.00    -0.107 A 
ATOM      5  C4  BZF d   1      -0.133  -0.064  -2.031  0.00  0.00     0.055 A 
ATOM      6  C5  BZF d   1      -0.075  -0.656  -0.810  0.00  0.00    -0.016 A 
ATOM      7  C6  BZF d   1      -0.244   0.064   0.355  0.00  0.00     0.022 A 
ATOM      8  C7  BZF d   1      -0.486   1.397   0.330  0.00  0.00     0.029 A 
ATOM      9  C7A BZF d   1      -0.578   1.993  -0.904  0.00  0.00     0.058 A 
ENDROOT
TORSDOF 0
ENDMDL
