MODEL 1
REMARK minimizedAffinity -4.22236156
REMARK minimizedRMSD -1
REMARK  0 active torsions:
REMARK  status: ('A' for Active; 'I' for Inactive)
ROOT
ATOM      1  O1  BZF d   1       2.136  -1.662  -0.371  0.00  0.00    -0.204 OA
ATOM      2  C2  BZF d   1       2.715  -2.531   0.534  0.00  0.00     0.174 A 
ATOM      3  C3  BZF d   1       2.135  -2.417   1.746  0.00  0.00    -0.012 A 
ATOM      4  C3A BZF d   1       1.069  -1.479   1.566  0.00  0.00    -0.107 A 
ATOM      5  C4  BZF d   1       0.119  -0.965   2.402  0.00  0.00     0.055 A 
ATOM      6  C5  BZF d   1      -0.730  -0.014   1.931  0.00  0.00    -0.016 A 
ATOM      7  C6  BZF d   1      -0.654   0.449   0.634  0.00  0.00     0.022 A 
ATOM      8  C7  BZF d   1       0.268  -0.034  -0.234  0.00  0.00     0.029 A 
ATOM      9  C7A BZF d   1       1.106  -1.019   0.229  0.00  0.00     0.058 A 
ENDROOT
TORSDOF 0
ENDMDL
