MODEL 1
REMARK minimizedAffinity 0.721517384
REMARK minimizedRMSD -1
REMARK  0 active torsions:
REMARK  status: ('A' for Active; 'I' for Inactive)
ROOT
ATOM      1  O1  BZF d   1      -0.118   2.554  -1.876  0.00  0.00    -0.204 OA
ATOM      2  C2  BZF d   1      -1.407   2.658  -2.360  0.00  0.00     0.174 A 
ATOM      3  C3  BZF d   1      -2.146   1.593  -1.985  0.00  0.00    -0.012 A 
ATOM      4  C3A BZF d   1      -1.288   0.818  -1.142  0.00  0.00    -0.107 A 
ATOM      5  C4  BZF d   1      -1.455  -0.348  -0.451  0.00  0.00     0.055 A 
ATOM      6  C5  BZF d   1      -0.396  -0.876   0.218  0.00  0.00    -0.016 A 
ATOM      7  C6  BZF d   1       0.843  -0.269   0.213  0.00  0.00     0.022 A 
ATOM      8  C7  BZF d   1       1.055   0.891  -0.455  0.00  0.00     0.029 A 
ATOM      9  C7A BZF d   1      -0.021   1.445  -1.104  0.00  0.00     0.058 A 
ENDROOT
TORSDOF 0
ENDMDL
