MODEL 1
REMARK minimizedAffinity -5.19069195
REMARK minimizedRMSD -1
REMARK  0 active torsions:
REMARK  status: ('A' for Active; 'I' for Inactive)
ROOT
ATOM      1  O1  BZF d   1       0.804  -0.495  -1.069  0.00  0.00    -0.204 OA
ATOM      2  C2  BZF d   1      -0.433   0.111  -0.970  0.00  0.00     0.174 A 
ATOM      3  C3  BZF d   1      -0.850   0.140   0.312  0.00  0.00    -0.012 A 
ATOM      4  C3A BZF d   1       0.233  -0.405   1.072  0.00  0.00    -0.107 A 
ATOM      5  C4  BZF d   1       0.427  -0.623   2.406  0.00  0.00     0.055 A 
ATOM      6  C5  BZF d   1       1.567  -1.239   2.816  0.00  0.00    -0.016 A 
ATOM      7  C6  BZF d   1       2.530  -1.653   1.920  0.00  0.00     0.022 A 
ATOM      8  C7  BZF d   1       2.385  -1.453   0.587  0.00  0.00     0.029 A 
ATOM      9  C7A BZF d   1       1.249  -0.802   0.173  0.00  0.00     0.058 A 
ENDROOT
TORSDOF 0
ENDMDL
