MODEL 1
REMARK minimizedAffinity -3.55623794
REMARK minimizedRMSD -1
REMARK  0 active torsions:
REMARK  status: ('A' for Active; 'I' for Inactive)
ROOT
ATOM      1  O1  BZF d   1       0.978  -0.213  -0.683  0.00  0.00    -0.204 OA
ATOM      2  C2  BZF d   1      -0.105   0.233  -1.415  0.00  0.00     0.174 A 
ATOM      3  C3  BZF d   1      -1.179   0.412  -0.619  0.00  0.00    -0.012 A 
ATOM      4  C3A BZF d   1      -0.714   0.144   0.707  0.00  0.00    -0.107 A 
ATOM      5  C4  BZF d   1      -1.311   0.169   1.935  0.00  0.00     0.055 A 
ATOM      6  C5  BZF d   1      -0.597  -0.217   3.025  0.00  0.00    -0.016 A 
ATOM      7  C6  BZF d   1       0.712  -0.638   2.923  0.00  0.00     0.022 A 
ATOM      8  C7  BZF d   1       1.349  -0.675   1.727  0.00  0.00     0.029 A 
ATOM      9  C7A BZF d   1       0.641  -0.255   0.629  0.00  0.00     0.058 A 
ENDROOT
TORSDOF 0
ENDMDL
