MODEL 1
REMARK minimizedAffinity -3.96149874
REMARK minimizedRMSD -1
REMARK  0 active torsions:
REMARK  status: ('A' for Active; 'I' for Inactive)
ROOT
ATOM      1  O1  BZF d   1       0.352   0.729  -0.685  0.00  0.00    -0.204 OA
ATOM      2  C2  BZF d   1      -1.018   0.553  -0.670  0.00  0.00     0.174 A 
ATOM      3  C3  BZF d   1      -1.396  -0.159   0.411  0.00  0.00    -0.012 A 
ATOM      4  C3A BZF d   1      -0.197  -0.366   1.164  0.00  0.00    -0.107 A 
ATOM      5  C4  BZF d   1       0.072  -0.993   2.347  0.00  0.00     0.055 A 
ATOM      6  C5  BZF d   1       1.360  -1.081   2.770  0.00  0.00    -0.016 A 
ATOM      7  C6  BZF d   1       2.403  -0.559   2.033  0.00  0.00     0.022 A 
ATOM      8  C7  BZF d   1       2.185   0.076   0.855  0.00  0.00     0.029 A 
ATOM      9  C7A BZF d   1       0.881   0.195   0.442  0.00  0.00     0.058 A 
ENDROOT
TORSDOF 0
ENDMDL
