MODEL 1
REMARK minimizedAffinity -6.64409876
REMARK minimizedRMSD -1
REMARK  0 active torsions:
REMARK  status: ('A' for Active; 'I' for Inactive)
ROOT
ATOM      1  O1  BZF d   1       0.528  -0.520  -0.817  0.00  0.00    -0.204 OA
ATOM      2  C2  BZF d   1      -0.713   0.030  -0.560  0.00  0.00     0.174 A 
ATOM      3  C3  BZF d   1      -1.006  -0.044   0.754  0.00  0.00    -0.012 A 
ATOM      4  C3A BZF d   1       0.162  -0.596   1.370  0.00  0.00    -0.107 A 
ATOM      5  C4  BZF d   1       0.490  -0.897   2.661  0.00  0.00     0.055 A 
ATOM      6  C5  BZF d   1       1.684  -1.493   2.918  0.00  0.00    -0.016 A 
ATOM      7  C6  BZF d   1       2.570  -1.808   1.908  0.00  0.00     0.022 A 
ATOM      8  C7  BZF d   1       2.291  -1.524   0.613  0.00  0.00     0.029 A 
ATOM      9  C7A BZF d   1       1.100  -0.891   0.354  0.00  0.00     0.058 A 
ENDROOT
TORSDOF 0
ENDMDL
