MODEL 1
REMARK minimizedAffinity -4.77783632
REMARK minimizedRMSD -1
REMARK  0 active torsions:
REMARK  status: ('A' for Active; 'I' for Inactive)
ROOT
ATOM      1  O1  BZF d   1       1.297  -1.560  -1.078  0.00  0.00    -0.204 OA
ATOM      2  C2  BZF d   1       0.347  -0.820  -1.755  0.00  0.00     0.174 A 
ATOM      3  C3  BZF d   1      -0.398  -0.096  -0.895  0.00  0.00    -0.012 A 
ATOM      4  C3A BZF d   1       0.179  -0.331   0.393  0.00  0.00    -0.107 A 
ATOM      5  C4  BZF d   1      -0.110   0.123   1.648  0.00  0.00     0.055 A 
ATOM      6  C5  BZF d   1       0.600  -0.357   2.703  0.00  0.00    -0.016 A 
ATOM      7  C6  BZF d   1       1.600  -1.293   2.541  0.00  0.00     0.022 A 
ATOM      8  C7  BZF d   1       1.926  -1.769   1.314  0.00  0.00     0.029 A 
ATOM      9  C7A BZF d   1       1.233  -1.262   0.242  0.00  0.00     0.058 A 
ENDROOT
TORSDOF 0
ENDMDL
