MODEL 1
REMARK minimizedAffinity -3.10581946
REMARK minimizedRMSD -1
REMARK  0 active torsions:
REMARK  status: ('A' for Active; 'I' for Inactive)
ROOT
ATOM      1  O1  BZF d   1       2.010  -2.477   1.383  0.00  0.00    -0.204 OA
ATOM      2  C2  BZF d   1       2.880  -2.631   0.322  0.00  0.00     0.174 A 
ATOM      3  C3  BZF d   1       2.448  -1.943  -0.755  0.00  0.00    -0.012 A 
ATOM      4  C3A BZF d   1       1.280  -1.246  -0.312  0.00  0.00    -0.107 A 
ATOM      5  C4  BZF d   1       0.413  -0.385  -0.922  0.00  0.00     0.055 A 
ATOM      6  C5  BZF d   1      -0.670   0.061  -0.232  0.00  0.00    -0.016 A 
ATOM      7  C6  BZF d   1      -0.918  -0.336   1.066  0.00  0.00     0.022 A 
ATOM      8  C7  BZF d   1      -0.084  -1.185   1.714  0.00  0.00     0.029 A 
ATOM      9  C7A BZF d   1       1.028  -1.612   1.030  0.00  0.00     0.058 A 
ENDROOT
TORSDOF 0
ENDMDL
