MODEL 1
REMARK minimizedAffinity -2.37299252
REMARK minimizedRMSD -1
REMARK  0 active torsions:
REMARK  status: ('A' for Active; 'I' for Inactive)
ROOT
ATOM      1  O1  BZF d   1       1.985  -1.676  -0.516  0.00  0.00    -0.204 OA
ATOM      2  C2  BZF d   1       2.672  -2.529   0.327  0.00  0.00     0.174 A 
ATOM      3  C3  BZF d   1       2.135  -2.514   1.564  0.00  0.00    -0.012 A 
ATOM      4  C3A BZF d   1       0.987  -1.665   1.465  0.00  0.00    -0.107 A 
ATOM      5  C4  BZF d   1       0.033  -1.269   2.358  0.00  0.00     0.055 A 
ATOM      6  C5  BZF d   1      -0.911  -0.375   1.963  0.00  0.00    -0.016 A 
ATOM      7  C6  BZF d   1      -0.929   0.145   0.686  0.00  0.00     0.022 A 
ATOM      8  C7  BZF d   1      -0.006  -0.222  -0.237  0.00  0.00     0.029 A 
ATOM      9  C7A BZF d   1       0.930  -1.149   0.150  0.00  0.00     0.058 A 
ENDROOT
TORSDOF 0
ENDMDL
