MODEL 1
REMARK minimizedAffinity 1.8599323
REMARK minimizedRMSD -1
REMARK  0 active torsions:
REMARK  status: ('A' for Active; 'I' for Inactive)
ROOT
ATOM      1  C   UNL d   1      -2.353   1.874  -5.998  0.00  0.00     0.077 C 
ATOM      2  C1  UNL d   1      -2.779   3.303  -5.831  0.00  0.00    -0.074 A 
ATOM      3  C2  UNL d   1      -1.844   4.303  -5.544  0.00  0.00    -0.005 A 
ATOM      4  C3  UNL d   1      -2.254   5.628  -5.401  0.00  0.00     0.006 A 
ATOM      5  C4  UNL d   1      -3.600   5.967  -5.544  0.00  0.00    -0.005 A 
ATOM      6  C5  UNL d   1      -4.548   4.981  -5.832  0.00  0.00    -0.074 A 
ATOM      7  C6  UNL d   1      -5.998   5.329  -5.999  0.00  0.00     0.077 C 
ATOM      8  C7  UNL d   1      -4.128   3.652  -5.981  0.00  0.00    -0.001 A 
ENDROOT
TORSDOF 0
ENDMDL
