MODEL 1
REMARK minimizedAffinity -0.879860938
REMARK minimizedRMSD -1
REMARK  0 active torsions:
REMARK  status: ('A' for Active; 'I' for Inactive)
ROOT
ATOM      1  C   UNL d   1      -1.287   3.059   1.138  0.00  0.00     0.077 C 
ATOM      2  C1  UNL d   1      -0.711   1.687   0.948  0.00  0.00    -0.074 A 
ATOM      3  C2  UNL d   1      -1.503   0.546   1.113  0.00  0.00    -0.005 A 
ATOM      4  C3  UNL d   1      -0.956  -0.723   0.924  0.00  0.00     0.006 A 
ATOM      5  C4  UNL d   1       0.387  -0.864   0.570  0.00  0.00    -0.005 A 
ATOM      6  C5  UNL d   1       1.194   0.266   0.400  0.00  0.00    -0.074 A 
ATOM      7  C6  UNL d   1       2.636   0.132   0.010  0.00  0.00     0.077 C 
ATOM      8  C7  UNL d   1       0.635   1.538   0.585  0.00  0.00    -0.001 A 
ENDROOT
TORSDOF 0
ENDMDL
