MODEL 1
REMARK minimizedAffinity -1.42530453
REMARK minimizedRMSD -1
REMARK  0 active torsions:
REMARK  status: ('A' for Active; 'I' for Inactive)
ROOT
ATOM      1  C   UNL d   1      -1.475   0.341   0.711  0.00  0.00     0.077 C 
ATOM      2  C1  UNL d   1      -0.047   0.304   0.254  0.00  0.00    -0.074 A 
ATOM      3  C2  UNL d   1       0.996   0.630   1.128  0.00  0.00    -0.005 A 
ATOM      4  C3  UNL d   1       2.319   0.583   0.691  0.00  0.00     0.006 A 
ATOM      5  C4  UNL d   1       2.614   0.210  -0.621  0.00  0.00    -0.005 A 
ATOM      6  C5  UNL d   1       1.585  -0.120  -1.508  0.00  0.00    -0.074 A 
ATOM      7  C6  UNL d   1       1.884  -0.533  -2.919  0.00  0.00     0.077 C 
ATOM      8  C7  UNL d   1       0.257  -0.077  -1.060  0.00  0.00    -0.001 A 
ENDROOT
TORSDOF 0
ENDMDL
