MODEL 1
REMARK minimizedAffinity 1.83026242
REMARK minimizedRMSD -1
REMARK  0 active torsions:
REMARK  status: ('A' for Active; 'I' for Inactive)
ROOT
ATOM      1  C   UNL d   1       3.069   2.569   2.052  0.00  0.00     0.077 C 
ATOM      2  C1  UNL d   1       1.840   1.946   1.459  0.00  0.00    -0.074 A 
ATOM      3  C2  UNL d   1       1.915   0.743   0.749  0.00  0.00    -0.005 A 
ATOM      4  C3  UNL d   1       0.763   0.171   0.211  0.00  0.00     0.006 A 
ATOM      5  C4  UNL d   1      -0.475   0.795   0.378  0.00  0.00    -0.005 A 
ATOM      6  C5  UNL d   1      -0.569   1.997   1.086  0.00  0.00    -0.074 A 
ATOM      7  C6  UNL d   1      -1.893   2.675   1.282  0.00  0.00     0.077 C 
ATOM      8  C7  UNL d   1       0.593   2.562   1.629  0.00  0.00    -0.001 A 
ENDROOT
TORSDOF 0
ENDMDL
