MODEL 1
REMARK minimizedAffinity 1.68966055
REMARK minimizedRMSD -1
REMARK  0 active torsions:
REMARK  status: ('A' for Active; 'I' for Inactive)
ROOT
ATOM      1  C   UNL d   1       2.181  -0.085   0.383  0.00  0.00     0.077 C 
ATOM      2  C1  UNL d   1       1.053   0.823   0.774  0.00  0.00    -0.074 A 
ATOM      3  C2  UNL d   1       1.301   2.113   1.254  0.00  0.00    -0.005 A 
ATOM      4  C3  UNL d   1       0.241   2.949   1.606  0.00  0.00     0.006 A 
ATOM      5  C4  UNL d   1      -1.075   2.504   1.481  0.00  0.00    -0.005 A 
ATOM      6  C5  UNL d   1      -1.343   1.218   1.002  0.00  0.00    -0.074 A 
ATOM      7  C6  UNL d   1      -2.753   0.728   0.852  0.00  0.00     0.077 C 
ATOM      8  C7  UNL d   1      -0.273   0.386   0.644  0.00  0.00    -0.001 A 
ENDROOT
TORSDOF 0
ENDMDL
