MODEL 1
REMARK minimizedAffinity 4.02994537
REMARK minimizedRMSD -1
REMARK  0 active torsions:
REMARK  status: ('A' for Active; 'I' for Inactive)
ROOT
ATOM      1  C   UNL d   1       1.979   2.155   1.485  0.00  0.00     0.077 C 
ATOM      2  C1  UNL d   1       0.549   1.756   1.271  0.00  0.00    -0.074 A 
ATOM      3  C2  UNL d   1      -0.474   2.710   1.288  0.00  0.00    -0.005 A 
ATOM      4  C3  UNL d   1      -1.798   2.325   1.077  0.00  0.00     0.006 A 
ATOM      5  C4  UNL d   1      -2.112   0.985   0.848  0.00  0.00    -0.005 A 
ATOM      6  C5  UNL d   1      -1.103   0.017   0.827  0.00  0.00    -0.074 A 
ATOM      7  C6  UNL d   1      -1.422  -1.426   0.573  0.00  0.00     0.077 C 
ATOM      8  C7  UNL d   1       0.226   0.412   1.032  0.00  0.00    -0.001 A 
ENDROOT
TORSDOF 0
ENDMDL
