MODEL 1
REMARK minimizedAffinity -1.74060869
REMARK minimizedRMSD -1
REMARK  0 active torsions:
REMARK  status: ('A' for Active; 'I' for Inactive)
ROOT
ATOM      1  C   UNL d   1      -0.897   3.469   0.961  0.00  0.00     0.077 C 
ATOM      2  C1  UNL d   1      -0.783   1.974   0.913  0.00  0.00    -0.074 A 
ATOM      3  C2  UNL d   1      -1.916   1.163   1.024  0.00  0.00    -0.005 A 
ATOM      4  C3  UNL d   1      -1.795  -0.226   0.969  0.00  0.00     0.006 A 
ATOM      5  C4  UNL d   1      -0.542  -0.816   0.802  0.00  0.00    -0.005 A 
ATOM      6  C5  UNL d   1       0.603  -0.020   0.688  0.00  0.00    -0.074 A 
ATOM      7  C6  UNL d   1       1.956  -0.638   0.499  0.00  0.00     0.077 C 
ATOM      8  C7  UNL d   1       0.472   1.374   0.738  0.00  0.00    -0.001 A 
ENDROOT
TORSDOF 0
ENDMDL
