MODEL 1
REMARK minimizedAffinity 0.909747779
REMARK minimizedRMSD -1
REMARK  0 active torsions:
REMARK  status: ('A' for Active; 'I' for Inactive)
ROOT
ATOM      1  C   UNL d   1       0.110   1.540  -5.998  0.00  0.00     0.077 C 
ATOM      2  C1  UNL d   1      -1.130   2.372  -5.861  0.00  0.00    -0.074 A 
ATOM      3  C2  UNL d   1      -2.399   1.799  -5.999  0.00  0.00    -0.005 A 
ATOM      4  C3  UNL d   1      -3.544   2.584  -5.860  0.00  0.00     0.006 A 
ATOM      5  C4  UNL d   1      -3.432   3.946  -5.581  0.00  0.00    -0.005 A 
ATOM      6  C5  UNL d   1      -2.172   4.536  -5.439  0.00  0.00    -0.074 A 
ATOM      7  C6  UNL d   1      -2.034   5.998  -5.130  0.00  0.00     0.077 C 
ATOM      8  C7  UNL d   1      -1.026   3.740  -5.574  0.00  0.00    -0.001 A 
ENDROOT
TORSDOF 0
ENDMDL
