MODEL 1
REMARK minimizedAffinity 1.34808683
REMARK minimizedRMSD -1
REMARK  0 active torsions:
REMARK  status: ('A' for Active; 'I' for Inactive)
ROOT
ATOM      1  C   UNL d   1      -1.441   2.613   1.177  0.00  0.00     0.077 C 
ATOM      2  C1  UNL d   1      -0.809   1.257   1.069  0.00  0.00    -0.074 A 
ATOM      3  C2  UNL d   1      -1.566   0.095   1.254  0.00  0.00    -0.005 A 
ATOM      4  C3  UNL d   1      -0.967  -1.159   1.142  0.00  0.00     0.006 A 
ATOM      5  C4  UNL d   1       0.392  -1.265   0.845  0.00  0.00    -0.005 A 
ATOM      6  C5  UNL d   1       1.165  -0.114   0.656  0.00  0.00    -0.074 A 
ATOM      7  C6  UNL d   1       2.625  -0.210   0.325  0.00  0.00     0.077 C 
ATOM      8  C7  UNL d   1       0.554   1.143   0.763  0.00  0.00    -0.001 A 
ENDROOT
TORSDOF 0
ENDMDL
