MODEL 1
REMARK minimizedAffinity -1.22751999
REMARK minimizedRMSD -1
REMARK  0 active torsions:
REMARK  status: ('A' for Active; 'I' for Inactive)
ROOT
ATOM      1  C   UNL d   1      -0.954   2.724  -6.000  0.00  0.00     0.077 C 
ATOM      2  C1  UNL d   1      -2.171   3.558  -5.733  0.00  0.00    -0.074 A 
ATOM      3  C2  UNL d   1      -2.055   4.871  -5.264  0.00  0.00    -0.005 A 
ATOM      4  C3  UNL d   1      -3.197   5.638  -5.030  0.00  0.00     0.006 A 
ATOM      5  C4  UNL d   1      -4.463   5.101  -5.262  0.00  0.00    -0.005 A 
ATOM      6  C5  UNL d   1      -4.599   3.791  -5.732  0.00  0.00    -0.074 A 
ATOM      7  C6  UNL d   1      -5.953   3.202  -5.996  0.00  0.00     0.077 C 
ATOM      8  C7  UNL d   1      -3.448   3.029  -5.972  0.00  0.00    -0.001 A 
ENDROOT
TORSDOF 0
ENDMDL
