MODEL 1
REMARK minimizedAffinity 1.78395271
REMARK minimizedRMSD -1
REMARK  0 active torsions:
REMARK  status: ('A' for Active; 'I' for Inactive)
ROOT
ATOM      1  C   UNL d   1       3.305   2.234   1.949  0.00  0.00     0.077 C 
ATOM      2  C1  UNL d   1       1.812   2.288   1.815  0.00  0.00    -0.074 A 
ATOM      3  C2  UNL d   1       1.181   1.881   0.635  0.00  0.00    -0.005 A 
ATOM      4  C3  UNL d   1      -0.209   1.929   0.529  0.00  0.00     0.006 A 
ATOM      5  C4  UNL d   1      -0.981   2.383   1.599  0.00  0.00    -0.005 A 
ATOM      6  C5  UNL d   1      -0.367   2.793   2.787  0.00  0.00    -0.074 A 
ATOM      7  C6  UNL d   1      -1.182   3.274   3.951  0.00  0.00     0.077 C 
ATOM      8  C7  UNL d   1       1.030   2.736   2.889  0.00  0.00    -0.001 A 
ENDROOT
TORSDOF 0
ENDMDL
