MODEL 1
REMARK minimizedAffinity 6.13671017
REMARK minimizedRMSD -1
REMARK  0 active torsions:
REMARK  status: ('A' for Active; 'I' for Inactive)
ROOT
ATOM      1  C   UNL d   1       1.227   2.362   1.565  0.00  0.00     0.077 C 
ATOM      2  C1  UNL d   1      -0.101   1.782   1.182  0.00  0.00    -0.074 A 
ATOM      3  C2  UNL d   1      -1.201   2.608   0.928  0.00  0.00    -0.005 A 
ATOM      4  C3  UNL d   1      -2.428   2.054   0.563  0.00  0.00     0.006 A 
ATOM      5  C4  UNL d   1      -2.568   0.671   0.449  0.00  0.00    -0.005 A 
ATOM      6  C5  UNL d   1      -1.480  -0.172   0.698  0.00  0.00    -0.074 A 
ATOM      7  C6  UNL d   1      -1.610  -1.660   0.570  0.00  0.00     0.077 C 
ATOM      8  C7  UNL d   1      -0.248   0.393   1.057  0.00  0.00    -0.001 A 
ENDROOT
TORSDOF 0
ENDMDL
