MODEL 1
REMARK minimizedAffinity 5.40565825
REMARK minimizedRMSD -1
REMARK  0 active torsions:
REMARK  status: ('A' for Active; 'I' for Inactive)
ROOT
ATOM      1  C   UNL d   1      -1.250  -1.522  -0.528  0.00  0.00     0.077 C 
ATOM      2  C1  UNL d   1      -1.435  -2.913  -1.058  0.00  0.00    -0.074 A 
ATOM      3  C2  UNL d   1      -0.476  -3.499  -1.889  0.00  0.00    -0.005 A 
ATOM      4  C3  UNL d   1      -0.657  -4.798  -2.366  0.00  0.00     0.006 A 
ATOM      5  C4  UNL d   1      -1.798  -5.522  -2.017  0.00  0.00    -0.005 A 
ATOM      6  C5  UNL d   1      -2.767  -4.952  -1.185  0.00  0.00    -0.074 A 
ATOM      7  C6  UNL d   1      -3.994  -5.720  -0.792  0.00  0.00     0.077 C 
ATOM      8  C7  UNL d   1      -2.575  -3.650  -0.705  0.00  0.00    -0.001 A 
ENDROOT
TORSDOF 0
ENDMDL
