MODEL 1
REMARK minimizedAffinity 11.2947569
REMARK minimizedRMSD -1
REMARK  0 active torsions:
REMARK  status: ('A' for Active; 'I' for Inactive)
ROOT
ATOM      1  C   UNL d   1       5.052  -1.085  -2.618  0.00  0.00     0.077 C 
ATOM      2  C1  UNL d   1       3.608  -0.726  -2.428  0.00  0.00    -0.074 A 
ATOM      3  C2  UNL d   1       2.827  -1.372  -1.465  0.00  0.00    -0.005 A 
ATOM      4  C3  UNL d   1       1.488  -1.021  -1.294  0.00  0.00     0.006 A 
ATOM      5  C4  UNL d   1       0.918  -0.021  -2.083  0.00  0.00    -0.005 A 
ATOM      6  C5  UNL d   1       1.684   0.637  -3.051  0.00  0.00    -0.074 A 
ATOM      7  C6  UNL d   1       1.089   1.721  -3.900  0.00  0.00     0.077 C 
ATOM      8  C7  UNL d   1       3.030   0.283  -3.212  0.00  0.00    -0.001 A 
ENDROOT
TORSDOF 0
ENDMDL
