MODEL 1
REMARK minimizedAffinity 1.55425358
REMARK minimizedRMSD -1
REMARK  0 active torsions:
REMARK  status: ('A' for Active; 'I' for Inactive)
ROOT
ATOM      1  C   UNL d   1       2.668  -0.248  -3.281  0.00  0.00     0.077 C 
ATOM      2  C1  UNL d   1       2.339  -0.065  -1.829  0.00  0.00    -0.074 A 
ATOM      3  C2  UNL d   1       2.066  -1.165  -1.010  0.00  0.00    -0.005 A 
ATOM      4  C3  UNL d   1       1.772  -0.980   0.341  0.00  0.00     0.006 A 
ATOM      5  C4  UNL d   1       1.747   0.304   0.885  0.00  0.00    -0.005 A 
ATOM      6  C5  UNL d   1       2.019   1.416   0.082  0.00  0.00    -0.074 A 
ATOM      7  C6  UNL d   1       2.006   2.803   0.653  0.00  0.00     0.077 C 
ATOM      8  C7  UNL d   1       2.321   1.222  -1.273  0.00  0.00    -0.001 A 
ENDROOT
TORSDOF 0
ENDMDL
