MODEL 1
REMARK minimizedAffinity 14.6511669
REMARK minimizedRMSD -1
REMARK  0 active torsions:
REMARK  status: ('A' for Active; 'I' for Inactive)
ROOT
ATOM      1  C   UNL d   1       1.412  -1.134  -0.347  0.00  0.00     0.077 C 
ATOM      2  C1  UNL d   1       2.221  -0.755  -1.552  0.00  0.00    -0.074 A 
ATOM      3  C2  UNL d   1       1.639  -0.066  -2.620  0.00  0.00    -0.005 A 
ATOM      4  C3  UNL d   1       2.406   0.288  -3.730  0.00  0.00     0.006 A 
ATOM      5  C4  UNL d   1       3.761  -0.043  -3.782  0.00  0.00    -0.005 A 
ATOM      6  C5  UNL d   1       4.360  -0.732  -2.723  0.00  0.00    -0.074 A 
ATOM      7  C6  UNL d   1       5.817  -1.087  -2.759  0.00  0.00     0.077 C 
ATOM      8  C7  UNL d   1       3.584  -1.078  -1.608  0.00  0.00    -0.001 A 
ENDROOT
TORSDOF 0
ENDMDL
