MODEL 1
REMARK minimizedAffinity 9.07619667
REMARK minimizedRMSD -1
REMARK  0 active torsions:
REMARK  status: ('A' for Active; 'I' for Inactive)
ROOT
ATOM      1  C   UNL d   1      -3.658  -0.010   1.498  0.00  0.00     0.077 C 
ATOM      2  C1  UNL d   1      -2.488   0.875   1.184  0.00  0.00    -0.074 A 
ATOM      3  C2  UNL d   1      -2.625   2.266   1.166  0.00  0.00    -0.005 A 
ATOM      4  C3  UNL d   1      -1.526   3.077   0.881  0.00  0.00     0.006 A 
ATOM      5  C4  UNL d   1      -0.282   2.505   0.612  0.00  0.00    -0.005 A 
ATOM      6  C5  UNL d   1      -0.126   1.115   0.626  0.00  0.00    -0.074 A 
ATOM      7  C6  UNL d   1       1.206   0.485   0.348  0.00  0.00     0.077 C 
ATOM      8  C7  UNL d   1      -1.234   0.308   0.919  0.00  0.00    -0.001 A 
ENDROOT
TORSDOF 0
ENDMDL
