MODEL 1
REMARK minimizedAffinity -3.70647216
REMARK minimizedRMSD -1
REMARK  0 active torsions:
REMARK  status: ('A' for Active; 'I' for Inactive)
ROOT
ATOM      1  O1  BZF d   1      -0.006  -1.050  -1.096  0.00  0.00    -0.204 OA
ATOM      2  C2  BZF d   1      -0.847  -0.021  -0.717  0.00  0.00     0.174 A 
ATOM      3  C3  BZF d   1      -0.446   0.519   0.452  0.00  0.00    -0.012 A 
ATOM      4  C3A BZF d   1       0.771  -0.158   0.781  0.00  0.00    -0.107 A 
ATOM      5  C4  BZF d   1       1.653  -0.052   1.819  0.00  0.00     0.055 A 
ATOM      6  C5  BZF d   1       2.704  -0.911   1.882  0.00  0.00    -0.016 A 
ATOM      7  C6  BZF d   1       2.901  -1.889   0.929  0.00  0.00     0.022 A 
ATOM      8  C7  BZF d   1       2.056  -2.029  -0.121  0.00  0.00     0.029 A 
ATOM      9  C7A BZF d   1       1.011  -1.142  -0.206  0.00  0.00     0.058 A 
ENDROOT
TORSDOF 0
ENDMDL
