MODEL 1
REMARK minimizedAffinity -5.73711061
REMARK minimizedRMSD -1
REMARK  0 active torsions:
REMARK  status: ('A' for Active; 'I' for Inactive)
ROOT
ATOM      1  O1  BZF d   1      -0.488   1.260  -0.074  0.00  0.00    -0.204 OA
ATOM      2  C2  BZF d   1      -1.316   0.179  -0.303  0.00  0.00     0.174 A 
ATOM      3  C3  BZF d   1      -0.619  -0.975  -0.260  0.00  0.00    -0.012 A 
ATOM      4  C3A BZF d   1       0.712  -0.598   0.105  0.00  0.00    -0.107 A 
ATOM      5  C4  BZF d   1       1.861  -1.302   0.322  0.00  0.00     0.055 A 
ATOM      6  C5  BZF d   1       3.009  -0.626   0.593  0.00  0.00    -0.016 A 
ATOM      7  C6  BZF d   1       3.044   0.752   0.648  0.00  0.00     0.022 A 
ATOM      8  C7  BZF d   1       1.928   1.494   0.445  0.00  0.00     0.029 A 
ATOM      9  C7A BZF d   1       0.760   0.812   0.204  0.00  0.00     0.058 A 
ENDROOT
TORSDOF 0
ENDMDL
