MODEL 1
REMARK minimizedAffinity -1.49344027
REMARK minimizedRMSD -1
REMARK  0 active torsions:
REMARK  status: ('A' for Active; 'I' for Inactive)
ROOT
ATOM      1  O1  BZF d   1      -0.800   0.132   1.660  0.00  0.00    -0.204 OA
ATOM      2  C2  BZF d   1      -1.468   0.392   0.479  0.00  0.00     0.174 A 
ATOM      3  C3  BZF d   1      -0.699   0.081  -0.584  0.00  0.00    -0.012 A 
ATOM      4  C3A BZF d   1       0.491  -0.490  -0.033  0.00  0.00    -0.107 A 
ATOM      5  C4  BZF d   1       1.628  -1.008  -0.586  0.00  0.00     0.055 A 
ATOM      6  C5  BZF d   1       2.633  -1.417   0.231  0.00  0.00    -0.016 A 
ATOM      7  C6  BZF d   1       2.538  -1.319   1.604  0.00  0.00     0.022 A 
ATOM      8  C7  BZF d   1       1.429  -0.817   2.199  0.00  0.00     0.029 A 
ATOM      9  C7A BZF d   1       0.398  -0.433   1.377  0.00  0.00     0.058 A 
ENDROOT
TORSDOF 0
ENDMDL
