MODEL 1
REMARK minimizedAffinity -3.56611252
REMARK minimizedRMSD -1
REMARK  0 active torsions:
REMARK  status: ('A' for Active; 'I' for Inactive)
ROOT
ATOM      1  O1  BZF d   1      -0.178   1.382  -0.044  0.00  0.00    -0.204 OA
ATOM      2  C2  BZF d   1      -1.017   0.352  -0.423  0.00  0.00     0.174 A 
ATOM      3  C3  BZF d   1      -0.357  -0.825  -0.430  0.00  0.00    -0.012 A 
ATOM      4  C3A BZF d   1       0.954  -0.524   0.058  0.00  0.00    -0.107 A 
ATOM      5  C4  BZF d   1       2.064  -1.283   0.294  0.00  0.00     0.055 A 
ATOM      6  C5  BZF d   1       3.208  -0.672   0.701  0.00  0.00    -0.016 A 
ATOM      7  C6  BZF d   1       3.277   0.695   0.877  0.00  0.00     0.022 A 
ATOM      8  C7  BZF d   1       2.200   1.488   0.660  0.00  0.00     0.029 A 
ATOM      9  C7A BZF d   1       1.034   0.870   0.281  0.00  0.00     0.058 A 
ENDROOT
TORSDOF 0
ENDMDL
