MODEL 1
REMARK minimizedAffinity -2.78678083
REMARK minimizedRMSD -1
REMARK  0 active torsions:
REMARK  status: ('A' for Active; 'I' for Inactive)
ROOT
ATOM      1  O1  BZF d   1      -1.504  -0.841  -0.385  0.00  0.00    -0.204 OA
ATOM      2  C2  BZF d   1      -1.889   0.452  -0.089  0.00  0.00     0.174 A 
ATOM      3  C3  BZF d   1      -0.840   1.172   0.360  0.00  0.00    -0.012 A 
ATOM      4  C3A BZF d   1       0.288   0.299   0.256  0.00  0.00    -0.107 A 
ATOM      5  C4  BZF d   1       1.617   0.444   0.536  0.00  0.00     0.055 A 
ATOM      6  C5  BZF d   1       2.443  -0.626   0.392  0.00  0.00    -0.016 A 
ATOM      7  C6  BZF d   1       1.974  -1.855  -0.024  0.00  0.00     0.022 A 
ATOM      8  C7  BZF d   1       0.665  -2.046  -0.318  0.00  0.00     0.029 A 
ATOM      9  C7A BZF d   1      -0.167  -0.958  -0.205  0.00  0.00     0.058 A 
ENDROOT
TORSDOF 0
ENDMDL
