MODEL 1
REMARK minimizedAffinity -5.39923382
REMARK minimizedRMSD -1
REMARK  0 active torsions:
REMARK  status: ('A' for Active; 'I' for Inactive)
ROOT
ATOM      1  O1  BZF d   1      -0.489   0.976   0.373  0.00  0.00    -0.204 OA
ATOM      2  C2  BZF d   1      -1.254  -0.051   0.892  0.00  0.00     0.174 A 
ATOM      3  C3  BZF d   1      -0.489  -1.130   1.158  0.00  0.00    -0.012 A 
ATOM      4  C3A BZF d   1       0.852  -0.721   0.868  0.00  0.00    -0.107 A 
ATOM      5  C4  BZF d   1       2.062  -1.347   0.949  0.00  0.00     0.055 A 
ATOM      6  C5  BZF d   1       3.174  -0.694   0.521  0.00  0.00    -0.016 A 
ATOM      7  C6  BZF d   1       3.111   0.582   0.001  0.00  0.00     0.022 A 
ATOM      8  C7  BZF d   1       1.933   1.246  -0.095  0.00  0.00     0.029 A 
ATOM      9  C7A BZF d   1       0.813   0.601   0.368  0.00  0.00     0.058 A 
ENDROOT
TORSDOF 0
ENDMDL
