MODEL 1
REMARK minimizedAffinity -6.19936037
REMARK minimizedRMSD -1
REMARK  0 active torsions:
REMARK  status: ('A' for Active; 'I' for Inactive)
ROOT
ATOM      1  O1  BZF d   1       0.504   1.382  -0.317  0.00  0.00    -0.204 OA
ATOM      2  C2  BZF d   1      -0.565   0.568  -0.635  0.00  0.00     0.174 A 
ATOM      3  C3  BZF d   1      -0.200  -0.730  -0.617  0.00  0.00    -0.012 A 
ATOM      4  C3A BZF d   1       1.161  -0.732  -0.176  0.00  0.00    -0.107 A 
ATOM      5  C4  BZF d   1       2.072  -1.723   0.058  0.00  0.00     0.055 A 
ATOM      6  C5  BZF d   1       3.340  -1.385   0.412  0.00  0.00    -0.016 A 
ATOM      7  C6  BZF d   1       3.732  -0.068   0.536  0.00  0.00     0.022 A 
ATOM      8  C7  BZF d   1       2.864   0.949   0.319  0.00  0.00     0.029 A 
ATOM      9  C7A BZF d   1       1.573   0.611  -0.006  0.00  0.00     0.058 A 
ENDROOT
TORSDOF 0
ENDMDL
