MODEL 1
REMARK minimizedAffinity -1.66258013
REMARK minimizedRMSD -1
REMARK  0 active torsions:
REMARK  status: ('A' for Active; 'I' for Inactive)
ROOT
ATOM      1  O1  BZF d   1       2.241  -0.449   0.889  0.00  0.00    -0.204 OA
ATOM      2  C2  BZF d   1       1.592  -1.668   0.854  0.00  0.00     0.174 A 
ATOM      3  C3  BZF d   1       0.331  -1.525   0.397  0.00  0.00    -0.012 A 
ATOM      4  C3A BZF d   1       0.214  -0.144   0.043  0.00  0.00    -0.107 A 
ATOM      5  C4  BZF d   1      -0.797   0.608  -0.485  0.00  0.00     0.055 A 
ATOM      6  C5  BZF d   1      -0.614   1.945  -0.642  0.00  0.00    -0.016 A 
ATOM      7  C6  BZF d   1       0.564   2.564  -0.278  0.00  0.00     0.022 A 
ATOM      8  C7  BZF d   1       1.597   1.859   0.245  0.00  0.00     0.029 A 
ATOM      9  C7A BZF d   1       1.427   0.503   0.374  0.00  0.00     0.058 A 
ENDROOT
TORSDOF 0
ENDMDL
