MODEL 1
REMARK minimizedAffinity -1.86568213
REMARK minimizedRMSD -1
REMARK  0 active torsions:
REMARK  status: ('A' for Active; 'I' for Inactive)
ROOT
ATOM      1  O1  BZF d   1       3.371  -5.616  -4.896  0.00  0.00    -0.204 OA
ATOM      2  C2  BZF d   1       3.049  -5.998  -3.608  0.00  0.00     0.174 A 
ATOM      3  C3  BZF d   1       3.074  -4.938  -2.775  0.00  0.00    -0.012 A 
ATOM      4  C3A BZF d   1       3.344  -3.808  -3.611  0.00  0.00    -0.107 A 
ATOM      5  C4  BZF d   1       3.474  -2.471  -3.369  0.00  0.00     0.055 A 
ATOM      6  C5  BZF d   1       3.811  -1.644  -4.393  0.00  0.00    -0.016 A 
ATOM      7  C6  BZF d   1       4.029  -2.120  -5.669  0.00  0.00     0.022 A 
ATOM      8  C7  BZF d   1       3.907  -3.438  -5.959  0.00  0.00     0.029 A 
ATOM      9  C7A BZF d   1       3.534  -4.272  -4.933  0.00  0.00     0.058 A 
ENDROOT
TORSDOF 0
ENDMDL
