MODEL 1
REMARK minimizedAffinity 11.2652826
REMARK minimizedRMSD -1
REMARK  0 active torsions:
REMARK  status: ('A' for Active; 'I' for Inactive)
ROOT
ATOM      1  O1  BZF d   1       0.187   5.118  -0.371  0.00  0.00    -0.204 OA
ATOM      2  C2  BZF d   1      -0.626   5.269   0.737  0.00  0.00     0.174 A 
ATOM      3  C3  BZF d   1      -0.935   4.069   1.270  0.00  0.00    -0.012 A 
ATOM      4  C3A BZF d   1      -0.200   3.114   0.499  0.00  0.00    -0.107 A 
ATOM      5  C4  BZF d   1      -0.081   1.755   0.555  0.00  0.00     0.055 A 
ATOM      6  C5  BZF d   1       0.660   1.117  -0.390  0.00  0.00    -0.016 A 
ATOM      7  C6  BZF d   1       1.290   1.806  -1.405  0.00  0.00     0.022 A 
ATOM      8  C7  BZF d   1       1.205   3.156  -1.499  0.00  0.00     0.029 A 
ATOM      9  C7A BZF d   1       0.484   3.806  -0.527  0.00  0.00     0.058 A 
ENDROOT
TORSDOF 0
ENDMDL
