MODEL 1
REMARK minimizedAffinity -1.29287386
REMARK minimizedRMSD -1
REMARK  0 active torsions:
REMARK  status: ('A' for Active; 'I' for Inactive)
ROOT
ATOM      1  O1  BZF d   1       1.727  -0.098  -0.150  0.00  0.00    -0.204 OA
ATOM      2  C2  BZF d   1       1.749   1.230  -0.528  0.00  0.00     0.174 A 
ATOM      3  C3  BZF d   1       0.500   1.739  -0.560  0.00  0.00    -0.012 A 
ATOM      4  C3A BZF d   1      -0.347   0.687  -0.089  0.00  0.00    -0.107 A 
ATOM      5  C4  BZF d   1      -1.693   0.588   0.120  0.00  0.00     0.055 A 
ATOM      6  C5  BZF d   1      -2.213  -0.603   0.517  0.00  0.00    -0.016 A 
ATOM      7  C6  BZF d   1      -1.420  -1.715   0.708  0.00  0.00     0.022 A 
ATOM      8  C7  BZF d   1      -0.079  -1.664   0.518  0.00  0.00     0.029 A 
ATOM      9  C7A BZF d   1       0.455  -0.454   0.149  0.00  0.00     0.058 A 
ENDROOT
TORSDOF 0
ENDMDL
