MODEL 1
REMARK minimizedAffinity 1.95851529
REMARK minimizedRMSD -1
REMARK  0 active torsions:
REMARK  status: ('A' for Active; 'I' for Inactive)
ROOT
ATOM      1  O1  BZF d   1       1.498  -0.907   0.584  0.00  0.00    -0.204 OA
ATOM      2  C2  BZF d   1       0.528  -1.662  -0.046  0.00  0.00     0.174 A 
ATOM      3  C3  BZF d   1      -0.502  -0.885  -0.441  0.00  0.00    -0.012 A 
ATOM      4  C3A BZF d   1      -0.111   0.452  -0.114  0.00  0.00    -0.107 A 
ATOM      5  C4  BZF d   1      -0.707   1.670  -0.276  0.00  0.00     0.055 A 
ATOM      6  C5  BZF d   1      -0.093   2.777   0.218  0.00  0.00    -0.016 A 
ATOM      7  C6  BZF d   1       1.114   2.701   0.883  0.00  0.00     0.022 A 
ATOM      8  C7  BZF d   1       1.746   1.516   1.064  0.00  0.00     0.029 A 
ATOM      9  C7A BZF d   1       1.143   0.400   0.537  0.00  0.00     0.058 A 
ENDROOT
TORSDOF 0
ENDMDL
