MODEL 1
REMARK minimizedAffinity 4.49812698
REMARK minimizedRMSD -1
REMARK  0 active torsions:
REMARK  status: ('A' for Active; 'I' for Inactive)
ROOT
ATOM      1  O1  BZF d   1       2.316   2.453   0.760  0.00  0.00    -0.204 OA
ATOM      2  C2  BZF d   1       1.526   2.847  -0.302  0.00  0.00     0.174 A 
ATOM      3  C3  BZF d   1       0.544   1.951  -0.527  0.00  0.00    -0.012 A 
ATOM      4  C3A BZF d   1       0.676   0.979   0.515  0.00  0.00    -0.107 A 
ATOM      5  C4  BZF d   1      -0.020  -0.151   0.839  0.00  0.00     0.055 A 
ATOM      6  C5  BZF d   1       0.412  -0.918   1.875  0.00  0.00    -0.016 A 
ATOM      7  C6  BZF d   1       1.536  -0.589   2.603  0.00  0.00     0.022 A 
ATOM      8  C7  BZF d   1       2.256   0.525   2.322  0.00  0.00     0.029 A 
ATOM      9  C7A BZF d   1       1.804   1.320   1.297  0.00  0.00     0.058 A 
ENDROOT
TORSDOF 0
ENDMDL
