MODEL 1
REMARK minimizedAffinity 4.346838
REMARK minimizedRMSD -1
REMARK  0 active torsions:
REMARK  status: ('A' for Active; 'I' for Inactive)
ROOT
ATOM      1  O1  BZF d   1       2.508   1.516   1.579  0.00  0.00    -0.204 OA
ATOM      2  C2  BZF d   1       1.797   1.906   0.461  0.00  0.00     0.174 A 
ATOM      3  C3  BZF d   1       0.908   0.957   0.104  0.00  0.00    -0.012 A 
ATOM      4  C3A BZF d   1       1.010  -0.053   1.113  0.00  0.00    -0.107 A 
ATOM      5  C4  BZF d   1       0.370  -1.241   1.321  0.00  0.00     0.055 A 
ATOM      6  C5  BZF d   1       0.755  -2.026   2.362  0.00  0.00    -0.016 A 
ATOM      7  C6  BZF d   1       1.778  -1.656   3.210  0.00  0.00     0.022 A 
ATOM      8  C7  BZF d   1       2.439  -0.484   3.047  0.00  0.00     0.029 A 
ATOM      9  C7A BZF d   1       2.030   0.326   2.016  0.00  0.00     0.058 A 
ENDROOT
TORSDOF 0
ENDMDL
