MODEL 1
REMARK minimizedAffinity 12.1814003
REMARK minimizedRMSD -1
REMARK  0 active torsions:
REMARK  status: ('A' for Active; 'I' for Inactive)
ROOT
ATOM      1  O1  BZF d   1      -3.215   0.160  -5.063  0.00  0.00    -0.204 OA
ATOM      2  C2  BZF d   1      -2.669  -0.614  -4.057  0.00  0.00     0.174 A 
ATOM      3  C3  BZF d   1      -2.852  -0.032  -2.854  0.00  0.00    -0.012 A 
ATOM      4  C3A BZF d   1      -3.638   1.135  -3.116  0.00  0.00    -0.107 A 
ATOM      5  C4  BZF d   1      -4.156   2.115  -2.319  0.00  0.00     0.055 A 
ATOM      6  C5  BZF d   1      -4.815   3.155  -2.896  0.00  0.00    -0.016 A 
ATOM      7  C6  BZF d   1      -4.968   3.249  -4.263  0.00  0.00     0.022 A 
ATOM      8  C7  BZF d   1      -4.475   2.298  -5.094  0.00  0.00     0.029 A 
ATOM      9  C7A BZF d   1      -3.838   1.229  -4.512  0.00  0.00     0.058 A 
ENDROOT
TORSDOF 0
ENDMDL
