MODEL 1
REMARK minimizedAffinity -2.31687379
REMARK minimizedRMSD -1
REMARK  0 active torsions:
REMARK  status: ('A' for Active; 'I' for Inactive)
ROOT
ATOM      1  O1  BZF d   1       2.612  -3.817  -5.650  0.00  0.00    -0.204 OA
ATOM      2  C2  BZF d   1       3.121  -5.096  -5.765  0.00  0.00     0.174 A 
ATOM      3  C3  BZF d   1       4.453  -5.065  -5.970  0.00  0.00    -0.012 A 
ATOM      4  C3A BZF d   1       4.814  -3.682  -5.893  0.00  0.00    -0.107 A 
ATOM      5  C4  BZF d   1       6.000  -3.014  -6.000  0.00  0.00     0.055 A 
ATOM      6  C5  BZF d   1       5.999  -1.656  -5.950  0.00  0.00    -0.016 A 
ATOM      7  C6  BZF d   1       4.833  -0.935  -5.800  0.00  0.00     0.022 A 
ATOM      8  C7  BZF d   1       3.632  -1.554  -5.685  0.00  0.00     0.029 A 
ATOM      9  C7A BZF d   1       3.633  -2.928  -5.702  0.00  0.00     0.058 A 
ENDROOT
TORSDOF 0
ENDMDL
