MODEL 1
REMARK minimizedAffinity -1.5996654
REMARK minimizedRMSD -1
REMARK  0 active torsions:
REMARK  status: ('A' for Active; 'I' for Inactive)
ROOT
ATOM      1  O1  BZF d   1       3.208   0.614   2.942  0.00  0.00    -0.204 OA
ATOM      2  C2  BZF d   1       2.868  -0.515   3.663  0.00  0.00     0.174 A 
ATOM      3  C3  BZF d   1       1.703  -1.031   3.223  0.00  0.00    -0.012 A 
ATOM      4  C3A BZF d   1       1.334  -0.225   2.100  0.00  0.00    -0.107 A 
ATOM      5  C4  BZF d   1       0.281  -0.250   1.231  0.00  0.00     0.055 A 
ATOM      6  C5  BZF d   1       0.178   0.723   0.289  0.00  0.00    -0.016 A 
ATOM      7  C6  BZF d   1       1.106   1.739   0.190  0.00  0.00     0.022 A 
ATOM      8  C7  BZF d   1       2.171   1.804   1.026  0.00  0.00     0.029 A 
ATOM      9  C7A BZF d   1       2.295   0.803   1.959  0.00  0.00     0.058 A 
ENDROOT
TORSDOF 0
ENDMDL
