MODEL 1
REMARK minimizedAffinity 2.10691047
REMARK minimizedRMSD -1
REMARK  0 active torsions:
REMARK  status: ('A' for Active; 'I' for Inactive)
ROOT
ATOM      1  C   UNL d   1      -3.593   0.077  -1.198  0.00  0.00     0.078 C 
ATOM      2  C1  UNL d   1      -2.556   0.041  -0.116  0.00  0.00    -0.077 A 
ATOM      3  C2  UNL d   1      -2.239  -1.156   0.539  0.00  0.00    -0.001 A 
ATOM      4  C3  UNL d   1      -1.278  -1.173   1.551  0.00  0.00     0.003 A 
ATOM      5  C4  UNL d   1      -0.628   0.003   1.919  0.00  0.00    -0.005 A 
ATOM      6  C5  UNL d   1      -0.939   1.199   1.275  0.00  0.00     0.003 A 
ATOM      7  C6  UNL d   1      -1.899   1.218   0.262  0.00  0.00    -0.001 A 
ENDROOT
TORSDOF 0
ENDMDL
