MODEL 1
REMARK minimizedAffinity 4.34524822
REMARK minimizedRMSD -1
REMARK  0 active torsions:
REMARK  status: ('A' for Active; 'I' for Inactive)
ROOT
ATOM      1  C   UNL d   1       1.150  -1.661   4.620  0.00  0.00     0.078 C 
ATOM      2  C1  UNL d   1       0.689  -0.977   3.367  0.00  0.00    -0.077 A 
ATOM      3  C2  UNL d   1       1.574  -0.742   2.307  0.00  0.00    -0.001 A 
ATOM      4  C3  UNL d   1       1.134  -0.096   1.151  0.00  0.00     0.003 A 
ATOM      5  C4  UNL d   1      -0.191   0.321   1.043  0.00  0.00    -0.005 A 
ATOM      6  C5  UNL d   1      -1.078   0.093   2.093  0.00  0.00     0.003 A 
ATOM      7  C6  UNL d   1      -0.640  -0.553   3.251  0.00  0.00    -0.001 A 
ENDROOT
TORSDOF 0
ENDMDL
