MODEL 1
REMARK minimizedAffinity 2.30064678
REMARK minimizedRMSD -1
REMARK  0 active torsions:
REMARK  status: ('A' for Active; 'I' for Inactive)
ROOT
ATOM      1  C   UNL d   1      -0.457   0.281   1.842  0.00  0.00     0.078 C 
ATOM      2  C1  UNL d   1       0.363  -0.341   2.933  0.00  0.00    -0.077 A 
ATOM      3  C2  UNL d   1       1.074  -1.527   2.714  0.00  0.00    -0.001 A 
ATOM      4  C3  UNL d   1       1.826  -2.099   3.742  0.00  0.00     0.003 A 
ATOM      5  C4  UNL d   1       1.871  -1.493   4.996  0.00  0.00    -0.005 A 
ATOM      6  C5  UNL d   1       1.165  -0.314   5.224  0.00  0.00     0.003 A 
ATOM      7  C6  UNL d   1       0.413   0.260   4.197  0.00  0.00    -0.001 A 
ENDROOT
TORSDOF 0
ENDMDL
