MODEL 1
REMARK minimizedAffinity -0.932669759
REMARK minimizedRMSD -1
REMARK  0 active torsions:
REMARK  status: ('A' for Active; 'I' for Inactive)
ROOT
ATOM      1  C   UNL d   1      -0.140   0.371  -5.193  0.00  0.00     0.078 C 
ATOM      2  C1  UNL d   1      -1.571   0.391  -4.746  0.00  0.00    -0.077 A 
ATOM      3  C2  UNL d   1      -1.905   0.607  -3.404  0.00  0.00    -0.001 A 
ATOM      4  C3  UNL d   1      -3.241   0.614  -3.001  0.00  0.00     0.003 A 
ATOM      5  C4  UNL d   1      -4.254   0.403  -3.934  0.00  0.00    -0.005 A 
ATOM      6  C5  UNL d   1      -3.932   0.185  -5.272  0.00  0.00     0.003 A 
ATOM      7  C6  UNL d   1      -2.596   0.178  -5.677  0.00  0.00    -0.001 A 
ENDROOT
TORSDOF 0
ENDMDL
