MODEL 1
REMARK minimizedAffinity -4.31640959
REMARK minimizedRMSD -1
REMARK  1 active torsions:
REMARK  status: ('A' for Active; 'I' for Inactive)
REMARK    1  A    between atoms: N_2  and  C1_3 
ROOT
ATOM      1  C1  UNL d   1      -0.983   0.514   1.864  0.00  0.00     0.143 A 
ATOM      2  C2  UNL d   1       0.086   0.129   2.681  0.00  0.00    -0.057 A 
ATOM      3  C3  UNL d   1       1.359  -0.106   2.147  0.00  0.00     0.033 A 
ATOM      4  C4  UNL d   1       1.579   0.012   0.779  0.00  0.00    -0.042 A 
ATOM      5  C5  UNL d   1       0.525   0.369  -0.055  0.00  0.00     0.033 A 
ATOM      6  C6  UNL d   1      -0.742   0.609   0.484  0.00  0.00    -0.057 A 
ENDROOT
BRANCH   1   7
ATOM      7  N   UNL d   1      -2.295   0.666   2.320  0.00  0.00    -0.732 N 
ATOM      8  C   UNL d   1      -3.387   0.828   1.384  0.00  0.00     0.284 C 
ATOM      9  H3  UNL d   1      -2.507   0.053   3.104  0.00  0.00     0.395 HD
ENDBRANCH   1   7
TORSDOF 1
ENDMDL
