MODEL 1
REMARK minimizedAffinity -1.57850623
REMARK minimizedRMSD -1
REMARK  1 active torsions:
REMARK  status: ('A' for Active; 'I' for Inactive)
REMARK    1  A    between atoms: N_2  and  C1_3 
ROOT
ATOM      1  C1  UNL d   1      -1.407   0.629   1.799  0.00  0.00     0.143 A 
ATOM      2  C2  UNL d   1      -0.477   0.337   2.803  0.00  0.00    -0.057 A 
ATOM      3  C3  UNL d   1       0.847   0.006   2.492  0.00  0.00     0.033 A 
ATOM      4  C4  UNL d   1       1.259  -0.068   1.165  0.00  0.00    -0.042 A 
ATOM      5  C5  UNL d   1       0.345   0.194   0.150  0.00  0.00     0.033 A 
ATOM      6  C6  UNL d   1      -0.974   0.531   0.467  0.00  0.00    -0.057 A 
ENDROOT
BRANCH   1   7
ATOM      7  N   UNL d   1      -2.762   0.868   2.040  0.00  0.00    -0.732 N 
ATOM      8  C   UNL d   1      -3.738   0.709   0.983  0.00  0.00     0.284 C 
ATOM      9  H3  UNL d   1      -3.065   0.511   2.943  0.00  0.00     0.395 HD
ENDBRANCH   1   7
TORSDOF 1
ENDMDL
