MODEL 1
REMARK minimizedAffinity -0.951569259
REMARK minimizedRMSD -1
REMARK  1 active torsions:
REMARK  status: ('A' for Active; 'I' for Inactive)
REMARK    1  A    between atoms: N_2  and  C1_3 
ROOT
ATOM      1  C1  UNL d   1       0.242   0.206  -0.210  0.00  0.00     0.143 A 
ATOM      2  C2  UNL d   1       1.501  -0.115   0.311  0.00  0.00    -0.057 A 
ATOM      3  C3  UNL d   1       1.699  -0.264   1.689  0.00  0.00     0.033 A 
ATOM      4  C4  UNL d   1       0.646  -0.066   2.575  0.00  0.00    -0.042 A 
ATOM      5  C5  UNL d   1      -0.608   0.279   2.082  0.00  0.00     0.033 A 
ATOM      6  C6  UNL d   1      -0.801   0.420   0.704  0.00  0.00    -0.057 A 
ENDROOT
BRANCH   1   7
ATOM      7  N   UNL d   1       0.003   0.465  -1.562  0.00  0.00    -0.732 N 
ATOM      8  C   UNL d   1       0.866  -0.089  -2.582  0.00  0.00     0.284 C 
ATOM      9  H3  UNL d   1      -0.987   0.436  -1.794  0.00  0.00     0.395 HD
ENDBRANCH   1   7
TORSDOF 1
ENDMDL
