MODEL 1
REMARK minimizedAffinity -1.85233808
REMARK minimizedRMSD -1
REMARK  1 active torsions:
REMARK  status: ('A' for Active; 'I' for Inactive)
REMARK    1  A    between atoms: N_2  and  C1_3 
ROOT
ATOM      1  C1  UNL d   1       0.187  -0.187  -1.341  0.00  0.00     0.143 A 
ATOM      2  C2  UNL d   1      -1.126   0.209  -1.065  0.00  0.00    -0.057 A 
ATOM      3  C3  UNL d   1      -1.573   0.378   0.251  0.00  0.00     0.033 A 
ATOM      4  C4  UNL d   1      -0.719   0.126   1.319  0.00  0.00    -0.042 A 
ATOM      5  C5  UNL d   1       0.584  -0.292   1.070  0.00  0.00     0.033 A 
ATOM      6  C6  UNL d   1       1.026  -0.453  -0.247  0.00  0.00    -0.057 A 
ENDROOT
BRANCH   1   7
ATOM      7  N   UNL d   1       0.662  -0.468  -2.624  0.00  0.00    -0.732 N 
ATOM      8  C   UNL d   1       0.085  -1.541  -3.405  0.00  0.00     0.284 C 
ATOM      9  H3  UNL d   1       0.860   0.375  -3.158  0.00  0.00     0.395 HD
ENDBRANCH   1   7
TORSDOF 1
ENDMDL
