MODEL 1
REMARK minimizedAffinity -2.83984566
REMARK minimizedRMSD -1
REMARK  1 active torsions:
REMARK  status: ('A' for Active; 'I' for Inactive)
REMARK    1  A    between atoms: N_2  and  C1_3 
ROOT
ATOM      1  C1  UNL d   1       0.977  -0.956  -1.419  0.00  0.00     0.143 A 
ATOM      2  C2  UNL d   1       0.912   0.090  -2.346  0.00  0.00    -0.057 A 
ATOM      3  C3  UNL d   1       1.175  -0.126  -3.704  0.00  0.00     0.033 A 
ATOM      4  C4  UNL d   1       1.536  -1.391  -4.157  0.00  0.00    -0.042 A 
ATOM      5  C5  UNL d   1       1.631  -2.440  -3.250  0.00  0.00     0.033 A 
ATOM      6  C6  UNL d   1       1.362  -2.219  -1.895  0.00  0.00    -0.057 A 
ENDROOT
BRANCH   1   7
ATOM      7  N   UNL d   1       0.824  -0.785  -0.041  0.00  0.00    -0.732 N 
ATOM      8  C   UNL d   1       0.512   0.516   0.510  0.00  0.00     0.284 C 
ATOM      9  H3  UNL d   1       0.315  -1.553   0.391  0.00  0.00     0.395 HD
ENDBRANCH   1   7
TORSDOF 1
ENDMDL
