MODEL 1
REMARK minimizedAffinity -1.8438549
REMARK minimizedRMSD -1
REMARK  1 active torsions:
REMARK  status: ('A' for Active; 'I' for Inactive)
REMARK    1  A    between atoms: N_2  and  C1_3 
ROOT
ATOM      1  C1  UNL d   1       0.749  -0.005  -0.558  0.00  0.00     0.143 A 
ATOM      2  C2  UNL d   1      -0.549   0.439  -0.834  0.00  0.00    -0.057 A 
ATOM      3  C3  UNL d   1      -1.014   0.552  -2.149  0.00  0.00     0.033 A 
ATOM      4  C4  UNL d   1      -0.177   0.249  -3.218  0.00  0.00    -0.042 A 
ATOM      5  C5  UNL d   1       1.125  -0.170  -2.969  0.00  0.00     0.033 A 
ATOM      6  C6  UNL d   1       1.582  -0.287  -1.652  0.00  0.00    -0.057 A 
ENDROOT
BRANCH   1   7
ATOM      7  N   UNL d   1       1.302  -0.045   0.724  0.00  0.00    -0.732 N 
ATOM      8  C   UNL d   1       0.535   0.390   1.871  0.00  0.00     0.284 C 
ATOM      9  H3  UNL d   1       1.850  -0.887   0.885  0.00  0.00     0.395 HD
ENDBRANCH   1   7
TORSDOF 1
ENDMDL
