MODEL 1
REMARK minimizedAffinity -2.40679407
REMARK minimizedRMSD -1
REMARK  1 active torsions:
REMARK  status: ('A' for Active; 'I' for Inactive)
REMARK    1  A    between atoms: N_2  and  C1_3 
ROOT
ATOM      1  C1  UNL d   1      -0.946   0.439   1.907  0.00  0.00     0.143 A 
ATOM      2  C2  UNL d   1       0.012   0.266   2.912  0.00  0.00    -0.057 A 
ATOM      3  C3  UNL d   1       1.337  -0.061   2.604  0.00  0.00     0.033 A 
ATOM      4  C4  UNL d   1       1.723  -0.251   1.281  0.00  0.00    -0.042 A 
ATOM      5  C5  UNL d   1       0.783  -0.109   0.267  0.00  0.00     0.033 A 
ATOM      6  C6  UNL d   1      -0.538   0.225   0.581  0.00  0.00    -0.057 A 
ENDROOT
BRANCH   1   7
ATOM      7  N   UNL d   1      -2.301   0.669   2.155  0.00  0.00    -0.732 N 
ATOM      8  C   UNL d   1      -3.267   0.612   1.079  0.00  0.00     0.284 C 
ATOM      9  H3  UNL d   1      -2.617   0.236   3.020  0.00  0.00     0.395 HD
ENDBRANCH   1   7
TORSDOF 1
ENDMDL
