MODEL 1
REMARK minimizedAffinity -2.1476779
REMARK minimizedRMSD -1
REMARK  1 active torsions:
REMARK  status: ('A' for Active; 'I' for Inactive)
REMARK    1  A    between atoms: N_2  and  C1_3 
ROOT
ATOM      1  C1  UNL d   1      -0.270   0.463   0.088  0.00  0.00     0.143 A 
ATOM      2  C2  UNL d   1       0.375   0.508   1.328  0.00  0.00    -0.057 A 
ATOM      3  C3  UNL d   1      -0.344   0.696   2.515  0.00  0.00     0.033 A 
ATOM      4  C4  UNL d   1      -1.724   0.873   2.478  0.00  0.00    -0.042 A 
ATOM      5  C5  UNL d   1      -2.383   0.857   1.255  0.00  0.00     0.033 A 
ATOM      6  C6  UNL d   1      -1.660   0.662   0.074  0.00  0.00    -0.057 A 
ENDROOT
BRANCH   1   7
ATOM      7  N   UNL d   1       0.400   0.377  -1.135  0.00  0.00    -0.732 N 
ATOM      8  C   UNL d   1       0.531  -0.893  -1.816  0.00  0.00     0.284 C 
ATOM      9  H3  UNL d   1       0.186   1.159  -1.750  0.00  0.00     0.395 HD
ENDBRANCH   1   7
TORSDOF 1
ENDMDL
