MODEL 1
REMARK minimizedAffinity -4.02995443
REMARK minimizedRMSD -1
REMARK  1 active torsions:
REMARK  status: ('A' for Active; 'I' for Inactive)
REMARK    1  A    between atoms: N_2  and  C1_3 
ROOT
ATOM      1  C1  UNL d   1       0.356  -0.920  -1.412  0.00  0.00     0.143 A 
ATOM      2  C2  UNL d   1       0.148   0.432  -1.118  0.00  0.00    -0.057 A 
ATOM      3  C3  UNL d   1       0.396   0.943   0.162  0.00  0.00     0.033 A 
ATOM      4  C4  UNL d   1       0.829   0.101   1.182  0.00  0.00    -0.042 A 
ATOM      5  C5  UNL d   1       1.018  -1.251   0.919  0.00  0.00     0.033 A 
ATOM      6  C6  UNL d   1       0.776  -1.754  -0.363  0.00  0.00    -0.057 A 
ENDROOT
BRANCH   1   7
ATOM      7  N   UNL d   1       0.035  -1.508  -2.638  0.00  0.00    -0.732 N 
ATOM      8  C   UNL d   1       1.037  -1.653  -3.671  0.00  0.00     0.284 C 
ATOM      9  H3  UNL d   1      -0.575  -2.316  -2.533  0.00  0.00     0.395 HD
ENDBRANCH   1   7
TORSDOF 1
ENDMDL
