MODEL 1
REMARK minimizedAffinity -2.49061847
REMARK minimizedRMSD -1
REMARK  1 active torsions:
REMARK  status: ('A' for Active; 'I' for Inactive)
REMARK    1  A    between atoms: N_2  and  C1_3 
ROOT
ATOM      1  C1  UNL d   1       0.274  -0.214  -0.232  0.00  0.00     0.143 A 
ATOM      2  C2  UNL d   1      -0.157   0.409  -1.408  0.00  0.00    -0.057 A 
ATOM      3  C3  UNL d   1       0.241  -0.061  -2.666  0.00  0.00     0.033 A 
ATOM      4  C4  UNL d   1       1.102  -1.148  -2.769  0.00  0.00    -0.042 A 
ATOM      5  C5  UNL d   1       1.563  -1.767  -1.612  0.00  0.00     0.033 A 
ATOM      6  C6  UNL d   1       1.157  -1.298  -0.360  0.00  0.00    -0.057 A 
ENDROOT
BRANCH   1   7
ATOM      7  N   UNL d   1      -0.007   0.265   1.050  0.00  0.00    -0.732 N 
ATOM      8  C   UNL d   1       1.045   0.391   2.036  0.00  0.00     0.284 C 
ATOM      9  H3  UNL d   1      -0.661   1.044   1.039  0.00  0.00     0.395 HD
ENDBRANCH   1   7
TORSDOF 1
ENDMDL
