MODEL 1
REMARK minimizedAffinity -4.4009738
REMARK minimizedRMSD -1
REMARK  1 active torsions:
REMARK  status: ('A' for Active; 'I' for Inactive)
REMARK    1  A    between atoms: N_2  and  C1_3 
ROOT
ATOM      1  C1  UNL d   1       0.492  -0.404  -1.344  0.00  0.00     0.143 A 
ATOM      2  C2  UNL d   1       0.262   0.718  -0.541  0.00  0.00    -0.057 A 
ATOM      3  C3  UNL d   1       0.564   0.707   0.826  0.00  0.00     0.033 A 
ATOM      4  C4  UNL d   1       1.076  -0.440   1.422  0.00  0.00    -0.042 A 
ATOM      5  C5  UNL d   1       1.290  -1.576   0.649  0.00  0.00     0.033 A 
ATOM      6  C6  UNL d   1       0.993  -1.556  -0.718  0.00  0.00    -0.057 A 
ENDROOT
BRANCH   1   7
ATOM      7  N   UNL d   1       0.121  -0.488  -2.688  0.00  0.00    -0.732 N 
ATOM      8  C   UNL d   1       0.413  -1.676  -3.461  0.00  0.00     0.284 C 
ATOM      9  H3  UNL d   1      -0.801  -0.095  -2.862  0.00  0.00     0.395 HD
ENDBRANCH   1   7
TORSDOF 1
ENDMDL
