MODEL 1
REMARK minimizedAffinity -2.06247258
REMARK minimizedRMSD -1
REMARK  1 active torsions:
REMARK  status: ('A' for Active; 'I' for Inactive)
REMARK    1  A    between atoms: N_2  and  C1_3 
ROOT
ATOM      1  C1  UNL d   1       0.699   0.255  -0.432  0.00  0.00     0.143 A 
ATOM      2  C2  UNL d   1       1.017  -1.065  -0.099  0.00  0.00    -0.057 A 
ATOM      3  C3  UNL d   1       1.211  -1.452   1.233  0.00  0.00     0.033 A 
ATOM      4  C4  UNL d   1       1.118  -0.514   2.256  0.00  0.00    -0.042 A 
ATOM      5  C5  UNL d   1       0.827   0.810   1.946  0.00  0.00     0.033 A 
ATOM      6  C6  UNL d   1       0.628   1.188   0.615  0.00  0.00    -0.057 A 
ENDROOT
BRANCH   1   7
ATOM      7  N   UNL d   1       0.591   0.722  -1.744  0.00  0.00    -0.732 N 
ATOM      8  C   UNL d   1       1.006  -0.105  -2.857  0.00  0.00     0.284 C 
ATOM      9  H3  UNL d   1      -0.274   1.233  -1.906  0.00  0.00     0.395 HD
ENDBRANCH   1   7
TORSDOF 1
ENDMDL
