MODEL 1
REMARK minimizedAffinity 1.47399724
REMARK minimizedRMSD -1
REMARK  0 active torsions:
REMARK  status: ('A' for Active; 'I' for Inactive)
ROOT
ATOM      1  C   UNL d   1       3.082   1.548   0.755  0.00  0.00     0.078 C 
ATOM      2  C1  UNL d   1       2.685   0.138   0.434  0.00  0.00    -0.077 A 
ATOM      3  C2  UNL d   1       1.404  -0.158  -0.050  0.00  0.00    -0.001 A 
ATOM      4  C3  UNL d   1       1.045  -1.476  -0.335  0.00  0.00     0.003 A 
ATOM      5  C4  UNL d   1       1.959  -2.509  -0.140  0.00  0.00    -0.005 A 
ATOM      6  C5  UNL d   1       3.235  -2.225   0.343  0.00  0.00     0.003 A 
ATOM      7  C6  UNL d   1       3.596  -0.907   0.629  0.00  0.00    -0.001 A 
ENDROOT
TORSDOF 0
ENDMDL
