MODEL 1
REMARK minimizedAffinity -2.24101353
REMARK minimizedRMSD -1
REMARK  0 active torsions:
REMARK  status: ('A' for Active; 'I' for Inactive)
ROOT
ATOM      1  C   UNL d   1       2.570   1.299   1.096  0.00  0.00     0.078 C 
ATOM      2  C1  UNL d   1       2.358  -0.090   0.570  0.00  0.00    -0.077 A 
ATOM      3  C2  UNL d   1       2.925  -0.496  -0.644  0.00  0.00    -0.001 A 
ATOM      4  C3  UNL d   1       2.711  -1.788  -1.125  0.00  0.00     0.003 A 
ATOM      5  C4  UNL d   1       1.928  -2.685  -0.400  0.00  0.00    -0.005 A 
ATOM      6  C5  UNL d   1       1.358  -2.289   0.808  0.00  0.00     0.003 A 
ATOM      7  C6  UNL d   1       1.571  -0.997   1.291  0.00  0.00    -0.001 A 
ENDROOT
TORSDOF 0
ENDMDL
