MODEL 1
REMARK minimizedAffinity 0.280368119
REMARK minimizedRMSD -1
REMARK  0 active torsions:
REMARK  status: ('A' for Active; 'I' for Inactive)
ROOT
ATOM      1  C   UNL d   1      -0.796   1.884   1.798  0.00  0.00     0.078 C 
ATOM      2  C1  UNL d   1      -0.232   1.113   0.642  0.00  0.00    -0.077 A 
ATOM      3  C2  UNL d   1      -1.044   0.721  -0.429  0.00  0.00    -0.001 A 
ATOM      4  C3  UNL d   1      -0.508  -0.005  -1.493  0.00  0.00     0.003 A 
ATOM      5  C4  UNL d   1       0.843  -0.348  -1.496  0.00  0.00    -0.005 A 
ATOM      6  C5  UNL d   1       1.659   0.036  -0.434  0.00  0.00     0.003 A 
ATOM      7  C6  UNL d   1       1.124   0.762   0.631  0.00  0.00    -0.001 A 
ENDROOT
TORSDOF 0
ENDMDL
