MODEL 1
REMARK minimizedAffinity 5.48244143
REMARK minimizedRMSD -1
REMARK  0 active torsions:
REMARK  status: ('A' for Active; 'I' for Inactive)
ROOT
ATOM      1  C   UNL d   1      -3.083   1.431  -3.783  0.00  0.00     0.078 C 
ATOM      2  C1  UNL d   1      -3.633   0.746  -2.567  0.00  0.00    -0.077 A 
ATOM      3  C2  UNL d   1      -3.248  -0.560  -2.239  0.00  0.00    -0.001 A 
ATOM      4  C3  UNL d   1      -3.776  -1.189  -1.110  0.00  0.00     0.003 A 
ATOM      5  C4  UNL d   1      -4.691  -0.520  -0.300  0.00  0.00    -0.005 A 
ATOM      6  C5  UNL d   1      -5.081   0.779  -0.620  0.00  0.00     0.003 A 
ATOM      7  C6  UNL d   1      -4.555   1.410  -1.748  0.00  0.00    -0.001 A 
ENDROOT
TORSDOF 0
ENDMDL
