MODEL 1
REMARK minimizedAffinity 12.8218136
REMARK minimizedRMSD -1
REMARK  0 active torsions:
REMARK  status: ('A' for Active; 'I' for Inactive)
ROOT
ATOM      1  C   UNL d   1      -0.175   2.166   0.368  0.00  0.00     0.078 C 
ATOM      2  C1  UNL d   1       1.098   1.377   0.285  0.00  0.00    -0.077 A 
ATOM      3  C2  UNL d   1       2.344   2.004   0.408  0.00  0.00    -0.001 A 
ATOM      4  C3  UNL d   1       3.521   1.259   0.319  0.00  0.00     0.003 A 
ATOM      5  C4  UNL d   1       3.463  -0.117   0.106  0.00  0.00    -0.005 A 
ATOM      6  C5  UNL d   1       2.228  -0.749  -0.021  0.00  0.00     0.003 A 
ATOM      7  C6  UNL d   1       1.050  -0.006   0.068  0.00  0.00    -0.001 A 
ENDROOT
TORSDOF 0
ENDMDL
