MODEL 1
REMARK minimizedAffinity 1.46537292
REMARK minimizedRMSD -1
REMARK  0 active torsions:
REMARK  status: ('A' for Active; 'I' for Inactive)
ROOT
ATOM      1  C   UNL d   1      -2.606   1.125  -3.316  0.00  0.00     0.078 C 
ATOM      2  C1  UNL d   1      -3.795   1.346  -2.430  0.00  0.00    -0.077 A 
ATOM      3  C2  UNL d   1      -4.713   2.369  -2.696  0.00  0.00    -0.001 A 
ATOM      4  C3  UNL d   1      -5.810   2.569  -1.856  0.00  0.00     0.003 A 
ATOM      5  C4  UNL d   1      -5.999   1.751  -0.744  0.00  0.00    -0.005 A 
ATOM      6  C5  UNL d   1      -5.090   0.731  -0.471  0.00  0.00     0.003 A 
ATOM      7  C6  UNL d   1      -3.992   0.529  -1.309  0.00  0.00    -0.001 A 
ENDROOT
TORSDOF 0
ENDMDL
