MODEL 1
REMARK minimizedAffinity -0.569319367
REMARK minimizedRMSD -1
REMARK  0 active torsions:
REMARK  status: ('A' for Active; 'I' for Inactive)
ROOT
ATOM      1  C   UNL d   1       1.609  -2.607  -0.189  0.00  0.00     0.078 C 
ATOM      2  C1  UNL d   1       1.733  -1.121  -0.031  0.00  0.00    -0.077 A 
ATOM      3  C2  UNL d   1       0.772  -0.256  -0.570  0.00  0.00    -0.001 A 
ATOM      4  C3  UNL d   1       0.906   1.126  -0.423  0.00  0.00     0.003 A 
ATOM      5  C4  UNL d   1       1.999   1.654   0.261  0.00  0.00    -0.005 A 
ATOM      6  C5  UNL d   1       2.961   0.801   0.798  0.00  0.00     0.003 A 
ATOM      7  C6  UNL d   1       2.829  -0.580   0.652  0.00  0.00    -0.001 A 
ENDROOT
TORSDOF 0
ENDMDL
