MODEL 1
REMARK minimizedAffinity 3.44816065
REMARK minimizedRMSD -1
REMARK  0 active torsions:
REMARK  status: ('A' for Active; 'I' for Inactive)
ROOT
ATOM      1  C   UNL d   1       2.472   1.971   0.778  0.00  0.00     0.078 C 
ATOM      2  C1  UNL d   1       2.661   0.486   0.694  0.00  0.00    -0.077 A 
ATOM      3  C2  UNL d   1       3.139  -0.244   1.790  0.00  0.00    -0.001 A 
ATOM      4  C3  UNL d   1       3.319  -1.624   1.695  0.00  0.00     0.003 A 
ATOM      5  C4  UNL d   1       3.025  -2.288   0.505  0.00  0.00    -0.005 A 
ATOM      6  C5  UNL d   1       2.551  -1.571  -0.591  0.00  0.00     0.003 A 
ATOM      7  C6  UNL d   1       2.371  -0.190  -0.498  0.00  0.00    -0.001 A 
ENDROOT
TORSDOF 0
ENDMDL
