MODEL 1
REMARK minimizedAffinity 2.12014151
REMARK minimizedRMSD -1
REMARK  0 active torsions:
REMARK  status: ('A' for Active; 'I' for Inactive)
ROOT
ATOM      1  C   UNL d   1       1.220   1.914   0.370  0.00  0.00     0.078 C 
ATOM      2  C1  UNL d   1       2.347   0.931   0.485  0.00  0.00    -0.077 A 
ATOM      3  C2  UNL d   1       3.578   1.170  -0.138  0.00  0.00    -0.001 A 
ATOM      4  C3  UNL d   1       4.615   0.242  -0.031  0.00  0.00     0.003 A 
ATOM      5  C4  UNL d   1       4.431  -0.932   0.697  0.00  0.00    -0.005 A 
ATOM      6  C5  UNL d   1       3.208  -1.180   1.318  0.00  0.00     0.003 A 
ATOM      7  C6  UNL d   1       2.170  -0.252   1.212  0.00  0.00    -0.001 A 
ENDROOT
TORSDOF 0
ENDMDL
