MODEL 1
REMARK minimizedAffinity 8.81531334
REMARK minimizedRMSD -1
REMARK  0 active torsions:
REMARK  status: ('A' for Active; 'I' for Inactive)
ROOT
ATOM      1  C   UNL d   1       1.830  -2.035   3.550  0.00  0.00     0.078 C 
ATOM      2  C1  UNL d   1       2.248  -2.018   2.110  0.00  0.00    -0.077 A 
ATOM      3  C2  UNL d   1       3.395  -1.328   1.700  0.00  0.00    -0.001 A 
ATOM      4  C3  UNL d   1       3.767  -1.312   0.355  0.00  0.00     0.003 A 
ATOM      5  C4  UNL d   1       2.996  -1.984  -0.592  0.00  0.00    -0.005 A 
ATOM      6  C5  UNL d   1       1.851  -2.671  -0.194  0.00  0.00     0.003 A 
ATOM      7  C6  UNL d   1       1.478  -2.688   1.151  0.00  0.00    -0.001 A 
ENDROOT
TORSDOF 0
ENDMDL
