MODEL 1
REMARK minimizedAffinity 5.31596804
REMARK minimizedRMSD -1
REMARK  0 active torsions:
REMARK  status: ('A' for Active; 'I' for Inactive)
ROOT
ATOM      1  C   UNL d   1      -0.743  -2.322   4.196  0.00  0.00     0.078 C 
ATOM      2  C1  UNL d   1      -0.274  -3.596   4.832  0.00  0.00    -0.077 A 
ATOM      3  C2  UNL d   1       1.068  -3.772   5.190  0.00  0.00    -0.001 A 
ATOM      4  C3  UNL d   1       1.493  -4.967   5.772  0.00  0.00     0.003 A 
ATOM      5  C4  UNL d   1       0.582  -5.997   6.000  0.00  0.00    -0.005 A 
ATOM      6  C5  UNL d   1      -0.755  -5.832   5.645  0.00  0.00     0.003 A 
ATOM      7  C6  UNL d   1      -1.182  -4.637   5.063  0.00  0.00    -0.001 A 
ENDROOT
TORSDOF 0
ENDMDL
