MODEL 1
REMARK minimizedAffinity 0.965865314
REMARK minimizedRMSD -1
REMARK  0 active torsions:
REMARK  status: ('A' for Active; 'I' for Inactive)
ROOT
ATOM      1  C   UNL d   1      -5.628  -3.290  -1.123  0.00  0.00     0.078 C 
ATOM      2  C1  UNL d   1      -5.765  -1.933  -0.499  0.00  0.00    -0.077 A 
ATOM      3  C2  UNL d   1      -5.883  -0.784  -1.291  0.00  0.00    -0.001 A 
ATOM      4  C3  UNL d   1      -6.000   0.474  -0.697  0.00  0.00     0.003 A 
ATOM      5  C4  UNL d   1      -5.999   0.594   0.692  0.00  0.00    -0.005 A 
ATOM      6  C5  UNL d   1      -5.880  -0.543   1.487  0.00  0.00     0.003 A 
ATOM      7  C6  UNL d   1      -5.763  -1.802   0.895  0.00  0.00    -0.001 A 
ENDROOT
TORSDOF 0
ENDMDL
