MODEL 1
REMARK minimizedAffinity 10.0196056
REMARK minimizedRMSD -1
REMARK  0 active torsions:
REMARK  status: ('A' for Active; 'I' for Inactive)
ROOT
ATOM      1  C   UNL d   1       2.124  -3.480   5.691  0.00  0.00    -0.002 A 
ATOM      2  C1  UNL d   1       1.367  -2.358   5.999  0.00  0.00     0.010 A 
ATOM      3  C2  UNL d   1       1.009  -1.447   5.003  0.00  0.00     0.041 A 
ATOM      4  C3  UNL d   1       1.426  -1.687   3.679  0.00  0.00    -0.075 A 
ATOM      5  S   UNL d   1       1.105  -0.710   2.295  0.00  0.00     0.015 SA
ATOM      6  C4  UNL d   1       1.962  -1.760   1.262  0.00  0.00     0.022 A 
ATOM      7  C5  UNL d   1       2.488  -2.834   1.940  0.00  0.00     0.026 A 
ATOM      8  C6  UNL d   1       2.187  -2.810   3.344  0.00  0.00    -0.082 A 
ATOM      9  C7  UNL d   1       2.535  -3.714   4.376  0.00  0.00     0.045 A 
ENDROOT
TORSDOF 0
ENDMDL
