MODEL 1
REMARK minimizedAffinity 11.6161957
REMARK minimizedRMSD -1
REMARK  0 active torsions:
REMARK  status: ('A' for Active; 'I' for Inactive)
ROOT
ATOM      1  C   UNL d   1      -1.916  -5.055  -0.404  0.00  0.00    -0.002 A 
ATOM      2  C1  UNL d   1      -0.954  -4.704  -1.341  0.00  0.00     0.010 A 
ATOM      3  C2  UNL d   1      -0.833  -3.382  -1.773  0.00  0.00     0.041 A 
ATOM      4  C3  UNL d   1      -1.702  -2.409  -1.242  0.00  0.00    -0.075 A 
ATOM      5  S   UNL d   1      -1.738  -0.728  -1.623  0.00  0.00     0.015 SA
ATOM      6  C4  UNL d   1      -3.029  -0.436  -0.550  0.00  0.00     0.022 A 
ATOM      7  C5  UNL d   1      -3.436  -1.582   0.091  0.00  0.00     0.026 A 
ATOM      8  C6  UNL d   1      -2.678  -2.738  -0.296  0.00  0.00    -0.082 A 
ATOM      9  C7  UNL d   1      -2.776  -4.087   0.121  0.00  0.00     0.045 A 
ENDROOT
TORSDOF 0
ENDMDL
