MODEL 1
REMARK minimizedAffinity 6.85653591
REMARK minimizedRMSD -1
REMARK  0 active torsions:
REMARK  status: ('A' for Active; 'I' for Inactive)
ROOT
ATOM      1  C   UNL d   1       1.863  -1.454   1.516  0.00  0.00    -0.002 A 
ATOM      2  C1  UNL d   1       1.233  -0.364   2.101  0.00  0.00     0.010 A 
ATOM      3  C2  UNL d   1       1.076  -0.294   3.487  0.00  0.00     0.041 A 
ATOM      4  C3  UNL d   1       1.568  -1.347   4.283  0.00  0.00    -0.075 A 
ATOM      5  S   UNL d   1       1.489  -1.476   6.000  0.00  0.00     0.015 SA
ATOM      6  C4  UNL d   1       2.290  -2.981   5.998  0.00  0.00     0.022 A 
ATOM      7  C5  UNL d   1       2.617  -3.389   4.727  0.00  0.00     0.026 A 
ATOM      8  C6  UNL d   1       2.207  -2.454   3.717  0.00  0.00    -0.082 A 
ATOM      9  C7  UNL d   1       2.350  -2.496   2.309  0.00  0.00     0.045 A 
ENDROOT
TORSDOF 0
ENDMDL
