MODEL 1
REMARK minimizedAffinity 16.0393181
REMARK minimizedRMSD -1
REMARK  0 active torsions:
REMARK  status: ('A' for Active; 'I' for Inactive)
ROOT
ATOM      1  C   UNL d   1      -2.729   1.762  -0.384  0.00  0.00    -0.002 A 
ATOM      2  C1  UNL d   1      -1.728   2.720  -0.310  0.00  0.00     0.010 A 
ATOM      3  C2  UNL d   1      -0.497   2.418   0.276  0.00  0.00     0.041 A 
ATOM      4  C3  UNL d   1      -0.286   1.122   0.788  0.00  0.00    -0.075 A 
ATOM      5  S   UNL d   1       1.141   0.524   1.548  0.00  0.00     0.015 SA
ATOM      6  C4  UNL d   1       0.456  -1.017   1.791  0.00  0.00     0.022 A 
ATOM      7  C5  UNL d   1      -0.830  -1.091   1.311  0.00  0.00     0.026 A 
ATOM      8  C6  UNL d   1      -1.279   0.140   0.724  0.00  0.00    -0.082 A 
ATOM      9  C7  UNL d   1      -2.516   0.479   0.126  0.00  0.00     0.045 A 
ENDROOT
TORSDOF 0
ENDMDL
