MODEL 1
REMARK minimizedAffinity 7.663589
REMARK minimizedRMSD -1
REMARK  0 active torsions:
REMARK  status: ('A' for Active; 'I' for Inactive)
ROOT
ATOM      1  C   UNL d   1       2.067  -1.920   1.321  0.00  0.00    -0.002 A 
ATOM      2  C1  UNL d   1       2.625  -3.137   1.686  0.00  0.00     0.010 A 
ATOM      3  C2  UNL d   1       2.692  -3.514   3.028  0.00  0.00     0.041 A 
ATOM      4  C3  UNL d   1       2.182  -2.639   4.008  0.00  0.00    -0.075 A 
ATOM      5  S   UNL d   1       2.155  -2.890   5.713  0.00  0.00     0.015 SA
ATOM      6  C4  UNL d   1       1.402  -1.388   5.998  0.00  0.00     0.022 A 
ATOM      7  C5  UNL d   1       1.169  -0.699   4.831  0.00  0.00     0.026 A 
ATOM      8  C6  UNL d   1       1.615  -1.409   3.665  0.00  0.00    -0.082 A 
ATOM      9  C7  UNL d   1       1.562  -1.055   2.295  0.00  0.00     0.045 A 
ENDROOT
TORSDOF 0
ENDMDL
