MODEL 1
REMARK minimizedAffinity 0.776146173
REMARK minimizedRMSD -1
REMARK  0 active torsions:
REMARK  status: ('A' for Active; 'I' for Inactive)
ROOT
ATOM      1  C   UNL d   1       0.890  -0.733   2.099  0.00  0.00    -0.002 A 
ATOM      2  C1  UNL d   1       0.933  -2.030   2.592  0.00  0.00     0.010 A 
ATOM      3  C2  UNL d   1       0.036  -2.995   2.131  0.00  0.00     0.041 A 
ATOM      4  C3  UNL d   1      -0.912  -2.634   1.154  0.00  0.00    -0.075 A 
ATOM      5  S   UNL d   1      -2.108  -3.649   0.440  0.00  0.00     0.015 SA
ATOM      6  C4  UNL d   1      -2.704  -2.387  -0.538  0.00  0.00     0.022 A 
ATOM      7  C5  UNL d   1      -2.019  -1.212  -0.337  0.00  0.00     0.026 A 
ATOM      8  C6  UNL d   1      -0.974  -1.335   0.641  0.00  0.00    -0.082 A 
ATOM      9  C7  UNL d   1      -0.052  -0.378   1.130  0.00  0.00     0.045 A 
ENDROOT
TORSDOF 0
ENDMDL
