MODEL 1
REMARK minimizedAffinity 4.27221823
REMARK minimizedRMSD -1
REMARK  0 active torsions:
REMARK  status: ('A' for Active; 'I' for Inactive)
ROOT
ATOM      1  C1  BNZ d   1      -0.033  -2.100   1.262  0.00  0.00     0.000 A 
ATOM      2  C2  BNZ d   1       0.554  -3.334   1.351  0.00  0.00     0.000 A 
ATOM      3  C3  BNZ d   1       1.631  -3.654   0.572  0.00  0.00     0.000 A 
ATOM      4  C4  BNZ d   1       2.094  -2.756  -0.321  0.00  0.00     0.000 A 
ATOM      5  C5  BNZ d   1       1.507  -1.511  -0.429  0.00  0.00     0.000 A 
ATOM      6  C6  BNZ d   1       0.447  -1.178   0.383  0.00  0.00     0.000 A 
ENDROOT
TORSDOF 0
ENDMDL
