MODEL 1
REMARK minimizedAffinity -4.07528257
REMARK minimizedRMSD -1
REMARK  0 active torsions:
REMARK  status: ('A' for Active; 'I' for Inactive)
ROOT
ATOM      1  C1  BNZ d   1       1.956  -3.221   0.434  0.00  0.00     0.000 A 
ATOM      2  C2  BNZ d   1       1.945  -1.862   0.269  0.00  0.00     0.000 A 
ATOM      3  C3  BNZ d   1       1.061  -1.079   0.958  0.00  0.00     0.000 A 
ATOM      4  C4  BNZ d   1       0.164  -1.660   1.781  0.00  0.00     0.000 A 
ATOM      5  C5  BNZ d   1       0.156  -3.030   1.952  0.00  0.00     0.000 A 
ATOM      6  C6  BNZ d   1       1.073  -3.811   1.286  0.00  0.00     0.000 A 
ENDROOT
TORSDOF 0
ENDMDL
