MODEL 1
REMARK minimizedAffinity 9.80607891
REMARK minimizedRMSD -1
REMARK  0 active torsions:
REMARK  status: ('A' for Active; 'I' for Inactive)
ROOT
ATOM      1  C1  BNZ d   1       2.590  -0.806  -4.859  0.00  0.00     0.000 A 
ATOM      2  C2  BNZ d   1       2.806   0.281  -5.663  0.00  0.00     0.000 A 
ATOM      3  C3  BNZ d   1       1.783   1.129  -5.983  0.00  0.00     0.000 A 
ATOM      4  C4  BNZ d   1       0.540   0.868  -5.531  0.00  0.00     0.000 A 
ATOM      5  C5  BNZ d   1       0.304  -0.229  -4.727  0.00  0.00     0.000 A 
ATOM      6  C6  BNZ d   1       1.343  -1.059  -4.376  0.00  0.00     0.000 A 
ENDROOT
TORSDOF 0
ENDMDL
