MODEL 1
REMARK minimizedAffinity 1.38319612
REMARK minimizedRMSD -1
REMARK  0 active torsions:
REMARK  status: ('A' for Active; 'I' for Inactive)
ROOT
ATOM      1  C1  BNZ d   1       0.036  -1.605   1.518  0.00  0.00     0.000 A 
ATOM      2  C2  BNZ d   1       1.223  -1.310   0.902  0.00  0.00     0.000 A 
ATOM      3  C3  BNZ d   1       1.931  -2.279   0.247  0.00  0.00     0.000 A 
ATOM      4  C4  BNZ d   1       1.472  -3.547   0.244  0.00  0.00     0.000 A 
ATOM      5  C5  BNZ d   1       0.281  -3.862   0.868  0.00  0.00     0.000 A 
ATOM      6  C6  BNZ d   1      -0.448  -2.876   1.493  0.00  0.00     0.000 A 
ENDROOT
TORSDOF 0
ENDMDL
