MODEL 1
REMARK minimizedAffinity -1.85577536
REMARK minimizedRMSD -1
REMARK  0 active torsions:
REMARK  status: ('A' for Active; 'I' for Inactive)
ROOT
ATOM      1  C1  BNZ d   1      -0.167  -2.047   2.341  0.00  0.00     0.000 A 
ATOM      2  C2  BNZ d   1       0.632  -3.156   2.259  0.00  0.00     0.000 A 
ATOM      3  C3  BNZ d   1       1.527  -3.300   1.236  0.00  0.00     0.000 A 
ATOM      4  C4  BNZ d   1       1.593  -2.356   0.275  0.00  0.00     0.000 A 
ATOM      5  C5  BNZ d   1       0.788  -1.236   0.339  0.00  0.00     0.000 A 
ATOM      6  C6  BNZ d   1      -0.084  -1.076   1.392  0.00  0.00     0.000 A 
ENDROOT
TORSDOF 0
ENDMDL
