MODEL 1
REMARK minimizedAffinity -0.202003598
REMARK minimizedRMSD -1
REMARK  0 active torsions:
REMARK  status: ('A' for Active; 'I' for Inactive)
ROOT
ATOM      1  C1  BNZ d   1      -0.689  -3.128   2.391  0.00  0.00     0.000 A 
ATOM      2  C2  BNZ d   1      -0.076  -4.246   1.889  0.00  0.00     0.000 A 
ATOM      3  C3  BNZ d   1       1.003  -4.138   1.057  0.00  0.00     0.000 A 
ATOM      4  C4  BNZ d   1       1.443  -2.916   0.696  0.00  0.00     0.000 A 
ATOM      5  C5  BNZ d   1       0.830  -1.780   1.186  0.00  0.00     0.000 A 
ATOM      6  C6  BNZ d   1      -0.231  -1.892   2.054  0.00  0.00     0.000 A 
ENDROOT
TORSDOF 0
ENDMDL
