MODEL 1
REMARK minimizedAffinity -1.05219221
REMARK minimizedRMSD -1
REMARK  0 active torsions:
REMARK  status: ('A' for Active; 'I' for Inactive)
ROOT
ATOM      1  C1  BNZ d   1      -5.250  -2.259  -5.910  0.00  0.00     0.000 A 
ATOM      2  C2  BNZ d   1      -4.076  -2.954  -5.792  0.00  0.00     0.000 A 
ATOM      3  C3  BNZ d   1      -2.877  -2.299  -5.742  0.00  0.00     0.000 A 
ATOM      4  C4  BNZ d   1      -2.851  -0.955  -5.849  0.00  0.00     0.000 A 
ATOM      5  C5  BNZ d   1      -4.026  -0.240  -5.978  0.00  0.00     0.000 A 
ATOM      6  C6  BNZ d   1      -5.233  -0.900  -5.989  0.00  0.00     0.000 A 
ENDROOT
TORSDOF 0
ENDMDL
