MODEL 1
REMARK minimizedAffinity 0.169151455
REMARK minimizedRMSD -1
REMARK  1 active torsions:
REMARK  status: ('A' for Active; 'I' for Inactive)
REMARK    1  A    between atoms: C1_2  and  C2_3 
ROOT
ATOM      1  C2  UNL d   1       0.273  -0.502   0.418  0.00  0.00    -0.073 A 
ATOM      2  C3  UNL d   1       0.492   0.723   1.059  0.00  0.00    -0.002 A 
ATOM      3  C4  UNL d   1       1.210   1.735   0.420  0.00  0.00     0.004 A 
ATOM      4  C5  UNL d   1       1.709   1.536  -0.867  0.00  0.00    -0.004 A 
ATOM      5  C6  UNL d   1       1.491   0.324  -1.529  0.00  0.00    -0.075 A 
ATOM      6  C7  UNL d   1       2.023   0.094  -2.913  0.00  0.00     0.076 C 
ATOM      7  C8  UNL d   1       0.771  -0.689  -0.880  0.00  0.00     0.001 A 
ENDROOT
BRANCH   1   8
ATOM      8  C1  UNL d   1      -0.506  -1.595   1.101  0.00  0.00     0.053 C 
ATOM      9  C   UNL d   1      -0.284  -2.949   0.446  0.00  0.00     0.018 C 
ENDBRANCH   1   8
TORSDOF 1
ENDMDL
