MODEL 1
REMARK minimizedAffinity 0.616555333
REMARK minimizedRMSD -1
REMARK  1 active torsions:
REMARK  status: ('A' for Active; 'I' for Inactive)
REMARK    1  A    between atoms: C1_2  and  C2_3 
ROOT
ATOM      1  C2  UNL d   1      -0.858   0.462   1.352  0.00  0.00    -0.073 A 
ATOM      2  C3  UNL d   1      -0.064   1.509   0.868  0.00  0.00    -0.002 A 
ATOM      3  C4  UNL d   1       0.976   1.250  -0.026  0.00  0.00     0.004 A 
ATOM      4  C5  UNL d   1       1.227  -0.055  -0.451  0.00  0.00    -0.004 A 
ATOM      5  C6  UNL d   1       0.437  -1.112   0.012  0.00  0.00    -0.075 A 
ATOM      6  C7  UNL d   1       0.697  -2.521  -0.434  0.00  0.00     0.076 C 
ATOM      7  C8  UNL d   1      -0.603  -0.844   0.912  0.00  0.00     0.001 A 
ENDROOT
BRANCH   1   8
ATOM      8  C1  UNL d   1      -1.985   0.738   2.313  0.00  0.00     0.053 C 
ATOM      9  C   UNL d   1      -3.345   0.466   1.689  0.00  0.00     0.018 C 
ENDBRANCH   1   8
TORSDOF 1
ENDMDL
