MODEL 1
REMARK minimizedAffinity -2.56851292
REMARK minimizedRMSD -1
REMARK  1 active torsions:
REMARK  status: ('A' for Active; 'I' for Inactive)
REMARK    1  A    between atoms: C1_2  and  C2_3 
ROOT
ATOM      1  C2  UNL d   1       0.151  -0.412   0.941  0.00  0.00    -0.073 A 
ATOM      2  C3  UNL d   1       0.153  -1.811   0.996  0.00  0.00    -0.002 A 
ATOM      3  C4  UNL d   1       0.585  -2.558  -0.101  0.00  0.00     0.004 A 
ATOM      4  C5  UNL d   1       1.025  -1.916  -1.259  0.00  0.00    -0.004 A 
ATOM      5  C6  UNL d   1       1.041  -0.519  -1.328  0.00  0.00    -0.075 A 
ATOM      6  C7  UNL d   1       1.508   0.186  -2.567  0.00  0.00     0.076 C 
ATOM      7  C8  UNL d   1       0.603   0.224  -0.224  0.00  0.00     0.001 A 
ENDROOT
BRANCH   1   8
ATOM      8  C1  UNL d   1      -0.308   0.399   2.125  0.00  0.00     0.053 C 
ATOM      9  C   UNL d   1      -1.823   0.408   2.257  0.00  0.00     0.018 C 
ENDBRANCH   1   8
TORSDOF 1
ENDMDL
