MODEL 1
REMARK minimizedAffinity 2.02482605
REMARK minimizedRMSD -1
REMARK  1 active torsions:
REMARK  status: ('A' for Active; 'I' for Inactive)
REMARK    1  A    between atoms: C1_2  and  C2_3 
ROOT
ATOM      1  C2  UNL d   1       0.525   0.048  -0.692  0.00  0.00    -0.073 A 
ATOM      2  C3  UNL d   1       0.039   0.777  -1.784  0.00  0.00    -0.002 A 
ATOM      3  C4  UNL d   1       0.154   0.268  -3.078  0.00  0.00     0.004 A 
ATOM      4  C5  UNL d   1       0.749  -0.975  -3.294  0.00  0.00    -0.004 A 
ATOM      5  C6  UNL d   1       1.230  -1.724  -2.214  0.00  0.00    -0.075 A 
ATOM      6  C7  UNL d   1       1.874  -3.062  -2.429  0.00  0.00     0.076 C 
ATOM      7  C8  UNL d   1       1.113  -1.205  -0.918  0.00  0.00     0.001 A 
ENDROOT
BRANCH   1   8
ATOM      8  C1  UNL d   1       0.397   0.591   0.708  0.00  0.00     0.053 C 
ATOM      9  C   UNL d   1       1.162   1.892   0.887  0.00  0.00     0.018 C 
ENDBRANCH   1   8
TORSDOF 1
ENDMDL
