MODEL 1
REMARK minimizedAffinity 7.61908674
REMARK minimizedRMSD -1
REMARK  1 active torsions:
REMARK  status: ('A' for Active; 'I' for Inactive)
REMARK    1  A    between atoms: C1_2  and  C2_3 
ROOT
ATOM      1  C2  UNL d   1       1.160   1.005  -0.469  0.00  0.00    -0.073 A 
ATOM      2  C3  UNL d   1       1.407   1.386  -1.793  0.00  0.00    -0.002 A 
ATOM      3  C4  UNL d   1       1.066   0.537  -2.847  0.00  0.00     0.004 A 
ATOM      4  C5  UNL d   1       0.469  -0.697  -2.589  0.00  0.00    -0.004 A 
ATOM      5  C6  UNL d   1       0.203  -1.091  -1.274  0.00  0.00    -0.075 A 
ATOM      6  C7  UNL d   1      -0.437  -2.415  -0.979  0.00  0.00     0.076 C 
ATOM      7  C8  UNL d   1       0.551  -0.234  -0.221  0.00  0.00     0.001 A 
ENDROOT
BRANCH   1   8
ATOM      8  C1  UNL d   1       1.521   1.921   0.671  0.00  0.00     0.053 C 
ATOM      9  C   UNL d   1       1.935   3.300   0.185  0.00  0.00     0.018 C 
ENDBRANCH   1   8
TORSDOF 1
ENDMDL
