MODEL 1
REMARK minimizedAffinity 2.67541122
REMARK minimizedRMSD -1
REMARK  1 active torsions:
REMARK  status: ('A' for Active; 'I' for Inactive)
REMARK    1  A    between atoms: C1_2  and  C2_3 
ROOT
ATOM      1  C2  UNL d   1      -0.124  -0.211   0.689  0.00  0.00    -0.073 A 
ATOM      2  C3  UNL d   1      -0.767  -1.448   0.570  0.00  0.00    -0.002 A 
ATOM      3  C4  UNL d   1      -0.540  -2.256  -0.545  0.00  0.00     0.004 A 
ATOM      4  C5  UNL d   1       0.335  -1.838  -1.548  0.00  0.00    -0.004 A 
ATOM      5  C6  UNL d   1       0.995  -0.610  -1.442  0.00  0.00    -0.075 A 
ATOM      6  C7  UNL d   1       1.938  -0.146  -2.513  0.00  0.00     0.076 C 
ATOM      7  C8  UNL d   1       0.761   0.196  -0.320  0.00  0.00     0.001 A 
ENDROOT
BRANCH   1   8
ATOM      8  C1  UNL d   1      -0.360   0.662   1.895  0.00  0.00     0.053 C 
ATOM      9  C   UNL d   1      -1.825   1.040   2.046  0.00  0.00     0.018 C 
ENDBRANCH   1   8
TORSDOF 1
ENDMDL
