MODEL 1
REMARK minimizedAffinity 20.7416573
REMARK minimizedRMSD -1
REMARK  1 active torsions:
REMARK  status: ('A' for Active; 'I' for Inactive)
REMARK    1  A    between atoms: C1_2  and  C2_3 
ROOT
ATOM      1  C2  UNL d   1      -3.008   1.914   4.541  0.00  0.00    -0.073 A 
ATOM      2  C3  UNL d   1      -3.747   1.051   3.725  0.00  0.00    -0.002 A 
ATOM      3  C4  UNL d   1      -4.113   1.441   2.436  0.00  0.00     0.004 A 
ATOM      4  C5  UNL d   1      -3.740   2.693   1.949  0.00  0.00    -0.004 A 
ATOM      5  C6  UNL d   1      -2.991   3.566   2.745  0.00  0.00    -0.075 A 
ATOM      6  C7  UNL d   1      -2.582   4.917   2.237  0.00  0.00     0.076 C 
ATOM      7  C8  UNL d   1      -2.629   3.168   4.039  0.00  0.00     0.001 A 
ENDROOT
BRANCH   1   8
ATOM      8  C1  UNL d   1      -2.605   1.495   5.931  0.00  0.00     0.053 C 
ATOM      9  C   UNL d   1      -2.245   0.019   6.000  0.00  0.00     0.018 C 
ENDBRANCH   1   8
TORSDOF 1
ENDMDL
