MODEL 1
REMARK minimizedAffinity 5.91909599
REMARK minimizedRMSD -1
REMARK  1 active torsions:
REMARK  status: ('A' for Active; 'I' for Inactive)
REMARK    1  A    between atoms: C1_2  and  C2_3 
ROOT
ATOM      1  C2  UNL d   1      -2.451   4.299  -4.684  0.00  0.00    -0.073 A 
ATOM      2  C3  UNL d   1      -1.940   4.738  -5.911  0.00  0.00    -0.002 A 
ATOM      3  C4  UNL d   1      -0.834   5.587  -5.950  0.00  0.00     0.004 A 
ATOM      4  C5  UNL d   1      -0.223   6.000  -4.766  0.00  0.00    -0.004 A 
ATOM      5  C6  UNL d   1      -0.712   5.563  -3.531  0.00  0.00    -0.075 A 
ATOM      6  C7  UNL d   1      -0.068   5.999  -2.248  0.00  0.00     0.076 C 
ATOM      7  C8  UNL d   1      -1.825   4.712  -3.499  0.00  0.00     0.001 A 
ENDROOT
BRANCH   1   8
ATOM      8  C1  UNL d   1      -3.642   3.377  -4.636  0.00  0.00     0.053 C 
ATOM      9  C   UNL d   1      -3.940   2.760  -5.994  0.00  0.00     0.018 C 
ENDBRANCH   1   8
TORSDOF 1
ENDMDL
