MODEL 1
REMARK minimizedAffinity 6.03106928
REMARK minimizedRMSD -1
REMARK  1 active torsions:
REMARK  status: ('A' for Active; 'I' for Inactive)
REMARK    1  A    between atoms: C1_2  and  C2_3 
ROOT
ATOM      1  C2  UNL d   1       1.599   4.476   1.568  0.00  0.00    -0.073 A 
ATOM      2  C3  UNL d   1       1.343   3.120   1.336  0.00  0.00    -0.002 A 
ATOM      3  C4  UNL d   1       1.046   2.669   0.049  0.00  0.00     0.004 A 
ATOM      4  C5  UNL d   1       1.008   3.567  -1.018  0.00  0.00    -0.004 A 
ATOM      5  C6  UNL d   1       1.272   4.924  -0.808  0.00  0.00    -0.075 A 
ATOM      6  C7  UNL d   1       1.233   5.903  -1.944  0.00  0.00     0.076 C 
ATOM      7  C8  UNL d   1       1.567   5.369   0.488  0.00  0.00     0.001 A 
ENDROOT
BRANCH   1   8
ATOM      8  C1  UNL d   1       1.927   4.966   2.955  0.00  0.00     0.053 C 
ATOM      9  C   UNL d   1       3.401   5.308   3.105  0.00  0.00     0.018 C 
ENDBRANCH   1   8
TORSDOF 1
ENDMDL
