MODEL 1
REMARK minimizedAffinity 12.455409
REMARK minimizedRMSD -1
REMARK  1 active torsions:
REMARK  status: ('A' for Active; 'I' for Inactive)
REMARK    1  A    between atoms: C1_2  and  C2_3 
ROOT
ATOM      1  C2  UNL d   1      -3.375   3.186   2.606  0.00  0.00    -0.073 A 
ATOM      2  C3  UNL d   1      -4.464   2.384   2.245  0.00  0.00    -0.002 A 
ATOM      3  C4  UNL d   1      -4.821   1.287   3.029  0.00  0.00     0.004 A 
ATOM      4  C5  UNL d   1      -4.100   0.984   4.183  0.00  0.00    -0.004 A 
ATOM      5  C6  UNL d   1      -3.016   1.779   4.567  0.00  0.00    -0.075 A 
ATOM      6  C7  UNL d   1      -2.228   1.465   5.805  0.00  0.00     0.076 C 
ATOM      7  C8  UNL d   1      -2.661   2.879   3.773  0.00  0.00     0.001 A 
ENDROOT
BRANCH   1   8
ATOM      8  C1  UNL d   1      -2.989   4.376   1.766  0.00  0.00     0.053 C 
ATOM      9  C   UNL d   1      -3.786   5.617   2.136  0.00  0.00     0.018 C 
ENDBRANCH   1   8
TORSDOF 1
ENDMDL
