MODEL 1
REMARK minimizedAffinity -1.48620617
REMARK minimizedRMSD -1
REMARK  1 active torsions:
REMARK  status: ('A' for Active; 'I' for Inactive)
REMARK    1  A    between atoms: C1_2  and  C2_3 
ROOT
ATOM      1  C2  UNL d   1       1.879  -0.608  -0.421  0.00  0.00    -0.073 A 
ATOM      2  C3  UNL d   1       2.026   0.673  -0.966  0.00  0.00    -0.002 A 
ATOM      3  C4  UNL d   1       1.409   1.770  -0.364  0.00  0.00     0.004 A 
ATOM      4  C5  UNL d   1       0.645   1.599   0.791  0.00  0.00    -0.004 A 
ATOM      5  C6  UNL d   1       0.497   0.329   1.357  0.00  0.00    -0.075 A 
ATOM      6  C7  UNL d   1      -0.322   0.129   2.598  0.00  0.00     0.076 C 
ATOM      7  C8  UNL d   1       1.118  -0.768   0.745  0.00  0.00     0.001 A 
ENDROOT
BRANCH   1   8
ATOM      8  C1  UNL d   1       2.549  -1.795  -1.065  0.00  0.00     0.053 C 
ATOM      9  C   UNL d   1       3.915  -2.076  -0.459  0.00  0.00     0.018 C 
ENDBRANCH   1   8
TORSDOF 1
ENDMDL
