MODEL 1
REMARK minimizedAffinity -5.14004898
REMARK minimizedRMSD -1
REMARK  0 active torsions:
REMARK  status: ('A' for Active; 'I' for Inactive)
ROOT
ATOM      1  C2' OXE d   1      -1.737   0.176   1.115  0.00  0.00     0.078 C 
ATOM      2  C1' OXE d   1       0.558  -0.530   2.568  0.00  0.00     0.078 C 
ATOM      3  C1  OXE d   1       0.623  -0.619   1.064  0.00  0.00    -0.078 A 
ATOM      4  C2  OXE d   1      -0.520  -0.317   0.363  0.00  0.00    -0.078 A 
ATOM      5  C3  OXE d   1      -0.499  -0.330  -1.029  0.00  0.00     0.003 A 
ATOM      6  C4  OXE d   1       0.628  -0.797  -1.716  0.00  0.00    -0.002 A 
ATOM      7  C5  OXE d   1       1.789  -1.148  -1.020  0.00  0.00    -0.002 A 
ATOM      8  C6  OXE d   1       1.817  -1.025   0.365  0.00  0.00     0.003 A 
ENDROOT
TORSDOF 0
ENDMDL
