MODEL 1
REMARK minimizedAffinity -2.59070063
REMARK minimizedRMSD -1
REMARK  0 active torsions:
REMARK  status: ('A' for Active; 'I' for Inactive)
ROOT
ATOM      1  C2' OXE d   1      -2.622   1.173  -2.498  0.00  0.00     0.078 C 
ATOM      2  C1' OXE d   1      -0.388  -0.298  -1.646  0.00  0.00     0.078 C 
ATOM      3  C1  OXE d   1      -0.215   1.186  -1.855  0.00  0.00    -0.078 A 
ATOM      4  C2  OXE d   1      -1.301   1.890  -2.317  0.00  0.00    -0.078 A 
ATOM      5  C3  OXE d   1      -1.211   3.270  -2.475  0.00  0.00     0.003 A 
ATOM      6  C4  OXE d   1       0.017   3.923  -2.315  0.00  0.00    -0.002 A 
ATOM      7  C5  OXE d   1       1.145   3.218  -1.883  0.00  0.00    -0.002 A 
ATOM      8  C6  OXE d   1       1.036   1.860  -1.608  0.00  0.00     0.003 A 
ENDROOT
TORSDOF 0
ENDMDL
