MODEL 1
REMARK minimizedAffinity -4.87361956
REMARK minimizedRMSD -1
REMARK  0 active torsions:
REMARK  status: ('A' for Active; 'I' for Inactive)
ROOT
ATOM      1  C2' OXE d   1       0.099   0.424  -0.448  0.00  0.00     0.078 C 
ATOM      2  C1' OXE d   1       2.238  -1.171  -1.319  0.00  0.00     0.078 C 
ATOM      3  C1  OXE d   1       1.928  -1.155   0.157  0.00  0.00    -0.078 A 
ATOM      4  C2  OXE d   1       0.909  -0.335   0.580  0.00  0.00    -0.078 A 
ATOM      5  C3  OXE d   1       0.546  -0.325   1.924  0.00  0.00     0.003 A 
ATOM      6  C4  OXE d   1       1.307  -1.023   2.869  0.00  0.00    -0.002 A 
ATOM      7  C5  OXE d   1       2.374  -1.832   2.465  0.00  0.00    -0.002 A 
ATOM      8  C6  OXE d   1       2.670  -1.943   1.110  0.00  0.00     0.003 A 
ENDROOT
TORSDOF 0
ENDMDL
