MODEL 1
REMARK minimizedAffinity -1.97697473
REMARK minimizedRMSD -1
REMARK  0 active torsions:
REMARK  status: ('A' for Active; 'I' for Inactive)
ROOT
ATOM      1  C2' OXE d   1       1.613   2.374  -1.363  0.00  0.00     0.078 C 
ATOM      2  C1' OXE d   1      -0.527   0.662  -0.754  0.00  0.00     0.078 C 
ATOM      3  C1  OXE d   1      -0.814   1.868  -1.614  0.00  0.00    -0.078 A 
ATOM      4  C2  OXE d   1       0.230   2.726  -1.868  0.00  0.00    -0.078 A 
ATOM      5  C3  OXE d   1       0.032   3.824  -2.700  0.00  0.00     0.003 A 
ATOM      6  C4  OXE d   1      -1.252   4.147  -3.154  0.00  0.00    -0.002 A 
ATOM      7  C5  OXE d   1      -2.336   3.309  -2.874  0.00  0.00    -0.002 A 
ATOM      8  C6  OXE d   1      -2.127   2.145  -2.142  0.00  0.00     0.003 A 
ENDROOT
TORSDOF 0
ENDMDL
