MODEL 1
REMARK minimizedAffinity -6.37085724
REMARK minimizedRMSD -1
REMARK  0 active torsions:
REMARK  status: ('A' for Active; 'I' for Inactive)
ROOT
ATOM      1  C2' OXE d   1      -1.200  -0.115   2.100  0.00  0.00     0.078 C 
ATOM      2  C1' OXE d   1       1.437  -0.694   2.872  0.00  0.00     0.078 C 
ATOM      3  C1  OXE d   1       1.114  -0.717   1.398  0.00  0.00    -0.078 A 
ATOM      4  C2  OXE d   1      -0.190  -0.478   1.033  0.00  0.00    -0.078 A 
ATOM      5  C3  OXE d   1      -0.530  -0.434  -0.316  0.00  0.00     0.003 A 
ATOM      6  C4  OXE d   1       0.408  -0.781  -1.296  0.00  0.00    -0.002 A 
ATOM      7  C5  OXE d   1       1.731  -1.066  -0.942  0.00  0.00    -0.002 A 
ATOM      8  C6  OXE d   1       2.110  -0.997   0.394  0.00  0.00     0.003 A 
ENDROOT
TORSDOF 0
ENDMDL
