MODEL 1
REMARK minimizedAffinity -1.17802656
REMARK minimizedRMSD -1
REMARK  0 active torsions:
REMARK  status: ('A' for Active; 'I' for Inactive)
ROOT
ATOM      1  C2' OXE d   1       1.212  -0.599  -0.966  0.00  0.00     0.078 C 
ATOM      2  C1' OXE d   1      -1.463  -0.234  -0.198  0.00  0.00     0.078 C 
ATOM      3  C1  OXE d   1      -0.808   0.859  -1.005  0.00  0.00    -0.078 A 
ATOM      4  C2  OXE d   1       0.515   0.693  -1.336  0.00  0.00    -0.078 A 
ATOM      5  C3  OXE d   1       1.153   1.645  -2.126  0.00  0.00     0.003 A 
ATOM      6  C4  OXE d   1       0.504   2.842  -2.456  0.00  0.00    -0.002 A 
ATOM      7  C5  OXE d   1      -0.831   3.048  -2.094  0.00  0.00    -0.002 A 
ATOM      8  C6  OXE d   1      -1.513   2.050  -1.407  0.00  0.00     0.003 A 
ENDROOT
TORSDOF 0
ENDMDL
