MODEL 1
REMARK minimizedAffinity -4.18910646
REMARK minimizedRMSD -1
REMARK  0 active torsions:
REMARK  status: ('A' for Active; 'I' for Inactive)
ROOT
ATOM      1  C2' OXE d   1      -1.530   0.069   1.613  0.00  0.00     0.078 C 
ATOM      2  C1' OXE d   1      -0.572  -0.277  -1.003  0.00  0.00     0.078 C 
ATOM      3  C1  OXE d   1       0.346  -0.644   0.136  0.00  0.00    -0.078 A 
ATOM      4  C2  OXE d   1      -0.114  -0.427   1.413  0.00  0.00    -0.078 A 
ATOM      5  C3  OXE d   1       0.671  -0.799   2.501  0.00  0.00     0.003 A 
ATOM      6  C4  OXE d   1       1.983  -1.248   2.307  0.00  0.00    -0.002 A 
ATOM      7  C5  OXE d   1       2.485  -1.438   1.015  0.00  0.00    -0.002 A 
ATOM      8  C6  OXE d   1       1.666  -1.182  -0.079  0.00  0.00     0.003 A 
ENDROOT
TORSDOF 0
ENDMDL
