MODEL 1
REMARK minimizedAffinity -6.43723917
REMARK minimizedRMSD -1
REMARK  0 active torsions:
REMARK  status: ('A' for Active; 'I' for Inactive)
ROOT
ATOM      1  C2' OXE d   1       0.692  -0.134  -0.666  0.00  0.00     0.078 C 
ATOM      2  C1' OXE d   1       2.744  -2.049  -0.641  0.00  0.00     0.078 C 
ATOM      3  C1  OXE d   1       2.220  -1.563   0.687  0.00  0.00    -0.078 A 
ATOM      4  C2  OXE d   1       1.248  -0.592   0.665  0.00  0.00    -0.078 A 
ATOM      5  C3  OXE d   1       0.691  -0.148   1.861  0.00  0.00     0.003 A 
ATOM      6  C4  OXE d   1       1.217  -0.569   3.088  0.00  0.00    -0.002 A 
ATOM      7  C5  OXE d   1       2.234  -1.529   3.132  0.00  0.00    -0.002 A 
ATOM      8  C6  OXE d   1       2.716  -2.066   1.944  0.00  0.00     0.003 A 
ENDROOT
TORSDOF 0
ENDMDL
