MODEL 1
REMARK minimizedAffinity -0.816963494
REMARK minimizedRMSD -1
REMARK  0 active torsions:
REMARK  status: ('A' for Active; 'I' for Inactive)
ROOT
ATOM      1  C2' OXE d   1      -0.028  -1.378  -2.469  0.00  0.00     0.078 C 
ATOM      2  C1' OXE d   1      -1.542   0.985  -2.394  0.00  0.00     0.078 C 
ATOM      3  C1  OXE d   1      -0.964   0.478  -1.096  0.00  0.00    -0.078 A 
ATOM      4  C2  OXE d   1      -0.264  -0.704  -1.135  0.00  0.00    -0.078 A 
ATOM      5  C3  OXE d   1       0.336  -1.188   0.024  0.00  0.00     0.003 A 
ATOM      6  C4  OXE d   1       0.104  -0.564   1.256  0.00  0.00    -0.002 A 
ATOM      7  C5  OXE d   1      -0.639   0.620   1.324  0.00  0.00    -0.002 A 
ATOM      8  C6  OXE d   1      -1.143   1.176   0.153  0.00  0.00     0.003 A 
ENDROOT
TORSDOF 0
ENDMDL
