MODEL 1
REMARK minimizedAffinity -4.35364628
REMARK minimizedRMSD -1
REMARK  0 active torsions:
REMARK  status: ('A' for Active; 'I' for Inactive)
ROOT
ATOM      1  C2' OXE d   1       2.213  -2.085   0.766  0.00  0.00     0.078 C 
ATOM      2  C1' OXE d   1       0.996  -1.100  -1.563  0.00  0.00     0.078 C 
ATOM      3  C1  OXE d   1       0.357  -0.764  -0.239  0.00  0.00    -0.078 A 
ATOM      4  C2  OXE d   1       0.932  -1.289   0.892  0.00  0.00    -0.078 A 
ATOM      5  C3  OXE d   1       0.414  -0.965   2.143  0.00  0.00     0.003 A 
ATOM      6  C4  OXE d   1      -0.776  -0.236   2.250  0.00  0.00    -0.002 A 
ATOM      7  C5  OXE d   1      -1.401   0.275   1.108  0.00  0.00    -0.002 A 
ATOM      8  C6  OXE d   1      -0.825   0.056  -0.139  0.00  0.00     0.003 A 
ENDROOT
TORSDOF 0
ENDMDL
