MODEL 1
REMARK minimizedAffinity -4.46192408
REMARK minimizedRMSD -1
REMARK  0 active torsions:
REMARK  status: ('A' for Active; 'I' for Inactive)
ROOT
ATOM      1  C2' OXE d   1       0.121  -0.831   0.212  0.00  0.00     0.078 C 
ATOM      2  C1' OXE d   1       0.072  -2.397   2.541  0.00  0.00     0.078 C 
ATOM      3  C1  OXE d   1       1.313  -1.585   2.265  0.00  0.00    -0.078 A 
ATOM      4  C2  OXE d   1       1.346  -0.858   1.099  0.00  0.00    -0.078 A 
ATOM      5  C3  OXE d   1       2.445  -0.049   0.823  0.00  0.00     0.003 A 
ATOM      6  C4  OXE d   1       3.578  -0.088   1.644  0.00  0.00    -0.002 A 
ATOM      7  C5  OXE d   1       3.580  -0.853   2.816  0.00  0.00    -0.002 A 
ATOM      8  C6  OXE d   1       2.442  -1.572   3.162  0.00  0.00     0.003 A 
ENDROOT
TORSDOF 0
ENDMDL
