MODEL 1
REMARK minimizedAffinity 0.631940722
REMARK minimizedRMSD -1
REMARK  1 active torsions:
REMARK  status: ('A' for Active; 'I' for Inactive)
REMARK    1  A    between atoms: C1_2  and  C2_3 
ROOT
ATOM      1  C2  UNL d   1       1.112  -0.597   3.736  0.00  0.00    -0.077 A 
ATOM      2  C3  UNL d   1       2.179   0.286   3.518  0.00  0.00     0.002 A 
ATOM      3  C4  UNL d   1       1.981   1.468   2.802  0.00  0.00     0.002 A 
ATOM      4  C5  UNL d   1       0.719   1.779   2.301  0.00  0.00    -0.004 A 
ATOM      5  C6  UNL d   1      -0.348   0.906   2.510  0.00  0.00     0.002 A 
ATOM      6  C7  UNL d   1      -0.152  -0.277   3.225  0.00  0.00     0.002 A 
ENDROOT
BRANCH   1   7
ATOM      7  C1  UNL d   1       1.312  -1.849   4.550  0.00  0.00     0.055 C 
ATOM      8  C   UNL d   1       2.788  -2.109   4.812  0.00  0.00     0.019 C 
ENDBRANCH   1   7
TORSDOF 1
ENDMDL
