MODEL 1
REMARK minimizedAffinity 8.89494133
REMARK minimizedRMSD -1
REMARK  1 active torsions:
REMARK  status: ('A' for Active; 'I' for Inactive)
REMARK    1  A    between atoms: C1_2  and  C2_3 
ROOT
ATOM      1  C2  UNL d   1       2.863  -2.127  -5.162  0.00  0.00    -0.077 A 
ATOM      2  C3  UNL d   1       1.513  -2.498  -5.239  0.00  0.00     0.002 A 
ATOM      3  C4  UNL d   1       0.529  -1.536  -5.472  0.00  0.00     0.002 A 
ATOM      4  C5  UNL d   1       0.884  -0.198  -5.635  0.00  0.00    -0.004 A 
ATOM      5  C6  UNL d   1       2.223   0.181  -5.558  0.00  0.00     0.002 A 
ATOM      6  C7  UNL d   1       3.209  -0.779  -5.324  0.00  0.00     0.002 A 
ENDROOT
BRANCH   1   7
ATOM      7  C1  UNL d   1       3.931  -3.170  -4.960  0.00  0.00     0.055 C 
ATOM      8  C   UNL d   1       4.799  -2.846  -3.753  0.00  0.00     0.019 C 
ENDBRANCH   1   7
TORSDOF 1
ENDMDL
