MODEL 1
REMARK minimizedAffinity 6.9432354
REMARK minimizedRMSD -1
REMARK  1 active torsions:
REMARK  status: ('A' for Active; 'I' for Inactive)
REMARK    1  A    between atoms: C1_2  and  C2_3 
ROOT
ATOM      1  C2  UNL d   1      -1.254   0.297   3.150  0.00  0.00    -0.077 A 
ATOM      2  C3  UNL d   1      -1.805  -0.924   3.563  0.00  0.00     0.002 A 
ATOM      3  C4  UNL d   1      -3.123  -1.251   3.238  0.00  0.00     0.002 A 
ATOM      4  C5  UNL d   1      -3.899  -0.365   2.494  0.00  0.00    -0.004 A 
ATOM      5  C6  UNL d   1      -3.361   0.853   2.080  0.00  0.00     0.002 A 
ATOM      6  C7  UNL d   1      -2.044   1.182   2.405  0.00  0.00     0.002 A 
ENDROOT
BRANCH   1   7
ATOM      7  C1  UNL d   1       0.182   0.630   3.457  0.00  0.00     0.055 C 
ATOM      8  C   UNL d   1       1.137  -0.250   2.664  0.00  0.00     0.019 C 
ENDBRANCH   1   7
TORSDOF 1
ENDMDL
