MODEL 1
REMARK minimizedAffinity 13.2624035
REMARK minimizedRMSD -1
REMARK  1 active torsions:
REMARK  status: ('A' for Active; 'I' for Inactive)
REMARK    1  A    between atoms: C1_2  and  C2_3 
ROOT
ATOM      1  C2  UNL d   1      -0.329  -2.375  -4.896  0.00  0.00    -0.077 A 
ATOM      2  C3  UNL d   1       0.903  -3.008  -5.116  0.00  0.00     0.002 A 
ATOM      3  C4  UNL d   1       0.950  -4.291  -5.663  0.00  0.00     0.002 A 
ATOM      4  C5  UNL d   1      -0.230  -4.951  -6.000  0.00  0.00    -0.004 A 
ATOM      5  C6  UNL d   1      -1.460  -4.331  -5.784  0.00  0.00     0.002 A 
ATOM      6  C7  UNL d   1      -1.509  -3.048  -5.235  0.00  0.00     0.002 A 
ENDROOT
BRANCH   1   7
ATOM      7  C1  UNL d   1      -0.380  -0.971  -4.351  0.00  0.00     0.055 C 
ATOM      8  C   UNL d   1       0.371  -0.001  -5.251  0.00  0.00     0.019 C 
ENDBRANCH   1   7
TORSDOF 1
ENDMDL
