MODEL 1
REMARK minimizedAffinity 9.60684681
REMARK minimizedRMSD -1
REMARK  1 active torsions:
REMARK  status: ('A' for Active; 'I' for Inactive)
REMARK    1  A    between atoms: C1_2  and  C2_3 
ROOT
ATOM      1  C2  UNL d   1       2.510  -0.489  -4.855  0.00  0.00    -0.077 A 
ATOM      2  C3  UNL d   1       1.808  -0.891  -6.000  0.00  0.00     0.002 A 
ATOM      3  C4  UNL d   1       0.418  -1.021  -5.967  0.00  0.00     0.002 A 
ATOM      4  C5  UNL d   1      -0.281  -0.747  -4.794  0.00  0.00    -0.004 A 
ATOM      5  C6  UNL d   1       0.408  -0.348  -3.649  0.00  0.00     0.002 A 
ATOM      6  C7  UNL d   1       1.797  -0.219  -3.680  0.00  0.00     0.002 A 
ENDROOT
BRANCH   1   7
ATOM      7  C1  UNL d   1       4.004  -0.300  -4.902  0.00  0.00     0.055 C 
ATOM      8  C   UNL d   1       4.404   0.675  -6.000  0.00  0.00     0.019 C 
ENDBRANCH   1   7
TORSDOF 1
ENDMDL
