MODEL 1
REMARK minimizedAffinity 3.81310582
REMARK minimizedRMSD -1
REMARK  1 active torsions:
REMARK  status: ('A' for Active; 'I' for Inactive)
REMARK    1  A    between atoms: C1_2  and  C2_3 
ROOT
ATOM      1  C2  UNL d   1      -1.251  -0.470   2.823  0.00  0.00    -0.077 A 
ATOM      2  C3  UNL d   1      -0.376   0.602   2.597  0.00  0.00     0.002 A 
ATOM      3  C4  UNL d   1       0.963   0.514   2.983  0.00  0.00     0.002 A 
ATOM      4  C5  UNL d   1       1.439  -0.644   3.594  0.00  0.00    -0.004 A 
ATOM      5  C6  UNL d   1       0.576  -1.715   3.825  0.00  0.00     0.002 A 
ATOM      6  C7  UNL d   1      -0.763  -1.628   3.440  0.00  0.00     0.002 A 
ENDROOT
BRANCH   1   7
ATOM      7  C1  UNL d   1      -2.684  -0.396   2.363  0.00  0.00     0.055 C 
ATOM      8  C   UNL d   1      -3.474  -1.615   2.814  0.00  0.00     0.019 C 
ENDBRANCH   1   7
TORSDOF 1
ENDMDL
