MODEL 1
REMARK minimizedAffinity 7.60152102
REMARK minimizedRMSD -1
REMARK  1 active torsions:
REMARK  status: ('A' for Active; 'I' for Inactive)
REMARK    1  A    between atoms: C1_2  and  C2_3 
ROOT
ATOM      1  C2  UNL d   1       1.241  -1.135  -4.906  0.00  0.00    -0.077 A 
ATOM      2  C3  UNL d   1       0.710  -1.136  -3.609  0.00  0.00     0.002 A 
ATOM      3  C4  UNL d   1      -0.672  -1.134  -3.411  0.00  0.00     0.002 A 
ATOM      4  C5  UNL d   1      -1.534  -1.135  -4.506  0.00  0.00    -0.004 A 
ATOM      5  C6  UNL d   1      -1.016  -1.131  -5.800  0.00  0.00     0.002 A 
ATOM      6  C7  UNL d   1       0.365  -1.132  -6.000  0.00  0.00     0.002 A 
ENDROOT
BRANCH   1   7
ATOM      7  C1  UNL d   1       2.731  -1.187  -5.122  0.00  0.00     0.055 C 
ATOM      8  C   UNL d   1       3.337  -2.434  -4.496  0.00  0.00     0.019 C 
ENDBRANCH   1   7
TORSDOF 1
ENDMDL
