MODEL 1
REMARK minimizedAffinity 10.3773355
REMARK minimizedRMSD -1
REMARK  1 active torsions:
REMARK  status: ('A' for Active; 'I' for Inactive)
REMARK    1  A    between atoms: C1_2  and  C2_3 
ROOT
ATOM      1  C2  UNL d   1       0.020  -2.572  -5.133  0.00  0.00    -0.077 A 
ATOM      2  C3  UNL d   1      -0.313  -3.622  -6.000  0.00  0.00     0.002 A 
ATOM      3  C4  UNL d   1      -1.405  -4.446  -5.724  0.00  0.00     0.002 A 
ATOM      4  C5  UNL d   1      -2.176  -4.226  -4.584  0.00  0.00    -0.004 A 
ATOM      5  C6  UNL d   1      -1.851  -3.186  -3.714  0.00  0.00     0.002 A 
ATOM      6  C7  UNL d   1      -0.759  -2.361  -3.988  0.00  0.00     0.002 A 
ENDROOT
BRANCH   1   7
ATOM      7  C1  UNL d   1       1.169  -1.651  -5.455  0.00  0.00     0.055 C 
ATOM      8  C   UNL d   1       0.876  -0.225  -5.012  0.00  0.00     0.019 C 
ENDBRANCH   1   7
TORSDOF 1
ENDMDL
