MODEL 1
REMARK minimizedAffinity -5.67756224
REMARK minimizedRMSD -1
REMARK  0 active torsions:
REMARK  status: ('A' for Active; 'I' for Inactive)
ROOT
ATOM      1  C   UNL d   1       2.139   2.909   1.294  0.00  0.00     0.023 A 
ATOM      2  C1  UNL d   1       2.735   2.154   0.284  0.00  0.00     0.003 A 
ATOM      3  C2  UNL d   1       2.074   1.042  -0.241  0.00  0.00     0.048 A 
ATOM      4  C3  UNL d   1       0.816   0.691   0.247  0.00  0.00     0.023 A 
ATOM      5  C4  UNL d   1       0.215   1.444   1.257  0.00  0.00     0.048 A 
ATOM      6  C5  UNL d   1       0.880   2.555   1.779  0.00  0.00     0.003 A 
ATOM      7  I   UNL d   1      -0.170  -0.964  -0.533  0.00  0.00    -0.146 I 
ENDROOT
TORSDOF 0
ENDMDL
