MODEL 1
REMARK minimizedAffinity -5.13961935
REMARK minimizedRMSD -1
REMARK  0 active torsions:
REMARK  status: ('A' for Active; 'I' for Inactive)
ROOT
ATOM      1  C   UNL d   1       3.217   2.436   0.257  0.00  0.00     0.023 A 
ATOM      2  C1  UNL d   1       2.480   3.002   1.297  0.00  0.00     0.003 A 
ATOM      3  C2  UNL d   1       1.301   2.394   1.731  0.00  0.00     0.048 A 
ATOM      4  C3  UNL d   1       0.864   1.218   1.121  0.00  0.00     0.023 A 
ATOM      5  C4  UNL d   1       1.598   0.648   0.080  0.00  0.00     0.048 A 
ATOM      6  C5  UNL d   1       2.776   1.260  -0.351  0.00  0.00     0.003 A 
ATOM      7  I   UNL d   1      -0.891   0.311   1.766  0.00  0.00    -0.146 I 
ENDROOT
TORSDOF 0
ENDMDL
