MODEL 1
REMARK minimizedAffinity -3.64475775
REMARK minimizedRMSD -1
REMARK  0 active torsions:
REMARK  status: ('A' for Active; 'I' for Inactive)
ROOT
ATOM      1  C   UNL d   1       3.212   2.250   1.268  0.00  0.00     0.023 A 
ATOM      2  C1  UNL d   1       1.910   2.623   1.603  0.00  0.00     0.003 A 
ATOM      3  C2  UNL d   1       0.826   1.878   1.135  0.00  0.00     0.048 A 
ATOM      4  C3  UNL d   1       1.051   0.760   0.332  0.00  0.00     0.023 A 
ATOM      5  C4  UNL d   1       2.352   0.382  -0.005  0.00  0.00     0.048 A 
ATOM      6  C5  UNL d   1       3.432   1.131   0.464  0.00  0.00     0.003 A 
ATOM      7  I   UNL d   1      -0.561  -0.351  -0.366  0.00  0.00    -0.146 I 
ENDROOT
TORSDOF 0
ENDMDL
