MODEL 1
REMARK minimizedAffinity -1.74578297
REMARK minimizedRMSD -1
REMARK  0 active torsions:
REMARK  status: ('A' for Active; 'I' for Inactive)
ROOT
ATOM      1  C   UNL d   1       0.608   1.510   1.303  0.00  0.00     0.023 A 
ATOM      2  C1  UNL d   1       1.100   1.571  -0.001  0.00  0.00     0.003 A 
ATOM      3  C2  UNL d   1       0.515   0.798  -1.006  0.00  0.00     0.048 A 
ATOM      4  C3  UNL d   1      -0.562  -0.033  -0.701  0.00  0.00     0.023 A 
ATOM      5  C4  UNL d   1      -1.058  -0.097   0.602  0.00  0.00     0.048 A 
ATOM      6  C5  UNL d   1      -0.470   0.677   1.604  0.00  0.00     0.003 A 
ATOM      7  I   UNL d   1      -1.434  -1.184  -2.196  0.00  0.00    -0.146 I 
ENDROOT
TORSDOF 0
ENDMDL
