MODEL 1
REMARK minimizedAffinity -4.30140543
REMARK minimizedRMSD -1
REMARK  0 active torsions:
REMARK  status: ('A' for Active; 'I' for Inactive)
ROOT
ATOM      1  C   UNL d   1       2.807   2.656   1.333  0.00  0.00     0.023 A 
ATOM      2  C1  UNL d   1       3.304   1.477   0.777  0.00  0.00     0.003 A 
ATOM      3  C2  UNL d   1       2.425   0.490   0.328  0.00  0.00     0.048 A 
ATOM      4  C3  UNL d   1       1.049   0.688   0.437  0.00  0.00     0.023 A 
ATOM      5  C4  UNL d   1       0.547   1.866   0.993  0.00  0.00     0.048 A 
ATOM      6  C5  UNL d   1       1.430   2.850   1.441  0.00  0.00     0.003 A 
ATOM      7  I   UNL d   1      -0.262  -0.780  -0.230  0.00  0.00    -0.146 I 
ENDROOT
TORSDOF 0
ENDMDL
