MODEL 1
REMARK minimizedAffinity -4.9993124
REMARK minimizedRMSD -1
REMARK  0 active torsions:
REMARK  status: ('A' for Active; 'I' for Inactive)
ROOT
ATOM      1  C   UNL d   1       2.203   2.869   1.557  0.00  0.00     0.023 A 
ATOM      2  C1  UNL d   1       0.839   2.779   1.837  0.00  0.00     0.003 A 
ATOM      3  C2  UNL d   1       0.069   1.772   1.250  0.00  0.00     0.048 A 
ATOM      4  C3  UNL d   1       0.670   0.858   0.386  0.00  0.00     0.023 A 
ATOM      5  C4  UNL d   1       2.034   0.943   0.104  0.00  0.00     0.048 A 
ATOM      6  C5  UNL d   1       2.800   1.952   0.692  0.00  0.00     0.003 A 
ATOM      7  I   UNL d   1      -0.473  -0.642  -0.488  0.00  0.00    -0.146 I 
ENDROOT
TORSDOF 0
ENDMDL
