MODEL 1
REMARK minimizedAffinity -3.75416875
REMARK minimizedRMSD -1
REMARK  0 active torsions:
REMARK  status: ('A' for Active; 'I' for Inactive)
ROOT
ATOM      1  C   UNL d   1       1.733   2.882   1.546  0.00  0.00     0.023 A 
ATOM      2  C1  UNL d   1       0.360   2.649   1.614  0.00  0.00     0.003 A 
ATOM      3  C2  UNL d   1      -0.197   1.548   0.961  0.00  0.00     0.048 A 
ATOM      4  C3  UNL d   1       0.627   0.681   0.243  0.00  0.00     0.023 A 
ATOM      5  C4  UNL d   1       2.002   0.909   0.173  0.00  0.00     0.048 A 
ATOM      6  C5  UNL d   1       2.553   2.013   0.826  0.00  0.00     0.003 A 
ATOM      7  I   UNL d   1      -0.199  -0.960  -0.729  0.00  0.00    -0.146 I 
ENDROOT
TORSDOF 0
ENDMDL
