MODEL 1
REMARK minimizedAffinity -2.18414235
REMARK minimizedRMSD -1
REMARK  0 active torsions:
REMARK  status: ('A' for Active; 'I' for Inactive)
ROOT
ATOM      1  C   UNL d   1       0.681   2.769   1.626  0.00  0.00     0.023 A 
ATOM      2  C1  UNL d   1      -0.395   1.960   1.993  0.00  0.00     0.003 A 
ATOM      3  C2  UNL d   1      -0.650   0.776   1.298  0.00  0.00     0.048 A 
ATOM      4  C3  UNL d   1       0.177   0.405   0.238  0.00  0.00     0.023 A 
ATOM      5  C4  UNL d   1       1.255   1.211  -0.133  0.00  0.00     0.048 A 
ATOM      6  C5  UNL d   1       1.505   2.394   0.564  0.00  0.00     0.003 A 
ATOM      7  I   UNL d   1      -0.200  -1.357  -0.798  0.00  0.00    -0.146 I 
ENDROOT
TORSDOF 0
ENDMDL
