MODEL 1
REMARK minimizedAffinity 0.522883475
REMARK minimizedRMSD -1
REMARK  0 active torsions:
REMARK  status: ('A' for Active; 'I' for Inactive)
ROOT
ATOM      1  C   UNL d   1       0.029  -1.537  -0.784  0.00  0.00     0.023 A 
ATOM      2  C1  UNL d   1       1.304  -1.055  -1.082  0.00  0.00     0.003 A 
ATOM      3  C2  UNL d   1       1.726   0.172  -0.566  0.00  0.00     0.048 A 
ATOM      4  C3  UNL d   1       0.869   0.911   0.248  0.00  0.00     0.023 A 
ATOM      5  C4  UNL d   1      -0.407   0.433   0.550  0.00  0.00     0.048 A 
ATOM      6  C5  UNL d   1      -0.825  -0.794   0.031  0.00  0.00     0.003 A 
ATOM      7  I   UNL d   1       1.496   2.737   1.018  0.00  0.00    -0.146 I 
ENDROOT
TORSDOF 0
ENDMDL
