MODEL 1
REMARK minimizedAffinity -4.11629629
REMARK minimizedRMSD -1
REMARK  0 active torsions:
REMARK  status: ('A' for Active; 'I' for Inactive)
ROOT
ATOM      1  C   UNL d   1       1.445   2.421   1.851  0.00  0.00     0.023 A 
ATOM      2  C1  UNL d   1       2.263   1.730   0.957  0.00  0.00     0.003 A 
ATOM      3  C2  UNL d   1       1.727   0.721   0.155  0.00  0.00     0.048 A 
ATOM      4  C3  UNL d   1       0.372   0.408   0.251  0.00  0.00     0.023 A 
ATOM      5  C4  UNL d   1      -0.451   1.097   1.143  0.00  0.00     0.048 A 
ATOM      6  C5  UNL d   1       0.089   2.105   1.943  0.00  0.00     0.003 A 
ATOM      7  I   UNL d   1      -0.428  -1.094  -0.943  0.00  0.00    -0.146 I 
ENDROOT
TORSDOF 0
ENDMDL
