MODEL 1
REMARK minimizedAffinity -4.88335085
REMARK minimizedRMSD -1
REMARK  0 active torsions:
REMARK  status: ('A' for Active; 'I' for Inactive)
ROOT
ATOM      1  C   UNL d   1      -0.935   1.971   1.472  0.00  0.00     0.023 A 
ATOM      2  C1  UNL d   1      -0.590   0.709   0.989  0.00  0.00     0.003 A 
ATOM      3  C2  UNL d   1       0.704   0.469   0.521  0.00  0.00     0.048 A 
ATOM      4  C3  UNL d   1       1.648   1.495   0.540  0.00  0.00     0.023 A 
ATOM      5  C4  UNL d   1       1.307   2.759   1.024  0.00  0.00     0.048 A 
ATOM      6  C5  UNL d   1       0.012   2.995   1.490  0.00  0.00     0.003 A 
ATOM      7  I   UNL d   1       3.574   1.140  -0.155  0.00  0.00    -0.146 I 
ENDROOT
TORSDOF 0
ENDMDL
