MODEL 1
REMARK minimizedAffinity -5.48259497
REMARK minimizedRMSD -1
REMARK  0 active torsions:
REMARK  status: ('A' for Active; 'I' for Inactive)
ROOT
ATOM      1  C   UNL d   1       2.415   2.852   1.327  0.00  0.00     0.023 A 
ATOM      2  C1  UNL d   1       1.026   2.736   1.391  0.00  0.00     0.003 A 
ATOM      3  C2  UNL d   1       0.395   1.600   0.879  0.00  0.00     0.048 A 
ATOM      4  C3  UNL d   1       1.159   0.584   0.305  0.00  0.00     0.023 A 
ATOM      5  C4  UNL d   1       2.549   0.697   0.240  0.00  0.00     0.048 A 
ATOM      6  C5  UNL d   1       3.175   1.834   0.752  0.00  0.00     0.003 A 
ATOM      7  I   UNL d   1       0.223  -1.107  -0.458  0.00  0.00    -0.146 I 
ENDROOT
TORSDOF 0
ENDMDL
