MODEL 1
REMARK minimizedAffinity -2.187397
REMARK minimizedRMSD -1
REMARK  0 active torsions:
REMARK  status: ('A' for Active; 'I' for Inactive)
ROOT
ATOM      1  C   UNL d   1       3.151   1.880   0.311  0.00  0.00     0.023 A 
ATOM      2  C1  UNL d   1       1.862   2.322   0.612  0.00  0.00     0.003 A 
ATOM      3  C2  UNL d   1       0.760   1.519   0.315  0.00  0.00     0.048 A 
ATOM      4  C3  UNL d   1       0.952   0.274  -0.282  0.00  0.00     0.023 A 
ATOM      5  C4  UNL d   1       2.239  -0.174  -0.585  0.00  0.00     0.048 A 
ATOM      6  C5  UNL d   1       3.339   0.633  -0.287  0.00  0.00     0.003 A 
ATOM      7  I   UNL d   1      -0.688  -0.924  -0.725  0.00  0.00    -0.146 I 
ENDROOT
TORSDOF 0
ENDMDL
