MODEL 1
REMARK minimizedAffinity -5.37533855
REMARK minimizedRMSD -1
REMARK  0 active torsions:
REMARK  status: ('A' for Active; 'I' for Inactive)
ROOT
ATOM      1  C   UNL d   1       2.495   2.571   1.024  0.00  0.00     0.023 A 
ATOM      2  C1  UNL d   1       3.115   1.505   0.372  0.00  0.00     0.003 A 
ATOM      3  C2  UNL d   1       2.366   0.395  -0.024  0.00  0.00     0.048 A 
ATOM      4  C3  UNL d   1       0.996   0.359   0.235  0.00  0.00     0.023 A 
ATOM      5  C4  UNL d   1       0.371   1.423   0.886  0.00  0.00     0.048 A 
ATOM      6  C5  UNL d   1       1.125   2.530   1.281  0.00  0.00     0.003 A 
ATOM      7  I   UNL d   1      -0.122  -1.292  -0.354  0.00  0.00    -0.146 I 
ENDROOT
TORSDOF 0
ENDMDL
