MODEL 1
REMARK minimizedAffinity 8.21033573
REMARK minimizedRMSD -1
REMARK  0 active torsions:
REMARK  status: ('A' for Active; 'I' for Inactive)
ROOT
ATOM      1  C   UNL d   1       1.839  -5.999   5.723  0.00  0.00     0.023 A 
ATOM      2  C1  UNL d   1       2.989  -5.729   4.980  0.00  0.00     0.003 A 
ATOM      3  C2  UNL d   1       3.232  -4.436   4.512  0.00  0.00     0.048 A 
ATOM      4  C3  UNL d   1       2.321  -3.417   4.791  0.00  0.00     0.023 A 
ATOM      5  C4  UNL d   1       1.170  -3.683   5.535  0.00  0.00     0.048 A 
ATOM      6  C5  UNL d   1       0.931  -4.977   6.000  0.00  0.00     0.003 A 
ATOM      7  I   UNL d   1       2.680  -1.492   4.096  0.00  0.00    -0.146 I 
ENDROOT
TORSDOF 0
ENDMDL
