MODEL 1
REMARK minimizedAffinity 12.3630714
REMARK minimizedRMSD -1
REMARK  0 active torsions:
REMARK  status: ('A' for Active; 'I' for Inactive)
ROOT
ATOM      1  C   UNL d   1      -1.385  -1.583  -1.284  0.00  0.00     0.023 A 
ATOM      2  C1  UNL d   1      -0.078  -2.069  -1.304  0.00  0.00     0.003 A 
ATOM      3  C2  UNL d   1       0.856  -1.603  -0.377  0.00  0.00     0.048 A 
ATOM      4  C3  UNL d   1       0.476  -0.651   0.568  0.00  0.00     0.023 A 
ATOM      5  C4  UNL d   1      -0.831  -0.162   0.592  0.00  0.00     0.048 A 
ATOM      6  C5  UNL d   1      -1.761  -0.630  -0.337  0.00  0.00     0.003 A 
ATOM      7  I   UNL d   1       1.864   0.045   1.950  0.00  0.00    -0.146 I 
ENDROOT
TORSDOF 0
ENDMDL
