MODEL 1
REMARK minimizedAffinity 1.76127887
REMARK minimizedRMSD -1
REMARK  0 active torsions:
REMARK  status: ('A' for Active; 'I' for Inactive)
ROOT
ATOM      1  C   UNL d   1       2.048  -1.177   3.338  0.00  0.00     0.023 A 
ATOM      2  C1  UNL d   1       1.893  -1.907   4.517  0.00  0.00     0.003 A 
ATOM      3  C2  UNL d   1       3.010  -2.246   5.282  0.00  0.00     0.048 A 
ATOM      4  C3  UNL d   1       4.281  -1.853   4.863  0.00  0.00     0.023 A 
ATOM      5  C4  UNL d   1       4.441  -1.122   3.684  0.00  0.00     0.048 A 
ATOM      6  C5  UNL d   1       3.321  -0.785   2.922  0.00  0.00     0.003 A 
ATOM      7  I   UNL d   1       5.946  -2.357   6.000  0.00  0.00    -0.146 I 
ENDROOT
TORSDOF 0
ENDMDL
