MODEL 1
REMARK minimizedAffinity 6.55794191
REMARK minimizedRMSD -1
REMARK  0 active torsions:
REMARK  status: ('A' for Active; 'I' for Inactive)
ROOT
ATOM      1  C   UNL d   1      -5.823   1.686  -3.511  0.00  0.00     0.023 A 
ATOM      2  C1  UNL d   1      -6.000   0.477  -2.836  0.00  0.00     0.003 A 
ATOM      3  C2  UNL d   1      -5.996  -0.726  -3.545  0.00  0.00     0.048 A 
ATOM      4  C3  UNL d   1      -5.814  -0.714  -4.927  0.00  0.00     0.023 A 
ATOM      5  C4  UNL d   1      -5.636   0.493  -5.606  0.00  0.00     0.048 A 
ATOM      6  C5  UNL d   1      -5.641   1.694  -4.894  0.00  0.00     0.003 A 
ATOM      7  I   UNL d   1      -5.808  -2.503  -5.984  0.00  0.00    -0.146 I 
ENDROOT
TORSDOF 0
ENDMDL
