MODEL 1
REMARK minimizedAffinity 12.3484936
REMARK minimizedRMSD -1
REMARK  0 active torsions:
REMARK  status: ('A' for Active; 'I' for Inactive)
ROOT
ATOM      1  C   UNL d   1       3.790  -4.682   4.843  0.00  0.00     0.023 A 
ATOM      2  C1  UNL d   1       2.899  -4.880   3.787  0.00  0.00     0.003 A 
ATOM      3  C2  UNL d   1       2.282  -3.786   3.178  0.00  0.00     0.048 A 
ATOM      4  C3  UNL d   1       2.562  -2.496   3.628  0.00  0.00     0.023 A 
ATOM      5  C4  UNL d   1       3.452  -2.293   4.683  0.00  0.00     0.048 A 
ATOM      6  C5  UNL d   1       4.066  -3.390   5.290  0.00  0.00     0.003 A 
ATOM      7  I   UNL d   1       1.645  -0.865   2.722  0.00  0.00    -0.146 I 
ENDROOT
TORSDOF 0
ENDMDL
