MODEL 1
REMARK minimizedAffinity 8.24239445
REMARK minimizedRMSD -1
REMARK  0 active torsions:
REMARK  status: ('A' for Active; 'I' for Inactive)
ROOT
ATOM      1  C   UNL d   1       1.499  -1.364   2.891  0.00  0.00     0.023 A 
ATOM      2  C1  UNL d   1       1.759  -2.425   3.758  0.00  0.00     0.003 A 
ATOM      3  C2  UNL d   1       3.050  -2.626   4.251  0.00  0.00     0.048 A 
ATOM      4  C3  UNL d   1       4.076  -1.760   3.873  0.00  0.00     0.023 A 
ATOM      5  C4  UNL d   1       3.820  -0.697   3.006  0.00  0.00     0.048 A 
ATOM      6  C5  UNL d   1       2.528  -0.501   2.515  0.00  0.00     0.003 A 
ATOM      7  I   UNL d   1       5.999  -2.056   4.605  0.00  0.00    -0.146 I 
ENDROOT
TORSDOF 0
ENDMDL
