MODEL 1
REMARK minimizedAffinity 12.1697168
REMARK minimizedRMSD -1
REMARK  0 active torsions:
REMARK  status: ('A' for Active; 'I' for Inactive)
ROOT
ATOM      1  C   UNL d   1       2.640  -1.985   3.320  0.00  0.00     0.023 A 
ATOM      2  C1  UNL d   1       3.217  -3.188   2.914  0.00  0.00     0.003 A 
ATOM      3  C2  UNL d   1       3.043  -4.341   3.682  0.00  0.00     0.048 A 
ATOM      4  C3  UNL d   1       2.290  -4.284   4.854  0.00  0.00     0.023 A 
ATOM      5  C4  UNL d   1       1.710  -3.082   5.263  0.00  0.00     0.048 A 
ATOM      6  C5  UNL d   1       1.887  -1.932   4.493  0.00  0.00     0.003 A 
ATOM      7  I   UNL d   1       2.029  -5.999   5.998  0.00  0.00    -0.146 I 
ENDROOT
TORSDOF 0
ENDMDL
