MODEL 1
REMARK minimizedAffinity 0.592321396
REMARK minimizedRMSD -1
REMARK  0 active torsions:
REMARK  status: ('A' for Active; 'I' for Inactive)
ROOT
ATOM      1  C   UNL d   1       1.891   0.006   3.009  0.00  0.00     0.023 A 
ATOM      2  C1  UNL d   1       2.741   0.002   1.903  0.00  0.00     0.003 A 
ATOM      3  C2  UNL d   1       3.921  -0.744   1.931  0.00  0.00     0.048 A 
ATOM      4  C3  UNL d   1       4.244  -1.485   3.067  0.00  0.00     0.023 A 
ATOM      5  C4  UNL d   1       3.397  -1.484   4.176  0.00  0.00     0.048 A 
ATOM      6  C5  UNL d   1       2.218  -0.736   4.144  0.00  0.00     0.003 A 
ATOM      7  I   UNL d   1       6.000  -2.597   3.110  0.00  0.00    -0.146 I 
ENDROOT
TORSDOF 0
ENDMDL
