MODEL 1
REMARK minimizedAffinity -1.31409931
REMARK minimizedRMSD -1
REMARK  2 active torsions:
REMARK  status: ('A' for Active; 'I' for Inactive)
REMARK    1  A    between atoms: C1_2  and  C2_3 
REMARK    2  A    between atoms: C2_3  and  C3_4 
ROOT
ATOM      1  C3  UNL d   1       5.800  -0.920   3.605  0.00  0.00    -0.075 A 
ATOM      2  C4  UNL d   1       6.000  -0.455   4.913  0.00  0.00     0.002 A 
ATOM      3  C5  UNL d   1       5.993  -1.343   5.989  0.00  0.00     0.002 A 
ATOM      4  C6  UNL d   1       5.778  -2.702   5.774  0.00  0.00    -0.004 A 
ATOM      5  C7  UNL d   1       5.563  -3.173   4.480  0.00  0.00     0.002 A 
ATOM      6  C8  UNL d   1       5.573  -2.288   3.401  0.00  0.00     0.002 A 
ENDROOT
BRANCH   1   7
ATOM      7  C2  UNL d   1       5.835   0.031   2.433  0.00  0.00     0.056 C 
BRANCH   7   8
ATOM      8  C1  UNL d   1       4.610  -0.062   1.518  0.00  0.00     0.007 C 
ATOM      9  C   UNL d   1       4.259   1.261   0.849  0.00  0.00     0.009 C 
ENDBRANCH   7   8
ENDBRANCH   1   7
TORSDOF 2
ENDMDL
