MODEL 1
REMARK minimizedAffinity 11.1983614
REMARK minimizedRMSD -1
REMARK  2 active torsions:
REMARK  status: ('A' for Active; 'I' for Inactive)
REMARK    1  A    between atoms: C1_2  and  C2_3 
REMARK    2  A    between atoms: C2_3  and  C3_4 
ROOT
ATOM      1  C3  UNL d   1      -3.936   3.312   5.901  0.00  0.00    -0.075 A 
ATOM      2  C4  UNL d   1      -4.806   4.411   5.941  0.00  0.00     0.002 A 
ATOM      3  C5  UNL d   1      -4.303   5.711   5.983  0.00  0.00     0.002 A 
ATOM      4  C6  UNL d   1      -2.927   5.929   5.996  0.00  0.00    -0.004 A 
ATOM      5  C7  UNL d   1      -2.053   4.844   5.973  0.00  0.00     0.002 A 
ATOM      6  C8  UNL d   1      -2.554   3.542   5.926  0.00  0.00     0.002 A 
ENDROOT
BRANCH   1   7
ATOM      7  C2  UNL d   1      -4.474   1.903   5.825  0.00  0.00     0.056 C 
BRANCH   7   8
ATOM      8  C1  UNL d   1      -4.782   1.428   4.401  0.00  0.00     0.007 C 
ATOM      9  C   UNL d   1      -3.679   0.564   3.804  0.00  0.00     0.009 C 
ENDBRANCH   7   8
ENDBRANCH   1   7
TORSDOF 2
ENDMDL
