MODEL 1
REMARK minimizedAffinity 3.29920888
REMARK minimizedRMSD -1
REMARK  2 active torsions:
REMARK  status: ('A' for Active; 'I' for Inactive)
REMARK    1  A    between atoms: C1_2  and  C2_3 
REMARK    2  A    between atoms: C2_3  and  C3_4 
ROOT
ATOM      1  C3  UNL d   1       5.843  -2.046   4.909  0.00  0.00    -0.075 A 
ATOM      2  C4  UNL d   1       5.651  -2.550   3.614  0.00  0.00     0.002 A 
ATOM      3  C5  UNL d   1       5.491  -3.919   3.404  0.00  0.00     0.002 A 
ATOM      4  C6  UNL d   1       5.531  -4.802   4.481  0.00  0.00    -0.004 A 
ATOM      5  C7  UNL d   1       5.737  -4.314   5.769  0.00  0.00     0.002 A 
ATOM      6  C8  UNL d   1       5.894  -2.943   5.983  0.00  0.00     0.002 A 
ENDROOT
BRANCH   1   7
ATOM      7  C2  UNL d   1       5.987  -0.561   5.146  0.00  0.00     0.056 C 
BRANCH   7   8
ATOM      8  C1  UNL d   1       5.978   0.279   3.865  0.00  0.00     0.007 C 
ATOM      9  C   UNL d   1       5.423  -0.469   2.660  0.00  0.00     0.009 C 
ENDBRANCH   7   8
ENDBRANCH   1   7
TORSDOF 2
ENDMDL
