MODEL 1
REMARK minimizedAffinity 0.575353384
REMARK minimizedRMSD -1
REMARK  2 active torsions:
REMARK  status: ('A' for Active; 'I' for Inactive)
REMARK    1  A    between atoms: C1_2  and  C2_3 
REMARK    2  A    between atoms: C2_3  and  C3_4 
ROOT
ATOM      1  C3  UNL d   1      -1.053  -1.238  -1.042  0.00  0.00    -0.075 A 
ATOM      2  C4  UNL d   1      -1.536  -1.957   0.061  0.00  0.00     0.002 A 
ATOM      3  C5  UNL d   1      -0.884  -1.889   1.292  0.00  0.00     0.002 A 
ATOM      4  C6  UNL d   1       0.263  -1.110   1.434  0.00  0.00    -0.004 A 
ATOM      5  C7  UNL d   1       0.761  -0.405   0.341  0.00  0.00     0.002 A 
ATOM      6  C8  UNL d   1       0.108  -0.468  -0.891  0.00  0.00     0.002 A 
ENDROOT
BRANCH   1   7
ATOM      7  C2  UNL d   1      -1.771  -1.285  -2.370  0.00  0.00     0.056 C 
BRANCH   7   8
ATOM      8  C1  UNL d   1      -1.396  -0.144  -3.322  0.00  0.00     0.007 C 
ATOM      9  C   UNL d   1      -2.601   0.492  -4.001  0.00  0.00     0.009 C 
ENDBRANCH   7   8
ENDBRANCH   1   7
TORSDOF 2
ENDMDL
