MODEL 1
REMARK minimizedAffinity 0.547273815
REMARK minimizedRMSD -1
REMARK  2 active torsions:
REMARK  status: ('A' for Active; 'I' for Inactive)
REMARK    1  A    between atoms: C1_2  and  C2_3 
REMARK    2  A    between atoms: C2_3  and  C3_4 
ROOT
ATOM      1  C3  UNL d   1      -0.436   0.430   0.576  0.00  0.00    -0.075 A 
ATOM      2  C4  UNL d   1      -1.547   0.989   1.224  0.00  0.00     0.002 A 
ATOM      3  C5  UNL d   1      -1.411   1.580   2.481  0.00  0.00     0.002 A 
ATOM      4  C6  UNL d   1      -0.167   1.611   3.108  0.00  0.00    -0.004 A 
ATOM      5  C7  UNL d   1       0.940   1.044   2.481  0.00  0.00     0.002 A 
ATOM      6  C8  UNL d   1       0.807   0.455   1.222  0.00  0.00     0.002 A 
ENDROOT
BRANCH   1   7
ATOM      7  C2  UNL d   1      -0.570  -0.185  -0.796  0.00  0.00     0.056 C 
BRANCH   7   8
ATOM      8  C1  UNL d   1       0.015   0.672  -1.924  0.00  0.00     0.007 C 
ATOM      9  C   UNL d   1       0.009  -0.030  -3.276  0.00  0.00     0.009 C 
ENDBRANCH   7   8
ENDBRANCH   1   7
TORSDOF 2
ENDMDL
