MODEL 1
REMARK minimizedAffinity 8.25195599
REMARK minimizedRMSD -1
REMARK  2 active torsions:
REMARK  status: ('A' for Active; 'I' for Inactive)
REMARK    1  A    between atoms: C1_2  and  C2_3 
REMARK    2  A    between atoms: C2_3  and  C3_4 
ROOT
ATOM      1  C3  UNL d   1      -1.260  -2.295   0.133  0.00  0.00    -0.075 A 
ATOM      2  C4  UNL d   1      -0.626  -2.548   1.358  0.00  0.00     0.002 A 
ATOM      3  C5  UNL d   1       0.314  -1.652   1.868  0.00  0.00     0.002 A 
ATOM      4  C6  UNL d   1       0.638  -0.499   1.157  0.00  0.00    -0.004 A 
ATOM      5  C7  UNL d   1       0.027  -0.245  -0.069  0.00  0.00     0.002 A 
ATOM      6  C8  UNL d   1      -0.917  -1.138  -0.579  0.00  0.00     0.002 A 
ENDROOT
BRANCH   1   7
ATOM      7  C2  UNL d   1      -2.299  -3.246  -0.410  0.00  0.00     0.056 C 
BRANCH   7   8
ATOM      8  C1  UNL d   1      -1.764  -4.650  -0.709  0.00  0.00     0.007 C 
ATOM      9  C   UNL d   1      -2.570  -5.755  -0.040  0.00  0.00     0.009 C 
ENDBRANCH   7   8
ENDBRANCH   1   7
TORSDOF 2
ENDMDL
