MODEL 1
REMARK minimizedAffinity 1.17627609
REMARK minimizedRMSD -1
REMARK  2 active torsions:
REMARK  status: ('A' for Active; 'I' for Inactive)
REMARK    1  A    between atoms: C1_2  and  C2_3 
REMARK    2  A    between atoms: C2_3  and  C3_4 
ROOT
ATOM      1  C3  UNL d   1      -0.977   0.417  -0.355  0.00  0.00    -0.075 A 
ATOM      2  C4  UNL d   1      -1.497  -0.835   0.002  0.00  0.00     0.002 A 
ATOM      3  C5  UNL d   1      -2.415  -1.484  -0.825  0.00  0.00     0.002 A 
ATOM      4  C6  UNL d   1      -2.831  -0.885  -2.012  0.00  0.00    -0.004 A 
ATOM      5  C7  UNL d   1      -2.333   0.366  -2.369  0.00  0.00     0.002 A 
ATOM      6  C8  UNL d   1      -1.411   1.015  -1.546  0.00  0.00     0.002 A 
ENDROOT
BRANCH   1   7
ATOM      7  C2  UNL d   1       0.039   1.110   0.521  0.00  0.00     0.056 C 
BRANCH   7   8
ATOM      8  C1  UNL d   1       1.472   0.601   0.337  0.00  0.00     0.007 C 
ATOM      9  C   UNL d   1       2.360   1.571  -0.431  0.00  0.00     0.009 C 
ENDBRANCH   7   8
ENDBRANCH   1   7
TORSDOF 2
ENDMDL
