MODEL 1
REMARK minimizedAffinity -1.59723246
REMARK minimizedRMSD -1
REMARK  2 active torsions:
REMARK  status: ('A' for Active; 'I' for Inactive)
REMARK    1  A    between atoms: C1_2  and  C2_3 
REMARK    2  A    between atoms: C2_3  and  C3_4 
ROOT
ATOM      1  C3  UNL d   1      -0.672  -5.953   1.013  0.00  0.00    -0.075 A 
ATOM      2  C4  UNL d   1      -1.403  -5.939  -0.184  0.00  0.00     0.002 A 
ATOM      3  C5  UNL d   1      -2.798  -5.941  -0.162  0.00  0.00     0.002 A 
ATOM      4  C6  UNL d   1      -3.478  -5.968   1.054  0.00  0.00    -0.004 A 
ATOM      5  C7  UNL d   1      -2.762  -5.999   2.248  0.00  0.00     0.002 A 
ATOM      6  C8  UNL d   1      -1.366  -5.992   2.229  0.00  0.00     0.002 A 
ENDROOT
BRANCH   1   7
ATOM      7  C2  UNL d   1       0.838  -5.921   0.996  0.00  0.00     0.056 C 
BRANCH   7   8
ATOM      8  C1  UNL d   1       1.441  -5.691  -0.394  0.00  0.00     0.007 C 
ATOM      9  C   UNL d   1       2.401  -4.510  -0.444  0.00  0.00     0.009 C 
ENDBRANCH   7   8
ENDBRANCH   1   7
TORSDOF 2
ENDMDL
