MODEL 1
REMARK minimizedAffinity 7.03845501
REMARK minimizedRMSD -1
REMARK  2 active torsions:
REMARK  status: ('A' for Active; 'I' for Inactive)
REMARK    1  A    between atoms: C1_2  and  C2_3 
REMARK    2  A    between atoms: C2_3  and  C3_4 
ROOT
ATOM      1  C3  UNL d   1      -0.211   0.214  -0.355  0.00  0.00    -0.075 A 
ATOM      2  C4  UNL d   1       0.855   1.110  -0.522  0.00  0.00     0.002 A 
ATOM      3  C5  UNL d   1       1.581   1.561   0.580  0.00  0.00     0.002 A 
ATOM      4  C6  UNL d   1       1.246   1.131   1.862  0.00  0.00    -0.004 A 
ATOM      5  C7  UNL d   1       0.178   0.254   2.042  0.00  0.00     0.002 A 
ATOM      6  C8  UNL d   1      -0.547  -0.202   0.940  0.00  0.00     0.002 A 
ENDROOT
BRANCH   1   7
ATOM      7  C2  UNL d   1      -0.982  -0.300  -1.547  0.00  0.00     0.056 C 
BRANCH   7   8
ATOM      8  C1  UNL d   1      -0.332   0.023  -2.897  0.00  0.00     0.007 C 
ATOM      9  C   UNL d   1      -1.290  -0.119  -4.073  0.00  0.00     0.009 C 
ENDBRANCH   7   8
ENDBRANCH   1   7
TORSDOF 2
ENDMDL
