MODEL 1
REMARK minimizedAffinity 10.4165354
REMARK minimizedRMSD -1
REMARK  2 active torsions:
REMARK  status: ('A' for Active; 'I' for Inactive)
REMARK    1  A    between atoms: C1_2  and  C2_3 
REMARK    2  A    between atoms: C2_3  and  C3_4 
ROOT
ATOM      1  C3  UNL d   1       2.653  -3.123  -0.320  0.00  0.00    -0.075 A 
ATOM      2  C4  UNL d   1       1.870  -4.213  -0.725  0.00  0.00     0.002 A 
ATOM      3  C5  UNL d   1       1.131  -4.941   0.209  0.00  0.00     0.002 A 
ATOM      4  C6  UNL d   1       1.174  -4.595   1.557  0.00  0.00    -0.004 A 
ATOM      5  C7  UNL d   1       1.962  -3.524   1.974  0.00  0.00     0.002 A 
ATOM      6  C8  UNL d   1       2.699  -2.792   1.041  0.00  0.00     0.002 A 
ENDROOT
BRANCH   1   7
ATOM      7  C2  UNL d   1       3.432  -2.314  -1.329  0.00  0.00     0.056 C 
BRANCH   7   8
ATOM      8  C1  UNL d   1       2.605  -1.862  -2.538  0.00  0.00     0.007 C 
ATOM      9  C   UNL d   1       3.177  -0.632  -3.230  0.00  0.00     0.009 C 
ENDBRANCH   7   8
ENDBRANCH   1   7
TORSDOF 2
ENDMDL
