MODEL 1
REMARK minimizedAffinity 1.56841528
REMARK minimizedRMSD -1
REMARK  2 active torsions:
REMARK  status: ('A' for Active; 'I' for Inactive)
REMARK    1  A    between atoms: C1_2  and  C2_3 
REMARK    2  A    between atoms: C2_3  and  C3_4 
ROOT
ATOM      1  C3  UNL d   1       3.571   1.499   1.239  0.00  0.00    -0.075 A 
ATOM      2  C4  UNL d   1       3.584   0.745   2.421  0.00  0.00     0.002 A 
ATOM      3  C5  UNL d   1       4.792   0.407   3.032  0.00  0.00     0.002 A 
ATOM      4  C6  UNL d   1       6.000   0.809   2.465  0.00  0.00    -0.004 A 
ATOM      5  C7  UNL d   1       5.999   1.545   1.282  0.00  0.00     0.002 A 
ATOM      6  C8  UNL d   1       4.791   1.888   0.671  0.00  0.00     0.002 A 
ENDROOT
BRANCH   1   7
ATOM      7  C2  UNL d   1       2.266   1.893   0.589  0.00  0.00     0.056 C 
BRANCH   7   8
ATOM      8  C1  UNL d   1       2.171   1.521  -0.895  0.00  0.00     0.007 C 
ATOM      9  C   UNL d   1       1.502   2.595  -1.742  0.00  0.00     0.009 C 
ENDBRANCH   7   8
ENDBRANCH   1   7
TORSDOF 2
ENDMDL
