MODEL 1
REMARK minimizedAffinity 8.20121574
REMARK minimizedRMSD -1
REMARK  2 active torsions:
REMARK  status: ('A' for Active; 'I' for Inactive)
REMARK    1  A    between atoms: C1_2  and  C2_3 
REMARK    2  A    between atoms: C2_3  and  C3_4 
ROOT
ATOM      1  C3  UNL d   1      -1.156   1.708   1.669  0.00  0.00    -0.075 A 
ATOM      2  C4  UNL d   1      -1.965   2.606   2.380  0.00  0.00     0.002 A 
ATOM      3  C5  UNL d   1      -1.418   3.421   3.372  0.00  0.00     0.002 A 
ATOM      4  C6  UNL d   1      -0.060   3.341   3.672  0.00  0.00    -0.004 A 
ATOM      5  C7  UNL d   1       0.751   2.441   2.983  0.00  0.00     0.002 A 
ATOM      6  C8  UNL d   1       0.207   1.628   1.987  0.00  0.00     0.002 A 
ENDROOT
BRANCH   1   7
ATOM      7  C2  UNL d   1      -1.736   0.845   0.574  0.00  0.00     0.056 C 
BRANCH   7   8
ATOM      8  C1  UNL d   1      -2.173  -0.547   1.042  0.00  0.00     0.007 C 
ATOM      9  C   UNL d   1      -3.475  -0.534   1.831  0.00  0.00     0.009 C 
ENDBRANCH   7   8
ENDBRANCH   1   7
TORSDOF 2
ENDMDL
