MODEL 1
REMARK minimizedAffinity 14.1582727
REMARK minimizedRMSD -1
REMARK  0 active torsions:
REMARK  status: ('A' for Active; 'I' for Inactive)
ROOT
ATOM      1  C   UNL d   1      -3.320   3.041   2.379  0.00  0.00     0.077 C 
ATOM      2  C1  UNL d   1      -1.844   2.785   2.310  0.00  0.00    -0.074 A 
ATOM      3  C2  UNL d   1      -1.138   2.964   1.116  0.00  0.00    -0.005 A 
ATOM      4  C3  UNL d   1       0.237   2.731   1.070  0.00  0.00     0.006 A 
ATOM      5  C4  UNL d   1       0.918   2.319   2.216  0.00  0.00    -0.005 A 
ATOM      6  C5  UNL d   1       0.229   2.136   3.419  0.00  0.00    -0.074 A 
ATOM      7  C6  UNL d   1       0.948   1.702   4.662  0.00  0.00     0.077 C 
ATOM      8  C7  UNL d   1      -1.151   2.378   3.459  0.00  0.00    -0.001 A 
ENDROOT
TORSDOF 0
ENDMDL
