MODEL 1
REMARK minimizedAffinity 3.0162406
REMARK minimizedRMSD -1
REMARK  0 active torsions:
REMARK  status: ('A' for Active; 'I' for Inactive)
ROOT
ATOM      1  C   UNL d   1      -5.999   2.304  -2.777  0.00  0.00     0.077 C 
ATOM      2  C1  UNL d   1      -4.841   1.579  -3.396  0.00  0.00    -0.074 A 
ATOM      3  C2  UNL d   1      -4.914   1.092  -4.705  0.00  0.00    -0.005 A 
ATOM      4  C3  UNL d   1      -3.826   0.428  -5.270  0.00  0.00     0.006 A 
ATOM      5  C4  UNL d   1      -2.655   0.243  -4.534  0.00  0.00    -0.005 A 
ATOM      6  C5  UNL d   1      -2.563   0.724  -3.223  0.00  0.00    -0.074 A 
ATOM      7  C6  UNL d   1      -1.309   0.543  -2.421  0.00  0.00     0.077 C 
ATOM      8  C7  UNL d   1      -3.659   1.397  -2.665  0.00  0.00    -0.001 A 
ENDROOT
TORSDOF 0
ENDMDL
