MODEL 1
REMARK minimizedAffinity 4.43559694
REMARK minimizedRMSD -1
REMARK  0 active torsions:
REMARK  status: ('A' for Active; 'I' for Inactive)
ROOT
ATOM      1  C   UNL d   1       4.171   0.007   1.165  0.00  0.00     0.077 C 
ATOM      2  C1  UNL d   1       4.380   0.379  -0.273  0.00  0.00    -0.074 A 
ATOM      3  C2  UNL d   1       3.933  -0.453  -1.304  0.00  0.00    -0.005 A 
ATOM      4  C3  UNL d   1       4.126  -0.089  -2.636  0.00  0.00     0.006 A 
ATOM      5  C4  UNL d   1       4.767   1.110  -2.951  0.00  0.00    -0.005 A 
ATOM      6  C5  UNL d   1       5.220   1.956  -1.933  0.00  0.00    -0.074 A 
ATOM      7  C6  UNL d   1       5.901   3.253  -2.254  0.00  0.00     0.077 C 
ATOM      8  C7  UNL d   1       5.016   1.586  -0.597  0.00  0.00    -0.001 A 
ENDROOT
TORSDOF 0
ENDMDL
