MODEL 1
REMARK minimizedAffinity 8.81940269
REMARK minimizedRMSD -1
REMARK  0 active torsions:
REMARK  status: ('A' for Active; 'I' for Inactive)
ROOT
ATOM      1  C   UNL d   1       4.950   2.016  -2.711  0.00  0.00     0.077 C 
ATOM      2  C1  UNL d   1       4.209   1.228  -1.672  0.00  0.00    -0.074 A 
ATOM      3  C2  UNL d   1       4.666   1.171  -0.351  0.00  0.00    -0.005 A 
ATOM      4  C3  UNL d   1       3.961   0.441   0.606  0.00  0.00     0.006 A 
ATOM      5  C4  UNL d   1       2.793  -0.237   0.253  0.00  0.00    -0.005 A 
ATOM      6  C5  UNL d   1       2.321  -0.191  -1.062  0.00  0.00    -0.074 A 
ATOM      7  C6  UNL d   1       1.063  -0.906  -1.456  0.00  0.00     0.077 C 
ATOM      8  C7  UNL d   1       3.031   0.550  -2.017  0.00  0.00    -0.001 A 
ENDROOT
TORSDOF 0
ENDMDL
