MODEL 1
REMARK minimizedAffinity 9.45730782
REMARK minimizedRMSD -1
REMARK  0 active torsions:
REMARK  status: ('A' for Active; 'I' for Inactive)
ROOT
ATOM      1  C   UNL d   1       4.895   5.564   5.998  0.00  0.00     0.077 C 
ATOM      2  C1  UNL d   1       4.542   4.920   4.690  0.00  0.00    -0.074 A 
ATOM      3  C2  UNL d   1       5.346   5.101   3.560  0.00  0.00    -0.005 A 
ATOM      4  C3  UNL d   1       5.011   4.488   2.353  0.00  0.00     0.006 A 
ATOM      5  C4  UNL d   1       3.870   3.690   2.263  0.00  0.00    -0.005 A 
ATOM      6  C5  UNL d   1       3.054   3.497   3.382  0.00  0.00    -0.074 A 
ATOM      7  C6  UNL d   1       1.829   2.635   3.306  0.00  0.00     0.077 C 
ATOM      8  C7  UNL d   1       3.401   4.111   4.594  0.00  0.00    -0.001 A 
ENDROOT
TORSDOF 0
ENDMDL
