MODEL 1
REMARK minimizedAffinity 10.8753614
REMARK minimizedRMSD -1
REMARK  0 active torsions:
REMARK  status: ('A' for Active; 'I' for Inactive)
ROOT
ATOM      1  C   UNL d   1      -5.996  -1.493  -4.509  0.00  0.00     0.077 C 
ATOM      2  C1  UNL d   1      -5.424  -0.111  -4.391  0.00  0.00    -0.074 A 
ATOM      3  C2  UNL d   1      -4.528   0.380  -5.346  0.00  0.00    -0.005 A 
ATOM      4  C3  UNL d   1      -4.012   1.670  -5.228  0.00  0.00     0.006 A 
ATOM      5  C4  UNL d   1      -4.385   2.481  -4.155  0.00  0.00    -0.005 A 
ATOM      6  C5  UNL d   1      -5.281   2.007  -3.191  0.00  0.00    -0.074 A 
ATOM      7  C6  UNL d   1      -5.700   2.869  -2.038  0.00  0.00     0.077 C 
ATOM      8  C7  UNL d   1      -5.800   0.712  -3.320  0.00  0.00    -0.001 A 
ENDROOT
TORSDOF 0
ENDMDL
