MODEL 1
REMARK minimizedAffinity 12.3858604
REMARK minimizedRMSD -1
REMARK  0 active torsions:
REMARK  status: ('A' for Active; 'I' for Inactive)
ROOT
ATOM      1  C   UNL d   1      -0.170   3.253   0.013  0.00  0.00     0.077 C 
ATOM      2  C1  UNL d   1      -0.670   3.294   1.426  0.00  0.00    -0.074 A 
ATOM      3  C2  UNL d   1      -1.779   4.073   1.774  0.00  0.00    -0.005 A 
ATOM      4  C3  UNL d   1      -2.238   4.094   3.090  0.00  0.00     0.006 A 
ATOM      5  C4  UNL d   1      -1.596   3.338   4.071  0.00  0.00    -0.005 A 
ATOM      6  C5  UNL d   1      -0.487   2.552   3.742  0.00  0.00    -0.074 A 
ATOM      7  C6  UNL d   1       0.209   1.725   4.782  0.00  0.00     0.077 C 
ATOM      8  C7  UNL d   1      -0.035   2.531   2.415  0.00  0.00    -0.001 A 
ENDROOT
TORSDOF 0
ENDMDL
