MODEL 1
REMARK minimizedAffinity 9.41543102
REMARK minimizedRMSD -1
REMARK  0 active torsions:
REMARK  status: ('A' for Active; 'I' for Inactive)
ROOT
ATOM      1  C   UNL d   1       5.149   4.687   1.779  0.00  0.00     0.077 C 
ATOM      2  C1  UNL d   1       4.940   4.884   3.252  0.00  0.00    -0.074 A 
ATOM      3  C2  UNL d   1       5.694   5.821   3.965  0.00  0.00    -0.005 A 
ATOM      4  C3  UNL d   1       5.482   6.000   5.332  0.00  0.00     0.006 A 
ATOM      5  C4  UNL d   1       4.517   5.243   5.998  0.00  0.00    -0.005 A 
ATOM      6  C5  UNL d   1       3.753   4.302   5.301  0.00  0.00    -0.074 A 
ATOM      7  C6  UNL d   1       2.705   3.488   6.000  0.00  0.00     0.077 C 
ATOM      8  C7  UNL d   1       3.967   4.134   3.926  0.00  0.00    -0.001 A 
ENDROOT
TORSDOF 0
ENDMDL
