MODEL 1
REMARK minimizedAffinity 3.28344059
REMARK minimizedRMSD -1
REMARK  0 active torsions:
REMARK  status: ('A' for Active; 'I' for Inactive)
ROOT
ATOM      1  C   UNL d   1      -0.180   2.364   3.405  0.00  0.00     0.077 C 
ATOM      2  C1  UNL d   1       0.117   1.961   1.992  0.00  0.00    -0.074 A 
ATOM      3  C2  UNL d   1       0.862   2.792   1.148  0.00  0.00    -0.005 A 
ATOM      4  C3  UNL d   1       1.139   2.398  -0.161  0.00  0.00     0.006 A 
ATOM      5  C4  UNL d   1       0.675   1.172  -0.639  0.00  0.00    -0.005 A 
ATOM      6  C5  UNL d   1      -0.070   0.328   0.190  0.00  0.00    -0.074 A 
ATOM      7  C6  UNL d   1      -0.567  -0.998  -0.306  0.00  0.00     0.077 C 
ATOM      8  C7  UNL d   1      -0.338   0.727   1.506  0.00  0.00    -0.001 A 
ENDROOT
TORSDOF 0
ENDMDL
