MODEL 1
REMARK minimizedAffinity 4.52788162
REMARK minimizedRMSD -1
REMARK  0 active torsions:
REMARK  status: ('A' for Active; 'I' for Inactive)
ROOT
ATOM      1  C   UNL d   1       1.984  -2.459   0.098  0.00  0.00     0.077 C 
ATOM      2  C1  UNL d   1       0.856  -1.860  -0.688  0.00  0.00    -0.074 A 
ATOM      3  C2  UNL d   1       0.273  -0.650  -0.301  0.00  0.00    -0.005 A 
ATOM      4  C3  UNL d   1      -0.769  -0.100  -1.047  0.00  0.00     0.006 A 
ATOM      5  C4  UNL d   1      -1.238  -0.755  -2.187  0.00  0.00    -0.005 A 
ATOM      6  C5  UNL d   1      -0.667  -1.966  -2.590  0.00  0.00    -0.074 A 
ATOM      7  C6  UNL d   1      -1.153  -2.677  -3.818  0.00  0.00     0.077 C 
ATOM      8  C7  UNL d   1       0.384  -2.508  -1.839  0.00  0.00    -0.001 A 
ENDROOT
TORSDOF 0
ENDMDL
