MODEL 1
REMARK minimizedAffinity -3.06017876
REMARK minimizedRMSD -1
REMARK  0 active torsions:
REMARK  status: ('A' for Active; 'I' for Inactive)
ROOT
ATOM      1  C   UNL d   1       1.737   0.125  -0.208  0.00  0.00     0.020 A 
ATOM      2  C1  UNL d   1       0.481   0.705  -0.031  0.00  0.00     0.020 A 
ATOM      3  C2  UNL d   1      -0.496   0.043   0.715  0.00  0.00     0.034 A 
ATOM      4  C3  UNL d   1      -0.219  -1.203   1.288  0.00  0.00     0.017 A 
ATOM      5  C4  UNL d   1       1.041  -1.785   1.110  0.00  0.00     0.017 A 
ATOM      6  C5  UNL d   1       2.016  -1.118   0.362  0.00  0.00     0.034 A 
ATOM      7 Cl   UNL d   1       1.457  -3.321   1.787  0.00  0.00    -0.070 Cl
ATOM      8 Cl1  UNL d   1      -1.474  -1.965   2.199  0.00  0.00    -0.070 Cl
ENDROOT
TORSDOF 0
ENDMDL
