MODEL 1
REMARK minimizedAffinity -4.6250186
REMARK minimizedRMSD -1
REMARK  0 active torsions:
REMARK  status: ('A' for Active; 'I' for Inactive)
ROOT
ATOM      1  C   UNL d   1      -0.844   0.082   1.234  0.00  0.00     0.020 A 
ATOM      2  C1  UNL d   1      -0.339   1.121   0.454  0.00  0.00     0.020 A 
ATOM      3  C2  UNL d   1       0.956   1.041  -0.062  0.00  0.00     0.034 A 
ATOM      4  C3  UNL d   1       1.751  -0.080   0.203  0.00  0.00     0.017 A 
ATOM      5  C4  UNL d   1       1.243  -1.123   0.987  0.00  0.00     0.017 A 
ATOM      6  C5  UNL d   1      -0.055  -1.037   1.500  0.00  0.00     0.034 A 
ATOM      7 Cl   UNL d   1       2.164  -2.538   1.357  0.00  0.00    -0.070 Cl
ATOM      8 Cl1  UNL d   1       3.344  -0.113  -0.466  0.00  0.00    -0.070 Cl
ENDROOT
TORSDOF 0
ENDMDL
