MODEL 1
REMARK minimizedAffinity -3.83731222
REMARK minimizedRMSD -1
REMARK  0 active torsions:
REMARK  status: ('A' for Active; 'I' for Inactive)
ROOT
ATOM      1  C   UNL d   1      -1.142  -0.279   1.505  0.00  0.00     0.020 A 
ATOM      2  C1  UNL d   1      -0.081  -1.183   1.537  0.00  0.00     0.020 A 
ATOM      3  C2  UNL d   1       1.085  -0.916   0.816  0.00  0.00     0.034 A 
ATOM      4  C3  UNL d   1       1.193   0.257   0.059  0.00  0.00     0.017 A 
ATOM      5  C4  UNL d   1       0.127   1.163   0.028  0.00  0.00     0.017 A 
ATOM      6  C5  UNL d   1      -1.038   0.892   0.752  0.00  0.00     0.034 A 
ATOM      7 Cl   UNL d   1       0.186   2.631  -0.882  0.00  0.00    -0.070 Cl
ATOM      8 Cl1  UNL d   1       2.664   0.522  -0.807  0.00  0.00    -0.070 Cl
ENDROOT
TORSDOF 0
ENDMDL
