MODEL 1
REMARK minimizedAffinity -2.64964485
REMARK minimizedRMSD -1
REMARK  0 active torsions:
REMARK  status: ('A' for Active; 'I' for Inactive)
ROOT
ATOM      1  C   UNL d   1      -1.901   0.309  -1.376  0.00  0.00     0.020 A 
ATOM      2  C1  UNL d   1      -0.634   0.783  -1.038  0.00  0.00     0.020 A 
ATOM      3  C2  UNL d   1      -0.161   1.972  -1.597  0.00  0.00     0.034 A 
ATOM      4  C3  UNL d   1      -0.955   2.691  -2.499  0.00  0.00     0.017 A 
ATOM      5  C4  UNL d   1      -2.227   2.214  -2.837  0.00  0.00     0.017 A 
ATOM      6  C5  UNL d   1      -2.695   1.023  -2.274  0.00  0.00     0.034 A 
ATOM      7 Cl   UNL d   1      -3.264   3.045  -3.942  0.00  0.00    -0.070 Cl
ATOM      8 Cl1  UNL d   1      -0.307   4.153  -3.152  0.00  0.00    -0.070 Cl
ENDROOT
TORSDOF 0
ENDMDL
