MODEL 1
REMARK minimizedAffinity -5.26265669
REMARK minimizedRMSD -1
REMARK  0 active torsions:
REMARK  status: ('A' for Active; 'I' for Inactive)
ROOT
ATOM      1  C   UNL d   1       0.439  -2.536   1.580  0.00  0.00     0.020 A 
ATOM      2  C1  UNL d   1       1.829  -2.475   1.672  0.00  0.00     0.020 A 
ATOM      3  C2  UNL d   1       2.530  -1.476   0.993  0.00  0.00     0.034 A 
ATOM      4  C3  UNL d   1       1.842  -0.535   0.218  0.00  0.00     0.017 A 
ATOM      5  C4  UNL d   1       0.447  -0.598   0.126  0.00  0.00     0.017 A 
ATOM      6  C5  UNL d   1      -0.251  -1.599   0.809  0.00  0.00     0.034 A 
ATOM      7 Cl   UNL d   1      -0.472   0.528  -0.810  0.00  0.00    -0.070 Cl
ATOM      8 Cl1  UNL d   1       2.773   0.672  -0.595  0.00  0.00    -0.070 Cl
ENDROOT
TORSDOF 0
ENDMDL
