MODEL 1
REMARK minimizedAffinity 0.721490145
REMARK minimizedRMSD -1
REMARK  0 active torsions:
REMARK  status: ('A' for Active; 'I' for Inactive)
ROOT
ATOM      1  C   UNL d   1       0.380   1.136  -0.362  0.00  0.00     0.020 A 
ATOM      2  C1  UNL d   1      -0.733   0.300  -0.441  0.00  0.00     0.020 A 
ATOM      3  C2  UNL d   1      -0.699  -0.965   0.149  0.00  0.00     0.034 A 
ATOM      4  C3  UNL d   1       0.450  -1.399   0.820  0.00  0.00     0.017 A 
ATOM      5  C4  UNL d   1       1.567  -0.559   0.898  0.00  0.00     0.017 A 
ATOM      6  C5  UNL d   1       1.528   0.707   0.306  0.00  0.00     0.034 A 
ATOM      7 Cl   UNL d   1       3.021  -1.024   1.709  0.00  0.00    -0.070 Cl
ATOM      8 Cl1  UNL d   1       0.422  -2.976   1.525  0.00  0.00    -0.070 Cl
ENDROOT
TORSDOF 0
ENDMDL
