MODEL 1
REMARK minimizedAffinity -3.68635345
REMARK minimizedRMSD -1
REMARK  0 active torsions:
REMARK  status: ('A' for Active; 'I' for Inactive)
ROOT
ATOM      1  C   UNL d   1      -0.238  -2.353   2.268  0.00  0.00     0.020 A 
ATOM      2  C1  UNL d   1       1.064  -2.717   1.926  0.00  0.00     0.020 A 
ATOM      3  C2  UNL d   1       1.763  -1.988   0.961  0.00  0.00     0.034 A 
ATOM      4  C3  UNL d   1       1.159  -0.892   0.334  0.00  0.00     0.017 A 
ATOM      5  C4  UNL d   1      -0.147  -0.527   0.678  0.00  0.00     0.017 A 
ATOM      6  C5  UNL d   1      -0.842  -1.260   1.645  0.00  0.00     0.034 A 
ATOM      7 Cl   UNL d   1      -0.958   0.813  -0.052  0.00  0.00    -0.070 Cl
ATOM      8 Cl1  UNL d   1       2.082  -0.036  -0.850  0.00  0.00    -0.070 Cl
ENDROOT
TORSDOF 0
ENDMDL
