MODEL 1
REMARK minimizedAffinity -5.23848248
REMARK minimizedRMSD -1
REMARK  0 active torsions:
REMARK  status: ('A' for Active; 'I' for Inactive)
ROOT
ATOM      1  C   UNL d   1       0.165   1.023  -0.550  0.00  0.00     0.020 A 
ATOM      2  C1  UNL d   1       1.376   0.348  -0.694  0.00  0.00     0.020 A 
ATOM      3  C2  UNL d   1       1.650  -0.772   0.095  0.00  0.00     0.034 A 
ATOM      4  C3  UNL d   1       0.711  -1.219   1.031  0.00  0.00     0.017 A 
ATOM      5  C4  UNL d   1      -0.505  -0.541   1.175  0.00  0.00     0.017 A 
ATOM      6  C5  UNL d   1      -0.774   0.580   0.383  0.00  0.00     0.034 A 
ATOM      7 Cl   UNL d   1      -1.713  -1.033   2.309  0.00  0.00    -0.070 Cl
ATOM      8 Cl1  UNL d   1       1.115  -2.611   1.972  0.00  0.00    -0.070 Cl
ENDROOT
TORSDOF 0
ENDMDL
