MODEL 1
REMARK minimizedAffinity 3.20763731
REMARK minimizedRMSD -1
REMARK  0 active torsions:
REMARK  status: ('A' for Active; 'I' for Inactive)
ROOT
ATOM      1  C   UNL d   1      -1.993   2.090  -2.639  0.00  0.00     0.020 A 
ATOM      2  C1  UNL d   1      -2.902   1.162  -2.133  0.00  0.00     0.020 A 
ATOM      3  C2  UNL d   1      -2.531   0.322  -1.081  0.00  0.00     0.034 A 
ATOM      4  C3  UNL d   1      -1.247   0.409  -0.532  0.00  0.00     0.017 A 
ATOM      5  C4  UNL d   1      -0.335   1.341  -1.040  0.00  0.00     0.017 A 
ATOM      6  C5  UNL d   1      -0.712   2.180  -2.093  0.00  0.00     0.034 A 
ATOM      7 Cl   UNL d   1       1.268   1.507  -0.413  0.00  0.00    -0.070 Cl
ATOM      8 Cl1  UNL d   1      -0.855  -0.661   0.768  0.00  0.00    -0.070 Cl
ENDROOT
TORSDOF 0
ENDMDL
