MODEL 1
REMARK minimizedAffinity -5.15146732
REMARK minimizedRMSD -1
REMARK  0 active torsions:
REMARK  status: ('A' for Active; 'I' for Inactive)
ROOT
ATOM      1  C   UNL d   1       0.480  -2.571   2.113  0.00  0.00     0.020 A 
ATOM      2  C1  UNL d   1       1.069  -2.448   0.855  0.00  0.00     0.020 A 
ATOM      3  C2  UNL d   1       0.572  -1.517  -0.060  0.00  0.00     0.034 A 
ATOM      4  C3  UNL d   1      -0.516  -0.706   0.281  0.00  0.00     0.017 A 
ATOM      5  C4  UNL d   1      -1.106  -0.830   1.544  0.00  0.00     0.017 A 
ATOM      6  C5  UNL d   1      -0.605  -1.764   2.457  0.00  0.00     0.034 A 
ATOM      7 Cl   UNL d   1      -2.452   0.135   2.038  0.00  0.00    -0.070 Cl
ATOM      8 Cl1  UNL d   1      -1.078   0.423  -0.899  0.00  0.00    -0.070 Cl
ENDROOT
TORSDOF 0
ENDMDL
