MODEL 1
REMARK minimizedAffinity -3.40441799
REMARK minimizedRMSD -1
REMARK  0 active torsions:
REMARK  status: ('A' for Active; 'I' for Inactive)
ROOT
ATOM      1  C   UNL d   1      -1.167   0.347   0.388  0.00  0.00     0.020 A 
ATOM      2  C1  UNL d   1      -0.737   1.261  -0.573  0.00  0.00     0.020 A 
ATOM      3  C2  UNL d   1       0.529   1.127  -1.147  0.00  0.00     0.034 A 
ATOM      4  C3  UNL d   1       1.370   0.077  -0.759  0.00  0.00     0.017 A 
ATOM      5  C4  UNL d   1       0.937  -0.839   0.206  0.00  0.00     0.017 A 
ATOM      6  C5  UNL d   1      -0.332  -0.701   0.777  0.00  0.00     0.034 A 
ATOM      7 Cl   UNL d   1       1.918  -2.161   0.735  0.00  0.00    -0.070 Cl
ATOM      8 Cl1  UNL d   1       2.922  -0.028  -1.510  0.00  0.00    -0.070 Cl
ENDROOT
TORSDOF 0
ENDMDL
