MODEL 1
REMARK minimizedAffinity -2.86449099
REMARK minimizedRMSD -1
REMARK  0 active torsions:
REMARK  status: ('A' for Active; 'I' for Inactive)
ROOT
ATOM      1  C   UNL d   1       2.689  -0.443  -0.437  0.00  0.00     0.020 A 
ATOM      2  C1  UNL d   1       2.598  -1.468   0.504  0.00  0.00     0.020 A 
ATOM      3  C2  UNL d   1       1.383  -1.724   1.142  0.00  0.00     0.034 A 
ATOM      4  C3  UNL d   1       0.253  -0.955   0.840  0.00  0.00     0.017 A 
ATOM      5  C4  UNL d   1       0.345   0.073  -0.105  0.00  0.00     0.017 A 
ATOM      6  C5  UNL d   1       1.565   0.325  -0.741  0.00  0.00     0.034 A 
ATOM      7 Cl   UNL d   1      -1.005   1.065  -0.531  0.00  0.00    -0.070 Cl
ATOM      8 Cl1  UNL d   1      -1.217  -1.328   1.667  0.00  0.00    -0.070 Cl
ENDROOT
TORSDOF 0
ENDMDL
