MODEL 1
REMARK minimizedAffinity -3.88072252
REMARK minimizedRMSD -1
REMARK  0 active torsions:
REMARK  status: ('A' for Active; 'I' for Inactive)
ROOT
ATOM      1  C   UNL d   1      -0.129   5.089  -3.177  0.00  0.00     0.020 A 
ATOM      2  C1  UNL d   1      -0.550   4.860  -4.487  0.00  0.00     0.020 A 
ATOM      3  C2  UNL d   1      -1.225   3.680  -4.807  0.00  0.00     0.034 A 
ATOM      4  C3  UNL d   1      -1.480   2.725  -3.816  0.00  0.00     0.017 A 
ATOM      5  C4  UNL d   1      -1.057   2.955  -2.502  0.00  0.00     0.017 A 
ATOM      6  C5  UNL d   1      -0.382   4.139  -2.187  0.00  0.00     0.034 A 
ATOM      7 Cl   UNL d   1      -1.336   1.823  -1.226  0.00  0.00    -0.070 Cl
ATOM      8 Cl1  UNL d   1      -2.320   1.288  -4.283  0.00  0.00    -0.070 Cl
ENDROOT
TORSDOF 0
ENDMDL
