MODEL 1
REMARK minimizedAffinity -1.55747557
REMARK minimizedRMSD -1
REMARK  0 active torsions:
REMARK  status: ('A' for Active; 'I' for Inactive)
ROOT
ATOM      1  C1  BNZ d   1       5.997   4.405  -3.734  0.00  0.00     0.000 A 
ATOM      2  C2  BNZ d   1       5.936   4.407  -5.102  0.00  0.00     0.000 A 
ATOM      3  C3  BNZ d   1       5.056   5.219  -5.762  0.00  0.00     0.000 A 
ATOM      4  C4  BNZ d   1       4.212   5.997  -5.053  0.00  0.00     0.000 A 
ATOM      5  C5  BNZ d   1       4.256   5.999  -3.673  0.00  0.00     0.000 A 
ATOM      6  C6  BNZ d   1       5.169   5.209  -3.013  0.00  0.00     0.000 A 
ENDROOT
TORSDOF 0
ENDMDL
