MODEL 1
REMARK minimizedAffinity 2.86930442
REMARK minimizedRMSD -1
REMARK  0 active torsions:
REMARK  status: ('A' for Active; 'I' for Inactive)
ROOT
ATOM      1  C1  BNZ d   1       3.626   5.640  -2.416  0.00  0.00     0.000 A 
ATOM      2  C2  BNZ d   1       4.810   5.660  -1.727  0.00  0.00     0.000 A 
ATOM      3  C3  BNZ d   1       5.995   5.859  -2.377  0.00  0.00     0.000 A 
ATOM      4  C4  BNZ d   1       6.000   5.998  -3.719  0.00  0.00     0.000 A 
ATOM      5  C5  BNZ d   1       4.816   5.971  -4.429  0.00  0.00     0.000 A 
ATOM      6  C6  BNZ d   1       3.621   5.809  -3.766  0.00  0.00     0.000 A 
ENDROOT
TORSDOF 0
ENDMDL
