MODEL 1
REMARK minimizedAffinity 3.64132905
REMARK minimizedRMSD -1
REMARK  0 active torsions:
REMARK  status: ('A' for Active; 'I' for Inactive)
ROOT
ATOM      1  C1  BNZ d   1       3.841   6.000  -2.498  0.00  0.00     0.000 A 
ATOM      2  C2  BNZ d   1       3.291   5.076  -3.346  0.00  0.00     0.000 A 
ATOM      3  C3  BNZ d   1       4.073   4.138  -3.961  0.00  0.00     0.000 A 
ATOM      4  C4  BNZ d   1       5.406   4.150  -3.758  0.00  0.00     0.000 A 
ATOM      5  C5  BNZ d   1       5.976   5.082  -2.914  0.00  0.00     0.000 A 
ATOM      6  C6  BNZ d   1       5.182   6.000  -2.266  0.00  0.00     0.000 A 
ENDROOT
TORSDOF 0
ENDMDL
