MODEL 1
REMARK minimizedAffinity 3.04747629
REMARK minimizedRMSD -1
REMARK  0 active torsions:
REMARK  status: ('A' for Active; 'I' for Inactive)
ROOT
ATOM      1  C1  BNZ d   1      -0.638  -1.906  -1.247  0.00  0.00     0.000 A 
ATOM      2  C2  BNZ d   1       0.478  -1.394  -1.852  0.00  0.00     0.000 A 
ATOM      3  C3  BNZ d   1       0.946  -1.924  -3.023  0.00  0.00     0.000 A 
ATOM      4  C4  BNZ d   1       0.320  -2.989  -3.565  0.00  0.00     0.000 A 
ATOM      5  C5  BNZ d   1      -0.802  -3.523  -2.962  0.00  0.00     0.000 A 
ATOM      6  C6  BNZ d   1      -1.292  -2.962  -1.804  0.00  0.00     0.000 A 
ENDROOT
TORSDOF 0
ENDMDL
