MODEL 1
REMARK minimizedAffinity 0.142857835
REMARK minimizedRMSD -1
REMARK  0 active torsions:
REMARK  status: ('A' for Active; 'I' for Inactive)
ROOT
ATOM      1  C1  BNZ d   1       5.747   5.037  -2.913  0.00  0.00     0.000 A 
ATOM      2  C2  BNZ d   1       4.878   5.969  -3.414  0.00  0.00     0.000 A 
ATOM      3  C3  BNZ d   1       4.228   5.755  -4.597  0.00  0.00     0.000 A 
ATOM      4  C4  BNZ d   1       4.478   4.630  -5.297  0.00  0.00     0.000 A 
ATOM      5  C5  BNZ d   1       5.359   3.685  -4.810  0.00  0.00     0.000 A 
ATOM      6  C6  BNZ d   1       5.982   3.886  -3.599  0.00  0.00     0.000 A 
ENDROOT
TORSDOF 0
ENDMDL
