MODEL 1
REMARK minimizedAffinity 0.439637095
REMARK minimizedRMSD -1
REMARK  0 active torsions:
REMARK  status: ('A' for Active; 'I' for Inactive)
ROOT
ATOM      1  C1  BNZ d   1      -0.492  -4.200  -3.038  0.00  0.00     0.000 A 
ATOM      2  C2  BNZ d   1      -0.664  -4.233  -1.679  0.00  0.00     0.000 A 
ATOM      3  C3  BNZ d   1      -0.568  -3.092  -0.933  0.00  0.00     0.000 A 
ATOM      4  C4  BNZ d   1      -0.261  -1.927  -1.539  0.00  0.00     0.000 A 
ATOM      5  C5  BNZ d   1      -0.075  -1.879  -2.907  0.00  0.00     0.000 A 
ATOM      6  C6  BNZ d   1      -0.211  -3.022  -3.660  0.00  0.00     0.000 A 
ENDROOT
TORSDOF 0
ENDMDL
