MODEL 1
REMARK minimizedAffinity -3.18659735
REMARK minimizedRMSD -1
REMARK  0 active torsions:
REMARK  status: ('A' for Active; 'I' for Inactive)
ROOT
ATOM      1  C1  BNZ d   1       6.000   4.858  -4.854  0.00  0.00     0.000 A 
ATOM      2  C2  BNZ d   1       6.000   5.625  -3.720  0.00  0.00     0.000 A 
ATOM      3  C3  BNZ d   1       5.045   5.451  -2.757  0.00  0.00     0.000 A 
ATOM      4  C4  BNZ d   1       4.070   4.540  -2.948  0.00  0.00     0.000 A 
ATOM      5  C5  BNZ d   1       4.050   3.765  -4.091  0.00  0.00     0.000 A 
ATOM      6  C6  BNZ d   1       5.035   3.916  -5.040  0.00  0.00     0.000 A 
ENDROOT
TORSDOF 0
ENDMDL
