MODEL 1
REMARK minimizedAffinity 3.34248829
REMARK minimizedRMSD -1
REMARK  0 active torsions:
REMARK  status: ('A' for Active; 'I' for Inactive)
ROOT
ATOM      1  C1  BNZ d   1       3.641   5.054  -2.687  0.00  0.00     0.000 A 
ATOM      2  C2  BNZ d   1       3.660   4.499  -3.939  0.00  0.00     0.000 A 
ATOM      3  C3  BNZ d   1       4.839   4.131  -4.524  0.00  0.00     0.000 A 
ATOM      4  C4  BNZ d   1       6.000   4.356  -3.875  0.00  0.00     0.000 A 
ATOM      5  C5  BNZ d   1       5.998   4.923  -2.616  0.00  0.00     0.000 A 
ATOM      6  C6  BNZ d   1       4.806   5.256  -2.014  0.00  0.00     0.000 A 
ENDROOT
TORSDOF 0
ENDMDL
