MODEL 1
REMARK minimizedAffinity -2.80552864
REMARK minimizedRMSD -1
REMARK  0 active torsions:
REMARK  status: ('A' for Active; 'I' for Inactive)
ROOT
ATOM      1  C1  BNZ d   1       5.999   3.734  -2.295  0.00  0.00     0.000 A 
ATOM      2  C2  BNZ d   1       5.550   3.750  -3.588  0.00  0.00     0.000 A 
ATOM      3  C3  BNZ d   1       5.031   4.890  -4.135  0.00  0.00     0.000 A 
ATOM      4  C4  BNZ d   1       4.924   6.000  -3.376  0.00  0.00     0.000 A 
ATOM      5  C5  BNZ d   1       5.364   5.997  -2.068  0.00  0.00     0.000 A 
ATOM      6  C6  BNZ d   1       5.922   4.859  -1.533  0.00  0.00     0.000 A 
ENDROOT
TORSDOF 0
ENDMDL
