MODEL 1
REMARK minimizedAffinity -3.47084069
REMARK minimizedRMSD -1
REMARK  0 active torsions:
REMARK  status: ('A' for Active; 'I' for Inactive)
ROOT
ATOM      1  C1  BNZ d   1       4.090   5.251  -4.217  0.00  0.00     0.000 A 
ATOM      2  C2  BNZ d   1       4.124   5.867  -2.995  0.00  0.00     0.000 A 
ATOM      3  C3  BNZ d   1       5.091   5.556  -2.080  0.00  0.00     0.000 A 
ATOM      4  C4  BNZ d   1       5.998   4.602  -2.373  0.00  0.00     0.000 A 
ATOM      5  C5  BNZ d   1       5.972   3.965  -3.598  0.00  0.00     0.000 A 
ATOM      6  C6  BNZ d   1       5.021   4.309  -4.531  0.00  0.00     0.000 A 
ENDROOT
TORSDOF 0
ENDMDL
