MODEL 1
REMARK minimizedAffinity 0.185832754
REMARK minimizedRMSD -1
REMARK  0 active torsions:
REMARK  status: ('A' for Active; 'I' for Inactive)
ROOT
ATOM      1  C1  BNZ d   1      -0.691  -2.124  -0.369  0.00  0.00     0.000 A 
ATOM      2  C2  BNZ d   1       0.434  -2.419  -1.092  0.00  0.00     0.000 A 
ATOM      3  C3  BNZ d   1       0.404  -2.430  -2.458  0.00  0.00     0.000 A 
ATOM      4  C4  BNZ d   1      -0.757  -2.187  -3.099  0.00  0.00     0.000 A 
ATOM      5  C5  BNZ d   1      -1.902  -1.897  -2.384  0.00  0.00     0.000 A 
ATOM      6  C6  BNZ d   1      -1.860  -1.848  -1.009  0.00  0.00     0.000 A 
ENDROOT
TORSDOF 0
ENDMDL
