MODEL 1
REMARK minimizedAffinity -3.23844647
REMARK minimizedRMSD -1
REMARK  0 active torsions:
REMARK  status: ('A' for Active; 'I' for Inactive)
ROOT
ATOM      1  C1  BNZ d   1       5.997   4.869  -3.216  0.00  0.00     0.000 A 
ATOM      2  C2  BNZ d   1       4.840   5.212  -2.569  0.00  0.00     0.000 A 
ATOM      3  C3  BNZ d   1       3.623   4.847  -3.071  0.00  0.00     0.000 A 
ATOM      4  C4  BNZ d   1       3.562   4.174  -4.238  0.00  0.00     0.000 A 
ATOM      5  C5  BNZ d   1       4.719   3.829  -4.908  0.00  0.00     0.000 A 
ATOM      6  C6  BNZ d   1       5.944   4.164  -4.379  0.00  0.00     0.000 A 
ENDROOT
TORSDOF 0
ENDMDL
