MODEL 1
REMARK minimizedAffinity 12.2554283
REMARK minimizedRMSD -1
REMARK  1 active torsions:
REMARK  status: ('A' for Active; 'I' for Inactive)
REMARK    1  A    between atoms: N_2  and  C1_3 
ROOT
ATOM      1  C1  UNL d   1       2.173   0.666   3.481  0.00  0.00     0.143 A 
ATOM      2  C2  UNL d   1       2.086  -0.147   2.345  0.00  0.00    -0.057 A 
ATOM      3  C3  UNL d   1       0.885  -0.772   1.990  0.00  0.00     0.033 A 
ATOM      4  C4  UNL d   1      -0.248  -0.618   2.783  0.00  0.00    -0.042 A 
ATOM      5  C5  UNL d   1      -0.178   0.165   3.929  0.00  0.00     0.033 A 
ATOM      6  C6  UNL d   1       1.022   0.792   4.275  0.00  0.00    -0.057 A 
ENDROOT
BRANCH   1   7
ATOM      7  N   UNL d   1       3.363   1.234   3.941  0.00  0.00    -0.732 N 
ATOM      8  C   UNL d   1       4.099   2.169   3.118  0.00  0.00     0.284 C 
ATOM      9  H3  UNL d   1       3.314   1.494   4.924  0.00  0.00     0.395 HD
ENDBRANCH   1   7
TORSDOF 1
ENDMDL
