MODEL 1
REMARK minimizedAffinity 11.4502077
REMARK minimizedRMSD -1
REMARK  1 active torsions:
REMARK  status: ('A' for Active; 'I' for Inactive)
REMARK    1  A    between atoms: N_2  and  C1_3 
ROOT
ATOM      1  C1  UNL d   1       1.272  -3.048  -5.553  0.00  0.00     0.143 A 
ATOM      2  C2  UNL d   1       2.402  -2.585  -4.870  0.00  0.00    -0.057 A 
ATOM      3  C3  UNL d   1       2.545  -1.233  -4.536  0.00  0.00     0.033 A 
ATOM      4  C4  UNL d   1       1.572  -0.311  -4.908  0.00  0.00    -0.042 A 
ATOM      5  C5  UNL d   1       0.453  -0.745  -5.610  0.00  0.00     0.033 A 
ATOM      6  C6  UNL d   1       0.312  -2.098  -5.934  0.00  0.00    -0.057 A 
ENDROOT
BRANCH   1   7
ATOM      7  N   UNL d   1       1.118  -4.362  -6.000  0.00  0.00    -0.732 N 
ATOM      8  C   UNL d   1       2.239  -5.278  -6.000  0.00  0.00     0.284 C 
ATOM      9  H3  UNL d   1       0.242  -4.778  -5.689  0.00  0.00     0.395 HD
ENDBRANCH   1   7
TORSDOF 1
ENDMDL
