MODEL 1
REMARK minimizedAffinity 7.07461214
REMARK minimizedRMSD -1
REMARK  1 active torsions:
REMARK  status: ('A' for Active; 'I' for Inactive)
REMARK    1  A    between atoms: N_2  and  C1_3 
ROOT
ATOM      1  C1  UNL d   1       4.883   3.462   4.899  0.00  0.00     0.143 A 
ATOM      2  C2  UNL d   1       3.900   3.752   5.851  0.00  0.00    -0.057 A 
ATOM      3  C3  UNL d   1       3.272   5.003   5.888  0.00  0.00     0.033 A 
ATOM      4  C4  UNL d   1       3.639   5.999   4.989  0.00  0.00    -0.042 A 
ATOM      5  C5  UNL d   1       4.631   5.741   4.051  0.00  0.00     0.033 A 
ATOM      6  C6  UNL d   1       5.250   4.488   4.014  0.00  0.00    -0.057 A 
ENDROOT
BRANCH   1   7
ATOM      7  N   UNL d   1       5.613   2.271   4.873  0.00  0.00    -0.732 N 
ATOM      8  C   UNL d   1       5.705   1.488   3.659  0.00  0.00     0.284 C 
ATOM      9  H3  UNL d   1       6.487   2.340   5.390  0.00  0.00     0.395 HD
ENDBRANCH   1   7
TORSDOF 1
ENDMDL
