MODEL 1
REMARK minimizedAffinity 4.75410175
REMARK minimizedRMSD -1
REMARK  1 active torsions:
REMARK  status: ('A' for Active; 'I' for Inactive)
REMARK    1  A    between atoms: N_2  and  C1_3 
ROOT
ATOM      1  C1  UNL d   1       1.006  -1.935   3.870  0.00  0.00     0.143 A 
ATOM      2  C2  UNL d   1      -0.286  -1.900   3.336  0.00  0.00    -0.057 A 
ATOM      3  C3  UNL d   1      -0.792  -0.742   2.734  0.00  0.00     0.033 A 
ATOM      4  C4  UNL d   1      -0.021   0.415   2.680  0.00  0.00    -0.042 A 
ATOM      5  C5  UNL d   1       1.257   0.411   3.227  0.00  0.00     0.033 A 
ATOM      6  C6  UNL d   1       1.759  -0.751   3.821  0.00  0.00    -0.057 A 
ENDROOT
BRANCH   1   7
ATOM      7  N   UNL d   1       1.530  -3.025   4.569  0.00  0.00    -0.732 N 
ATOM      8  C   UNL d   1       2.495  -2.827   5.628  0.00  0.00     0.284 C 
ATOM      9  H3  UNL d   1       0.825  -3.729   4.775  0.00  0.00     0.395 HD
ENDBRANCH   1   7
TORSDOF 1
ENDMDL
