MODEL 1
REMARK minimizedAffinity -3.50412297
REMARK minimizedRMSD -1
REMARK  2 active torsions:
REMARK  status: ('A' for Active; 'I' for Inactive)
REMARK    1  A    between atoms: C1_2  and  C2_3 
REMARK    2  A    between atoms: C2_3  and  C3_4 
ROOT
ATOM      1  C3  UNL d   1       1.536  -1.304  -0.134  0.00  0.00    -0.075 A 
ATOM      2  C4  UNL d   1       1.102  -0.862   1.124  0.00  0.00     0.002 A 
ATOM      3  C5  UNL d   1      -0.156  -0.277   1.275  0.00  0.00     0.002 A 
ATOM      4  C6  UNL d   1      -0.990  -0.119   0.170  0.00  0.00    -0.004 A 
ATOM      5  C7  UNL d   1      -0.563  -0.539  -1.087  0.00  0.00     0.002 A 
ATOM      6  C8  UNL d   1       0.694  -1.128  -1.240  0.00  0.00     0.002 A 
ENDROOT
BRANCH   1   7
ATOM      7  C2  UNL d   1       2.884  -1.964  -0.298  0.00  0.00     0.056 C 
BRANCH   7   8
ATOM      8  C1  UNL d   1       3.987  -1.354   0.573  0.00  0.00     0.007 C 
ATOM      9  C   UNL d   1       5.272  -1.072  -0.196  0.00  0.00     0.009 C 
ENDBRANCH   7   8
ENDBRANCH   1   7
TORSDOF 2
ENDMDL
