MODEL 1
REMARK minimizedAffinity 0.173841134
REMARK minimizedRMSD -1
REMARK  2 active torsions:
REMARK  status: ('A' for Active; 'I' for Inactive)
REMARK    1  A    between atoms: C1_2  and  C2_3 
REMARK    2  A    between atoms: C2_3  and  C3_4 
ROOT
ATOM      1  C3  UNL d   1       0.512  -1.390   1.502  0.00  0.00    -0.075 A 
ATOM      2  C4  UNL d   1      -0.521  -1.198   2.431  0.00  0.00     0.002 A 
ATOM      3  C5  UNL d   1      -1.677  -0.505   2.071  0.00  0.00     0.002 A 
ATOM      4  C6  UNL d   1      -1.811   0.014   0.785  0.00  0.00    -0.004 A 
ATOM      5  C7  UNL d   1      -0.784  -0.157  -0.141  0.00  0.00     0.002 A 
ATOM      6  C8  UNL d   1       0.372  -0.854   0.215  0.00  0.00     0.002 A 
ENDROOT
BRANCH   1   7
ATOM      7  C2  UNL d   1       1.752  -2.166   1.876  0.00  0.00     0.056 C 
BRANCH   7   8
ATOM      8  C1  UNL d   1       1.670  -3.663   1.561  0.00  0.00     0.007 C 
ATOM      9  C   UNL d   1       2.948  -4.218   0.945  0.00  0.00     0.009 C 
ENDBRANCH   7   8
ENDBRANCH   1   7
TORSDOF 2
ENDMDL
