MODEL 1
REMARK minimizedAffinity -3.31961203
REMARK minimizedRMSD -1
REMARK  2 active torsions:
REMARK  status: ('A' for Active; 'I' for Inactive)
REMARK    1  A    between atoms: C1_2  and  C2_3 
REMARK    2  A    between atoms: C2_3  and  C3_4 
ROOT
ATOM      1  C3  UNL d   1       4.155   5.982   3.766  0.00  0.00    -0.075 A 
ATOM      2  C4  UNL d   1       2.932   5.963   3.079  0.00  0.00     0.002 A 
ATOM      3  C5  UNL d   1       1.726   5.976   3.780  0.00  0.00     0.002 A 
ATOM      4  C6  UNL d   1       1.726   5.998   5.173  0.00  0.00    -0.004 A 
ATOM      5  C7  UNL d   1       2.935   6.000   5.866  0.00  0.00     0.002 A 
ATOM      6  C8  UNL d   1       4.143   5.991   5.167  0.00  0.00     0.002 A 
ENDROOT
BRANCH   1   7
ATOM      7  C2  UNL d   1       5.464   5.998   3.013  0.00  0.00     0.056 C 
BRANCH   7   8
ATOM      8  C1  UNL d   1       5.746   4.713   2.227  0.00  0.00     0.007 C 
ATOM      9  C   UNL d   1       5.396   4.825   0.749  0.00  0.00     0.009 C 
ENDBRANCH   7   8
ENDBRANCH   1   7
TORSDOF 2
ENDMDL
