MODEL 1
REMARK minimizedAffinity 2.74654698
REMARK minimizedRMSD -1
REMARK  2 active torsions:
REMARK  status: ('A' for Active; 'I' for Inactive)
REMARK    1  A    between atoms: C1_2  and  C2_3 
REMARK    2  A    between atoms: C2_3  and  C3_4 
ROOT
ATOM      1  C3  UNL d   1      -1.175  -0.526   0.477  0.00  0.00    -0.075 A 
ATOM      2  C4  UNL d   1      -0.295  -0.822  -0.575  0.00  0.00     0.002 A 
ATOM      3  C5  UNL d   1       1.051  -1.085  -0.319  0.00  0.00     0.002 A 
ATOM      4  C6  UNL d   1       1.535  -1.045   0.987  0.00  0.00    -0.004 A 
ATOM      5  C7  UNL d   1       0.674  -0.737   2.037  0.00  0.00     0.002 A 
ATOM      6  C8  UNL d   1      -0.675  -0.478   1.784  0.00  0.00     0.002 A 
ENDROOT
BRANCH   1   7
ATOM      7  C2  UNL d   1      -2.639  -0.270   0.210  0.00  0.00     0.056 C 
BRANCH   7   8
ATOM      8  C1  UNL d   1      -3.560  -0.637   1.378  0.00  0.00     0.007 C 
ATOM      9  C   UNL d   1      -5.003  -0.878   0.954  0.00  0.00     0.009 C 
ENDBRANCH   7   8
ENDBRANCH   1   7
TORSDOF 2
ENDMDL
