MODEL 1
REMARK minimizedAffinity 1.91730869
REMARK minimizedRMSD -1
REMARK  2 active torsions:
REMARK  status: ('A' for Active; 'I' for Inactive)
REMARK    1  A    between atoms: C1_2  and  C2_3 
REMARK    2  A    between atoms: C2_3  and  C3_4 
ROOT
ATOM      1  C3  UNL d   1       2.017  -0.312  -0.861  0.00  0.00    -0.075 A 
ATOM      2  C4  UNL d   1       3.218  -0.334  -0.137  0.00  0.00     0.002 A 
ATOM      3  C5  UNL d   1       4.305   0.441  -0.543  0.00  0.00     0.002 A 
ATOM      4  C6  UNL d   1       4.209   1.239  -1.680  0.00  0.00    -0.004 A 
ATOM      5  C7  UNL d   1       3.026   1.257  -2.417  0.00  0.00     0.002 A 
ATOM      6  C8  UNL d   1       1.936   0.485  -2.011  0.00  0.00     0.002 A 
ENDROOT
BRANCH   1   7
ATOM      7  C2  UNL d   1       0.828  -1.126  -0.411  0.00  0.00     0.056 C 
BRANCH   7   8
ATOM      8  C1  UNL d   1       0.228  -0.668   0.923  0.00  0.00     0.007 C 
ATOM      9  C   UNL d   1      -1.294  -0.711   0.943  0.00  0.00     0.009 C 
ENDBRANCH   7   8
ENDBRANCH   1   7
TORSDOF 2
ENDMDL
