MODEL 1
REMARK minimizedAffinity 2.0913949
REMARK minimizedRMSD -1
REMARK  2 active torsions:
REMARK  status: ('A' for Active; 'I' for Inactive)
REMARK    1  A    between atoms: C1_2  and  C2_3 
REMARK    2  A    between atoms: C2_3  and  C3_4 
ROOT
ATOM      1  C3  UNL d   1       2.801   5.392   3.680  0.00  0.00    -0.075 A 
ATOM      2  C4  UNL d   1       1.514   4.837   3.635  0.00  0.00     0.002 A 
ATOM      3  C5  UNL d   1       0.686   4.876   4.758  0.00  0.00     0.002 A 
ATOM      4  C6  UNL d   1       1.137   5.460   5.939  0.00  0.00    -0.004 A 
ATOM      5  C7  UNL d   1       2.420   6.000   6.000  0.00  0.00     0.002 A 
ATOM      6  C8  UNL d   1       3.249   5.966   4.877  0.00  0.00     0.002 A 
ENDROOT
BRANCH   1   7
ATOM      7  C2  UNL d   1       3.691   5.378   2.460  0.00  0.00     0.056 C 
BRANCH   7   8
ATOM      8  C1  UNL d   1       3.771   4.017   1.761  0.00  0.00     0.007 C 
ATOM      9  C   UNL d   1       3.679   4.114   0.244  0.00  0.00     0.009 C 
ENDBRANCH   7   8
ENDBRANCH   1   7
TORSDOF 2
ENDMDL
