MODEL 1
REMARK minimizedAffinity -0.641631305
REMARK minimizedRMSD -1
REMARK  2 active torsions:
REMARK  status: ('A' for Active; 'I' for Inactive)
REMARK    1  A    between atoms: C1_2  and  C2_3 
REMARK    2  A    between atoms: C2_3  and  C3_4 
ROOT
ATOM      1  C3  UNL d   1       1.128  -1.610   0.217  0.00  0.00    -0.075 A 
ATOM      2  C4  UNL d   1       0.519  -1.395   1.462  0.00  0.00     0.002 A 
ATOM      3  C5  UNL d   1      -0.703  -0.727   1.547  0.00  0.00     0.002 A 
ATOM      4  C6  UNL d   1      -1.325  -0.257   0.393  0.00  0.00    -0.004 A 
ATOM      5  C7  UNL d   1      -0.721  -0.449  -0.848  0.00  0.00     0.002 A 
ATOM      6  C8  UNL d   1       0.499  -1.122  -0.936  0.00  0.00     0.002 A 
ENDROOT
BRANCH   1   7
ATOM      7  C2  UNL d   1       2.435  -2.358   0.116  0.00  0.00     0.056 C 
BRANCH   7   8
ATOM      8  C1  UNL d   1       2.433  -3.717   0.825  0.00  0.00     0.007 C 
ATOM      9  C   UNL d   1       3.770  -4.441   0.739  0.00  0.00     0.009 C 
ENDBRANCH   7   8
ENDBRANCH   1   7
TORSDOF 2
ENDMDL
