MODEL 1
REMARK minimizedAffinity -0.101400636
REMARK minimizedRMSD -1
REMARK  2 active torsions:
REMARK  status: ('A' for Active; 'I' for Inactive)
REMARK    1  A    between atoms: C1_2  and  C2_3 
REMARK    2  A    between atoms: C2_3  and  C3_4 
ROOT
ATOM      1  C3  UNL d   1       2.608   5.189   3.364  0.00  0.00    -0.075 A 
ATOM      2  C4  UNL d   1       3.539   5.999   2.697  0.00  0.00     0.002 A 
ATOM      3  C5  UNL d   1       4.607   5.427   2.004  0.00  0.00     0.002 A 
ATOM      4  C6  UNL d   1       4.762   4.043   1.978  0.00  0.00    -0.004 A 
ATOM      5  C7  UNL d   1       3.853   3.230   2.651  0.00  0.00     0.002 A 
ATOM      6  C8  UNL d   1       2.781   3.799   3.341  0.00  0.00     0.002 A 
ENDROOT
BRANCH   1   7
ATOM      7  C2  UNL d   1       1.434   5.800   4.091  0.00  0.00     0.056 C 
BRANCH   7   8
ATOM      8  C1  UNL d   1       1.665   5.999   5.593  0.00  0.00     0.007 C 
ATOM      9  C   UNL d   1       3.138   5.995   5.979  0.00  0.00     0.009 C 
ENDBRANCH   7   8
ENDBRANCH   1   7
TORSDOF 2
ENDMDL
