MODEL 1
REMARK minimizedAffinity -0.607505739
REMARK minimizedRMSD -1
REMARK  1 active torsions:
REMARK  status: ('A' for Active; 'I' for Inactive)
REMARK    1  A    between atoms: N_2  and  C1_3 
ROOT
ATOM      1  C1  UNL d   1      -0.730  -0.353   0.097  0.00  0.00     0.143 A 
ATOM      2  C2  UNL d   1      -1.824  -1.175  -0.193  0.00  0.00    -0.057 A 
ATOM      3  C3  UNL d   1      -3.094  -0.637  -0.432  0.00  0.00     0.033 A 
ATOM      4  C4  UNL d   1      -3.300   0.737  -0.356  0.00  0.00    -0.042 A 
ATOM      5  C5  UNL d   1      -2.232   1.572  -0.045  0.00  0.00     0.033 A 
ATOM      6  C6  UNL d   1      -0.965   1.028   0.186  0.00  0.00    -0.057 A 
ENDROOT
BRANCH   1   7
ATOM      7  N   UNL d   1       0.535  -0.834   0.441  0.00  0.00    -0.732 N 
ATOM      8  C   UNL d   1       1.150  -0.459   1.697  0.00  0.00     0.284 C 
ATOM      9  H3  UNL d   1       0.659  -1.813   0.193  0.00  0.00     0.395 HD
ENDBRANCH   1   7
TORSDOF 1
ENDMDL
