MODEL 1
REMARK minimizedAffinity -3.74815702
REMARK minimizedRMSD -1
REMARK  1 active torsions:
REMARK  status: ('A' for Active; 'I' for Inactive)
REMARK    1  A    between atoms: N_2  and  C1_3 
ROOT
ATOM      1  C1  UNL d   1       0.253  -0.116   0.108  0.00  0.00     0.143 A 
ATOM      2  C2  UNL d   1       0.854   0.527   1.196  0.00  0.00    -0.057 A 
ATOM      3  C3  UNL d   1       0.085   1.158   2.181  0.00  0.00     0.033 A 
ATOM      4  C4  UNL d   1      -1.302   1.183   2.081  0.00  0.00    -0.042 A 
ATOM      5  C5  UNL d   1      -1.920   0.571   0.996  0.00  0.00     0.033 A 
ATOM      6  C6  UNL d   1      -1.147  -0.063   0.018  0.00  0.00    -0.057 A 
ENDROOT
BRANCH   1   7
ATOM      7  N   UNL d   1       0.965  -0.676  -0.955  0.00  0.00    -0.732 N 
ATOM      8  C   UNL d   1       0.631  -0.342  -2.323  0.00  0.00     0.284 C 
ATOM      9  H3  UNL d   1       1.964  -0.724  -0.771  0.00  0.00     0.395 HD
ENDBRANCH   1   7
TORSDOF 1
ENDMDL
