MODEL 1
REMARK minimizedAffinity -0.730514169
REMARK minimizedRMSD -1
REMARK  1 active torsions:
REMARK  status: ('A' for Active; 'I' for Inactive)
REMARK    1  A    between atoms: N_2  and  C1_3 
ROOT
ATOM      1  C1  UNL d   1       0.083  -0.702  -2.246  0.00  0.00     0.143 A 
ATOM      2  C2  UNL d   1      -0.937  -0.605  -3.198  0.00  0.00    -0.057 A 
ATOM      3  C3  UNL d   1      -0.749   0.096  -4.395  0.00  0.00     0.033 A 
ATOM      4  C4  UNL d   1       0.458   0.740  -4.649  0.00  0.00    -0.042 A 
ATOM      5  C5  UNL d   1       1.478   0.677  -3.705  0.00  0.00     0.033 A 
ATOM      6  C6  UNL d   1       1.286  -0.030  -2.515  0.00  0.00    -0.057 A 
ENDROOT
BRANCH   1   7
ATOM      7  N   UNL d   1      -0.076  -1.301  -0.994  0.00  0.00    -0.732 N 
ATOM      8  C   UNL d   1      -0.925  -0.696   0.010  0.00  0.00     0.284 C 
ATOM      9  H3  UNL d   1      -0.162  -2.313  -1.056  0.00  0.00     0.395 HD
ENDBRANCH   1   7
TORSDOF 1
ENDMDL
