MODEL 1
REMARK minimizedAffinity -3.49557495
REMARK minimizedRMSD -1
REMARK  1 active torsions:
REMARK  status: ('A' for Active; 'I' for Inactive)
REMARK    1  A    between atoms: N_2  and  C1_3 
ROOT
ATOM      1  C1  UNL d   1       0.107  -0.625  -1.926  0.00  0.00     0.143 A 
ATOM      2  C2  UNL d   1      -0.733  -0.545  -3.041  0.00  0.00    -0.057 A 
ATOM      3  C3  UNL d   1      -0.272  -0.038  -4.262  0.00  0.00     0.033 A 
ATOM      4  C4  UNL d   1       1.033   0.427  -4.381  0.00  0.00    -0.042 A 
ATOM      5  C5  UNL d   1       1.879   0.380  -3.278  0.00  0.00     0.033 A 
ATOM      6  C6  UNL d   1       1.415  -0.134  -2.064  0.00  0.00    -0.057 A 
ENDROOT
BRANCH   1   7
ATOM      7  N   UNL d   1      -0.320  -1.028  -0.658  0.00  0.00    -0.732 N 
ATOM      8  C   UNL d   1      -0.944  -0.084   0.244  0.00  0.00     0.284 C 
ATOM      9  H3  UNL d   1      -0.760  -1.945  -0.669  0.00  0.00     0.395 HD
ENDBRANCH   1   7
TORSDOF 1
ENDMDL
