MODEL 1
REMARK minimizedAffinity -2.05079794
REMARK minimizedRMSD -1
REMARK  1 active torsions:
REMARK  status: ('A' for Active; 'I' for Inactive)
REMARK    1  A    between atoms: N_2  and  C1_3 
ROOT
ATOM      1  C1  UNL d   1      -0.319   0.139  -1.132  0.00  0.00     0.143 A 
ATOM      2  C2  UNL d   1       0.739  -0.770  -1.023  0.00  0.00    -0.057 A 
ATOM      3  C3  UNL d   1       1.675  -0.922  -2.053  0.00  0.00     0.033 A 
ATOM      4  C4  UNL d   1       1.552  -0.186  -3.227  0.00  0.00    -0.042 A 
ATOM      5  C5  UNL d   1       0.494   0.706  -3.367  0.00  0.00     0.033 A 
ATOM      6  C6  UNL d   1      -0.433   0.858  -2.332  0.00  0.00    -0.057 A 
ENDROOT
BRANCH   1   7
ATOM      7  N   UNL d   1      -1.337   0.264  -0.184  0.00  0.00    -0.732 N 
ATOM      8  C   UNL d   1      -2.405  -0.711  -0.115  0.00  0.00     0.284 C 
ATOM      9  H3  UNL d   1      -0.988   0.563   0.724  0.00  0.00     0.395 HD
ENDBRANCH   1   7
TORSDOF 1
ENDMDL
