MODEL 1
REMARK minimizedAffinity -4.50225353
REMARK minimizedRMSD -1
REMARK  1 active torsions:
REMARK  status: ('A' for Active; 'I' for Inactive)
REMARK    1  A    between atoms: N_2  and  C1_3 
ROOT
ATOM      1  C1  UNL d   1       0.906  -0.004   0.863  0.00  0.00     0.143 A 
ATOM      2  C2  UNL d   1      -0.156  -0.513   0.107  0.00  0.00    -0.057 A 
ATOM      3  C3  UNL d   1      -1.486  -0.319   0.500  0.00  0.00     0.033 A 
ATOM      4  C4  UNL d   1      -1.777   0.364   1.676  0.00  0.00    -0.042 A 
ATOM      5  C5  UNL d   1      -0.737   0.857   2.457  0.00  0.00     0.033 A 
ATOM      6  C6  UNL d   1       0.588   0.666   2.055  0.00  0.00    -0.057 A 
ENDROOT
BRANCH   1   7
ATOM      7  N   UNL d   1       2.251  -0.248   0.578  0.00  0.00    -0.732 N 
ATOM      8  C   UNL d   1       3.158  -0.686   1.617  0.00  0.00     0.284 C 
ATOM      9  H3  UNL d   1       2.379  -0.722  -0.313  0.00  0.00     0.395 HD
ENDBRANCH   1   7
TORSDOF 1
ENDMDL
