MODEL 1
REMARK minimizedAffinity -2.7177093
REMARK minimizedRMSD -1
REMARK  0 active torsions:
REMARK  status: ('A' for Active; 'I' for Inactive)
ROOT
ATOM      1  C   UNL d   1       2.400   0.737   0.289  0.00  0.00     0.124 A 
ATOM      2  C1  UNL d   1       1.398   1.113  -0.595  0.00  0.00     0.062 A 
ATOM      3  C2  UNL d   1       0.123   0.568  -0.480  0.00  0.00     0.162 A 
ATOM      4  C3  UNL d   1      -0.159  -0.359   0.524  0.00  0.00    -0.034 A 
ATOM      5  C4  UNL d   1       0.854  -0.733   1.408  0.00  0.00     0.162 A 
ATOM      6  C5  UNL d   1       2.128  -0.185   1.289  0.00  0.00     0.062 A 
ATOM      7  F   UNL d   1       3.095  -0.549   2.144  0.00  0.00    -0.097 F 
ATOM      8  F1  UNL d   1       0.618  -1.621   2.385  0.00  0.00    -0.096 F 
ATOM      9  I   UNL d   1      -2.065  -1.176   0.699  0.00  0.00    -0.060 I 
ATOM     10  F2  UNL d   1      -0.826   0.949  -1.348  0.00  0.00    -0.096 F 
ATOM     11  F3  UNL d   1       1.659   2.003  -1.563  0.00  0.00    -0.097 F 
ATOM     12  F4  UNL d   1       3.627   1.263   0.175  0.00  0.00    -0.092 F 
ENDROOT
TORSDOF 0
ENDMDL
