MODEL 1
REMARK minimizedAffinity 5.74651432
REMARK minimizedRMSD -1
REMARK  0 active torsions:
REMARK  status: ('A' for Active; 'I' for Inactive)
ROOT
ATOM      1  C   UNL d   1       1.641   0.103   1.177  0.00  0.00     0.124 A 
ATOM      2  C1  UNL d   1       0.569  -0.774   1.076  0.00  0.00     0.062 A 
ATOM      3  C2  UNL d   1      -0.539  -0.438   0.303  0.00  0.00     0.162 A 
ATOM      4  C3  UNL d   1      -0.580   0.779  -0.376  0.00  0.00    -0.034 A 
ATOM      5  C4  UNL d   1       0.501   1.656  -0.269  0.00  0.00     0.162 A 
ATOM      6  C5  UNL d   1       1.606   1.316   0.505  0.00  0.00     0.062 A 
ATOM      7  F   UNL d   1       2.640   2.164   0.601  0.00  0.00    -0.097 F 
ATOM      8  F1  UNL d   1       0.493   2.835  -0.909  0.00  0.00    -0.096 F 
ATOM      9  I   UNL d   1      -2.235   1.285  -1.533  0.00  0.00    -0.060 I 
ATOM     10  F2  UNL d   1      -1.560  -1.304   0.223  0.00  0.00    -0.096 F 
ATOM     11  F3  UNL d   1       0.601  -1.946   1.725  0.00  0.00    -0.097 F 
ATOM     12  F4  UNL d   1       2.705  -0.222   1.922  0.00  0.00    -0.092 F 
ENDROOT
TORSDOF 0
ENDMDL
