MODEL 1
REMARK minimizedAffinity -4.47627831
REMARK minimizedRMSD -1
REMARK  0 active torsions:
REMARK  status: ('A' for Active; 'I' for Inactive)
ROOT
ATOM      1  C   UNL d   1       1.974  -1.209   1.003  0.00  0.00     0.124 A 
ATOM      2  C1  UNL d   1       2.140  -0.461  -0.155  0.00  0.00     0.062 A 
ATOM      3  C2  UNL d   1       1.043  -0.155  -0.954  0.00  0.00     0.162 A 
ATOM      4  C3  UNL d   1      -0.232  -0.596  -0.598  0.00  0.00    -0.034 A 
ATOM      5  C4  UNL d   1      -0.391  -1.348   0.567  0.00  0.00     0.162 A 
ATOM      6  C5  UNL d   1       0.709  -1.651   1.363  0.00  0.00     0.062 A 
ATOM      7  F   UNL d   1       0.546  -2.373   2.481  0.00  0.00    -0.097 F 
ATOM      8  F1  UNL d   1      -1.603  -1.787   0.939  0.00  0.00    -0.096 F 
ATOM      9  I   UNL d   1      -1.876  -0.140  -1.791  0.00  0.00    -0.060 I 
ATOM     10  F2  UNL d   1       1.233   0.569  -2.067  0.00  0.00    -0.096 F 
ATOM     11  F3  UNL d   1       3.362  -0.033  -0.505  0.00  0.00    -0.097 F 
ATOM     12  F4  UNL d   1       3.032  -1.502   1.769  0.00  0.00    -0.092 F 
ENDROOT
TORSDOF 0
ENDMDL
