MODEL 1
REMARK minimizedAffinity -1.58582747
REMARK minimizedRMSD -1
REMARK  0 active torsions:
REMARK  status: ('A' for Active; 'I' for Inactive)
ROOT
ATOM      1  C   UNL d   1       1.508   0.657   0.512  0.00  0.00     0.124 A 
ATOM      2  C1  UNL d   1       0.231   1.166   0.322  0.00  0.00     0.062 A 
ATOM      3  C2  UNL d   1      -0.686   0.479  -0.468  0.00  0.00     0.162 A 
ATOM      4  C3  UNL d   1      -0.330  -0.726  -1.074  0.00  0.00    -0.034 A 
ATOM      5  C4  UNL d   1       0.956  -1.231  -0.879  0.00  0.00     0.162 A 
ATOM      6  C5  UNL d   1       1.869  -0.541  -0.089  0.00  0.00     0.062 A 
ATOM      7  F   UNL d   1       3.103  -1.035   0.093  0.00  0.00    -0.097 F 
ATOM      8  F1  UNL d   1       1.331  -2.387  -1.447  0.00  0.00    -0.096 F 
ATOM      9  I   UNL d   1      -1.699  -1.756  -2.256  0.00  0.00    -0.060 I 
ATOM     10  F2  UNL d   1      -1.913   0.995  -0.634  0.00  0.00    -0.096 F 
ATOM     11  F3  UNL d   1      -0.120   2.324   0.900  0.00  0.00    -0.097 F 
ATOM     12  F4  UNL d   1       2.389   1.320   1.272  0.00  0.00    -0.092 F 
ENDROOT
TORSDOF 0
ENDMDL
