MODEL 1
REMARK minimizedAffinity 12.0249243
REMARK minimizedRMSD -1
REMARK  0 active torsions:
REMARK  status: ('A' for Active; 'I' for Inactive)
ROOT
ATOM      1  O1  BZF d   1       4.433  -5.882   3.744  0.00  0.00    -0.204 OA
ATOM      2  C2  BZF d   1       4.394  -5.656   2.381  0.00  0.00     0.174 A 
ATOM      3  C3  BZF d   1       4.823  -4.410   2.091  0.00  0.00    -0.012 A 
ATOM      4  C3A BZF d   1       5.237  -3.854   3.342  0.00  0.00    -0.107 A 
ATOM      5  C4  BZF d   1       5.771  -2.650   3.703  0.00  0.00     0.055 A 
ATOM      6  C5  BZF d   1       5.995  -2.394   5.019  0.00  0.00    -0.016 A 
ATOM      7  C6  BZF d   1       5.692  -3.316   5.999  0.00  0.00     0.022 A 
ATOM      8  C7  BZF d   1       5.165  -4.526   5.689  0.00  0.00     0.029 A 
ATOM      9  C7A BZF d   1       4.969  -4.800   4.358  0.00  0.00     0.058 A 
ENDROOT
TORSDOF 0
ENDMDL
