MODEL 1
REMARK minimizedAffinity -0.641554117
REMARK minimizedRMSD -1
REMARK  0 active torsions:
REMARK  status: ('A' for Active; 'I' for Inactive)
ROOT
ATOM      1  O1  BZF d   1       3.582   5.460  -5.959  0.00  0.00    -0.204 OA
ATOM      2  C2  BZF d   1       2.303   5.980  -5.948  0.00  0.00     0.174 A 
ATOM      3  C3  BZF d   1       1.385   4.993  -5.999  0.00  0.00    -0.012 A 
ATOM      4  C3A BZF d   1       2.136   3.777  -5.953  0.00  0.00    -0.107 A 
ATOM      5  C4  BZF d   1       1.787   2.457  -5.955  0.00  0.00     0.055 A 
ATOM      6  C5  BZF d   1       2.766   1.515  -5.976  0.00  0.00    -0.016 A 
ATOM      7  C6  BZF d   1       4.103   1.857  -5.999  0.00  0.00     0.022 A 
ATOM      8  C7  BZF d   1       4.498   3.153  -5.992  0.00  0.00     0.029 A 
ATOM      9  C7A BZF d   1       3.511   4.107  -5.938  0.00  0.00     0.058 A 
ENDROOT
TORSDOF 0
ENDMDL
