MODEL 1
REMARK minimizedAffinity -3.20744085
REMARK minimizedRMSD -1
REMARK  0 active torsions:
REMARK  status: ('A' for Active; 'I' for Inactive)
ROOT
ATOM      1  O1  BZF d   1       5.979   2.722  -5.954  0.00  0.00    -0.204 OA
ATOM      2  C2  BZF d   1       5.270   1.536  -5.945  0.00  0.00     0.174 A 
ATOM      3  C3  BZF d   1       3.943   1.774  -5.902  0.00  0.00    -0.012 A 
ATOM      4  C3A BZF d   1       3.812   3.197  -5.975  0.00  0.00    -0.107 A 
ATOM      5  C4  BZF d   1       2.739   4.041  -5.991  0.00  0.00     0.055 A 
ATOM      6  C5  BZF d   1       2.955   5.383  -5.996  0.00  0.00    -0.016 A 
ATOM      7  C6  BZF d   1       4.229   5.914  -5.979  0.00  0.00     0.022 A 
ATOM      8  C7  BZF d   1       5.324   5.116  -5.968  0.00  0.00     0.029 A 
ATOM      9  C7A BZF d   1       5.109   3.759  -5.997  0.00  0.00     0.058 A 
ENDROOT
TORSDOF 0
ENDMDL
