MODEL 1
REMARK minimizedAffinity 2.2913785
REMARK minimizedRMSD -1
REMARK  0 active torsions:
REMARK  status: ('A' for Active; 'I' for Inactive)
ROOT
ATOM      1  O1  BZF d   1       1.716  -2.579   2.247  0.00  0.00    -0.204 OA
ATOM      2  C2  BZF d   1       1.120  -2.257   1.043  0.00  0.00     0.174 A 
ATOM      3  C3  BZF d   1       1.837  -2.743   0.009  0.00  0.00    -0.012 A 
ATOM      4  C3A BZF d   1       2.901  -3.489   0.607  0.00  0.00    -0.107 A 
ATOM      5  C4  BZF d   1       3.936  -4.221   0.099  0.00  0.00     0.055 A 
ATOM      6  C5  BZF d   1       4.843  -4.764   0.953  0.00  0.00    -0.016 A 
ATOM      7  C6  BZF d   1       4.749  -4.592   2.318  0.00  0.00     0.022 A 
ATOM      8  C7  BZF d   1       3.737  -3.879   2.869  0.00  0.00     0.029 A 
ATOM      9  C7A BZF d   1       2.800  -3.356   2.011  0.00  0.00     0.058 A 
ENDROOT
TORSDOF 0
ENDMDL
