MODEL 1
REMARK minimizedAffinity 17.7005253
REMARK minimizedRMSD -1
REMARK  0 active torsions:
REMARK  status: ('A' for Active; 'I' for Inactive)
ROOT
ATOM      1  O1  BZF d   1       5.484   3.074  -5.727  0.00  0.00    -0.204 OA
ATOM      2  C2  BZF d   1       5.885   4.395  -5.776  0.00  0.00     0.174 A 
ATOM      3  C3  BZF d   1       4.824   5.211  -5.940  0.00  0.00    -0.012 A 
ATOM      4  C3A BZF d   1       3.680   4.352  -5.904  0.00  0.00    -0.107 A 
ATOM      5  C4  BZF d   1       2.336   4.575  -5.998  0.00  0.00     0.055 A 
ATOM      6  C5  BZF d   1       1.489   3.512  -5.999  0.00  0.00    -0.016 A 
ATOM      7  C6  BZF d   1       1.951   2.215  -5.914  0.00  0.00     0.022 A 
ATOM      8  C7  BZF d   1       3.276   1.945  -5.814  0.00  0.00     0.029 A 
ATOM      9  C7A BZF d   1       4.132   3.018  -5.780  0.00  0.00     0.058 A 
ENDROOT
TORSDOF 0
ENDMDL
