MODEL 1
REMARK minimizedAffinity 7.70861435
REMARK minimizedRMSD -1
REMARK  0 active torsions:
REMARK  status: ('A' for Active; 'I' for Inactive)
ROOT
ATOM      1  O1  BZF d   1       2.447  -3.676  -0.199  0.00  0.00    -0.204 OA
ATOM      2  C2  BZF d   1       1.835  -2.451  -0.016  0.00  0.00     0.174 A 
ATOM      3  C3  BZF d   1       2.252  -1.875   1.131  0.00  0.00    -0.012 A 
ATOM      4  C3A BZF d   1       3.251  -2.756   1.653  0.00  0.00    -0.107 A 
ATOM      5  C4  BZF d   1       4.045  -2.722   2.763  0.00  0.00     0.055 A 
ATOM      6  C5  BZF d   1       4.864  -3.775   3.022  0.00  0.00    -0.016 A 
ATOM      7  C6  BZF d   1       4.910  -4.879   2.197  0.00  0.00     0.022 A 
ATOM      8  C7  BZF d   1       4.144  -4.957   1.082  0.00  0.00     0.029 A 
ATOM      9  C7A BZF d   1       3.340  -3.880   0.799  0.00  0.00     0.058 A 
ENDROOT
TORSDOF 0
ENDMDL
