MODEL 1
REMARK minimizedAffinity 10.2569132
REMARK minimizedRMSD -1
REMARK  0 active torsions:
REMARK  status: ('A' for Active; 'I' for Inactive)
ROOT
ATOM      1  O1  BZF d   1       4.256   3.763  -6.000  0.00  0.00    -0.204 OA
ATOM      2  C2  BZF d   1       4.894   2.538  -5.998  0.00  0.00     0.174 A 
ATOM      3  C3  BZF d   1       4.000   1.533  -5.906  0.00  0.00    -0.012 A 
ATOM      4  C3A BZF d   1       2.717   2.166  -5.939  0.00  0.00    -0.107 A 
ATOM      5  C4  BZF d   1       1.436   1.695  -5.899  0.00  0.00     0.055 A 
ATOM      6  C5  BZF d   1       0.407   2.582  -5.875  0.00  0.00    -0.016 A 
ATOM      7  C6  BZF d   1       0.622   3.944  -5.886  0.00  0.00     0.022 A 
ATOM      8  C7  BZF d   1       1.875   4.459  -5.931  0.00  0.00     0.029 A 
ATOM      9  C7A BZF d   1       2.916   3.565  -5.988  0.00  0.00     0.058 A 
ENDROOT
TORSDOF 0
ENDMDL
