MODEL 1
REMARK minimizedAffinity 0.502696395
REMARK minimizedRMSD -1
REMARK  0 active torsions:
REMARK  status: ('A' for Active; 'I' for Inactive)
ROOT
ATOM      1  O1  BZF d   1       1.553   4.605  -5.951  0.00  0.00    -0.204 OA
ATOM      2  C2  BZF d   1       2.044   5.897  -5.930  0.00  0.00     0.174 A 
ATOM      3  C3  BZF d   1       3.391   5.896  -5.881  0.00  0.00    -0.012 A 
ATOM      4  C3A BZF d   1       3.770   4.519  -5.963  0.00  0.00    -0.107 A 
ATOM      5  C4  BZF d   1       4.975   3.876  -5.979  0.00  0.00     0.055 A 
ATOM      6  C5  BZF d   1       4.998   2.517  -5.993  0.00  0.00    -0.016 A 
ATOM      7  C6  BZF d   1       3.838   1.771  -5.987  0.00  0.00     0.022 A 
ATOM      8  C7  BZF d   1       2.620   2.364  -5.977  0.00  0.00     0.029 A 
ATOM      9  C7A BZF d   1       2.592   3.737  -5.995  0.00  0.00     0.058 A 
ENDROOT
TORSDOF 0
ENDMDL
