MODEL 1
REMARK minimizedAffinity 5.9413147
REMARK minimizedRMSD -1
REMARK  0 active torsions:
REMARK  status: ('A' for Active; 'I' for Inactive)
ROOT
ATOM      1  O1  BZF d   1       3.045  -1.226   0.085  0.00  0.00    -0.204 OA
ATOM      2  C2  BZF d   1       1.935  -1.721   0.741  0.00  0.00     0.174 A 
ATOM      3  C3  BZF d   1       1.303  -0.741   1.418  0.00  0.00    -0.012 A 
ATOM      4  C3A BZF d   1       2.013   0.459   1.094  0.00  0.00    -0.107 A 
ATOM      5  C4  BZF d   1       1.854   1.768   1.447  0.00  0.00     0.055 A 
ATOM      6  C5  BZF d   1       2.762   2.683   1.017  0.00  0.00    -0.016 A 
ATOM      7  C6  BZF d   1       3.843   2.323   0.238  0.00  0.00     0.022 A 
ATOM      8  C7  BZF d   1       4.040   1.037  -0.141  0.00  0.00     0.029 A 
ATOM      9  C7A BZF d   1       3.105   0.115   0.264  0.00  0.00     0.058 A 
ENDROOT
TORSDOF 0
ENDMDL
