MODEL 1
REMARK minimizedAffinity 13.6282101
REMARK minimizedRMSD -1
REMARK  0 active torsions:
REMARK  status: ('A' for Active; 'I' for Inactive)
ROOT
ATOM      1  O1  BZF d   1      -2.721   1.658   4.500  0.00  0.00    -0.204 OA
ATOM      2  C2  BZF d   1      -3.230   2.218   5.656  0.00  0.00     0.174 A 
ATOM      3  C3  BZF d   1      -4.515   2.591   5.481  0.00  0.00    -0.012 A 
ATOM      4  C3A BZF d   1      -4.856   2.158   4.161  0.00  0.00    -0.107 A 
ATOM      5  C4  BZF d   1      -5.999   2.228   3.416  0.00  0.00     0.055 A 
ATOM      6  C5  BZF d   1      -5.980   1.777   2.134  0.00  0.00    -0.016 A 
ATOM      7  C6  BZF d   1      -4.837   1.257   1.564  0.00  0.00     0.022 A 
ATOM      8  C7  BZF d   1      -3.680   1.163   2.265  0.00  0.00     0.029 A 
ATOM      9  C7A BZF d   1      -3.705   1.587   3.571  0.00  0.00     0.058 A 
ENDROOT
TORSDOF 0
ENDMDL
