MODEL 1
REMARK minimizedAffinity -2.35960531
REMARK minimizedRMSD -1
REMARK  0 active torsions:
REMARK  status: ('A' for Active; 'I' for Inactive)
ROOT
ATOM      1  C   UNL d   1      -0.558  -2.198   0.440  0.00  0.00     0.023 A 
ATOM      2  C1  UNL d   1       0.391  -1.887  -0.534  0.00  0.00     0.003 A 
ATOM      3  C2  UNL d   1       0.753  -0.557  -0.759  0.00  0.00     0.048 A 
ATOM      4  C3  UNL d   1       0.163   0.457  -0.006  0.00  0.00     0.023 A 
ATOM      5  C4  UNL d   1      -0.787   0.151   0.970  0.00  0.00     0.048 A 
ATOM      6  C5  UNL d   1      -1.146  -1.180   1.191  0.00  0.00     0.003 A 
ATOM      7  I   UNL d   1       0.700   2.437  -0.339  0.00  0.00    -0.146 I 
ENDROOT
TORSDOF 0
ENDMDL
