MODEL 1
REMARK minimizedAffinity -3.80873823
REMARK minimizedRMSD -1
REMARK  0 active torsions:
REMARK  status: ('A' for Active; 'I' for Inactive)
ROOT
ATOM      1  C   UNL d   1       0.035  -3.807  -1.103  0.00  0.00     0.023 A 
ATOM      2  C1  UNL d   1      -0.117  -3.394   0.221  0.00  0.00     0.003 A 
ATOM      3  C2  UNL d   1      -0.072  -2.035   0.539  0.00  0.00     0.048 A 
ATOM      4  C3  UNL d   1       0.125  -1.094  -0.472  0.00  0.00     0.023 A 
ATOM      5  C4  UNL d   1       0.277  -1.503  -1.798  0.00  0.00     0.048 A 
ATOM      6  C5  UNL d   1       0.231  -2.863  -2.111  0.00  0.00     0.003 A 
ATOM      7  I   UNL d   1       0.193   0.929  -0.001  0.00  0.00    -0.146 I 
ENDROOT
TORSDOF 0
ENDMDL
