MODEL 1
REMARK minimizedAffinity -2.83166385
REMARK minimizedRMSD -1
REMARK  0 active torsions:
REMARK  status: ('A' for Active; 'I' for Inactive)
ROOT
ATOM      1  C   UNL d   1      -0.454  -0.348  -1.121  0.00  0.00     0.023 A 
ATOM      2  C1  UNL d   1      -0.568   0.939  -1.646  0.00  0.00     0.003 A 
ATOM      3  C2  UNL d   1       0.101   2.004  -1.039  0.00  0.00     0.048 A 
ATOM      4  C3  UNL d   1       0.883   1.775   0.093  0.00  0.00     0.023 A 
ATOM      5  C4  UNL d   1       1.000   0.488   0.621  0.00  0.00     0.048 A 
ATOM      6  C5  UNL d   1       0.329  -0.573   0.012  0.00  0.00     0.003 A 
ATOM      7  I   UNL d   1       1.879   3.358   0.998  0.00  0.00    -0.146 I 
ENDROOT
TORSDOF 0
ENDMDL
