MODEL 1
REMARK minimizedAffinity -2.41197467
REMARK minimizedRMSD -1
REMARK  0 active torsions:
REMARK  status: ('A' for Active; 'I' for Inactive)
ROOT
ATOM      1  C   UNL d   1      -1.415  -2.318   1.124  0.00  0.00     0.023 A 
ATOM      2  C1  UNL d   1      -0.475  -2.376   0.095  0.00  0.00     0.003 A 
ATOM      3  C2  UNL d   1       0.142  -1.207  -0.356  0.00  0.00     0.048 A 
ATOM      4  C3  UNL d   1      -0.185   0.016   0.229  0.00  0.00     0.023 A 
ATOM      5  C4  UNL d   1      -1.124   0.079   1.259  0.00  0.00     0.048 A 
ATOM      6  C5  UNL d   1      -1.739  -1.093   1.706  0.00  0.00     0.003 A 
ATOM      7  I   UNL d   1       0.732   1.758  -0.440  0.00  0.00    -0.146 I 
ENDROOT
TORSDOF 0
ENDMDL
