MODEL 1
REMARK minimizedAffinity -1.11339474
REMARK minimizedRMSD -1
REMARK  0 active torsions:
REMARK  status: ('A' for Active; 'I' for Inactive)
ROOT
ATOM      1  C   UNL d   1      -1.437  -1.105   1.812  0.00  0.00     0.023 A 
ATOM      2  C1  UNL d   1      -1.343   0.182   1.282  0.00  0.00     0.003 A 
ATOM      3  C2  UNL d   1      -0.719   0.387   0.049  0.00  0.00     0.048 A 
ATOM      4  C3  UNL d   1      -0.192  -0.699  -0.648  0.00  0.00     0.023 A 
ATOM      5  C4  UNL d   1      -0.284  -1.989  -0.122  0.00  0.00     0.048 A 
ATOM      6  C5  UNL d   1      -0.908  -2.189   1.111  0.00  0.00     0.003 A 
ATOM      7  I   UNL d   1       0.737  -0.397  -2.482  0.00  0.00    -0.146 I 
ENDROOT
TORSDOF 0
ENDMDL
