MODEL 1
REMARK minimizedAffinity -4.09030151
REMARK minimizedRMSD -1
REMARK  0 active torsions:
REMARK  status: ('A' for Active; 'I' for Inactive)
ROOT
ATOM      1  C   UNL d   1      -0.212  -2.616   0.749  0.00  0.00     0.023 A 
ATOM      2  C1  UNL d   1       0.591  -2.212  -0.318  0.00  0.00     0.003 A 
ATOM      3  C2  UNL d   1       0.760  -0.852  -0.590  0.00  0.00     0.048 A 
ATOM      4  C3  UNL d   1       0.125   0.097   0.209  0.00  0.00     0.023 A 
ATOM      5  C4  UNL d   1      -0.679  -0.303   1.278  0.00  0.00     0.048 A 
ATOM      6  C5  UNL d   1      -0.846  -1.663   1.546  0.00  0.00     0.003 A 
ATOM      7  I   UNL d   1       0.375   2.121  -0.194  0.00  0.00    -0.146 I 
ENDROOT
TORSDOF 0
ENDMDL
