MODEL 1
REMARK minimizedAffinity -0.413718462
REMARK minimizedRMSD -1
REMARK  0 active torsions:
REMARK  status: ('A' for Active; 'I' for Inactive)
ROOT
ATOM      1  C   UNL d   1      -0.825  -2.770   0.667  0.00  0.00     0.023 A 
ATOM      2  C1  UNL d   1       0.329  -2.549  -0.084  0.00  0.00     0.003 A 
ATOM      3  C2  UNL d   1       0.881  -1.269  -0.160  0.00  0.00     0.048 A 
ATOM      4  C3  UNL d   1       0.273  -0.213   0.519  0.00  0.00     0.023 A 
ATOM      5  C4  UNL d   1      -0.881  -0.429   1.273  0.00  0.00     0.048 A 
ATOM      6  C5  UNL d   1      -1.430  -1.711   1.345  0.00  0.00     0.003 A 
ATOM      7  I   UNL d   1       1.092   1.694   0.407  0.00  0.00    -0.146 I 
ENDROOT
TORSDOF 0
ENDMDL
