MODEL 1
REMARK minimizedAffinity -1.82474053
REMARK minimizedRMSD -1
REMARK  0 active torsions:
REMARK  status: ('A' for Active; 'I' for Inactive)
ROOT
ATOM      1  C   UNL d   1       0.014   1.578   0.207  0.00  0.00     0.023 A 
ATOM      2  C1  UNL d   1      -0.792   0.952   1.159  0.00  0.00     0.003 A 
ATOM      3  C2  UNL d   1      -0.807  -0.441   1.255  0.00  0.00     0.048 A 
ATOM      4  C3  UNL d   1      -0.013  -1.202   0.397  0.00  0.00     0.023 A 
ATOM      5  C4  UNL d   1       0.795  -0.580  -0.556  0.00  0.00     0.048 A 
ATOM      6  C5  UNL d   1       0.806   0.813  -0.649  0.00  0.00     0.003 A 
ATOM      7  I   UNL d   1      -0.034  -3.275   0.538  0.00  0.00    -0.146 I 
ENDROOT
TORSDOF 0
ENDMDL
