MODEL 1
REMARK minimizedAffinity -1.10860121
REMARK minimizedRMSD -1
REMARK  0 active torsions:
REMARK  status: ('A' for Active; 'I' for Inactive)
ROOT
ATOM      1  C   UNL d   1      -0.667   1.337  -0.065  0.00  0.00     0.023 A 
ATOM      2  C1  UNL d   1      -0.002   0.571  -1.023  0.00  0.00     0.003 A 
ATOM      3  C2  UNL d   1       0.075  -0.816  -0.881  0.00  0.00     0.048 A 
ATOM      4  C3  UNL d   1      -0.517  -1.431   0.222  0.00  0.00     0.023 A 
ATOM      5  C4  UNL d   1      -1.185  -0.669   1.183  0.00  0.00     0.048 A 
ATOM      6  C5  UNL d   1      -1.257   0.717   1.036  0.00  0.00     0.003 A 
ATOM      7  I   UNL d   1      -0.405  -3.495   0.436  0.00  0.00    -0.146 I 
ENDROOT
TORSDOF 0
ENDMDL
