MODEL 1
REMARK minimizedAffinity -3.62769556
REMARK minimizedRMSD -1
REMARK  0 active torsions:
REMARK  status: ('A' for Active; 'I' for Inactive)
ROOT
ATOM      1  C   UNL d   1      -0.312  -3.759  -0.559  0.00  0.00     0.023 A 
ATOM      2  C1  UNL d   1       0.577  -3.095  -1.406  0.00  0.00     0.003 A 
ATOM      3  C2  UNL d   1       0.737  -1.712  -1.305  0.00  0.00     0.048 A 
ATOM      4  C3  UNL d   1       0.007  -0.998  -0.355  0.00  0.00     0.023 A 
ATOM      5  C4  UNL d   1      -0.883  -1.658   0.494  0.00  0.00     0.048 A 
ATOM      6  C5  UNL d   1      -1.040  -3.042   0.389  0.00  0.00     0.003 A 
ATOM      7  I   UNL d   1       0.244   1.061  -0.203  0.00  0.00    -0.146 I 
ENDROOT
TORSDOF 0
ENDMDL
