MODEL 1
REMARK minimizedAffinity -4.39651632
REMARK minimizedRMSD -1
REMARK  0 active torsions:
REMARK  status: ('A' for Active; 'I' for Inactive)
ROOT
ATOM      1  C   UNL d   1       1.891   3.882   1.036  0.00  0.00     0.023 A 
ATOM      2  C1  UNL d   1       0.896   3.628   0.092  0.00  0.00     0.003 A 
ATOM      3  C2  UNL d   1       0.382   2.338  -0.052  0.00  0.00     0.048 A 
ATOM      4  C3  UNL d   1       0.866   1.307   0.752  0.00  0.00     0.023 A 
ATOM      5  C4  UNL d   1       1.860   1.557   1.699  0.00  0.00     0.048 A 
ATOM      6  C5  UNL d   1       2.372   2.848   1.838  0.00  0.00     0.003 A 
ATOM      7  I   UNL d   1       0.101  -0.614   0.540  0.00  0.00    -0.146 I 
ENDROOT
TORSDOF 0
ENDMDL
