MODEL 1
REMARK minimizedAffinity -1.14876723
REMARK minimizedRMSD -1
REMARK  0 active torsions:
REMARK  status: ('A' for Active; 'I' for Inactive)
ROOT
ATOM      1  C   UNL d   1      -0.526   1.355  -1.191  0.00  0.00     0.023 A 
ATOM      2  C1  UNL d   1       0.026   0.471  -2.118  0.00  0.00     0.003 A 
ATOM      3  C2  UNL d   1       0.287  -0.851  -1.754  0.00  0.00     0.048 A 
ATOM      4  C3  UNL d   1      -0.007  -1.283  -0.461  0.00  0.00     0.023 A 
ATOM      5  C4  UNL d   1      -0.560  -0.402   0.470  0.00  0.00     0.048 A 
ATOM      6  C5  UNL d   1      -0.819   0.919   0.101  0.00  0.00     0.003 A 
ATOM      7  I   UNL d   1       0.381  -3.251   0.084  0.00  0.00    -0.146 I 
ENDROOT
TORSDOF 0
ENDMDL
