MODEL 1
REMARK minimizedAffinity -3.05611372
REMARK minimizedRMSD -1
REMARK  0 active torsions:
REMARK  status: ('A' for Active; 'I' for Inactive)
ROOT
ATOM      1  C   UNL d   1      -0.978  -1.703  -0.159  0.00  0.00     0.023 A 
ATOM      2  C1  UNL d   1      -0.751  -1.182   1.115  0.00  0.00     0.003 A 
ATOM      3  C2  UNL d   1       0.005  -0.019   1.271  0.00  0.00     0.048 A 
ATOM      4  C3  UNL d   1       0.531   0.619   0.148  0.00  0.00     0.023 A 
ATOM      5  C4  UNL d   1       0.306   0.102  -1.129  0.00  0.00     0.048 A 
ATOM      6  C5  UNL d   1      -0.450  -1.062  -1.279  0.00  0.00     0.003 A 
ATOM      7  I   UNL d   1       1.657   2.351   0.376  0.00  0.00    -0.146 I 
ENDROOT
TORSDOF 0
ENDMDL
