MODEL 1
REMARK minimizedAffinity -2.10554051
REMARK minimizedRMSD -1
REMARK  0 active torsions:
REMARK  status: ('A' for Active; 'I' for Inactive)
ROOT
ATOM      1  C   UNL d   1      -1.112  -0.577   1.361  0.00  0.00     0.023 A 
ATOM      2  C1  UNL d   1      -0.698   0.356   0.411  0.00  0.00     0.003 A 
ATOM      3  C2  UNL d   1      -0.067  -0.071  -0.760  0.00  0.00     0.048 A 
ATOM      4  C3  UNL d   1       0.145  -1.432  -0.974  0.00  0.00     0.023 A 
ATOM      5  C4  UNL d   1      -0.269  -2.369  -0.026  0.00  0.00     0.048 A 
ATOM      6  C5  UNL d   1      -0.898  -1.938   1.143  0.00  0.00     0.003 A 
ATOM      7  I   UNL d   1       1.083  -2.070  -2.715  0.00  0.00    -0.146 I 
ENDROOT
TORSDOF 0
ENDMDL
