MODEL 1
REMARK minimizedAffinity 5.22572279
REMARK minimizedRMSD -1
REMARK  1 active torsions:
REMARK  status: ('A' for Active; 'I' for Inactive)
REMARK    1  A    between atoms: C1_2  and  C2_3 
ROOT
ATOM      1  C2  UNL d   1       2.316  -1.176  -0.423  0.00  0.00    -0.077 A 
ATOM      2  C3  UNL d   1       1.275  -1.076   0.511  0.00  0.00     0.002 A 
ATOM      3  C4  UNL d   1       1.131  -2.036   1.514  0.00  0.00     0.002 A 
ATOM      4  C5  UNL d   1       2.026  -3.101   1.596  0.00  0.00    -0.004 A 
ATOM      5  C6  UNL d   1       3.063  -3.211   0.670  0.00  0.00     0.002 A 
ATOM      6  C7  UNL d   1       3.208  -2.253  -0.334  0.00  0.00     0.002 A 
ENDROOT
BRANCH   1   7
ATOM      7  C1  UNL d   1       2.502  -0.115  -1.476  0.00  0.00     0.055 C 
ATOM      8  C   UNL d   1       3.346   1.039  -0.955  0.00  0.00     0.019 C 
ENDBRANCH   1   7
TORSDOF 1
ENDMDL
