MODEL 1
REMARK minimizedAffinity 3.365592
REMARK minimizedRMSD -1
REMARK  1 active torsions:
REMARK  status: ('A' for Active; 'I' for Inactive)
REMARK    1  A    between atoms: C1_2  and  C2_3 
ROOT
ATOM      1  C2  UNL d   1       4.688  -3.487   2.926  0.00  0.00    -0.077 A 
ATOM      2  C3  UNL d   1       3.386  -3.000   2.739  0.00  0.00     0.002 A 
ATOM      3  C4  UNL d   1       2.862  -2.860   1.453  0.00  0.00     0.002 A 
ATOM      4  C5  UNL d   1       3.631  -3.208   0.344  0.00  0.00    -0.004 A 
ATOM      5  C6  UNL d   1       4.927  -3.691   0.519  0.00  0.00     0.002 A 
ATOM      6  C7  UNL d   1       5.453  -3.830   1.804  0.00  0.00     0.002 A 
ENDROOT
BRANCH   1   7
ATOM      7  C1  UNL d   1       5.237  -3.685   4.314  0.00  0.00     0.055 C 
ATOM      8  C   UNL d   1       5.392  -2.358   5.043  0.00  0.00     0.019 C 
ENDBRANCH   1   7
TORSDOF 1
ENDMDL
