MODEL 1
REMARK minimizedAffinity -1.4489243
REMARK minimizedRMSD -1
REMARK  1 active torsions:
REMARK  status: ('A' for Active; 'I' for Inactive)
REMARK    1  A    between atoms: C1_2  and  C2_3 
ROOT
ATOM      1  C2  UNL d   1       3.728  -3.505   3.219  0.00  0.00    -0.077 A 
ATOM      2  C3  UNL d   1       2.623  -2.643   3.191  0.00  0.00     0.002 A 
ATOM      3  C4  UNL d   1       1.845  -2.531   2.037  0.00  0.00     0.002 A 
ATOM      4  C5  UNL d   1       2.161  -3.280   0.906  0.00  0.00    -0.004 A 
ATOM      5  C6  UNL d   1       3.259  -4.139   0.924  0.00  0.00     0.002 A 
ATOM      6  C7  UNL d   1       4.039  -4.251   2.076  0.00  0.00     0.002 A 
ENDROOT
BRANCH   1   7
ATOM      7  C1  UNL d   1       4.540  -3.664   4.479  0.00  0.00     0.055 C 
ATOM      8  C   UNL d   1       4.633  -2.354   5.247  0.00  0.00     0.019 C 
ENDBRANCH   1   7
TORSDOF 1
ENDMDL
