MODEL 1
REMARK minimizedAffinity 5.47092247
REMARK minimizedRMSD -1
REMARK  1 active torsions:
REMARK  status: ('A' for Active; 'I' for Inactive)
REMARK    1  A    between atoms: C1_2  and  C2_3 
ROOT
ATOM      1  C2  UNL d   1      -5.093   1.745  -4.954  0.00  0.00    -0.077 A 
ATOM      2  C3  UNL d   1      -4.046   2.287  -4.194  0.00  0.00     0.002 A 
ATOM      3  C4  UNL d   1      -3.908   3.670  -4.068  0.00  0.00     0.002 A 
ATOM      4  C5  UNL d   1      -4.815   4.522  -4.694  0.00  0.00    -0.004 A 
ATOM      5  C6  UNL d   1      -5.858   3.993  -5.453  0.00  0.00     0.002 A 
ATOM      6  C7  UNL d   1      -5.997   2.611  -5.582  0.00  0.00     0.002 A 
ENDROOT
BRANCH   1   7
ATOM      7  C1  UNL d   1      -5.272   0.252  -5.050  0.00  0.00     0.055 C 
ATOM      8  C   UNL d   1      -5.998  -0.299  -3.831  0.00  0.00     0.019 C 
ENDBRANCH   1   7
TORSDOF 1
ENDMDL
