MODEL 1
REMARK minimizedAffinity -1.19123673
REMARK minimizedRMSD -1
REMARK  1 active torsions:
REMARK  status: ('A' for Active; 'I' for Inactive)
REMARK    1  A    between atoms: C1_2  and  C2_3 
ROOT
ATOM      1  C2  UNL d   1       0.354  -1.715   1.851  0.00  0.00    -0.077 A 
ATOM      2  C3  UNL d   1       1.215  -2.577   1.158  0.00  0.00     0.002 A 
ATOM      3  C4  UNL d   1       1.413  -3.885   1.602  0.00  0.00     0.002 A 
ATOM      4  C5  UNL d   1       0.750  -4.344   2.739  0.00  0.00    -0.004 A 
ATOM      5  C6  UNL d   1      -0.106  -3.494   3.437  0.00  0.00     0.002 A 
ATOM      6  C7  UNL d   1      -0.304  -2.185   2.994  0.00  0.00     0.002 A 
ENDROOT
BRANCH   1   7
ATOM      7  C1  UNL d   1       0.101  -0.318   1.345  0.00  0.00     0.055 C 
ATOM      8  C   UNL d   1      -1.363  -0.117   0.983  0.00  0.00     0.019 C 
ENDBRANCH   1   7
TORSDOF 1
ENDMDL
