MODEL 1
REMARK minimizedAffinity 16.0997276
REMARK minimizedRMSD -1
REMARK  2 active torsions:
REMARK  status: ('A' for Active; 'I' for Inactive)
REMARK    1  A    between atoms: C2'_3  and  C1'_4 
REMARK    2  A    between atoms: C1'_4  and  C1_5 
ROOT
ATOM      1  C1  I4B d   1      -3.044  -1.791   1.337  0.00  0.00    -0.075 A 
ATOM      2  C2  I4B d   1      -2.545  -0.516   1.442  0.00  0.00     0.003 A 
ATOM      3  C3  I4B d   1      -3.252   0.574   0.879  0.00  0.00     0.002 A 
ATOM      4  C4  I4B d   1      -4.420   0.340   0.183  0.00  0.00    -0.004 A 
ATOM      5  C5  I4B d   1      -4.936  -0.949   0.098  0.00  0.00     0.002 A 
ATOM      6  C6  I4B d   1      -4.250  -2.020   0.689  0.00  0.00     0.003 A 
ENDROOT
BRANCH   1   7
ATOM      7  C1' I4B d   1      -2.255  -2.923   1.914  0.00  0.00     0.060 C 
BRANCH   7   8
ATOM      8  C2' I4B d   1      -2.270  -4.060   0.913  0.00  0.00    -0.013 C 
ATOM      9  C4' I4B d   1      -1.557  -3.677  -0.357  0.00  0.00     0.013 C 
ATOM     10  C3' I4B d   1      -1.627  -5.252   1.556  0.00  0.00     0.013 C 
ENDBRANCH   7   8
ENDBRANCH   1   7
TORSDOF 2
ENDMDL
