MODEL 1
REMARK minimizedAffinity 4.63837528
REMARK minimizedRMSD -1
REMARK  2 active torsions:
REMARK  status: ('A' for Active; 'I' for Inactive)
REMARK    1  A    between atoms: C2'_3  and  C1'_4 
REMARK    2  A    between atoms: C1'_4  and  C1_5 
ROOT
ATOM      1  C1  I4B d   1      -1.311  -0.323  -1.081  0.00  0.00    -0.075 A 
ATOM      2  C2  I4B d   1      -0.830  -1.599  -0.917  0.00  0.00     0.003 A 
ATOM      3  C3  I4B d   1       0.501  -1.809  -0.483  0.00  0.00     0.002 A 
ATOM      4  C4  I4B d   1       1.327  -0.724  -0.275  0.00  0.00    -0.004 A 
ATOM      5  C5  I4B d   1       0.832   0.569  -0.419  0.00  0.00     0.002 A 
ATOM      6  C6  I4B d   1      -0.499   0.771  -0.813  0.00  0.00     0.003 A 
ENDROOT
BRANCH   1   7
ATOM      7  C1' I4B d   1      -2.711  -0.138  -1.571  0.00  0.00     0.060 C 
BRANCH   7   8
ATOM      8  C2' I4B d   1      -3.648  -0.760  -0.556  0.00  0.00    -0.013 C 
ATOM      9  C4' I4B d   1      -3.802   0.121   0.656  0.00  0.00     0.013 C 
ATOM     10  C3' I4B d   1      -4.969  -0.994  -1.226  0.00  0.00     0.013 C 
ENDBRANCH   7   8
ENDBRANCH   1   7
TORSDOF 2
ENDMDL
