MODEL 1
REMARK minimizedAffinity 4.28297615
REMARK minimizedRMSD -1
REMARK  2 active torsions:
REMARK  status: ('A' for Active; 'I' for Inactive)
REMARK    1  A    between atoms: C2'_3  and  C1'_4 
REMARK    2  A    between atoms: C1'_4  and  C1_5 
ROOT
ATOM      1  C1  I4B d   1      -0.042  -0.957  -0.841  0.00  0.00    -0.075 A 
ATOM      2  C2  I4B d   1      -0.276  -0.017   0.132  0.00  0.00     0.003 A 
ATOM      3  C3  I4B d   1       0.792   0.468   0.926  0.00  0.00     0.002 A 
ATOM      4  C4  I4B d   1       2.060  -0.047   0.747  0.00  0.00    -0.004 A 
ATOM      5  C5  I4B d   1       2.299  -0.983  -0.255  0.00  0.00     0.002 A 
ATOM      6  C6  I4B d   1       1.244  -1.432  -1.063  0.00  0.00     0.003 A 
ENDROOT
BRANCH   1   7
ATOM      7  C1' I4B d   1      -1.198  -1.471  -1.638  0.00  0.00     0.060 C 
BRANCH   7   8
ATOM      8  C2' I4B d   1      -0.744  -2.721  -2.366  0.00  0.00    -0.013 C 
ATOM      9  C4' I4B d   1      -0.814  -3.929  -1.470  0.00  0.00     0.013 C 
ATOM     10  C3' I4B d   1      -1.613  -2.893  -3.576  0.00  0.00     0.013 C 
ENDBRANCH   7   8
ENDBRANCH   1   7
TORSDOF 2
ENDMDL
