MODEL 1
REMARK minimizedAffinity 11.1238852
REMARK minimizedRMSD -1
REMARK  2 active torsions:
REMARK  status: ('A' for Active; 'I' for Inactive)
REMARK    1  A    between atoms: C2'_3  and  C1'_4 
REMARK    2  A    between atoms: C1'_4  and  C1_5 
ROOT
ATOM      1  C1  I4B d   1       1.138   0.867   1.481  0.00  0.00    -0.075 A 
ATOM      2  C2  I4B d   1       0.413   1.153   0.351  0.00  0.00     0.003 A 
ATOM      3  C3  I4B d   1       0.401   0.246  -0.736  0.00  0.00     0.002 A 
ATOM      4  C4  I4B d   1       1.164  -0.903  -0.671  0.00  0.00    -0.004 A 
ATOM      5  C5  I4B d   1       1.880  -1.202   0.484  0.00  0.00     0.002 A 
ATOM      6  C6  I4B d   1       1.857  -0.317   1.572  0.00  0.00     0.003 A 
ENDROOT
BRANCH   1   7
ATOM      7  C1' I4B d   1       1.155   1.863   2.597  0.00  0.00     0.060 C 
BRANCH   7   8
ATOM      8  C2' I4B d   1       1.990   3.047   2.154  0.00  0.00    -0.013 C 
ATOM      9  C4' I4B d   1       1.129   4.257   1.901  0.00  0.00     0.013 C 
ATOM     10  C3' I4B d   1       3.008   3.321   3.221  0.00  0.00     0.013 C 
ENDBRANCH   7   8
ENDBRANCH   1   7
TORSDOF 2
ENDMDL
