MODEL 1
REMARK minimizedAffinity -4.93508196
REMARK minimizedRMSD -1
REMARK  2 active torsions:
REMARK  status: ('A' for Active; 'I' for Inactive)
REMARK    1  A    between atoms: C2'_3  and  C1'_4 
REMARK    2  A    between atoms: C1'_4  and  C1_5 
ROOT
ATOM      1  C1  I4B d   1      -0.625  -4.985   2.658  0.00  0.00    -0.075 A 
ATOM      2  C2  I4B d   1      -1.112  -3.752   2.303  0.00  0.00     0.003 A 
ATOM      3  C3  I4B d   1      -1.514  -3.500   0.969  0.00  0.00     0.002 A 
ATOM      4  C4  I4B d   1      -1.365  -4.488   0.017  0.00  0.00    -0.004 A 
ATOM      5  C5  I4B d   1      -0.892  -5.745   0.383  0.00  0.00     0.002 A 
ATOM      6  C6  I4B d   1      -0.531  -6.000   1.714  0.00  0.00     0.003 A 
ENDROOT
BRANCH   1   7
ATOM      7  C1' I4B d   1      -0.179  -5.206   4.068  0.00  0.00     0.060 C 
BRANCH   7   8
ATOM      8  C2' I4B d   1      -1.013  -4.315   4.966  0.00  0.00    -0.013 C 
ATOM      9  C4' I4B d   1      -2.107  -5.097   5.646  0.00  0.00     0.013 C 
ATOM     10  C3' I4B d   1      -0.097  -3.681   5.970  0.00  0.00     0.013 C 
ENDBRANCH   7   8
ENDBRANCH   1   7
TORSDOF 2
ENDMDL
