MODEL 1
REMARK minimizedAffinity 3.79646015
REMARK minimizedRMSD -1
REMARK  2 active torsions:
REMARK  status: ('A' for Active; 'I' for Inactive)
REMARK    1  A    between atoms: C2'_3  and  C1'_4 
REMARK    2  A    between atoms: C1'_4  and  C1_5 
ROOT
ATOM      1  C1  I4B d   1       0.504  -1.372   5.317  0.00  0.00    -0.075 A 
ATOM      2  C2  I4B d   1       0.559  -0.183   6.000  0.00  0.00     0.003 A 
ATOM      3  C3  I4B d   1       1.132   0.961   5.394  0.00  0.00     0.002 A 
ATOM      4  C4  I4B d   1       1.681   0.859   4.132  0.00  0.00    -0.004 A 
ATOM      5  C5  I4B d   1       1.604  -0.342   3.432  0.00  0.00     0.002 A 
ATOM      6  C6  I4B d   1       1.001  -1.461   4.023  0.00  0.00     0.003 A 
ENDROOT
BRANCH   1   7
ATOM      7  C1' I4B d   1      -0.078  -2.569   5.999  0.00  0.00     0.060 C 
BRANCH   7   8
ATOM      8  C2' I4B d   1       0.631  -3.799   5.470  0.00  0.00    -0.013 C 
ATOM      9  C4' I4B d   1       2.038  -3.888   6.000  0.00  0.00     0.013 C 
ATOM     10  C3' I4B d   1      -0.173  -5.002   5.865  0.00  0.00     0.013 C 
ENDBRANCH   7   8
ENDBRANCH   1   7
TORSDOF 2
ENDMDL
