MODEL 1
REMARK minimizedAffinity 11.0736103
REMARK minimizedRMSD -1
REMARK  2 active torsions:
REMARK  status: ('A' for Active; 'I' for Inactive)
REMARK    1  A    between atoms: C2'_3  and  C1'_4 
REMARK    2  A    between atoms: C1'_4  and  C1_5 
ROOT
ATOM      1  C1  I4B d   1       1.621  -0.467  -0.598  0.00  0.00    -0.075 A 
ATOM      2  C2  I4B d   1       0.830   0.654  -0.543  0.00  0.00     0.003 A 
ATOM      3  C3  I4B d   1      -0.552   0.565  -0.836  0.00  0.00     0.002 A 
ATOM      4  C4  I4B d   1      -1.088  -0.645  -1.227  0.00  0.00    -0.004 A 
ATOM      5  C5  I4B d   1      -0.289  -1.784  -1.261  0.00  0.00     0.002 A 
ATOM      6  C6  I4B d   1       1.072  -1.698  -0.933  0.00  0.00     0.003 A 
ENDROOT
BRANCH   1   7
ATOM      7  C1' I4B d   1       3.084  -0.331  -0.314  0.00  0.00     0.060 C 
BRANCH   7   8
ATOM      8  C2' I4B d   1       3.277  -0.414   1.186  0.00  0.00    -0.013 C 
ATOM      9  C4' I4B d   1       1.969  -0.257   1.914  0.00  0.00     0.013 C 
ATOM     10  C3' I4B d   1       3.916  -1.734   1.498  0.00  0.00     0.013 C 
ENDBRANCH   7   8
ENDBRANCH   1   7
TORSDOF 2
ENDMDL
