MODEL 1
REMARK minimizedAffinity 5.42385054
REMARK minimizedRMSD -1
REMARK  2 active torsions:
REMARK  status: ('A' for Active; 'I' for Inactive)
REMARK    1  A    between atoms: C2'_3  and  C1'_4 
REMARK    2  A    between atoms: C1'_4  and  C1_5 
ROOT
ATOM      1  C1  I4B d   1       1.306  -1.898  -0.552  0.00  0.00    -0.075 A 
ATOM      2  C2  I4B d   1       1.343  -2.476   0.692  0.00  0.00     0.003 A 
ATOM      3  C3  I4B d   1       2.065  -1.859   1.743  0.00  0.00     0.002 A 
ATOM      4  C4  I4B d   1       2.771  -0.700   1.493  0.00  0.00    -0.004 A 
ATOM      5  C5  I4B d   1       2.714  -0.104   0.237  0.00  0.00     0.002 A 
ATOM      6  C6  I4B d   1       1.966  -0.699  -0.789  0.00  0.00     0.003 A 
ENDROOT
BRANCH   1   7
ATOM      7  C1' I4B d   1       0.561  -2.593  -1.648  0.00  0.00     0.060 C 
BRANCH   7   8
ATOM      8  C2' I4B d   1      -0.792  -3.004  -1.104  0.00  0.00    -0.013 C 
ATOM      9  C4' I4B d   1      -1.904  -2.246  -1.780  0.00  0.00     0.013 C 
ATOM     10  C3' I4B d   1      -0.944  -4.482  -1.307  0.00  0.00     0.013 C 
ENDBRANCH   7   8
ENDBRANCH   1   7
TORSDOF 2
ENDMDL
