MODEL 1
REMARK minimizedAffinity 3.18995285
REMARK minimizedRMSD -1
REMARK  2 active torsions:
REMARK  status: ('A' for Active; 'I' for Inactive)
REMARK    1  A    between atoms: C2'_3  and  C1'_4 
REMARK    2  A    between atoms: C1'_4  and  C1_5 
ROOT
ATOM      1  C1  I4B d   1       0.867  -2.947   5.958  0.00  0.00    -0.075 A 
ATOM      2  C2  I4B d   1       1.610  -4.101   5.955  0.00  0.00     0.003 A 
ATOM      3  C3  I4B d   1       0.967  -5.363   5.950  0.00  0.00     0.002 A 
ATOM      4  C4  I4B d   1      -0.411  -5.424   5.999  0.00  0.00    -0.004 A 
ATOM      5  C5  I4B d   1      -1.163  -4.253   5.979  0.00  0.00     0.002 A 
ATOM      6  C6  I4B d   1      -0.521  -3.007   5.946  0.00  0.00     0.003 A 
ENDROOT
BRANCH   1   7
ATOM      7  C1' I4B d   1       1.578  -1.632   5.997  0.00  0.00     0.060 C 
BRANCH   7   8
ATOM      8  C2' I4B d   1       0.621  -0.569   5.498  0.00  0.00    -0.013 C 
ATOM      9  C4' I4B d   1      -0.778  -0.817   5.996  0.00  0.00     0.013 C 
ATOM     10  C3' I4B d   1       1.131   0.765   5.956  0.00  0.00     0.013 C 
ENDBRANCH   7   8
ENDBRANCH   1   7
TORSDOF 2
ENDMDL
