MODEL 1
REMARK minimizedAffinity 3.15802431
REMARK minimizedRMSD -1
REMARK  2 active torsions:
REMARK  status: ('A' for Active; 'I' for Inactive)
REMARK    1  A    between atoms: C2'_3  and  C1'_4 
REMARK    2  A    between atoms: C1'_4  and  C1_5 
ROOT
ATOM      1  C1  I4B d   1       1.039  -2.909   5.926  0.00  0.00    -0.075 A 
ATOM      2  C2  I4B d   1       1.084  -1.537   5.925  0.00  0.00     0.003 A 
ATOM      3  C3  I4B d   1      -0.115  -0.785   5.974  0.00  0.00     0.002 A 
ATOM      4  C4  I4B d   1      -1.329  -1.441   5.973  0.00  0.00    -0.004 A 
ATOM      5  C5  I4B d   1      -1.372  -2.832   5.997  0.00  0.00     0.002 A 
ATOM      6  C6  I4B d   1      -0.180  -3.571   5.987  0.00  0.00     0.003 A 
ENDROOT
BRANCH   1   7
ATOM      7  C1' I4B d   1       2.323  -3.672   5.840  0.00  0.00     0.060 C 
BRANCH   7   8
ATOM      8  C2' I4B d   1       2.067  -4.927   5.031  0.00  0.00    -0.013 C 
ATOM      9  C4' I4B d   1       3.334  -5.431   4.391  0.00  0.00     0.013 C 
ATOM     10  C3' I4B d   1       1.476  -5.957   5.947  0.00  0.00     0.013 C 
ENDBRANCH   7   8
ENDBRANCH   1   7
TORSDOF 2
ENDMDL
