MODEL 1
REMARK minimizedAffinity 14.8667469
REMARK minimizedRMSD -1
REMARK  0 active torsions:
REMARK  status: ('A' for Active; 'I' for Inactive)
ROOT
ATOM      1  C   UNL d   1       5.024   2.249  -5.254  0.00  0.00     0.023 A 
ATOM      2  C1  UNL d   1       3.704   2.010  -4.871  0.00  0.00     0.003 A 
ATOM      3  C2  UNL d   1       3.355   0.791  -4.288  0.00  0.00     0.048 A 
ATOM      4  C3  UNL d   1       4.330  -0.185  -4.089  0.00  0.00     0.023 A 
ATOM      5  C4  UNL d   1       5.652   0.049  -4.470  0.00  0.00     0.048 A 
ATOM      6  C5  UNL d   1       5.997   1.270  -5.054  0.00  0.00     0.003 A 
ATOM      7  I   UNL d   1       3.813  -2.001  -3.220  0.00  0.00    -0.146 I 
ENDROOT
TORSDOF 0
ENDMDL
