MODEL 1
REMARK minimizedAffinity 9.81932259
REMARK minimizedRMSD -1
REMARK  0 active torsions:
REMARK  status: ('A' for Active; 'I' for Inactive)
ROOT
ATOM      1  C   UNL d   1      -5.968   2.963   5.452  0.00  0.00     0.023 A 
ATOM      2  C1  UNL d   1      -5.952   1.676   5.990  0.00  0.00     0.003 A 
ATOM      3  C2  UNL d   1      -4.860   0.836   5.761  0.00  0.00     0.048 A 
ATOM      4  C3  UNL d   1      -3.788   1.289   4.994  0.00  0.00     0.023 A 
ATOM      5  C4  UNL d   1      -3.799   2.577   4.454  0.00  0.00     0.048 A 
ATOM      6  C5  UNL d   1      -4.893   3.413   4.685  0.00  0.00     0.003 A 
ATOM      7  I   UNL d   1      -2.162   0.041   4.651  0.00  0.00    -0.146 I 
ENDROOT
TORSDOF 0
ENDMDL
