MODEL 1
REMARK minimizedAffinity 15.4866867
REMARK minimizedRMSD -1
REMARK  0 active torsions:
REMARK  status: ('A' for Active; 'I' for Inactive)
ROOT
ATOM      1  C   UNL d   1       3.816  -1.607   3.753  0.00  0.00     0.023 A 
ATOM      2  C1  UNL d   1       4.086  -1.535   5.120  0.00  0.00     0.003 A 
ATOM      3  C2  UNL d   1       4.713  -2.602   5.766  0.00  0.00     0.048 A 
ATOM      4  C3  UNL d   1       5.067  -3.739   5.040  0.00  0.00     0.023 A 
ATOM      5  C4  UNL d   1       4.800  -3.815   3.672  0.00  0.00     0.048 A 
ATOM      6  C5  UNL d   1       4.172  -2.746   3.030  0.00  0.00     0.003 A 
ATOM      7  I   UNL d   1       6.000  -5.329   6.000  0.00  0.00    -0.146 I 
ENDROOT
TORSDOF 0
ENDMDL
