MODEL 1
REMARK minimizedAffinity 10.3304739
REMARK minimizedRMSD -1
REMARK  0 active torsions:
REMARK  status: ('A' for Active; 'I' for Inactive)
ROOT
ATOM      1  C   UNL d   1       3.610  -1.741   5.127  0.00  0.00     0.023 A 
ATOM      2  C1  UNL d   1       4.958  -1.854   4.786  0.00  0.00     0.003 A 
ATOM      3  C2  UNL d   1       5.645  -3.044   5.035  0.00  0.00     0.048 A 
ATOM      4  C3  UNL d   1       4.978  -4.117   5.625  0.00  0.00     0.023 A 
ATOM      5  C4  UNL d   1       3.629  -4.009   5.968  0.00  0.00     0.048 A 
ATOM      6  C5  UNL d   1       2.947  -2.817   5.718  0.00  0.00     0.003 A 
ATOM      7  I   UNL d   1       5.998  -5.889   5.996  0.00  0.00    -0.146 I 
ENDROOT
TORSDOF 0
ENDMDL
