MODEL 1
REMARK minimizedAffinity -0.792058051
REMARK minimizedRMSD -1
REMARK  0 active torsions:
REMARK  status: ('A' for Active; 'I' for Inactive)
ROOT
ATOM      1  C   UNL d   1       5.998  -3.974   4.232  0.00  0.00     0.023 A 
ATOM      2  C1  UNL d   1       5.527  -4.345   5.491  0.00  0.00     0.003 A 
ATOM      3  C2  UNL d   1       4.361  -3.770   6.000  0.00  0.00     0.048 A 
ATOM      4  C3  UNL d   1       3.670  -2.824   5.243  0.00  0.00     0.023 A 
ATOM      5  C4  UNL d   1       4.137  -2.450   3.982  0.00  0.00     0.048 A 
ATOM      6  C5  UNL d   1       5.304  -3.027   3.478  0.00  0.00     0.003 A 
ATOM      7  I   UNL d   1       1.934  -1.967   5.998  0.00  0.00    -0.146 I 
ENDROOT
TORSDOF 0
ENDMDL
