MODEL 1
REMARK minimizedAffinity 14.0456285
REMARK minimizedRMSD -1
REMARK  0 active torsions:
REMARK  status: ('A' for Active; 'I' for Inactive)
ROOT
ATOM      1  C   UNL d   1       5.147  -2.315   6.000  0.00  0.00     0.023 A 
ATOM      2  C1  UNL d   1       4.601  -3.598   5.998  0.00  0.00     0.003 A 
ATOM      3  C2  UNL d   1       3.450  -3.868   5.255  0.00  0.00     0.048 A 
ATOM      4  C3  UNL d   1       2.851  -2.850   4.515  0.00  0.00     0.023 A 
ATOM      5  C4  UNL d   1       3.394  -1.564   4.513  0.00  0.00     0.048 A 
ATOM      6  C5  UNL d   1       4.544  -1.299   5.258  0.00  0.00     0.003 A 
ATOM      7  I   UNL d   1       1.138  -3.249   3.408  0.00  0.00    -0.146 I 
ENDROOT
TORSDOF 0
ENDMDL
