MODEL 1
REMARK minimizedAffinity 13.6338854
REMARK minimizedRMSD -1
REMARK  0 active torsions:
REMARK  status: ('A' for Active; 'I' for Inactive)
ROOT
ATOM      1  C   UNL d   1      -2.909  -1.638   5.518  0.00  0.00     0.023 A 
ATOM      2  C1  UNL d   1      -2.822  -2.646   4.558  0.00  0.00     0.003 A 
ATOM      3  C2  UNL d   1      -2.562  -2.322   3.225  0.00  0.00     0.048 A 
ATOM      4  C3  UNL d   1      -2.389  -0.988   2.859  0.00  0.00     0.023 A 
ATOM      5  C4  UNL d   1      -2.475   0.025   3.816  0.00  0.00     0.048 A 
ATOM      6  C5  UNL d   1      -2.736  -0.304   5.147  0.00  0.00     0.003 A 
ATOM      7  I   UNL d   1      -2.002  -0.503   0.875  0.00  0.00    -0.146 I 
ENDROOT
TORSDOF 0
ENDMDL
