MODEL 1
REMARK minimizedAffinity 22.1726208
REMARK minimizedRMSD -1
REMARK  0 active torsions:
REMARK  status: ('A' for Active; 'I' for Inactive)
ROOT
ATOM      1  C   UNL d   1      -1.507  -1.877   5.256  0.00  0.00     0.023 A 
ATOM      2  C1  UNL d   1      -1.692  -0.494   5.259  0.00  0.00     0.003 A 
ATOM      3  C2  UNL d   1      -2.981   0.039   5.196  0.00  0.00     0.048 A 
ATOM      4  C3  UNL d   1      -4.080  -0.816   5.132  0.00  0.00     0.023 A 
ATOM      5  C4  UNL d   1      -3.900  -2.200   5.130  0.00  0.00     0.048 A 
ATOM      6  C5  UNL d   1      -2.609  -2.729   5.192  0.00  0.00     0.003 A 
ATOM      7  I   UNL d   1      -6.000  -0.024   5.039  0.00  0.00    -0.146 I 
ENDROOT
TORSDOF 0
ENDMDL
