MODEL 1
REMARK minimizedAffinity 9.98556805
REMARK minimizedRMSD -1
REMARK  0 active torsions:
REMARK  status: ('A' for Active; 'I' for Inactive)
ROOT
ATOM      1  C   UNL d   1       5.999  -4.124  -5.779  0.00  0.00     0.023 A 
ATOM      2  C1  UNL d   1       5.777  -4.936  -4.667  0.00  0.00     0.003 A 
ATOM      3  C2  UNL d   1       4.749  -4.631  -3.772  0.00  0.00     0.048 A 
ATOM      4  C3  UNL d   1       3.947  -3.513  -3.997  0.00  0.00     0.023 A 
ATOM      5  C4  UNL d   1       4.165  -2.698  -5.109  0.00  0.00     0.048 A 
ATOM      6  C5  UNL d   1       5.195  -3.007  -6.000  0.00  0.00     0.003 A 
ATOM      7  I   UNL d   1       2.416  -3.056  -2.667  0.00  0.00    -0.146 I 
ENDROOT
TORSDOF 0
ENDMDL
