MODEL 1
REMARK minimizedAffinity 1.94302261
REMARK minimizedRMSD -1
REMARK  0 active torsions:
REMARK  status: ('A' for Active; 'I' for Inactive)
ROOT
ATOM      1  C   UNL d   1       4.063  -4.451  -6.000  0.00  0.00     0.023 A 
ATOM      2  C1  UNL d   1       5.436  -4.207  -5.994  0.00  0.00     0.003 A 
ATOM      3  C2  UNL d   1       5.994  -3.367  -5.028  0.00  0.00     0.048 A 
ATOM      4  C3  UNL d   1       5.172  -2.776  -4.069  0.00  0.00     0.023 A 
ATOM      5  C4  UNL d   1       3.797  -3.018  -4.070  0.00  0.00     0.048 A 
ATOM      6  C5  UNL d   1       3.244  -3.857  -5.039  0.00  0.00     0.003 A 
ATOM      7  I   UNL d   1       5.999  -1.526  -2.629  0.00  0.00    -0.146 I 
ENDROOT
TORSDOF 0
ENDMDL
