MODEL 1
REMARK minimizedAffinity 5.52926922
REMARK minimizedRMSD -1
REMARK  0 active torsions:
REMARK  status: ('A' for Active; 'I' for Inactive)
ROOT
ATOM      1  C   UNL d   1      -1.988  -1.427   5.101  0.00  0.00     0.023 A 
ATOM      2  C1  UNL d   1      -3.078  -2.019   5.740  0.00  0.00     0.003 A 
ATOM      3  C2  UNL d   1      -4.228  -1.270   5.999  0.00  0.00     0.048 A 
ATOM      4  C3  UNL d   1      -4.282   0.069   5.615  0.00  0.00     0.023 A 
ATOM      5  C4  UNL d   1      -3.195   0.665   4.975  0.00  0.00     0.048 A 
ATOM      6  C5  UNL d   1      -2.047  -0.087   4.719  0.00  0.00     0.003 A 
ATOM      7  I   UNL d   1      -5.993   1.186   5.999  0.00  0.00    -0.146 I 
ENDROOT
TORSDOF 0
ENDMDL
