MODEL 1
REMARK minimizedAffinity 6.22499847
REMARK minimizedRMSD -1
REMARK  0 active torsions:
REMARK  status: ('A' for Active; 'I' for Inactive)
ROOT
ATOM      1  C   UNL d   1       3.540  -1.983   4.245  0.00  0.00     0.023 A 
ATOM      2  C1  UNL d   1       3.000  -3.265   4.144  0.00  0.00     0.003 A 
ATOM      3  C2  UNL d   1       3.703  -4.362   4.646  0.00  0.00     0.048 A 
ATOM      4  C3  UNL d   1       4.945  -4.169   5.250  0.00  0.00     0.023 A 
ATOM      5  C4  UNL d   1       5.489  -2.888   5.355  0.00  0.00     0.048 A 
ATOM      6  C5  UNL d   1       4.782  -1.795   4.849  0.00  0.00     0.003 A 
ATOM      7  I   UNL d   1       5.993  -5.800   6.000  0.00  0.00    -0.146 I 
ENDROOT
TORSDOF 0
ENDMDL
