MODEL 1
REMARK minimizedAffinity 0.383629233
REMARK minimizedRMSD -1
REMARK  0 active torsions:
REMARK  status: ('A' for Active; 'I' for Inactive)
ROOT
ATOM      1  C   UNL d   1       4.053   3.595  -4.455  0.00  0.00     0.023 A 
ATOM      2  C1  UNL d   1       3.263   4.454  -3.692  0.00  0.00     0.003 A 
ATOM      3  C2  UNL d   1       3.819   5.145  -2.614  0.00  0.00     0.048 A 
ATOM      4  C3  UNL d   1       5.168   4.973  -2.304  0.00  0.00     0.023 A 
ATOM      5  C4  UNL d   1       5.964   4.115  -3.066  0.00  0.00     0.048 A 
ATOM      6  C5  UNL d   1       5.402   3.425  -4.142  0.00  0.00     0.003 A 
ATOM      7  I   UNL d   1       6.000   6.000  -0.700  0.00  0.00    -0.146 I 
ENDROOT
TORSDOF 0
ENDMDL
