MODEL 1
REMARK minimizedAffinity -0.280254722
REMARK minimizedRMSD -1
REMARK  0 active torsions:
REMARK  status: ('A' for Active; 'I' for Inactive)
ROOT
ATOM      1  C   UNL d   1       0.517   1.509  -0.930  0.00  0.00     0.023 A 
ATOM      2  C1  UNL d   1       0.878   0.472  -1.790  0.00  0.00     0.003 A 
ATOM      3  C2  UNL d   1       0.531  -0.845  -1.482  0.00  0.00     0.048 A 
ATOM      4  C3  UNL d   1      -0.178  -1.118  -0.313  0.00  0.00     0.023 A 
ATOM      5  C4  UNL d   1      -0.543  -0.084   0.550  0.00  0.00     0.048 A 
ATOM      6  C5  UNL d   1      -0.192   1.231   0.239  0.00  0.00     0.003 A 
ATOM      7  I   UNL d   1      -0.697  -3.078   0.147  0.00  0.00    -0.146 I 
ENDROOT
TORSDOF 0
ENDMDL
