MODEL 1
REMARK minimizedAffinity 4.88644934
REMARK minimizedRMSD -1
REMARK  0 active torsions:
REMARK  status: ('A' for Active; 'I' for Inactive)
ROOT
ATOM      1  C   UNL d   1      -3.060  -5.850  -5.721  0.00  0.00     0.023 A 
ATOM      2  C1  UNL d   1      -3.584  -5.996  -4.437  0.00  0.00     0.003 A 
ATOM      3  C2  UNL d   1      -3.220  -5.103  -3.427  0.00  0.00     0.048 A 
ATOM      4  C3  UNL d   1      -2.333  -4.065  -3.709  0.00  0.00     0.023 A 
ATOM      5  C4  UNL d   1      -1.806  -3.914  -4.993  0.00  0.00     0.048 A 
ATOM      6  C5  UNL d   1      -2.172  -4.810  -5.999  0.00  0.00     0.003 A 
ATOM      7  I   UNL d   1      -1.789  -2.735  -2.207  0.00  0.00    -0.146 I 
ENDROOT
TORSDOF 0
ENDMDL
