MODEL 1
REMARK minimizedAffinity 3.4884479
REMARK minimizedRMSD -1
REMARK  0 active torsions:
REMARK  status: ('A' for Active; 'I' for Inactive)
ROOT
ATOM      1  C2' OXE d   1      -0.717  -2.585  -1.357  0.00  0.00     0.078 C 
ATOM      2  C1' OXE d   1      -1.018  -0.242   0.160  0.00  0.00     0.078 C 
ATOM      3  C1  OXE d   1       0.101  -1.182   0.531  0.00  0.00    -0.078 A 
ATOM      4  C2  OXE d   1       0.212  -2.348  -0.186  0.00  0.00    -0.078 A 
ATOM      5  C3  OXE d   1       1.261  -3.225   0.080  0.00  0.00     0.003 A 
ATOM      6  C4  OXE d   1       2.110  -3.003   1.171  0.00  0.00    -0.002 A 
ATOM      7  C5  OXE d   1       1.989  -1.841   1.940  0.00  0.00    -0.002 A 
ATOM      8  C6  OXE d   1       1.020  -0.902   1.608  0.00  0.00     0.003 A 
ENDROOT
TORSDOF 0
ENDMDL
