MODEL 1
REMARK minimizedAffinity 3.65812421
REMARK minimizedRMSD -1
REMARK  0 active torsions:
REMARK  status: ('A' for Active; 'I' for Inactive)
ROOT
ATOM      1  C2' OXE d   1      -1.791  -1.165  -1.468  0.00  0.00     0.078 C 
ATOM      2  C1' OXE d   1       0.655  -1.976  -2.581  0.00  0.00     0.078 C 
ATOM      3  C1  OXE d   1       0.481  -2.116  -1.090  0.00  0.00    -0.078 A 
ATOM      4  C2  OXE d   1      -0.702  -1.673  -0.547  0.00  0.00    -0.078 A 
ATOM      5  C3  OXE d   1      -0.936  -1.829   0.816  0.00  0.00     0.003 A 
ATOM      6  C4  OXE d   1       0.080  -2.290   1.661  0.00  0.00    -0.002 A 
ATOM      7  C5  OXE d   1       1.306  -2.709   1.135  0.00  0.00    -0.002 A 
ATOM      8  C6  OXE d   1       1.507  -2.669  -0.241  0.00  0.00     0.003 A 
ENDROOT
TORSDOF 0
ENDMDL
