MODEL 1
REMARK minimizedAffinity -0.825729787
REMARK minimizedRMSD -1
REMARK  0 active torsions:
REMARK  status: ('A' for Active; 'I' for Inactive)
ROOT
ATOM      1  C2' OXE d   1       0.610  -2.549  -2.385  0.00  0.00     0.078 C 
ATOM      2  C1' OXE d   1      -1.848  -2.234  -1.066  0.00  0.00     0.078 C 
ATOM      3  C1  OXE d   1      -0.607  -2.367  -0.219  0.00  0.00    -0.078 A 
ATOM      4  C2  OXE d   1       0.586  -2.568  -0.872  0.00  0.00    -0.078 A 
ATOM      5  C3  OXE d   1       1.768  -2.642  -0.141  0.00  0.00     0.003 A 
ATOM      6  C4  OXE d   1       1.735  -2.669   1.259  0.00  0.00    -0.002 A 
ATOM      7  C5  OXE d   1       0.527  -2.505   1.944  0.00  0.00    -0.002 A 
ATOM      8  C6  OXE d   1      -0.645  -2.311   1.222  0.00  0.00     0.003 A 
ENDROOT
TORSDOF 0
ENDMDL
