MODEL 1
REMARK minimizedAffinity 1.41174042
REMARK minimizedRMSD -1
REMARK  0 active torsions:
REMARK  status: ('A' for Active; 'I' for Inactive)
ROOT
ATOM      1  C2' OXE d   1       2.694  -2.164   2.440  0.00  0.00     0.078 C 
ATOM      2  C1' OXE d   1       2.557   0.386   1.274  0.00  0.00     0.078 C 
ATOM      3  C1  OXE d   1       1.291  -0.433   1.326  0.00  0.00    -0.078 A 
ATOM      4  C2  OXE d   1       1.378  -1.698   1.856  0.00  0.00    -0.078 A 
ATOM      5  C3  OXE d   1       0.229  -2.474   1.978  0.00  0.00     0.003 A 
ATOM      6  C4  OXE d   1      -0.982  -2.040   1.427  0.00  0.00    -0.002 A 
ATOM      7  C5  OXE d   1      -1.083  -0.771   0.847  0.00  0.00    -0.002 A 
ATOM      8  C6  OXE d   1       0.032   0.060   0.827  0.00  0.00     0.003 A 
ENDROOT
TORSDOF 0
ENDMDL
