MODEL 1
REMARK minimizedAffinity 0.0701614395
REMARK minimizedRMSD -1
REMARK  0 active torsions:
REMARK  status: ('A' for Active; 'I' for Inactive)
ROOT
ATOM      1  C2' OXE d   1      -2.831  -2.887  -1.219  0.00  0.00     0.078 C 
ATOM      2  C1' OXE d   1      -1.620  -2.528   1.288  0.00  0.00     0.078 C 
ATOM      3  C1  OXE d   1      -0.735  -2.492   0.067  0.00  0.00    -0.078 A 
ATOM      4  C2  OXE d   1      -1.328  -2.715  -1.152  0.00  0.00    -0.078 A 
ATOM      5  C3  OXE d   1      -0.566  -2.638  -2.314  0.00  0.00     0.003 A 
ATOM      6  C4  OXE d   1       0.824  -2.488  -2.242  0.00  0.00    -0.002 A 
ATOM      7  C5  OXE d   1       1.454  -2.299  -1.007  0.00  0.00    -0.002 A 
ATOM      8  C6  OXE d   1       0.686  -2.256   0.151  0.00  0.00     0.003 A 
ENDROOT
TORSDOF 0
ENDMDL
