MODEL 1
REMARK minimizedAffinity 2.94147277
REMARK minimizedRMSD -1
REMARK  0 active torsions:
REMARK  status: ('A' for Active; 'I' for Inactive)
ROOT
ATOM      1  C2' OXE d   1      -1.351  -2.393   0.973  0.00  0.00     0.078 C 
ATOM      2  C1' OXE d   1      -1.917   0.353   0.836  0.00  0.00     0.078 C 
ATOM      3  C1  OXE d   1      -0.482  -0.060   1.050  0.00  0.00    -0.078 A 
ATOM      4  C2  OXE d   1      -0.221  -1.404   1.163  0.00  0.00    -0.078 A 
ATOM      5  C3  OXE d   1       1.093  -1.842   1.306  0.00  0.00     0.003 A 
ATOM      6  C4  OXE d   1       2.131  -0.920   1.491  0.00  0.00    -0.002 A 
ATOM      7  C5  OXE d   1       1.881   0.454   1.419  0.00  0.00    -0.002 A 
ATOM      8  C6  OXE d   1       0.590   0.899   1.158  0.00  0.00     0.003 A 
ENDROOT
TORSDOF 0
ENDMDL
