MODEL 1
REMARK minimizedAffinity 13.526638
REMARK minimizedRMSD -1
REMARK  0 active torsions:
REMARK  status: ('A' for Active; 'I' for Inactive)
ROOT
ATOM      1  C2' OXE d   1       1.275  -3.660  -2.836  0.00  0.00     0.078 C 
ATOM      2  C1' OXE d   1       1.826  -4.453  -0.200  0.00  0.00     0.078 C 
ATOM      3  C1  OXE d   1       0.815  -3.352  -0.407  0.00  0.00    -0.078 A 
ATOM      4  C2  OXE d   1       0.587  -2.939  -1.697  0.00  0.00    -0.078 A 
ATOM      5  C3  OXE d   1      -0.376  -1.965  -1.949  0.00  0.00     0.003 A 
ATOM      6  C4  OXE d   1      -1.001  -1.296  -0.889  0.00  0.00    -0.002 A 
ATOM      7  C5  OXE d   1      -0.753  -1.674   0.434  0.00  0.00    -0.002 A 
ATOM      8  C6  OXE d   1       0.119  -2.727   0.690  0.00  0.00     0.003 A 
ENDROOT
TORSDOF 0
ENDMDL
