MODEL 1
REMARK minimizedAffinity 11.199872
REMARK minimizedRMSD -1
REMARK  0 active torsions:
REMARK  status: ('A' for Active; 'I' for Inactive)
ROOT
ATOM      1  C2' OXE d   1      -3.516   2.597  -1.892  0.00  0.00     0.078 C 
ATOM      2  C1' OXE d   1      -5.698   4.265  -1.313  0.00  0.00     0.078 C 
ATOM      3  C1  OXE d   1      -5.261   3.285  -0.253  0.00  0.00    -0.078 A 
ATOM      4  C2  OXE d   1      -4.222   2.441  -0.563  0.00  0.00    -0.078 A 
ATOM      5  C3  OXE d   1      -3.744   1.555   0.399  0.00  0.00     0.003 A 
ATOM      6  C4  OXE d   1      -4.410   1.409   1.622  0.00  0.00    -0.002 A 
ATOM      7  C5  OXE d   1      -5.495   2.232   1.942  0.00  0.00    -0.002 A 
ATOM      8  C6  OXE d   1      -5.906   3.202   1.034  0.00  0.00     0.003 A 
ENDROOT
TORSDOF 0
ENDMDL
