MODEL 1
REMARK minimizedAffinity 1.84549987
REMARK minimizedRMSD -1
REMARK  0 active torsions:
REMARK  status: ('A' for Active; 'I' for Inactive)
ROOT
ATOM      1  C2' OXE d   1       2.384   1.143   1.570  0.00  0.00     0.078 C 
ATOM      2  C1' OXE d   1       3.732  -1.213   0.853  0.00  0.00     0.078 C 
ATOM      3  C1  OXE d   1       2.233  -1.279   1.007  0.00  0.00    -0.078 A 
ATOM      4  C2  OXE d   1       1.587  -0.133   1.404  0.00  0.00    -0.078 A 
ATOM      5  C3  OXE d   1       0.199  -0.125   1.508  0.00  0.00     0.003 A 
ATOM      6  C4  OXE d   1      -0.530  -1.312   1.362  0.00  0.00    -0.002 A 
ATOM      7  C5  OXE d   1       0.113  -2.499   0.997  0.00  0.00    -0.002 A 
ATOM      8  C6  OXE d   1       1.486  -2.491   0.775  0.00  0.00     0.003 A 
ENDROOT
TORSDOF 0
ENDMDL
