MODEL 1
REMARK minimizedAffinity -0.512058079
REMARK minimizedRMSD -1
REMARK  0 active torsions:
REMARK  status: ('A' for Active; 'I' for Inactive)
ROOT
ATOM      1  C2' OXE d   1      -1.669   1.019   0.942  0.00  0.00     0.078 C 
ATOM      2  C1' OXE d   1      -0.672  -1.548   1.488  0.00  0.00     0.078 C 
ATOM      3  C1  OXE d   1       0.320  -0.417   1.373  0.00  0.00    -0.078 A 
ATOM      4  C2  OXE d   1      -0.173   0.827   1.060  0.00  0.00    -0.078 A 
ATOM      5  C3  OXE d   1       0.693   1.915   0.996  0.00  0.00     0.003 A 
ATOM      6  C4  OXE d   1       2.077   1.727   1.096  0.00  0.00    -0.002 A 
ATOM      7  C5  OXE d   1       2.603   0.461   1.375  0.00  0.00    -0.002 A 
ATOM      8  C6  OXE d   1       1.737  -0.611   1.558  0.00  0.00     0.003 A 
ENDROOT
TORSDOF 0
ENDMDL
