MODEL 1
REMARK minimizedAffinity -0.837040186
REMARK minimizedRMSD -1
REMARK  0 active torsions:
REMARK  status: ('A' for Active; 'I' for Inactive)
ROOT
ATOM      1  C2' OXE d   1      -4.494   2.441  -5.833  0.00  0.00     0.078 C 
ATOM      2  C1' OXE d   1      -5.640   0.472  -4.193  0.00  0.00     0.078 C 
ATOM      3  C1  OXE d   1      -4.489   1.271  -3.634  0.00  0.00    -0.078 A 
ATOM      4  C2  OXE d   1      -3.904   2.200  -4.460  0.00  0.00    -0.078 A 
ATOM      5  C3  OXE d   1      -2.875   3.002  -3.976  0.00  0.00     0.003 A 
ATOM      6  C4  OXE d   1      -2.329   2.766  -2.708  0.00  0.00    -0.002 A 
ATOM      7  C5  OXE d   1      -2.883   1.797  -1.865  0.00  0.00    -0.002 A 
ATOM      8  C6  OXE d   1      -3.989   1.072  -2.296  0.00  0.00     0.003 A 
ENDROOT
TORSDOF 0
ENDMDL
