MODEL 1
REMARK minimizedAffinity 12.2193823
REMARK minimizedRMSD -1
REMARK  0 active torsions:
REMARK  status: ('A' for Active; 'I' for Inactive)
ROOT
ATOM      1  O1  BZF d   1       0.473   3.538  -1.251  0.00  0.00    -0.204 OA
ATOM      2  C2  BZF d   1      -0.644   2.876  -1.725  0.00  0.00     0.174 A 
ATOM      3  C3  BZF d   1      -1.083   1.974  -0.823  0.00  0.00    -0.012 A 
ATOM      4  C3A BZF d   1      -0.239   2.143   0.320  0.00  0.00    -0.107 A 
ATOM      5  C4  BZF d   1      -0.189   1.545   1.547  0.00  0.00     0.055 A 
ATOM      6  C5  BZF d   1       0.803   1.889   2.409  0.00  0.00    -0.016 A 
ATOM      7  C6  BZF d   1       1.763   2.822   2.077  0.00  0.00     0.022 A 
ATOM      8  C7  BZF d   1       1.751   3.446   0.874  0.00  0.00     0.029 A 
ATOM      9  C7A BZF d   1       0.731   3.125   0.013  0.00  0.00     0.058 A 
ENDROOT
TORSDOF 0
ENDMDL
