MODEL 1
REMARK minimizedAffinity 13.1014748
REMARK minimizedRMSD -1
REMARK  0 active torsions:
REMARK  status: ('A' for Active; 'I' for Inactive)
ROOT
ATOM      1  O1  BZF d   1      -4.088  -3.434  -5.964  0.00  0.00    -0.204 OA
ATOM      2  C2  BZF d   1      -3.911  -2.064  -5.983  0.00  0.00     0.174 A 
ATOM      3  C3  BZF d   1      -2.600  -1.751  -5.940  0.00  0.00    -0.012 A 
ATOM      4  C3A BZF d   1      -1.912  -3.004  -5.984  0.00  0.00    -0.107 A 
ATOM      5  C4  BZF d   1      -0.591  -3.350  -5.986  0.00  0.00     0.055 A 
ATOM      6  C5  BZF d   1      -0.252  -4.666  -5.961  0.00  0.00    -0.016 A 
ATOM      7  C6  BZF d   1      -1.208  -5.660  -5.928  0.00  0.00     0.022 A 
ATOM      8  C7  BZF d   1      -2.531  -5.367  -5.929  0.00  0.00     0.029 A 
ATOM      9  C7A BZF d   1      -2.876  -4.038  -5.988  0.00  0.00     0.058 A 
ENDROOT
TORSDOF 0
ENDMDL
