MODEL 1
REMARK minimizedAffinity 8.89083195
REMARK minimizedRMSD -1
REMARK  0 active torsions:
REMARK  status: ('A' for Active; 'I' for Inactive)
ROOT
ATOM      1  O1  BZF d   1       0.389   2.119  -0.827  0.00  0.00    -0.204 OA
ATOM      2  C2  BZF d   1       0.297   2.021   0.548  0.00  0.00     0.174 A 
ATOM      3  C3  BZF d   1      -0.002   3.217   1.095  0.00  0.00    -0.012 A 
ATOM      4  C3A BZF d   1      -0.194   4.100  -0.015  0.00  0.00    -0.107 A 
ATOM      5  C4  BZF d   1      -0.527   5.420  -0.117  0.00  0.00     0.055 A 
ATOM      6  C5  BZF d   1      -0.562   5.999  -1.346  0.00  0.00    -0.016 A 
ATOM      7  C6  BZF d   1      -0.266   5.290  -2.491  0.00  0.00     0.022 A 
ATOM      8  C7  BZF d   1       0.064   3.977  -2.441  0.00  0.00     0.029 A 
ATOM      9  C7A BZF d   1       0.069   3.380  -1.203  0.00  0.00     0.058 A 
ENDROOT
TORSDOF 0
ENDMDL
