MODEL 1
REMARK minimizedAffinity 13.540844
REMARK minimizedRMSD -1
REMARK  0 active torsions:
REMARK  status: ('A' for Active; 'I' for Inactive)
ROOT
ATOM      1  O1  BZF d   1      -4.184  -2.363  -5.957  0.00  0.00    -0.204 OA
ATOM      2  C2  BZF d   1      -5.508  -2.757  -5.946  0.00  0.00     0.174 A 
ATOM      3  C3  BZF d   1      -5.607  -4.101  -5.998  0.00  0.00    -0.012 A 
ATOM      4  C3A BZF d   1      -4.260  -4.580  -5.951  0.00  0.00    -0.107 A 
ATOM      5  C4  BZF d   1      -3.706  -5.828  -5.954  0.00  0.00     0.055 A 
ATOM      6  C5  BZF d   1      -2.353  -5.951  -5.974  0.00  0.00    -0.016 A 
ATOM      7  C6  BZF d   1      -1.524  -4.849  -5.997  0.00  0.00     0.022 A 
ATOM      8  C7  BZF d   1      -2.027  -3.590  -5.990  0.00  0.00     0.029 A 
ATOM      9  C7A BZF d   1      -3.393  -3.462  -5.936  0.00  0.00     0.058 A 
ENDROOT
TORSDOF 0
ENDMDL
