MODEL 1
REMARK minimizedAffinity 6.75043297
REMARK minimizedRMSD -1
REMARK  0 active torsions:
REMARK  status: ('A' for Active; 'I' for Inactive)
ROOT
ATOM      1  O1  BZF d   1       0.944  -4.254  -3.896  0.00  0.00    -0.204 OA
ATOM      2  C2  BZF d   1       1.015  -5.072  -2.784  0.00  0.00     0.174 A 
ATOM      3  C3  BZF d   1      -0.136  -5.757  -2.621  0.00  0.00    -0.012 A 
ATOM      4  C3A BZF d   1      -0.944  -5.410  -3.749  0.00  0.00    -0.107 A 
ATOM      5  C4  BZF d   1      -2.192  -5.781  -4.160  0.00  0.00     0.055 A 
ATOM      6  C5  BZF d   1      -2.722  -5.203  -5.270  0.00  0.00    -0.016 A 
ATOM      7  C6  BZF d   1      -2.034  -4.249  -5.990  0.00  0.00     0.022 A 
ATOM      8  C7  BZF d   1      -0.790  -3.852  -5.625  0.00  0.00     0.029 A 
ATOM      9  C7A BZF d   1      -0.239  -4.458  -4.522  0.00  0.00     0.058 A 
ENDROOT
TORSDOF 0
ENDMDL
