MODEL 1
REMARK minimizedAffinity -3.14136481
REMARK minimizedRMSD -1
REMARK  0 active torsions:
REMARK  status: ('A' for Active; 'I' for Inactive)
ROOT
ATOM      1  O1  BZF d   1      -4.544  -4.230  -5.949  0.00  0.00    -0.204 OA
ATOM      2  C2  BZF d   1      -4.447  -5.608  -5.934  0.00  0.00     0.174 A 
ATOM      3  C3  BZF d   1      -3.157  -5.997  -5.987  0.00  0.00    -0.012 A 
ATOM      4  C3A BZF d   1      -2.397  -4.785  -5.945  0.00  0.00    -0.107 A 
ATOM      5  C4  BZF d   1      -1.058  -4.516  -5.951  0.00  0.00     0.055 A 
ATOM      6  C5  BZF d   1      -0.644  -3.222  -5.975  0.00  0.00    -0.016 A 
ATOM      7  C6  BZF d   1      -1.540  -2.174  -6.000  0.00  0.00     0.022 A 
ATOM      8  C7  BZF d   1      -2.878  -2.391  -5.990  0.00  0.00     0.029 A 
ATOM      9  C7A BZF d   1      -3.299  -3.697  -5.932  0.00  0.00     0.058 A 
ENDROOT
TORSDOF 0
ENDMDL
