MODEL 1
REMARK minimizedAffinity 10.7489462
REMARK minimizedRMSD -1
REMARK  0 active torsions:
REMARK  status: ('A' for Active; 'I' for Inactive)
ROOT
ATOM      1  O1  BZF d   1       0.806   4.255   0.002  0.00  0.00    -0.204 OA
ATOM      2  C2  BZF d   1       0.382   2.997   0.385  0.00  0.00     0.174 A 
ATOM      3  C3  BZF d   1      -0.684   2.609  -0.345  0.00  0.00    -0.012 A 
ATOM      4  C3A BZF d   1      -0.884   3.652  -1.303  0.00  0.00    -0.107 A 
ATOM      5  C4  BZF d   1      -1.780   3.837  -2.317  0.00  0.00     0.055 A 
ATOM      6  C5  BZF d   1      -1.752   4.999  -3.020  0.00  0.00    -0.016 A 
ATOM      7  C6  BZF d   1      -0.846   5.999  -2.734  0.00  0.00     0.022 A 
ATOM      8  C7  BZF d   1       0.066   5.860  -1.741  0.00  0.00     0.029 A 
ATOM      9  C7A BZF d   1       0.061   4.673  -1.050  0.00  0.00     0.058 A 
ENDROOT
TORSDOF 0
ENDMDL
