MODEL 1
REMARK minimizedAffinity 8.25304699
REMARK minimizedRMSD -1
REMARK  0 active torsions:
REMARK  status: ('A' for Active; 'I' for Inactive)
ROOT
ATOM      1  O1  BZF d   1      -2.992  -2.160  -5.957  0.00  0.00    -0.204 OA
ATOM      2  C2  BZF d   1      -1.786  -1.486  -5.957  0.00  0.00     0.174 A 
ATOM      3  C3  BZF d   1      -0.753  -2.352  -5.914  0.00  0.00    -0.012 A 
ATOM      4  C3A BZF d   1      -1.349  -3.651  -5.979  0.00  0.00    -0.107 A 
ATOM      5  C4  BZF d   1      -0.840  -4.918  -5.991  0.00  0.00     0.055 A 
ATOM      6  C5  BZF d   1      -1.695  -5.974  -5.986  0.00  0.00    -0.016 A 
ATOM      7  C6  BZF d   1      -3.063  -5.800  -5.964  0.00  0.00     0.022 A 
ATOM      8  C7  BZF d   1      -3.616  -4.562  -5.956  0.00  0.00     0.029 A 
ATOM      9  C7A BZF d   1      -2.754  -3.493  -5.995  0.00  0.00     0.058 A 
ENDROOT
TORSDOF 0
ENDMDL
