MODEL 1
REMARK minimizedAffinity 5.2201972
REMARK minimizedRMSD -1
REMARK  0 active torsions:
REMARK  status: ('A' for Active; 'I' for Inactive)
ROOT
ATOM      1  O1  BZF d   1      -1.981  -5.525  -4.935  0.00  0.00    -0.204 OA
ATOM      2  C2  BZF d   1      -3.209  -5.731  -5.534  0.00  0.00     0.174 A 
ATOM      3  C3  BZF d   1      -3.718  -4.569  -5.993  0.00  0.00    -0.012 A 
ATOM      4  C3A BZF d   1      -2.706  -3.590  -5.743  0.00  0.00    -0.107 A 
ATOM      5  C4  BZF d   1      -2.615  -2.250  -5.989  0.00  0.00     0.055 A 
ATOM      6  C5  BZF d   1      -1.521  -1.571  -5.554  0.00  0.00    -0.016 A 
ATOM      7  C6  BZF d   1      -0.504  -2.199  -4.865  0.00  0.00     0.022 A 
ATOM      8  C7  BZF d   1      -0.547  -3.527  -4.602  0.00  0.00     0.029 A 
ATOM      9  C7A BZF d   1      -1.635  -4.222  -5.069  0.00  0.00     0.058 A 
ENDROOT
TORSDOF 0
ENDMDL
