MODEL 1
REMARK minimizedAffinity 8.7514019
REMARK minimizedRMSD -1
REMARK  0 active torsions:
REMARK  status: ('A' for Active; 'I' for Inactive)
ROOT
ATOM      1  O1  BZF d   1      -3.865  -0.695   2.982  0.00  0.00    -0.204 OA
ATOM      2  C2  BZF d   1      -5.003  -0.505   3.742  0.00  0.00     0.174 A 
ATOM      3  C3  BZF d   1      -5.999   0.007   2.991  0.00  0.00    -0.012 A 
ATOM      4  C3A BZF d   1      -5.479   0.060   1.659  0.00  0.00    -0.107 A 
ATOM      5  C4  BZF d   1      -6.000   0.461   0.463  0.00  0.00     0.055 A 
ATOM      6  C5  BZF d   1      -5.205   0.455  -0.639  0.00  0.00    -0.016 A 
ATOM      7  C6  BZF d   1      -3.885   0.059  -0.580  0.00  0.00     0.022 A 
ATOM      8  C7  BZF d   1      -3.325  -0.352   0.584  0.00  0.00     0.029 A 
ATOM      9  C7A BZF d   1      -4.135  -0.378   1.693  0.00  0.00     0.058 A 
ENDROOT
TORSDOF 0
ENDMDL
