MODEL 1
REMARK minimizedAffinity 9.12879753
REMARK minimizedRMSD -1
REMARK  0 active torsions:
REMARK  status: ('A' for Active; 'I' for Inactive)
ROOT
ATOM      1  O1  BZF d   1      -3.910  -4.910  -4.174  0.00  0.00    -0.204 OA
ATOM      2  C2  BZF d   1      -4.178  -5.895  -5.104  0.00  0.00     0.174 A 
ATOM      3  C3  BZF d   1      -3.170  -5.999  -5.994  0.00  0.00    -0.012 A 
ATOM      4  C3A BZF d   1      -2.172  -5.080  -5.541  0.00  0.00    -0.107 A 
ATOM      5  C4  BZF d   1      -0.931  -4.740  -6.000  0.00  0.00     0.055 A 
ATOM      6  C5  BZF d   1      -0.241  -3.753  -5.370  0.00  0.00    -0.016 A 
ATOM      7  C6  BZF d   1      -0.763  -3.082  -4.283  0.00  0.00     0.022 A 
ATOM      8  C7  BZF d   1      -1.988  -3.388  -3.789  0.00  0.00     0.029 A 
ATOM      9  C7A BZF d   1      -2.673  -4.407  -4.403  0.00  0.00     0.058 A 
ENDROOT
TORSDOF 0
ENDMDL
