MODEL 1
REMARK minimizedAffinity 7.26691818
REMARK minimizedRMSD -1
REMARK  0 active torsions:
REMARK  status: ('A' for Active; 'I' for Inactive)
ROOT
ATOM      1  O1  BZF d   1       0.256  -4.458  -2.940  0.00  0.00    -0.204 OA
ATOM      2  C2  BZF d   1      -0.547  -4.199  -1.846  0.00  0.00     0.174 A 
ATOM      3  C3  BZF d   1      -1.374  -3.163  -2.095  0.00  0.00    -0.012 A 
ATOM      4  C3A BZF d   1      -1.134  -2.808  -3.460  0.00  0.00    -0.107 A 
ATOM      5  C4  BZF d   1      -1.662  -1.862  -4.291  0.00  0.00     0.055 A 
ATOM      6  C5  BZF d   1      -1.157  -1.729  -5.545  0.00  0.00    -0.016 A 
ATOM      7  C6  BZF d   1      -0.121  -2.519  -5.999  0.00  0.00     0.022 A 
ATOM      8  C7  BZF d   1       0.432  -3.474  -5.212  0.00  0.00     0.029 A 
ATOM      9  C7A BZF d   1      -0.099  -3.634  -3.956  0.00  0.00     0.058 A 
ENDROOT
TORSDOF 0
ENDMDL
