MODEL 1
REMARK minimizedAffinity 15.4757013
REMARK minimizedRMSD -1
REMARK  1 active torsions:
REMARK  status: ('A' for Active; 'I' for Inactive)
REMARK    1  A    between atoms: C1_2  and  C2_3 
ROOT
ATOM      1  C2  UNL d   1      -1.083   2.986  -2.236  0.00  0.00    -0.076 A 
ATOM      2  C3  UNL d   1      -1.440   1.648  -1.993  0.00  0.00     0.004 A 
ATOM      3  C4  UNL d   1      -2.722   1.183  -2.280  0.00  0.00    -0.003 A 
ATOM      4  C5  UNL d   1      -3.669   2.049  -2.817  0.00  0.00     0.000 A 
ATOM      5  C6  UNL d   1      -3.327   3.375  -3.082  0.00  0.00     0.000 A 
ATOM      6  C7  UNL d   1      -2.034   3.855  -2.813  0.00  0.00    -0.073 A 
ATOM      7  C8  UNL d   1      -1.722   5.296  -3.112  0.00  0.00     0.078 C 
ENDROOT
BRANCH   1   8
ATOM      8  C1  UNL d   1       0.314   3.440  -1.879  0.00  0.00     0.053 C 
ATOM      9  C   UNL d   1       0.612   3.295  -0.394  0.00  0.00     0.018 C 
ENDBRANCH   1   8
TORSDOF 1
ENDMDL
