MODEL 1
REMARK minimizedAffinity 11.0317249
REMARK minimizedRMSD -1
REMARK  1 active torsions:
REMARK  status: ('A' for Active; 'I' for Inactive)
REMARK    1  A    between atoms: C1_2  and  C2_3 
ROOT
ATOM      1  C2  UNL d   1       3.476  -4.143  -5.269  0.00  0.00    -0.076 A 
ATOM      2  C3  UNL d   1       3.642  -5.489  -5.637  0.00  0.00     0.004 A 
ATOM      3  C4  UNL d   1       4.894  -5.985  -6.000  0.00  0.00    -0.003 A 
ATOM      4  C5  UNL d   1       5.999  -5.142  -6.000  0.00  0.00     0.000 A 
ATOM      5  C6  UNL d   1       5.856  -3.807  -5.620  0.00  0.00     0.000 A 
ATOM      6  C7  UNL d   1       4.605  -3.296  -5.236  0.00  0.00    -0.073 A 
ATOM      7  C8  UNL d   1       4.507  -1.848  -4.842  0.00  0.00     0.078 C 
ENDROOT
BRANCH   1   8
ATOM      8  C1  UNL d   1       2.090  -3.656  -4.911  0.00  0.00     0.053 C 
ATOM      9  C   UNL d   1       1.192  -4.773  -4.403  0.00  0.00     0.018 C 
ENDBRANCH   1   8
TORSDOF 1
ENDMDL
