MODEL 1
REMARK minimizedAffinity 5.81824446
REMARK minimizedRMSD -1
REMARK  1 active torsions:
REMARK  status: ('A' for Active; 'I' for Inactive)
REMARK    1  A    between atoms: C1_2  and  C2_3 
ROOT
ATOM      1  C2  UNL d   1      -0.096  -1.256   3.273  0.00  0.00    -0.076 A 
ATOM      2  C3  UNL d   1      -0.834  -2.431   3.498  0.00  0.00     0.004 A 
ATOM      3  C4  UNL d   1      -0.759  -3.506   2.614  0.00  0.00    -0.003 A 
ATOM      4  C5  UNL d   1       0.056  -3.424   1.490  0.00  0.00     0.000 A 
ATOM      5  C6  UNL d   1       0.808  -2.273   1.260  0.00  0.00     0.000 A 
ATOM      6  C7  UNL d   1       0.757  -1.186   2.150  0.00  0.00    -0.073 A 
ATOM      7  C8  UNL d   1       1.585   0.033   1.850  0.00  0.00     0.078 C 
ENDROOT
BRANCH   1   8
ATOM      8  C1  UNL d   1      -0.239  -0.113   4.252  0.00  0.00     0.053 C 
ATOM      9  C   UNL d   1      -0.873  -0.545   5.564  0.00  0.00     0.018 C 
ENDBRANCH   1   8
TORSDOF 1
ENDMDL
