MODEL 1
REMARK minimizedAffinity 13.2797318
REMARK minimizedRMSD -1
REMARK  1 active torsions:
REMARK  status: ('A' for Active; 'I' for Inactive)
REMARK    1  A    between atoms: C1_2  and  C2_3 
ROOT
ATOM      1  C2  UNL d   1      -4.780  -3.486   1.645  0.00  0.00    -0.076 A 
ATOM      2  C3  UNL d   1      -5.570  -4.057   0.632  0.00  0.00     0.004 A 
ATOM      3  C4  UNL d   1      -5.032  -4.983  -0.261  0.00  0.00    -0.003 A 
ATOM      4  C5  UNL d   1      -3.696  -5.353  -0.155  0.00  0.00     0.000 A 
ATOM      5  C6  UNL d   1      -2.902  -4.810   0.854  0.00  0.00     0.000 A 
ATOM      6  C7  UNL d   1      -3.433  -3.888   1.773  0.00  0.00    -0.073 A 
ATOM      7  C8  UNL d   1      -2.529  -3.329   2.838  0.00  0.00     0.078 C 
ENDROOT
BRANCH   1   8
ATOM      8  C1  UNL d   1      -5.410  -2.467   2.567  0.00  0.00     0.053 C 
ATOM      9  C   UNL d   1      -5.831  -1.202   1.837  0.00  0.00     0.018 C 
ENDBRANCH   1   8
TORSDOF 1
ENDMDL
