MODEL 1
REMARK minimizedAffinity 11.3220425
REMARK minimizedRMSD -1
REMARK  1 active torsions:
REMARK  status: ('A' for Active; 'I' for Inactive)
REMARK    1  A    between atoms: C1_2  and  C2_3 
ROOT
ATOM      1  C2  UNL d   1      -3.977   2.627  -1.884  0.00  0.00    -0.076 A 
ATOM      2  C3  UNL d   1      -2.984   1.894  -2.556  0.00  0.00     0.004 A 
ATOM      3  C4  UNL d   1      -1.796   2.500  -2.963  0.00  0.00    -0.003 A 
ATOM      4  C5  UNL d   1      -1.581   3.849  -2.702  0.00  0.00     0.000 A 
ATOM      5  C6  UNL d   1      -2.548   4.587  -2.021  0.00  0.00     0.000 A 
ATOM      6  C7  UNL d   1      -3.744   3.988  -1.590  0.00  0.00    -0.073 A 
ATOM      7  C8  UNL d   1      -4.755   4.833  -0.864  0.00  0.00     0.078 C 
ENDROOT
BRANCH   1   8
ATOM      8  C1  UNL d   1      -5.256   1.923  -1.491  0.00  0.00     0.053 C 
ATOM      9  C   UNL d   1      -5.992   1.342  -2.689  0.00  0.00     0.018 C 
ENDBRANCH   1   8
TORSDOF 1
ENDMDL
