MODEL 1
REMARK minimizedAffinity 9.19588947
REMARK minimizedRMSD -1
REMARK  1 active torsions:
REMARK  status: ('A' for Active; 'I' for Inactive)
REMARK    1  A    between atoms: C1_2  and  C2_3 
ROOT
ATOM      1  C2  UNL d   1       0.288   3.837  -1.411  0.00  0.00    -0.076 A 
ATOM      2  C3  UNL d   1       0.867   2.962  -0.476  0.00  0.00     0.004 A 
ATOM      3  C4  UNL d   1       0.293   1.722  -0.202  0.00  0.00    -0.003 A 
ATOM      4  C5  UNL d   1      -0.870   1.336  -0.860  0.00  0.00     0.000 A 
ATOM      5  C6  UNL d   1      -1.449   2.184  -1.804  0.00  0.00     0.000 A 
ATOM      6  C7  UNL d   1      -0.873   3.431  -2.103  0.00  0.00    -0.073 A 
ATOM      7  C8  UNL d   1      -1.543   4.308  -3.125  0.00  0.00     0.078 C 
ENDROOT
BRANCH   1   8
ATOM      8  C1  UNL d   1       0.940   5.180  -1.647  0.00  0.00     0.053 C 
ATOM      9  C   UNL d   1       1.065   5.999  -0.371  0.00  0.00     0.018 C 
ENDBRANCH   1   8
TORSDOF 1
ENDMDL
