MODEL 1
REMARK minimizedAffinity 6.40654087
REMARK minimizedRMSD -1
REMARK  1 active torsions:
REMARK  status: ('A' for Active; 'I' for Inactive)
REMARK    1  A    between atoms: C1_2  and  C2_3 
ROOT
ATOM      1  C2  UNL d   1       0.137   4.058  -1.539  0.00  0.00    -0.076 A 
ATOM      2  C3  UNL d   1       0.716   3.199  -0.589  0.00  0.00     0.004 A 
ATOM      3  C4  UNL d   1       0.420   1.837  -0.579  0.00  0.00    -0.003 A 
ATOM      4  C5  UNL d   1      -0.458   1.312  -1.520  0.00  0.00     0.000 A 
ATOM      5  C6  UNL d   1      -1.028   2.147  -2.481  0.00  0.00     0.000 A 
ATOM      6  C7  UNL d   1      -0.728   3.519  -2.515  0.00  0.00    -0.073 A 
ATOM      7  C8  UNL d   1      -1.376   4.375  -3.569  0.00  0.00     0.078 C 
ENDROOT
BRANCH   1   8
ATOM      8  C1  UNL d   1       0.475   5.531  -1.483  0.00  0.00     0.053 C 
ATOM      9  C   UNL d   1       0.862   5.988  -0.085  0.00  0.00     0.018 C 
ENDBRANCH   1   8
TORSDOF 1
ENDMDL
