MODEL 1
REMARK minimizedAffinity 11.5183706
REMARK minimizedRMSD -1
REMARK  1 active torsions:
REMARK  status: ('A' for Active; 'I' for Inactive)
REMARK    1  A    between atoms: C1_2  and  C2_3 
ROOT
ATOM      1  C2  UNL d   1      -0.375  -1.516   3.692  0.00  0.00    -0.076 A 
ATOM      2  C3  UNL d   1      -1.498  -2.329   3.927  0.00  0.00     0.004 A 
ATOM      3  C4  UNL d   1      -2.125  -3.005   2.882  0.00  0.00    -0.003 A 
ATOM      4  C5  UNL d   1      -1.640  -2.880   1.585  0.00  0.00     0.000 A 
ATOM      5  C6  UNL d   1      -0.516  -2.092   1.336  0.00  0.00     0.000 A 
ATOM      6  C7  UNL d   1       0.138  -1.417   2.381  0.00  0.00    -0.073 A 
ATOM      7  C8  UNL d   1       1.342  -0.576   2.055  0.00  0.00     0.078 C 
ENDROOT
BRANCH   1   8
ATOM      8  C1  UNL d   1       0.247  -0.785   4.861  0.00  0.00     0.053 C 
ATOM      9  C   UNL d   1      -0.750  -0.516   5.977  0.00  0.00     0.018 C 
ENDBRANCH   1   8
TORSDOF 1
ENDMDL
