MODEL 1
REMARK minimizedAffinity 4.67476749
REMARK minimizedRMSD -1
REMARK  1 active torsions:
REMARK  status: ('A' for Active; 'I' for Inactive)
REMARK    1  A    between atoms: C1_2  and  C2_3 
ROOT
ATOM      1  C2  UNL d   1      -0.590  -2.065   3.471  0.00  0.00    -0.076 A 
ATOM      2  C3  UNL d   1       0.098  -2.359   2.281  0.00  0.00     0.004 A 
ATOM      3  C4  UNL d   1       1.154  -1.560   1.845  0.00  0.00    -0.003 A 
ATOM      4  C5  UNL d   1       1.539  -0.453   2.593  0.00  0.00     0.000 A 
ATOM      5  C6  UNL d   1       0.879  -0.156   3.786  0.00  0.00     0.000 A 
ATOM      6  C7  UNL d   1      -0.176  -0.961   4.247  0.00  0.00    -0.073 A 
ATOM      7  C8  UNL d   1      -0.856  -0.591   5.536  0.00  0.00     0.078 C 
ENDROOT
BRANCH   1   8
ATOM      8  C1  UNL d   1      -1.744  -2.952   3.879  0.00  0.00     0.053 C 
ATOM      9  C   UNL d   1      -2.184  -3.886   2.762  0.00  0.00     0.018 C 
ENDBRANCH   1   8
TORSDOF 1
ENDMDL
