MODEL 1
REMARK minimizedAffinity 5.54482031
REMARK minimizedRMSD -1
REMARK  1 active torsions:
REMARK  status: ('A' for Active; 'I' for Inactive)
REMARK    1  A    between atoms: C1_2  and  C2_3 
ROOT
ATOM      1  C2  UNL d   1       0.406   3.702  -1.842  0.00  0.00    -0.076 A 
ATOM      2  C3  UNL d   1       0.450   5.079  -2.121  0.00  0.00     0.004 A 
ATOM      3  C4  UNL d   1       0.812   5.999  -1.138  0.00  0.00    -0.003 A 
ATOM      4  C5  UNL d   1       1.138   5.557   0.139  0.00  0.00     0.000 A 
ATOM      5  C6  UNL d   1       1.117   4.193   0.429  0.00  0.00     0.000 A 
ATOM      6  C7  UNL d   1       0.770   3.251  -0.555  0.00  0.00    -0.073 A 
ATOM      7  C8  UNL d   1       0.758   1.793  -0.186  0.00  0.00     0.078 C 
ENDROOT
BRANCH   1   8
ATOM      8  C1  UNL d   1      -0.020   2.754  -2.940  0.00  0.00     0.053 C 
ATOM      9  C   UNL d   1      -1.327   3.173  -3.596  0.00  0.00     0.018 C 
ENDBRANCH   1   8
TORSDOF 1
ENDMDL
