MODEL 1
REMARK minimizedAffinity 11.231595
REMARK minimizedRMSD -1
REMARK  1 active torsions:
REMARK  status: ('A' for Active; 'I' for Inactive)
REMARK    1  A    between atoms: C1_2  and  C2_3 
ROOT
ATOM      1  C2  UNL d   1      -0.537  -2.310   4.060  0.00  0.00    -0.076 A 
ATOM      2  C3  UNL d   1      -1.722  -2.977   4.416  0.00  0.00     0.004 A 
ATOM      3  C4  UNL d   1      -2.584  -2.446   5.375  0.00  0.00    -0.003 A 
ATOM      4  C5  UNL d   1      -2.274  -1.239   5.992  0.00  0.00     0.000 A 
ATOM      5  C6  UNL d   1      -1.112  -0.555   5.638  0.00  0.00     0.000 A 
ATOM      6  C7  UNL d   1      -0.241  -1.069   4.662  0.00  0.00    -0.073 A 
ATOM      7  C8  UNL d   1       1.002  -0.292   4.323  0.00  0.00     0.078 C 
ENDROOT
BRANCH   1   8
ATOM      8  C1  UNL d   1       0.372  -2.948   3.034  0.00  0.00     0.053 C 
ATOM      9  C   UNL d   1       0.361  -2.208   1.705  0.00  0.00     0.018 C 
ENDBRANCH   1   8
TORSDOF 1
ENDMDL
