MODEL 1
REMARK minimizedAffinity 7.7335701
REMARK minimizedRMSD -1
REMARK  1 active torsions:
REMARK  status: ('A' for Active; 'I' for Inactive)
REMARK    1  A    between atoms: C1_2  and  C2_3 
ROOT
ATOM      1  C2  UNL d   1       2.867   0.391  -0.116  0.00  0.00    -0.076 A 
ATOM      2  C3  UNL d   1       4.011   0.425  -0.931  0.00  0.00     0.004 A 
ATOM      3  C4  UNL d   1       4.857  -0.678  -1.028  0.00  0.00    -0.003 A 
ATOM      4  C5  UNL d   1       4.572  -1.835  -0.311  0.00  0.00     0.000 A 
ATOM      5  C6  UNL d   1       3.431  -1.893   0.490  0.00  0.00     0.000 A 
ATOM      6  C7  UNL d   1       2.559  -0.795   0.585  0.00  0.00    -0.073 A 
ATOM      7  C8  UNL d   1       1.347  -0.911   1.468  0.00  0.00     0.078 C 
ENDROOT
BRANCH   1   8
ATOM      8  C1  UNL d   1       2.001   1.627  -0.029  0.00  0.00     0.053 C 
ATOM      9  C   UNL d   1       1.302   1.942  -1.343  0.00  0.00     0.018 C 
ENDBRANCH   1   8
TORSDOF 1
ENDMDL
