MODEL 1
REMARK minimizedAffinity 20.6441593
REMARK minimizedRMSD -1
REMARK  1 active torsions:
REMARK  status: ('A' for Active; 'I' for Inactive)
REMARK    1  A    between atoms: C1_2  and  C2_3 
ROOT
ATOM      1  C2  UNL d   1       1.852  -3.774  -4.538  0.00  0.00    -0.076 A 
ATOM      2  C3  UNL d   1       2.628  -2.666  -4.156  0.00  0.00     0.004 A 
ATOM      3  C4  UNL d   1       3.904  -2.469  -4.680  0.00  0.00    -0.003 A 
ATOM      4  C5  UNL d   1       4.425  -3.377  -5.596  0.00  0.00     0.000 A 
ATOM      5  C6  UNL d   1       3.662  -4.472  -6.000  0.00  0.00     0.000 A 
ATOM      6  C7  UNL d   1       2.367  -4.676  -5.493  0.00  0.00    -0.073 A 
ATOM      7  C8  UNL d   1       1.591  -5.877  -5.960  0.00  0.00     0.078 C 
ENDROOT
BRANCH   1   8
ATOM      8  C1  UNL d   1       0.485  -3.950  -3.916  0.00  0.00     0.053 C 
ATOM      9  C   UNL d   1       0.440  -5.106  -2.928  0.00  0.00     0.018 C 
ENDBRANCH   1   8
TORSDOF 1
ENDMDL
