MODEL 1
REMARK minimizedAffinity -4.00792789
REMARK minimizedRMSD -1
REMARK  1 active torsions:
REMARK  status: ('A' for Active; 'I' for Inactive)
REMARK    1  A    between atoms: N_2  and  C1_3 
ROOT
ATOM      1  C1  UNL d   1       0.030   0.157  -0.640  0.00  0.00     0.143 A 
ATOM      2  C2  UNL d   1      -1.215   0.742  -0.895  0.00  0.00    -0.057 A 
ATOM      3  C3  UNL d   1      -2.051   1.154   0.149  0.00  0.00     0.033 A 
ATOM      4  C4  UNL d   1      -1.668   0.961   1.472  0.00  0.00    -0.042 A 
ATOM      5  C5  UNL d   1      -0.446   0.359   1.750  0.00  0.00     0.033 A 
ATOM      6  C6  UNL d   1       0.388  -0.044   0.702  0.00  0.00    -0.057 A 
ENDROOT
BRANCH   1   7
ATOM      7  N   UNL d   1       0.863  -0.363  -1.634  0.00  0.00    -0.732 N 
ATOM      8  C   UNL d   1       0.620  -0.068  -3.029  0.00  0.00     0.284 C 
ATOM      9  H3  UNL d   1       1.846  -0.338  -1.369  0.00  0.00     0.395 HD
ENDBRANCH   1   7
TORSDOF 1
ENDMDL
