MODEL 1
REMARK minimizedAffinity -3.63227391
REMARK minimizedRMSD -1
REMARK  1 active torsions:
REMARK  status: ('A' for Active; 'I' for Inactive)
REMARK    1  A    between atoms: N_2  and  C1_3 
ROOT
ATOM      1  C1  UNL d   1      -0.060   0.174   0.027  0.00  0.00     0.143 A 
ATOM      2  C2  UNL d   1       0.665  -0.542   0.986  0.00  0.00    -0.057 A 
ATOM      3  C3  UNL d   1       0.317  -0.500   2.341  0.00  0.00     0.033 A 
ATOM      4  C4  UNL d   1      -0.749   0.286   2.767  0.00  0.00    -0.042 A 
ATOM      5  C5  UNL d   1      -1.469   1.026   1.835  0.00  0.00     0.033 A 
ATOM      6  C6  UNL d   1      -1.120   0.974   0.482  0.00  0.00    -0.057 A 
ENDROOT
BRANCH   1   7
ATOM      7  N   UNL d   1       0.297   0.250  -1.321  0.00  0.00    -0.732 N 
ATOM      8  C   UNL d   1       0.363  -0.945  -2.135  0.00  0.00     0.284 C 
ATOM      9  H3  UNL d   1      -0.124   1.050  -1.790  0.00  0.00     0.395 HD
ENDBRANCH   1   7
TORSDOF 1
ENDMDL
