MODEL 1
REMARK minimizedAffinity -2.05891132
REMARK minimizedRMSD -1
REMARK  1 active torsions:
REMARK  status: ('A' for Active; 'I' for Inactive)
REMARK    1  A    between atoms: N_2  and  C1_3 
ROOT
ATOM      1  C1  UNL d   1       0.566   0.751  -1.568  0.00  0.00     0.143 A 
ATOM      2  C2  UNL d   1      -0.326   1.580  -0.878  0.00  0.00    -0.057 A 
ATOM      3  C3  UNL d   1      -1.170   1.070   0.117  0.00  0.00     0.033 A 
ATOM      4  C4  UNL d   1      -1.156  -0.287   0.420  0.00  0.00    -0.042 A 
ATOM      5  C5  UNL d   1      -0.295  -1.134  -0.270  0.00  0.00     0.033 A 
ATOM      6  C6  UNL d   1       0.550  -0.618  -1.257  0.00  0.00    -0.057 A 
ENDROOT
BRANCH   1   7
ATOM      7  N   UNL d   1       1.359   1.180  -2.635  0.00  0.00    -0.732 N 
ATOM      8  C   UNL d   1       1.055   0.771  -3.989  0.00  0.00     0.284 C 
ATOM      9  H3  UNL d   1       1.635   2.155  -2.547  0.00  0.00     0.395 HD
ENDBRANCH   1   7
TORSDOF 1
ENDMDL
