MODEL 1
REMARK minimizedAffinity 3.14560914
REMARK minimizedRMSD -1
REMARK  1 active torsions:
REMARK  status: ('A' for Active; 'I' for Inactive)
REMARK    1  A    between atoms: N_2  and  C1_3 
ROOT
ATOM      1  C1  UNL d   1      -3.241  -0.380  -0.645  0.00  0.00     0.143 A 
ATOM      2  C2  UNL d   1      -2.158  -1.025  -1.252  0.00  0.00    -0.057 A 
ATOM      3  C3  UNL d   1      -0.851  -0.851  -0.779  0.00  0.00     0.033 A 
ATOM      4  C4  UNL d   1      -0.601  -0.003   0.295  0.00  0.00    -0.042 A 
ATOM      5  C5  UNL d   1      -1.659   0.668   0.898  0.00  0.00     0.033 A 
ATOM      6  C6  UNL d   1      -2.962   0.485   0.425  0.00  0.00    -0.057 A 
ENDROOT
BRANCH   1   7
ATOM      7  N   UNL d   1      -4.550  -0.435  -1.130  0.00  0.00    -0.732 N 
ATOM      8  C   UNL d   1      -5.127  -1.692  -1.553  0.00  0.00     0.284 C 
ATOM      9  H3  UNL d   1      -5.185   0.157  -0.600  0.00  0.00     0.395 HD
ENDBRANCH   1   7
TORSDOF 1
ENDMDL
