MODEL 1
REMARK minimizedAffinity -1.91467512
REMARK minimizedRMSD -1
REMARK  1 active torsions:
REMARK  status: ('A' for Active; 'I' for Inactive)
REMARK    1  A    between atoms: N_2  and  C1_3 
ROOT
ATOM      1  C1  UNL d   1       0.464  -0.331  -1.812  0.00  0.00     0.143 A 
ATOM      2  C2  UNL d   1      -0.142  -0.559  -3.052  0.00  0.00    -0.057 A 
ATOM      3  C3  UNL d   1       0.430  -0.083  -4.238  0.00  0.00     0.033 A 
ATOM      4  C4  UNL d   1       1.608   0.655  -4.202  0.00  0.00    -0.042 A 
ATOM      5  C5  UNL d   1       2.215   0.915  -2.979  0.00  0.00     0.033 A 
ATOM      6  C6  UNL d   1       1.642   0.432  -1.798  0.00  0.00    -0.057 A 
ENDROOT
BRANCH   1   7
ATOM      7  N   UNL d   1      -0.106  -0.692  -0.589  0.00  0.00    -0.732 N 
ATOM      8  C   UNL d   1      -1.267   0.007  -0.082  0.00  0.00     0.284 C 
ATOM      9  H3  UNL d   1      -0.139  -1.701  -0.458  0.00  0.00     0.395 HD
ENDBRANCH   1   7
TORSDOF 1
ENDMDL
