MODEL 1
REMARK minimizedAffinity 0.0949983671
REMARK minimizedRMSD -1
REMARK  1 active torsions:
REMARK  status: ('A' for Active; 'I' for Inactive)
REMARK    1  A    between atoms: N_2  and  C1_3 
ROOT
ATOM      1  C1  UNL d   1      -2.671   0.495  -0.013  0.00  0.00     0.143 A 
ATOM      2  C2  UNL d   1      -2.650   1.607   0.835  0.00  0.00    -0.057 A 
ATOM      3  C3  UNL d   1      -1.879   1.613   2.005  0.00  0.00     0.033 A 
ATOM      4  C4  UNL d   1      -1.137   0.493   2.362  0.00  0.00    -0.042 A 
ATOM      5  C5  UNL d   1      -1.162  -0.633   1.546  0.00  0.00     0.033 A 
ATOM      6  C6  UNL d   1      -1.928  -0.631   0.376  0.00  0.00    -0.057 A 
ENDROOT
BRANCH   1   7
ATOM      7  N   UNL d   1      -3.493   0.390  -1.138  0.00  0.00    -0.732 N 
ATOM      8  C   UNL d   1      -4.899   0.079  -0.996  0.00  0.00     0.284 C 
ATOM      9  H3  UNL d   1      -3.294   1.106  -1.833  0.00  0.00     0.395 HD
ENDBRANCH   1   7
TORSDOF 1
ENDMDL
