MODEL 1
REMARK minimizedAffinity -1.07667398
REMARK minimizedRMSD -1
REMARK  0 active torsions:
REMARK  status: ('A' for Active; 'I' for Inactive)
ROOT
ATOM      1  C2' OXE d   1      -0.759  -0.405   2.106  0.00  0.00     0.078 C 
ATOM      2  C1' OXE d   1       0.292   1.189   0.047  0.00  0.00     0.078 C 
ATOM      3  C1  OXE d   1      -0.113  -0.224  -0.294  0.00  0.00    -0.078 A 
ATOM      4  C2  OXE d   1      -0.583  -1.011   0.730  0.00  0.00    -0.078 A 
ATOM      5  C3  OXE d   1      -1.022  -2.304   0.460  0.00  0.00     0.003 A 
ATOM      6  C4  OXE d   1      -0.846  -2.861  -0.813  0.00  0.00    -0.002 A 
ATOM      7  C5  OXE d   1      -0.333  -2.089  -1.861  0.00  0.00    -0.002 A 
ATOM      8  C6  OXE d   1      -0.002  -0.758  -1.628  0.00  0.00     0.003 A 
ENDROOT
TORSDOF 0
ENDMDL
