MODEL 1
REMARK minimizedAffinity -1.50365043
REMARK minimizedRMSD -1
REMARK  0 active torsions:
REMARK  status: ('A' for Active; 'I' for Inactive)
ROOT
ATOM      1  C2' OXE d   1      -0.403  -0.093   1.096  0.00  0.00     0.078 C 
ATOM      2  C1' OXE d   1       0.272   0.947  -1.422  0.00  0.00     0.078 C 
ATOM      3  C1  OXE d   1       0.783   1.671  -0.202  0.00  0.00    -0.078 A 
ATOM      4  C2  OXE d   1       0.409   1.182   1.026  0.00  0.00    -0.078 A 
ATOM      5  C3  OXE d   1       0.898   1.780   2.184  0.00  0.00     0.003 A 
ATOM      6  C4  OXE d   1       1.640   2.965   2.111  0.00  0.00    -0.002 A 
ATOM      7  C5  OXE d   1       1.999   3.503   0.871  0.00  0.00    -0.002 A 
ATOM      8  C6  OXE d   1       1.615   2.846  -0.293  0.00  0.00     0.003 A 
ENDROOT
TORSDOF 0
ENDMDL
