MODEL 1
REMARK minimizedAffinity -1.0185014
REMARK minimizedRMSD -1
REMARK  0 active torsions:
REMARK  status: ('A' for Active; 'I' for Inactive)
ROOT
ATOM      1  C2' OXE d   1      -0.036   1.849  -1.890  0.00  0.00     0.078 C 
ATOM      2  C1' OXE d   1       0.806   3.331   0.340  0.00  0.00     0.078 C 
ATOM      3  C1  OXE d   1       0.345   1.914   0.571  0.00  0.00    -0.078 A 
ATOM      4  C2  OXE d   1      -0.109   1.211  -0.519  0.00  0.00    -0.078 A 
ATOM      5  C3  OXE d   1      -0.494  -0.118  -0.371  0.00  0.00     0.003 A 
ATOM      6  C4  OXE d   1      -0.569  -0.697   0.902  0.00  0.00    -0.002 A 
ATOM      7  C5  OXE d   1      -0.148   0.014   2.031  0.00  0.00    -0.002 A 
ATOM      8  C6  OXE d   1       0.351   1.303   1.878  0.00  0.00     0.003 A 
ENDROOT
TORSDOF 0
ENDMDL
