MODEL 1
REMARK minimizedAffinity -0.369006932
REMARK minimizedRMSD -1
REMARK  0 active torsions:
REMARK  status: ('A' for Active; 'I' for Inactive)
ROOT
ATOM      1  C2' OXE d   1      -0.409   1.288  -1.404  0.00  0.00     0.078 C 
ATOM      2  C1' OXE d   1       0.133  -0.180   0.926  0.00  0.00     0.078 C 
ATOM      3  C1  OXE d   1       0.687   1.219   0.832  0.00  0.00    -0.078 A 
ATOM      4  C2  OXE d   1       0.456   1.913  -0.331  0.00  0.00    -0.078 A 
ATOM      5  C3  OXE d   1       0.898   3.228  -0.448  0.00  0.00     0.003 A 
ATOM      6  C4  OXE d   1       1.706   3.795   0.544  0.00  0.00    -0.002 A 
ATOM      7  C5  OXE d   1       1.986   3.091   1.720  0.00  0.00    -0.002 A 
ATOM      8  C6  OXE d   1       1.450   1.821   1.898  0.00  0.00     0.003 A 
ENDROOT
TORSDOF 0
ENDMDL
