MODEL 1
REMARK minimizedAffinity -2.26337767
REMARK minimizedRMSD -1
REMARK  0 active torsions:
REMARK  status: ('A' for Active; 'I' for Inactive)
ROOT
ATOM      1  C2' OXE d   1       1.565   1.719   0.730  0.00  0.00     0.078 C 
ATOM      2  C1' OXE d   1      -0.314   1.027  -1.238  0.00  0.00     0.078 C 
ATOM      3  C1  OXE d   1      -0.235   0.161  -0.006  0.00  0.00    -0.078 A 
ATOM      4  C2  OXE d   1       0.719   0.480   0.930  0.00  0.00    -0.078 A 
ATOM      5  C3  OXE d   1       0.798  -0.253   2.111  0.00  0.00     0.003 A 
ATOM      6  C4  OXE d   1       0.020  -1.404   2.284  0.00  0.00    -0.002 A 
ATOM      7  C5  OXE d   1      -0.931  -1.769   1.325  0.00  0.00    -0.002 A 
ATOM      8  C6  OXE d   1      -1.100  -0.975   0.196  0.00  0.00     0.003 A 
ENDROOT
TORSDOF 0
ENDMDL
