MODEL 1
REMARK minimizedAffinity -1.23435271
REMARK minimizedRMSD -1
REMARK  0 active torsions:
REMARK  status: ('A' for Active; 'I' for Inactive)
ROOT
ATOM      1  C2' OXE d   1       0.810   1.876  -0.149  0.00  0.00     0.078 C 
ATOM      2  C1' OXE d   1       0.391  -0.165  -2.031  0.00  0.00     0.078 C 
ATOM      3  C1  OXE d   1      -0.100  -0.394  -0.623  0.00  0.00    -0.078 A 
ATOM      4  C2  OXE d   1       0.151   0.590   0.302  0.00  0.00    -0.078 A 
ATOM      5  C3  OXE d   1      -0.329   0.452   1.602  0.00  0.00     0.003 A 
ATOM      6  C4  OXE d   1      -0.928  -0.744   2.013  0.00  0.00    -0.002 A 
ATOM      7  C5  OXE d   1      -1.158  -1.775   1.096  0.00  0.00    -0.002 A 
ATOM      8  C6  OXE d   1      -0.789  -1.600  -0.233  0.00  0.00     0.003 A 
ENDROOT
TORSDOF 0
ENDMDL
