MODEL 1
REMARK minimizedAffinity -4.12427616
REMARK minimizedRMSD -1
REMARK  0 active torsions:
REMARK  status: ('A' for Active; 'I' for Inactive)
ROOT
ATOM      1  C2' OXE d   1       2.239   3.708   0.872  0.00  0.00     0.078 C 
ATOM      2  C1' OXE d   1      -0.381   4.158  -0.029  0.00  0.00     0.078 C 
ATOM      3  C1  OXE d   1       0.081   2.729   0.104  0.00  0.00    -0.078 A 
ATOM      4  C2  OXE d   1       1.380   2.519   0.502  0.00  0.00    -0.078 A 
ATOM      5  C3  OXE d   1       1.840   1.219   0.693  0.00  0.00     0.003 A 
ATOM      6  C4  OXE d   1       1.042   0.125   0.339  0.00  0.00    -0.002 A 
ATOM      7  C5  OXE d   1      -0.270   0.317  -0.106  0.00  0.00    -0.002 A 
ATOM      8  C6  OXE d   1      -0.779   1.609  -0.188  0.00  0.00     0.003 A 
ENDROOT
TORSDOF 0
ENDMDL
