MODEL 1
REMARK minimizedAffinity -3.57722473
REMARK minimizedRMSD -1
REMARK  0 active torsions:
REMARK  status: ('A' for Active; 'I' for Inactive)
ROOT
ATOM      1  C2' OXE d   1      -0.840  -1.319   0.276  0.00  0.00     0.078 C 
ATOM      2  C1' OXE d   1       1.630  -1.280   1.610  0.00  0.00     0.078 C 
ATOM      3  C1  OXE d   1       1.142   0.008   0.996  0.00  0.00    -0.078 A 
ATOM      4  C2  OXE d   1      -0.046  -0.031   0.305  0.00  0.00    -0.078 A 
ATOM      5  C3  OXE d   1      -0.569   1.141  -0.234  0.00  0.00     0.003 A 
ATOM      6  C4  OXE d   1       0.177   2.326  -0.211  0.00  0.00    -0.002 A 
ATOM      7  C5  OXE d   1       1.407   2.379   0.453  0.00  0.00    -0.002 A 
ATOM      8  C6  OXE d   1       1.883   1.242   1.097  0.00  0.00     0.003 A 
ENDROOT
TORSDOF 0
ENDMDL
