MODEL 1
REMARK minimizedAffinity -3.85551906
REMARK minimizedRMSD -1
REMARK  0 active torsions:
REMARK  status: ('A' for Active; 'I' for Inactive)
ROOT
ATOM      1  C2' OXE d   1       0.781   1.706   0.529  0.00  0.00     0.078 C 
ATOM      2  C1' OXE d   1       0.760   0.253   2.931  0.00  0.00     0.078 C 
ATOM      3  C1  OXE d   1       0.219  -0.422   1.696  0.00  0.00    -0.078 A 
ATOM      4  C2  OXE d   1       0.190   0.313   0.535  0.00  0.00    -0.078 A 
ATOM      5  C3  OXE d   1      -0.248  -0.280  -0.646  0.00  0.00     0.003 A 
ATOM      6  C4  OXE d   1      -0.802  -1.566  -0.630  0.00  0.00    -0.002 A 
ATOM      7  C5  OXE d   1      -0.819  -2.317   0.550  0.00  0.00    -0.002 A 
ATOM      8  C6  OXE d   1      -0.274  -1.777   1.710  0.00  0.00     0.003 A 
ENDROOT
TORSDOF 0
ENDMDL
