MODEL 1
REMARK minimizedAffinity -1.82712197
REMARK minimizedRMSD -1
REMARK  0 active torsions:
REMARK  status: ('A' for Active; 'I' for Inactive)
ROOT
ATOM      1  C2' OXE d   1       0.048   1.360  -0.307  0.00  0.00     0.078 C 
ATOM      2  C1' OXE d   1      -0.919   0.022   1.964  0.00  0.00     0.078 C 
ATOM      3  C1  OXE d   1      -0.678  -0.792   0.717  0.00  0.00    -0.078 A 
ATOM      4  C2  OXE d   1      -0.250  -0.121  -0.403  0.00  0.00    -0.078 A 
ATOM      5  C3  OXE d   1       0.040  -0.832  -1.564  0.00  0.00     0.003 A 
ATOM      6  C4  OXE d   1      -0.248  -2.200  -1.648  0.00  0.00    -0.002 A 
ATOM      7  C5  OXE d   1      -0.722  -2.895  -0.531  0.00  0.00    -0.002 A 
ATOM      8  C6  OXE d   1      -0.902  -2.216   0.669  0.00  0.00     0.003 A 
ENDROOT
TORSDOF 0
ENDMDL
