MODEL 1
REMARK minimizedAffinity -3.66064191
REMARK minimizedRMSD -1
REMARK  0 active torsions:
REMARK  status: ('A' for Active; 'I' for Inactive)
ROOT
ATOM      1  C2' OXE d   1       1.162   2.741   0.308  0.00  0.00     0.078 C 
ATOM      2  C1' OXE d   1      -0.536   1.516  -1.563  0.00  0.00     0.078 C 
ATOM      3  C1  OXE d   1      -0.349   0.835  -0.231  0.00  0.00    -0.078 A 
ATOM      4  C2  OXE d   1       0.520   1.416   0.661  0.00  0.00    -0.078 A 
ATOM      5  C3  OXE d   1       0.687   0.858   1.925  0.00  0.00     0.003 A 
ATOM      6  C4  OXE d   1       0.097  -0.372   2.240  0.00  0.00    -0.002 A 
ATOM      7  C5  OXE d   1      -0.760  -1.002   1.331  0.00  0.00    -0.002 A 
ATOM      8  C6  OXE d   1      -1.027  -0.392   0.111  0.00  0.00     0.003 A 
ENDROOT
TORSDOF 0
ENDMDL
