MODEL 1
REMARK minimizedAffinity -3.74652433
REMARK minimizedRMSD -1
REMARK  0 active torsions:
REMARK  status: ('A' for Active; 'I' for Inactive)
ROOT
ATOM      1  C2' OXE d   1       0.825   0.481   2.902  0.00  0.00     0.078 C 
ATOM      2  C1' OXE d   1       0.947   2.077   0.595  0.00  0.00     0.078 C 
ATOM      3  C1  OXE d   1       0.261   0.738   0.489  0.00  0.00    -0.078 A 
ATOM      4  C2  OXE d   1       0.247  -0.056   1.610  0.00  0.00    -0.078 A 
ATOM      5  C3  OXE d   1      -0.420  -1.278   1.582  0.00  0.00     0.003 A 
ATOM      6  C4  OXE d   1      -0.944  -1.772   0.381  0.00  0.00    -0.002 A 
ATOM      7  C5  OXE d   1      -0.905  -0.996  -0.783  0.00  0.00    -0.002 A 
ATOM      8  C6  OXE d   1      -0.346   0.276  -0.735  0.00  0.00     0.003 A 
ENDROOT
TORSDOF 0
ENDMDL
