MODEL 1
REMARK minimizedAffinity -2.63784623
REMARK minimizedRMSD -1
REMARK  0 active torsions:
REMARK  status: ('A' for Active; 'I' for Inactive)
ROOT
ATOM      1  C2' OXE d   1       1.289   2.181   0.178  0.00  0.00     0.078 C 
ATOM      2  C1' OXE d   1      -0.882   1.377  -1.409  0.00  0.00     0.078 C 
ATOM      3  C1  OXE d   1      -0.619   0.611  -0.136  0.00  0.00    -0.078 A 
ATOM      4  C2  OXE d   1       0.474   0.982   0.610  0.00  0.00    -0.078 A 
ATOM      5  C3  OXE d   1       0.730   0.344   1.821  0.00  0.00     0.003 A 
ATOM      6  C4  OXE d   1      -0.023  -0.771   2.208  0.00  0.00    -0.002 A 
ATOM      7  C5  OXE d   1      -1.117  -1.190   1.442  0.00  0.00    -0.002 A 
ATOM      8  C6  OXE d   1      -1.453  -0.485   0.292  0.00  0.00     0.003 A 
ENDROOT
TORSDOF 0
ENDMDL
