MODEL 1
REMARK minimizedAffinity -3.53099608
REMARK minimizedRMSD -1
REMARK  0 active torsions:
REMARK  status: ('A' for Active; 'I' for Inactive)
ROOT
ATOM      1  C2' OXE d   1       1.336   2.030   0.295  0.00  0.00     0.078 C 
ATOM      2  C1' OXE d   1      -0.395   1.095  -1.707  0.00  0.00     0.078 C 
ATOM      3  C1  OXE d   1      -0.254   0.266  -0.455  0.00  0.00    -0.078 A 
ATOM      4  C2  OXE d   1       0.630   0.707   0.499  0.00  0.00    -0.078 A 
ATOM      5  C3  OXE d   1       0.758   0.009   1.697  0.00  0.00     0.003 A 
ATOM      6  C4  OXE d   1       0.109  -1.219   1.874  0.00  0.00    -0.002 A 
ATOM      7  C5  OXE d   1      -0.766  -1.707   0.898  0.00  0.00    -0.002 A 
ATOM      8  C6  OXE d   1      -0.991  -0.957  -0.252  0.00  0.00     0.003 A 
ENDROOT
TORSDOF 0
ENDMDL
