MODEL 1
REMARK minimizedAffinity 0.233961597
REMARK minimizedRMSD -1
REMARK  0 active torsions:
REMARK  status: ('A' for Active; 'I' for Inactive)
ROOT
ATOM      1  C2' OXE d   1      -0.819  -2.769  -2.207  0.00  0.00     0.078 C 
ATOM      2  C1' OXE d   1      -0.195  -0.038  -2.023  0.00  0.00     0.078 C 
ATOM      3  C1  OXE d   1      -0.456  -0.788  -0.741  0.00  0.00    -0.078 A 
ATOM      4  C2  OXE d   1      -0.807  -2.112  -0.843  0.00  0.00    -0.078 A 
ATOM      5  C3  OXE d   1      -1.005  -2.864   0.312  0.00  0.00     0.003 A 
ATOM      6  C4  OXE d   1      -1.001  -2.247   1.569  0.00  0.00    -0.002 A 
ATOM      7  C5  OXE d   1      -0.686  -0.890   1.692  0.00  0.00    -0.002 A 
ATOM      8  C6  OXE d   1      -0.369  -0.157   0.554  0.00  0.00     0.003 A 
ENDROOT
TORSDOF 0
ENDMDL
