MODEL 1
REMARK minimizedAffinity -2.23142529
REMARK minimizedRMSD -1
REMARK  0 active torsions:
REMARK  status: ('A' for Active; 'I' for Inactive)
ROOT
ATOM      1  C2' OXE d   1      -0.681   1.317  -1.050  0.00  0.00     0.078 C 
ATOM      2  C1' OXE d   1      -0.147  -1.221  -2.124  0.00  0.00     0.078 C 
ATOM      3  C1  OXE d   1      -0.546  -1.142  -0.672  0.00  0.00    -0.078 A 
ATOM      4  C2  OXE d   1      -0.760   0.108  -0.142  0.00  0.00    -0.078 A 
ATOM      5  C3  OXE d   1      -1.184   0.234   1.178  0.00  0.00     0.003 A 
ATOM      6  C4  OXE d   1      -1.245  -0.888   2.013  0.00  0.00    -0.002 A 
ATOM      7  C5  OXE d   1      -0.992  -2.166   1.504  0.00  0.00    -0.002 A 
ATOM      8  C6  OXE d   1      -0.684  -2.315   0.156  0.00  0.00     0.003 A 
ENDROOT
TORSDOF 0
ENDMDL
