MODEL 1
REMARK minimizedAffinity -3.55255818
REMARK minimizedRMSD -1
REMARK  0 active torsions:
REMARK  status: ('A' for Active; 'I' for Inactive)
ROOT
ATOM      1  C2' OXE d   1      -1.417  -0.324   1.901  0.00  0.00     0.078 C 
ATOM      2  C1' OXE d   1      -0.075   1.262   0.013  0.00  0.00     0.078 C 
ATOM      3  C1  OXE d   1      -0.391  -0.164  -0.363  0.00  0.00    -0.078 A 
ATOM      4  C2  OXE d   1      -1.006  -0.947   0.584  0.00  0.00    -0.078 A 
ATOM      5  C3  OXE d   1      -1.369  -2.253   0.269  0.00  0.00     0.003 A 
ATOM      6  C4  OXE d   1      -0.977  -2.824  -0.948  0.00  0.00    -0.002 A 
ATOM      7  C5  OXE d   1      -0.314  -2.056  -1.912  0.00  0.00    -0.002 A 
ATOM      8  C6  OXE d   1      -0.052  -0.715  -1.652  0.00  0.00     0.003 A 
ENDROOT
TORSDOF 0
ENDMDL
