MODEL 1
REMARK minimizedAffinity -4.89119482
REMARK minimizedRMSD -1
REMARK  1 active torsions:
REMARK  status: ('A' for Active; 'I' for Inactive)
REMARK    1  A    between atoms: C1_2  and  C2_3 
ROOT
ATOM      1  C2  UNL d   1       0.039  -0.236  -0.340  0.00  0.00    -0.073 A 
ATOM      2  C3  UNL d   1       1.298   0.274  -0.002  0.00  0.00    -0.002 A 
ATOM      3  C4  UNL d   1       1.684   0.368   1.335  0.00  0.00     0.004 A 
ATOM      4  C5  UNL d   1       0.820  -0.052   2.347  0.00  0.00    -0.004 A 
ATOM      5  C6  UNL d   1      -0.437  -0.575   2.029  0.00  0.00    -0.075 A 
ATOM      6  C7  UNL d   1      -1.379  -1.029   3.105  0.00  0.00     0.076 C 
ATOM      7  C8  UNL d   1      -0.819  -0.664   0.683  0.00  0.00     0.001 A 
ENDROOT
BRANCH   1   8
ATOM      8  C1  UNL d   1      -0.380  -0.345  -1.783  0.00  0.00     0.053 C 
ATOM      9  C   UNL d   1       0.649  -1.086  -2.622  0.00  0.00     0.018 C 
ENDBRANCH   1   8
TORSDOF 1
ENDMDL
