MODEL 1
REMARK minimizedAffinity -4.43107986
REMARK minimizedRMSD -1
REMARK  1 active torsions:
REMARK  status: ('A' for Active; 'I' for Inactive)
REMARK    1  A    between atoms: C1_2  and  C2_3 
ROOT
ATOM      1  C2  UNL d   1       0.570  -0.517   0.144  0.00  0.00    -0.073 A 
ATOM      2  C3  UNL d   1       0.141  -1.744   0.661  0.00  0.00    -0.002 A 
ATOM      3  C4  UNL d   1      -0.197  -1.862   2.010  0.00  0.00     0.004 A 
ATOM      4  C5  UNL d   1      -0.115  -0.754   2.853  0.00  0.00    -0.004 A 
ATOM      5  C6  UNL d   1       0.300   0.484   2.353  0.00  0.00    -0.075 A 
ATOM      6  C7  UNL d   1       0.395   1.685   3.247  0.00  0.00     0.076 C 
ATOM      7  C8  UNL d   1       0.640   0.594   0.998  0.00  0.00     0.001 A 
ENDROOT
BRANCH   1   8
ATOM      8  C1  UNL d   1       0.929  -0.383  -1.313  0.00  0.00     0.053 C 
ATOM      9  C   UNL d   1       1.315  -1.718  -1.930  0.00  0.00     0.018 C 
ENDBRANCH   1   8
TORSDOF 1
ENDMDL
