MODEL 1
REMARK minimizedAffinity -3.87780428
REMARK minimizedRMSD -1
REMARK  1 active torsions:
REMARK  status: ('A' for Active; 'I' for Inactive)
REMARK    1  A    between atoms: C1_2  and  C2_3 
ROOT
ATOM      1  C2  UNL d   1       0.167  -0.264  -0.074  0.00  0.00    -0.073 A 
ATOM      2  C3  UNL d   1       1.525   0.068  -0.009  0.00  0.00    -0.002 A 
ATOM      3  C4  UNL d   1       2.177   0.130   1.223  0.00  0.00     0.004 A 
ATOM      4  C5  UNL d   1       1.482  -0.147   2.400  0.00  0.00    -0.004 A 
ATOM      5  C6  UNL d   1       0.127  -0.492   2.354  0.00  0.00    -0.075 A 
ATOM      6  C7  UNL d   1      -0.636  -0.790   3.612  0.00  0.00     0.076 C 
ATOM      7  C8  UNL d   1      -0.522  -0.549   1.113  0.00  0.00     0.001 A 
ENDROOT
BRANCH   1   8
ATOM      8  C1  UNL d   1      -0.541  -0.337  -1.403  0.00  0.00     0.053 C 
ATOM      9  C   UNL d   1       0.080  -1.377  -2.322  0.00  0.00     0.018 C 
ENDBRANCH   1   8
TORSDOF 1
ENDMDL
