MODEL 1
REMARK minimizedAffinity -3.72611737
REMARK minimizedRMSD -1
REMARK  1 active torsions:
REMARK  status: ('A' for Active; 'I' for Inactive)
REMARK    1  A    between atoms: C1_2  and  C2_3 
ROOT
ATOM      1  C2  UNL d   1      -0.214  -0.044   1.052  0.00  0.00    -0.073 A 
ATOM      2  C3  UNL d   1       0.162   0.242   2.369  0.00  0.00    -0.002 A 
ATOM      3  C4  UNL d   1      -0.805   0.373   3.366  0.00  0.00     0.004 A 
ATOM      4  C5  UNL d   1      -2.156   0.213   3.059  0.00  0.00    -0.004 A 
ATOM      5  C6  UNL d   1      -2.552  -0.084   1.751  0.00  0.00    -0.075 A 
ATOM      6  C7  UNL d   1      -4.001  -0.257   1.404  0.00  0.00     0.076 C 
ATOM      7  C8  UNL d   1      -1.575  -0.212   0.754  0.00  0.00     0.001 A 
ENDROOT
BRANCH   1   8
ATOM      8  C1  UNL d   1       0.827  -0.192  -0.027  0.00  0.00     0.053 C 
ATOM      9  C   UNL d   1       0.267   0.118  -1.407  0.00  0.00     0.018 C 
ENDBRANCH   1   8
TORSDOF 1
ENDMDL
