MODEL 1
REMARK minimizedAffinity -2.08279943
REMARK minimizedRMSD -1
REMARK  1 active torsions:
REMARK  status: ('A' for Active; 'I' for Inactive)
REMARK    1  A    between atoms: C1_2  and  C2_3 
ROOT
ATOM      1  C2  UNL d   1      -0.573  -0.234   0.547  0.00  0.00    -0.073 A 
ATOM      2  C3  UNL d   1      -1.853   0.286   0.324  0.00  0.00    -0.002 A 
ATOM      3  C4  UNL d   1      -2.189   0.821  -0.920  0.00  0.00     0.004 A 
ATOM      4  C5  UNL d   1      -1.254   0.835  -1.955  0.00  0.00    -0.004 A 
ATOM      5  C6  UNL d   1       0.027   0.309  -1.755  0.00  0.00    -0.075 A 
ATOM      6  C7  UNL d   1       1.045   0.319  -2.857  0.00  0.00     0.076 C 
ATOM      7  C8  UNL d   1       0.358  -0.224  -0.502  0.00  0.00     0.001 A 
ENDROOT
BRANCH   1   8
ATOM      8  C1  UNL d   1      -0.207  -0.818   1.887  0.00  0.00     0.053 C 
ATOM      9  C   UNL d   1      -0.116   0.248   2.968  0.00  0.00     0.018 C 
ENDBRANCH   1   8
TORSDOF 1
ENDMDL
