MODEL 1
REMARK minimizedAffinity -1.2461884
REMARK minimizedRMSD -1
REMARK  1 active torsions:
REMARK  status: ('A' for Active; 'I' for Inactive)
REMARK    1  A    between atoms: C1_2  and  C2_3 
ROOT
ATOM      1  C2  UNL d   1       0.069  -0.864  -1.857  0.00  0.00    -0.073 A 
ATOM      2  C3  UNL d   1       0.894   0.243  -1.627  0.00  0.00    -0.002 A 
ATOM      3  C4  UNL d   1       0.953   0.827  -0.361  0.00  0.00     0.004 A 
ATOM      4  C5  UNL d   1       0.196   0.307   0.688  0.00  0.00    -0.004 A 
ATOM      5  C6  UNL d   1      -0.626  -0.806   0.481  0.00  0.00    -0.075 A 
ATOM      6  C7  UNL d   1      -1.449  -1.376   1.599  0.00  0.00     0.076 C 
ATOM      7  C8  UNL d   1      -0.682  -1.385  -0.793  0.00  0.00     0.001 A 
ENDROOT
BRANCH   1   8
ATOM      8  C1  UNL d   1       0.006  -1.502  -3.220  0.00  0.00     0.053 C 
ATOM      9  C   UNL d   1       1.322  -1.373  -3.971  0.00  0.00     0.018 C 
ENDBRANCH   1   8
TORSDOF 1
ENDMDL
