MODEL 1
REMARK minimizedAffinity -0.785540819
REMARK minimizedRMSD -1
REMARK  1 active torsions:
REMARK  status: ('A' for Active; 'I' for Inactive)
REMARK    1  A    between atoms: C1_2  and  C2_3 
ROOT
ATOM      1  C2  UNL d   1       0.286  -0.046  -0.341  0.00  0.00    -0.073 A 
ATOM      2  C3  UNL d   1       1.363   0.748   0.069  0.00  0.00    -0.002 A 
ATOM      3  C4  UNL d   1       1.589   0.984   1.426  0.00  0.00     0.004 A 
ATOM      4  C5  UNL d   1       0.745   0.423   2.386  0.00  0.00    -0.004 A 
ATOM      5  C6  UNL d   1      -0.329  -0.383   1.996  0.00  0.00    -0.075 A 
ATOM      6  C7  UNL d   1      -1.247  -0.992   3.015  0.00  0.00     0.076 C 
ATOM      7  C8  UNL d   1      -0.550  -0.613   0.631  0.00  0.00     0.001 A 
ENDROOT
BRANCH   1   8
ATOM      8  C1  UNL d   1       0.043  -0.308  -1.805  0.00  0.00     0.053 C 
ATOM      9  C   UNL d   1       1.335  -0.585  -2.557  0.00  0.00     0.018 C 
ENDBRANCH   1   8
TORSDOF 1
ENDMDL
