MODEL 1
REMARK minimizedAffinity -2.247334
REMARK minimizedRMSD -1
REMARK  1 active torsions:
REMARK  status: ('A' for Active; 'I' for Inactive)
REMARK    1  A    between atoms: C1_2  and  C2_3 
ROOT
ATOM      1  C2  UNL d   1       0.170  -0.791  -0.703  0.00  0.00    -0.073 A 
ATOM      2  C3  UNL d   1      -1.200  -1.032  -0.548  0.00  0.00    -0.002 A 
ATOM      3  C4  UNL d   1      -1.822  -0.799   0.679  0.00  0.00     0.004 A 
ATOM      4  C5  UNL d   1      -1.085  -0.317   1.760  0.00  0.00    -0.004 A 
ATOM      5  C6  UNL d   1       0.283  -0.059   1.622  0.00  0.00    -0.075 A 
ATOM      6  C7  UNL d   1       1.091   0.458   2.775  0.00  0.00     0.076 C 
ATOM      7  C8  UNL d   1       0.901  -0.298   0.387  0.00  0.00     0.001 A 
ENDROOT
BRANCH   1   8
ATOM      8  C1  UNL d   1       0.845  -1.035  -2.028  0.00  0.00     0.053 C 
ATOM      9  C   UNL d   1       0.143  -2.115  -2.836  0.00  0.00     0.018 C 
ENDBRANCH   1   8
TORSDOF 1
ENDMDL
