MODEL 1
REMARK minimizedAffinity -2.96469092
REMARK minimizedRMSD -1
REMARK  1 active torsions:
REMARK  status: ('A' for Active; 'I' for Inactive)
REMARK    1  A    between atoms: C1_2  and  C2_3 
ROOT
ATOM      1  C2  UNL d   1       0.398  -0.281  -1.555  0.00  0.00    -0.073 A 
ATOM      2  C3  UNL d   1       1.447   0.436  -0.969  0.00  0.00    -0.002 A 
ATOM      3  C4  UNL d   1       1.408   0.758   0.389  0.00  0.00     0.004 A 
ATOM      4  C5  UNL d   1       0.325   0.363   1.173  0.00  0.00    -0.004 A 
ATOM      5  C6  UNL d   1      -0.727  -0.365   0.608  0.00  0.00    -0.075 A 
ATOM      6  C7  UNL d   1      -1.901  -0.796   1.438  0.00  0.00     0.076 C 
ATOM      7  C8  UNL d   1      -0.682  -0.683  -0.756  0.00  0.00     0.001 A 
ENDROOT
BRANCH   1   8
ATOM      8  C1  UNL d   1       0.439  -0.638  -3.019  0.00  0.00     0.053 C 
ATOM      9  C   UNL d   1       0.841  -2.087  -3.241  0.00  0.00     0.018 C 
ENDBRANCH   1   8
TORSDOF 1
ENDMDL
