MODEL 1
REMARK minimizedAffinity -3.48106313
REMARK minimizedRMSD -1
REMARK  1 active torsions:
REMARK  status: ('A' for Active; 'I' for Inactive)
REMARK    1  A    between atoms: C1_2  and  C2_3 
ROOT
ATOM      1  C2  UNL d   1       0.341  -0.178  -0.994  0.00  0.00    -0.073 A 
ATOM      2  C3  UNL d   1      -1.023   0.103  -1.140  0.00  0.00    -0.002 A 
ATOM      3  C4  UNL d   1      -1.843   0.215  -0.016  0.00  0.00     0.004 A 
ATOM      4  C5  UNL d   1      -1.308   0.055   1.262  0.00  0.00    -0.004 A 
ATOM      5  C6  UNL d   1       0.054  -0.215   1.429  0.00  0.00    -0.075 A 
ATOM      6  C7  UNL d   1       0.644  -0.392   2.797  0.00  0.00     0.076 C 
ATOM      7  C8  UNL d   1       0.871  -0.329   0.295  0.00  0.00     0.001 A 
ENDROOT
BRANCH   1   8
ATOM      8  C1  UNL d   1       1.232  -0.294  -2.204  0.00  0.00     0.053 C 
ATOM      9  C   UNL d   1       0.712  -1.320  -3.198  0.00  0.00     0.018 C 
ENDBRANCH   1   8
TORSDOF 1
ENDMDL
