MODEL 1
REMARK minimizedAffinity -3.59337306
REMARK minimizedRMSD -1
REMARK  1 active torsions:
REMARK  status: ('A' for Active; 'I' for Inactive)
REMARK    1  A    between atoms: C1_2  and  C2_3 
ROOT
ATOM      1  C2  UNL d   1      -0.121   0.263  -0.487  0.00  0.00    -0.073 A 
ATOM      2  C3  UNL d   1      -1.461   0.103  -0.859  0.00  0.00    -0.002 A 
ATOM      3  C4  UNL d   1      -2.400  -0.355   0.066  0.00  0.00     0.004 A 
ATOM      4  C5  UNL d   1      -2.011  -0.651   1.373  0.00  0.00    -0.004 A 
ATOM      5  C6  UNL d   1      -0.679  -0.487   1.767  0.00  0.00    -0.075 A 
ATOM      6  C7  UNL d   1      -0.244  -0.804   3.168  0.00  0.00     0.076 C 
ATOM      7  C8  UNL d   1       0.258  -0.029   0.831  0.00  0.00     0.001 A 
ENDROOT
BRANCH   1   8
ATOM      8  C1  UNL d   1       0.895   0.763  -1.481  0.00  0.00     0.053 C 
ATOM      9  C   UNL d   1       1.208  -0.275  -2.547  0.00  0.00     0.018 C 
ENDBRANCH   1   8
TORSDOF 1
ENDMDL
