MODEL 1
REMARK minimizedAffinity -2.43523979
REMARK minimizedRMSD -1
REMARK  1 active torsions:
REMARK  status: ('A' for Active; 'I' for Inactive)
REMARK    1  A    between atoms: C1_2  and  C2_3 
ROOT
ATOM      1  C2  UNL d   1       0.001   0.052  -0.314  0.00  0.00    -0.073 A 
ATOM      2  C3  UNL d   1      -1.292   0.225  -0.820  0.00  0.00    -0.002 A 
ATOM      3  C4  UNL d   1      -2.403   0.022  -0.001  0.00  0.00     0.004 A 
ATOM      4  C5  UNL d   1      -2.233  -0.350   1.333  0.00  0.00    -0.004 A 
ATOM      5  C6  UNL d   1      -0.949  -0.516   1.861  0.00  0.00    -0.075 A 
ATOM      6  C7  UNL d   1      -0.749  -0.918   3.292  0.00  0.00     0.076 C 
ATOM      7  C8  UNL d   1       0.162  -0.312   1.031  0.00  0.00     0.001 A 
ENDROOT
BRANCH   1   8
ATOM      8  C1  UNL d   1       1.204   0.277  -1.193  0.00  0.00     0.053 C 
ATOM      9  C   UNL d   1       1.255  -0.706  -2.351  0.00  0.00     0.018 C 
ENDBRANCH   1   8
TORSDOF 1
ENDMDL
