MODEL 1
REMARK minimizedAffinity -2.51767039
REMARK minimizedRMSD -1
REMARK  1 active torsions:
REMARK  status: ('A' for Active; 'I' for Inactive)
REMARK    1  A    between atoms: C1_2  and  C2_3 
ROOT
ATOM      1  C2  UNL d   1      -0.735  -0.041   1.704  0.00  0.00    -0.073 A 
ATOM      2  C3  UNL d   1      -2.073   0.106   1.321  0.00  0.00    -0.002 A 
ATOM      3  C4  UNL d   1      -2.403   0.335  -0.015  0.00  0.00     0.004 A 
ATOM      4  C5  UNL d   1      -1.401   0.412  -0.982  0.00  0.00    -0.004 A 
ATOM      5  C6  UNL d   1      -0.058   0.255  -0.621  0.00  0.00    -0.075 A 
ATOM      6  C7  UNL d   1       1.032   0.337  -1.649  0.00  0.00     0.076 C 
ATOM      7  C8  UNL d   1       0.265   0.028   0.723  0.00  0.00     0.001 A 
ENDROOT
BRANCH   1   8
ATOM      8  C1  UNL d   1      -0.374  -0.295   3.145  0.00  0.00     0.053 C 
ATOM      9  C   UNL d   1      -1.575  -0.743   3.963  0.00  0.00     0.018 C 
ENDBRANCH   1   8
TORSDOF 1
ENDMDL
