MODEL 1
REMARK minimizedAffinity 16.4618111
REMARK minimizedRMSD -1
REMARK  0 active torsions:
REMARK  status: ('A' for Active; 'I' for Inactive)
ROOT
ATOM      1  C2' OXE d   1      -3.863  -5.714  -3.700  0.00  0.00     0.078 C 
ATOM      2  C1' OXE d   1      -5.463  -5.995  -5.989  0.00  0.00     0.078 C 
ATOM      3  C1  OXE d   1      -5.304  -4.612  -5.407  0.00  0.00    -0.078 A 
ATOM      4  C2  OXE d   1      -4.557  -4.491  -4.260  0.00  0.00    -0.078 A 
ATOM      5  C3  OXE d   1      -4.334  -3.231  -3.713  0.00  0.00     0.003 A 
ATOM      6  C4  OXE d   1      -4.988  -2.107  -4.231  0.00  0.00    -0.002 A 
ATOM      7  C5  OXE d   1      -5.785  -2.215  -5.376  0.00  0.00    -0.002 A 
ATOM      8  C6  OXE d   1      -5.919  -3.450  -5.999  0.00  0.00     0.003 A 
ENDROOT
TORSDOF 0
ENDMDL
