MODEL 1
REMARK minimizedAffinity 12.9783306
REMARK minimizedRMSD -1
REMARK  0 active torsions:
REMARK  status: ('A' for Active; 'I' for Inactive)
ROOT
ATOM      1  C2' OXE d   1      -5.787   4.753   0.225  0.00  0.00     0.078 C 
ATOM      2  C1' OXE d   1      -5.258   4.203   2.927  0.00  0.00     0.078 C 
ATOM      3  C1  OXE d   1      -4.283   3.685   1.900  0.00  0.00    -0.078 A 
ATOM      4  C2  OXE d   1      -4.574   3.918   0.577  0.00  0.00    -0.078 A 
ATOM      5  C3  OXE d   1      -3.680   3.509  -0.408  0.00  0.00     0.003 A 
ATOM      6  C4  OXE d   1      -2.566   2.730  -0.075  0.00  0.00    -0.002 A 
ATOM      7  C5  OXE d   1      -2.272   2.447   1.263  0.00  0.00    -0.002 A 
ATOM      8  C6  OXE d   1      -3.095   2.952   2.263  0.00  0.00     0.003 A 
ENDROOT
TORSDOF 0
ENDMDL
