MODEL 1
REMARK minimizedAffinity 12.7994604
REMARK minimizedRMSD -1
REMARK  0 active torsions:
REMARK  status: ('A' for Active; 'I' for Inactive)
ROOT
ATOM      1  C2' OXE d   1       1.532   0.422   1.888  0.00  0.00     0.078 C 
ATOM      2  C1' OXE d   1       3.426   0.465  -0.183  0.00  0.00     0.078 C 
ATOM      3  C1  OXE d   1       2.581   1.697   0.023  0.00  0.00    -0.078 A 
ATOM      4  C2  OXE d   1       1.624   1.650   1.009  0.00  0.00    -0.078 A 
ATOM      5  C3  OXE d   1       0.854   2.779   1.277  0.00  0.00     0.003 A 
ATOM      6  C4  OXE d   1       0.939   3.907   0.452  0.00  0.00    -0.002 A 
ATOM      7  C5  OXE d   1       1.879   3.961  -0.583  0.00  0.00    -0.002 A 
ATOM      8  C6  OXE d   1       2.735   2.883  -0.783  0.00  0.00     0.003 A 
ENDROOT
TORSDOF 0
ENDMDL
