MODEL 1
REMARK minimizedAffinity 8.28585148
REMARK minimizedRMSD -1
REMARK  0 active torsions:
REMARK  status: ('A' for Active; 'I' for Inactive)
ROOT
ATOM      1  N1  IND d   1       0.682   3.914  -0.187  0.00  0.00    -0.196 N 
ATOM      2  C2  IND d   1      -0.383   4.098  -1.024  0.00  0.00     0.054 A 
ATOM      3  C3  IND d   1      -1.499   3.550  -0.492  0.00  0.00    -0.031 A 
ATOM      4  C4  IND d   1      -1.827   2.392   1.784  0.00  0.00     0.051 A 
ATOM      5  C5  IND d   1      -1.137   1.956   2.880  0.00  0.00    -0.031 A 
ATOM      6  C6  IND d   1       0.221   2.156   3.014  0.00  0.00     0.015 A 
ATOM      7  C7  IND d   1       0.942   2.814   2.057  0.00  0.00    -0.016 A 
ATOM      8  C8  IND d   1       0.246   3.252   0.939  0.00  0.00    -0.047 A 
ATOM      9  C9  IND d   1      -1.125   3.014   0.778  0.00  0.00    -0.096 A 
ATOM     10  HN1 IND d   1       1.489   4.169  -0.339  0.00  0.00     0.298 HD
ENDROOT
TORSDOF 0
ENDMDL
