MODEL 1
REMARK minimizedAffinity 8.33022118
REMARK minimizedRMSD -1
REMARK  0 active torsions:
REMARK  status: ('A' for Active; 'I' for Inactive)
ROOT
ATOM      1  N1  IND d   1      -0.265   1.301   1.914  0.00  0.00    -0.196 N 
ATOM      2  C2  IND d   1       0.229   1.910   3.034  0.00  0.00     0.054 A 
ATOM      3  C3  IND d   1       0.493   3.212   2.783  0.00  0.00    -0.031 A 
ATOM      4  C4  IND d   1       0.097   4.577   0.636  0.00  0.00     0.051 A 
ATOM      5  C5  IND d   1      -0.302   4.447  -0.665  0.00  0.00    -0.031 A 
ATOM      6  C6  IND d   1      -0.720   3.238  -1.182  0.00  0.00     0.015 A 
ATOM      7  C7  IND d   1      -0.766   2.111  -0.411  0.00  0.00    -0.016 A 
ATOM      8  C8  IND d   1      -0.355   2.237   0.908  0.00  0.00    -0.047 A 
ATOM      9  C9  IND d   1       0.111   3.452   1.427  0.00  0.00    -0.096 A 
ATOM     10  HN1 IND d   1      -0.483   0.471   1.849  0.00  0.00     0.298 HD
ENDROOT
TORSDOF 0
ENDMDL
