MODEL 1
REMARK minimizedAffinity 18.54426
REMARK minimizedRMSD -1
REMARK  0 active torsions:
REMARK  status: ('A' for Active; 'I' for Inactive)
ROOT
ATOM      1  N1  IND d   1      -0.655   4.488  -2.431  0.00  0.00    -0.196 N 
ATOM      2  C2  IND d   1      -0.431   5.737  -1.922  0.00  0.00     0.054 A 
ATOM      3  C3  IND d   1      -0.282   5.678  -0.579  0.00  0.00    -0.031 A 
ATOM      4  C4  IND d   1      -0.267   3.626   0.976  0.00  0.00     0.051 A 
ATOM      5  C5  IND d   1      -0.468   2.275   0.978  0.00  0.00    -0.031 A 
ATOM      6  C6  IND d   1      -0.745   1.577  -0.180  0.00  0.00     0.015 A 
ATOM      7  C7  IND d   1      -0.819   2.207  -1.390  0.00  0.00    -0.016 A 
ATOM      8  C8  IND d   1      -0.623   3.580  -1.395  0.00  0.00    -0.047 A 
ATOM      9  C9  IND d   1      -0.384   4.300  -0.217  0.00  0.00    -0.096 A 
ATOM     10  HN1 IND d   1      -0.793   4.301  -3.258  0.00  0.00     0.298 HD
ENDROOT
TORSDOF 0
ENDMDL
