MODEL 1
REMARK minimizedAffinity 12.1877089
REMARK minimizedRMSD -1
REMARK  0 active torsions:
REMARK  status: ('A' for Active; 'I' for Inactive)
ROOT
ATOM      1  N1  IND d   1       0.047   4.168   0.134  0.00  0.00    -0.196 N 
ATOM      2  C2  IND d   1      -0.774   3.473  -0.710  0.00  0.00     0.054 A 
ATOM      3  C3  IND d   1      -1.095   2.275  -0.173  0.00  0.00    -0.031 A 
ATOM      4  C4  IND d   1      -0.466   1.290   2.121  0.00  0.00     0.051 A 
ATOM      5  C5  IND d   1       0.298   1.538   3.227  0.00  0.00    -0.031 A 
ATOM      6  C6  IND d   1       1.030   2.700   3.362  0.00  0.00     0.015 A 
ATOM      7  C7  IND d   1       1.016   3.667   2.397  0.00  0.00    -0.016 A 
ATOM      8  C8  IND d   1       0.247   3.415   1.270  0.00  0.00    -0.047 A 
ATOM      9  C9  IND d   1      -0.464   2.219   1.108  0.00  0.00    -0.096 A 
ATOM     10  HN1 IND d   1       0.383   4.945  -0.020  0.00  0.00     0.298 HD
ENDROOT
TORSDOF 0
ENDMDL
