MODEL 1
REMARK minimizedAffinity 7.81578445
REMARK minimizedRMSD -1
REMARK  0 active torsions:
REMARK  status: ('A' for Active; 'I' for Inactive)
ROOT
ATOM      1  N1  IND d   1       0.196   1.474   2.630  0.00  0.00    -0.196 N 
ATOM      2  C2  IND d   1       0.651   2.179   3.709  0.00  0.00     0.054 A 
ATOM      3  C3  IND d   1       0.816   3.481   3.385  0.00  0.00    -0.031 A 
ATOM      4  C4  IND d   1       0.303   4.693   1.173  0.00  0.00     0.051 A 
ATOM      5  C5  IND d   1      -0.096   4.463  -0.114  0.00  0.00    -0.031 A 
ATOM      6  C6  IND d   1      -0.426   3.200  -0.560  0.00  0.00     0.015 A 
ATOM      7  C7  IND d   1      -0.382   2.117   0.271  0.00  0.00    -0.016 A 
ATOM      8  C8  IND d   1       0.029   2.345   1.576  0.00  0.00    -0.047 A 
ATOM      9  C9  IND d   1       0.406   3.618   2.023  0.00  0.00    -0.096 A 
ATOM     10  HN1 IND d   1       0.040   0.629   2.613  0.00  0.00     0.298 HD
ENDROOT
TORSDOF 0
ENDMDL
