MODEL 1
REMARK minimizedAffinity 9.38494778
REMARK minimizedRMSD -1
REMARK  0 active torsions:
REMARK  status: ('A' for Active; 'I' for Inactive)
ROOT
ATOM      1  N1  IND d   1       0.279   1.277  -0.905  0.00  0.00    -0.196 N 
ATOM      2  C2  IND d   1      -0.171   2.259  -0.067  0.00  0.00     0.054 A 
ATOM      3  C3  IND d   1      -1.466   2.045   0.256  0.00  0.00    -0.031 A 
ATOM      4  C4  IND d   1      -3.013   0.092  -0.393  0.00  0.00     0.051 A 
ATOM      5  C5  IND d   1      -3.063  -1.029  -1.173  0.00  0.00    -0.031 A 
ATOM      6  C6  IND d   1      -1.978  -1.449  -1.916  0.00  0.00     0.015 A 
ATOM      7  C7  IND d   1      -0.795  -0.767  -1.898  0.00  0.00    -0.016 A 
ATOM      8  C8  IND d   1      -0.743   0.376  -1.113  0.00  0.00    -0.047 A 
ATOM      9  C9  IND d   1      -1.853   0.831  -0.390  0.00  0.00    -0.096 A 
ATOM     10  HN1 IND d   1       1.067   1.229  -1.244  0.00  0.00     0.298 HD
ENDROOT
TORSDOF 0
ENDMDL
