MODEL 1
REMARK minimizedAffinity 7.72694159
REMARK minimizedRMSD -1
REMARK  0 active torsions:
REMARK  status: ('A' for Active; 'I' for Inactive)
ROOT
ATOM      1  N1  IND d   1      -3.339  -1.119  -1.495  0.00  0.00    -0.196 N 
ATOM      2  C2  IND d   1      -3.885   0.040  -1.018  0.00  0.00     0.054 A 
ATOM      3  C3  IND d   1      -2.911   0.915  -0.681  0.00  0.00    -0.031 A 
ATOM      4  C4  IND d   1      -0.358   0.693  -0.925  0.00  0.00     0.051 A 
ATOM      5  C5  IND d   1       0.618  -0.197  -1.277  0.00  0.00    -0.031 A 
ATOM      6  C6  IND d   1       0.318  -1.465  -1.732  0.00  0.00     0.015 A 
ATOM      7  C7  IND d   1      -0.975  -1.887  -1.863  0.00  0.00    -0.016 A 
ATOM      8  C8  IND d   1      -1.968  -0.988  -1.499  0.00  0.00    -0.047 A 
ATOM      9  C9  IND d   1      -1.668   0.284  -0.997  0.00  0.00    -0.096 A 
ATOM     10  HN1 IND d   1      -3.778  -1.813  -1.750  0.00  0.00     0.298 HD
ENDROOT
TORSDOF 0
ENDMDL
