MODEL 1
REMARK minimizedAffinity 12.1953297
REMARK minimizedRMSD -1
REMARK  0 active torsions:
REMARK  status: ('A' for Active; 'I' for Inactive)
ROOT
ATOM      1  N1  IND d   1       2.856  -1.026  -0.353  0.00  0.00    -0.196 N 
ATOM      2  C2  IND d   1       2.073  -1.948   0.284  0.00  0.00     0.054 A 
ATOM      3  C3  IND d   1       2.628  -3.178   0.196  0.00  0.00    -0.031 A 
ATOM      4  C4  IND d   1       4.866  -3.890  -0.858  0.00  0.00     0.051 A 
ATOM      5  C5  IND d   1       5.914  -3.408  -1.591  0.00  0.00    -0.031 A 
ATOM      6  C6  IND d   1       5.999  -2.079  -1.954  0.00  0.00     0.015 A 
ATOM      7  C7  IND d   1       5.041  -1.177  -1.585  0.00  0.00    -0.016 A 
ATOM      8  C8  IND d   1       3.972  -1.665  -0.847  0.00  0.00    -0.047 A 
ATOM      9  C9  IND d   1       3.859  -3.021  -0.513  0.00  0.00    -0.096 A 
ATOM     10  HN1 IND d   1       2.682  -0.188  -0.431  0.00  0.00     0.298 HD
ENDROOT
TORSDOF 0
ENDMDL
