MODEL 1
REMARK minimizedAffinity -1.38506782
REMARK minimizedRMSD -1
REMARK  1 active torsions:
REMARK  status: ('A' for Active; 'I' for Inactive)
REMARK    1  A    between atoms: N_2  and  C1_3 
ROOT
ATOM      1  C1  UNL d   1      -0.274   0.617  -0.311  0.00  0.00     0.143 A 
ATOM      2  C2  UNL d   1       1.000   0.954  -0.782  0.00  0.00    -0.057 A 
ATOM      3  C3  UNL d   1       2.110   0.143  -0.517  0.00  0.00     0.033 A 
ATOM      4  C4  UNL d   1       1.970  -1.009   0.250  0.00  0.00    -0.042 A 
ATOM      5  C5  UNL d   1       0.718  -1.350   0.750  0.00  0.00     0.033 A 
ATOM      6  C6  UNL d   1      -0.388  -0.539   0.476  0.00  0.00    -0.057 A 
ENDROOT
BRANCH   1   7
ATOM      7  N   UNL d   1      -1.398   1.433  -0.457  0.00  0.00    -0.732 N 
ATOM      8  C   UNL d   1      -1.698   2.055  -1.730  0.00  0.00     0.284 C 
ATOM      9  H3  UNL d   1      -2.213   1.062   0.026  0.00  0.00     0.395 HD
ENDBRANCH   1   7
TORSDOF 1
ENDMDL
