MODEL 1
REMARK minimizedAffinity -1.92318594
REMARK minimizedRMSD -1
REMARK  1 active torsions:
REMARK  status: ('A' for Active; 'I' for Inactive)
REMARK    1  A    between atoms: N_2  and  C1_3 
ROOT
ATOM      1  C1  UNL d   1       0.086   0.191  -0.094  0.00  0.00     0.143 A 
ATOM      2  C2  UNL d   1       1.358  -0.268  -0.452  0.00  0.00    -0.057 A 
ATOM      3  C3  UNL d   1       2.023  -1.235   0.312  0.00  0.00     0.033 A 
ATOM      4  C4  UNL d   1       1.436  -1.740   1.468  0.00  0.00    -0.042 A 
ATOM      5  C5  UNL d   1       0.183  -1.280   1.857  0.00  0.00     0.033 A 
ATOM      6  C6  UNL d   1      -0.478  -0.320   1.086  0.00  0.00    -0.057 A 
ENDROOT
BRANCH   1   7
ATOM      7  N   UNL d   1      -0.584   1.222  -0.757  0.00  0.00    -0.732 N 
ATOM      8  C   UNL d   1      -1.551   0.926  -1.793  0.00  0.00     0.284 C 
ATOM      9  H3  UNL d   1      -0.865   1.971  -0.128  0.00  0.00     0.395 HD
ENDBRANCH   1   7
TORSDOF 1
ENDMDL
