MODEL 1
REMARK minimizedAffinity -3.22142434
REMARK minimizedRMSD -1
REMARK  1 active torsions:
REMARK  status: ('A' for Active; 'I' for Inactive)
REMARK    1  A    between atoms: N_2  and  C1_3 
ROOT
ATOM      1  C1  UNL d   1      -0.176   0.869  -0.985  0.00  0.00     0.143 A 
ATOM      2  C2  UNL d   1      -0.500  -0.044  -1.995  0.00  0.00    -0.057 A 
ATOM      3  C3  UNL d   1      -1.508   0.233  -2.927  0.00  0.00     0.033 A 
ATOM      4  C4  UNL d   1      -2.231   1.418  -2.847  0.00  0.00    -0.042 A 
ATOM      5  C5  UNL d   1      -1.943   2.328  -1.837  0.00  0.00     0.033 A 
ATOM      6  C6  UNL d   1      -0.931   2.050  -0.913  0.00  0.00    -0.057 A 
ENDROOT
BRANCH   1   7
ATOM      7  N   UNL d   1       0.748   0.610   0.030  0.00  0.00    -0.732 N 
ATOM      8  C   UNL d   1       1.297  -0.718   0.206  0.00  0.00     0.284 C 
ATOM      9  H3  UNL d   1       1.428   1.359   0.137  0.00  0.00     0.395 HD
ENDBRANCH   1   7
TORSDOF 1
ENDMDL
