MODEL 1
REMARK minimizedAffinity -3.66023803
REMARK minimizedRMSD -1
REMARK  1 active torsions:
REMARK  status: ('A' for Active; 'I' for Inactive)
REMARK    1  A    between atoms: N_2  and  C1_3 
ROOT
ATOM      1  C1  UNL d   1       0.244   0.231   0.135  0.00  0.00     0.143 A 
ATOM      2  C2  UNL d   1       1.294  -0.313  -0.613  0.00  0.00    -0.057 A 
ATOM      3  C3  UNL d   1       1.962  -1.469  -0.193  0.00  0.00     0.033 A 
ATOM      4  C4  UNL d   1       1.609  -2.089   1.002  0.00  0.00    -0.042 A 
ATOM      5  C5  UNL d   1       0.585  -1.552   1.774  0.00  0.00     0.033 A 
ATOM      6  C6  UNL d   1      -0.082  -0.400   1.346  0.00  0.00    -0.057 A 
ENDROOT
BRANCH   1   7
ATOM      7  N   UNL d   1      -0.393   1.434  -0.178  0.00  0.00    -0.732 N 
ATOM      8  C   UNL d   1      -1.288   1.520  -1.312  0.00  0.00     0.284 C 
ATOM      9  H3  UNL d   1      -0.721   1.927   0.649  0.00  0.00     0.395 HD
ENDBRANCH   1   7
TORSDOF 1
ENDMDL
