MODEL 1
REMARK minimizedAffinity 2.82054496
REMARK minimizedRMSD -1
REMARK  1 active torsions:
REMARK  status: ('A' for Active; 'I' for Inactive)
REMARK    1  A    between atoms: N_2  and  C1_3 
ROOT
ATOM      1  C1  UNL d   1      -0.553   1.477  -1.216  0.00  0.00     0.143 A 
ATOM      2  C2  UNL d   1      -0.171   2.305  -2.277  0.00  0.00    -0.057 A 
ATOM      3  C3  UNL d   1      -0.993   2.474  -3.398  0.00  0.00     0.033 A 
ATOM      4  C4  UNL d   1      -2.202   1.793  -3.491  0.00  0.00    -0.042 A 
ATOM      5  C5  UNL d   1      -2.590   0.945  -2.459  0.00  0.00     0.033 A 
ATOM      6  C6  UNL d   1      -1.768   0.785  -1.339  0.00  0.00    -0.057 A 
ENDROOT
BRANCH   1   7
ATOM      7  N   UNL d   1       0.265   1.191  -0.120  0.00  0.00    -0.732 N 
ATOM      8  C   UNL d   1       1.484   0.429  -0.288  0.00  0.00     0.284 C 
ATOM      9  H3  UNL d   1       0.353   1.980   0.516  0.00  0.00     0.395 HD
ENDBRANCH   1   7
TORSDOF 1
ENDMDL
