MODEL 1
REMARK minimizedAffinity -2.02677727
REMARK minimizedRMSD -1
REMARK  1 active torsions:
REMARK  status: ('A' for Active; 'I' for Inactive)
REMARK    1  A    between atoms: N_2  and  C1_3 
ROOT
ATOM      1  C1  UNL d   1      -0.202   0.468   0.081  0.00  0.00     0.143 A 
ATOM      2  C2  UNL d   1       1.124   0.408  -0.363  0.00  0.00    -0.057 A 
ATOM      3  C3  UNL d   1       2.038  -0.489   0.202  0.00  0.00     0.033 A 
ATOM      4  C4  UNL d   1       1.649  -1.325   1.244  0.00  0.00    -0.042 A 
ATOM      5  C5  UNL d   1       0.343  -1.264   1.718  0.00  0.00     0.033 A 
ATOM      6  C6  UNL d   1      -0.567  -0.370   1.145  0.00  0.00    -0.057 A 
ENDROOT
BRANCH   1   7
ATOM      7  N   UNL d   1      -1.132   1.407  -0.373  0.00  0.00    -0.732 N 
ATOM      8  C   UNL d   1      -0.992   2.010  -1.681  0.00  0.00     0.284 C 
ATOM      9  H3  UNL d   1      -2.087   1.155  -0.132  0.00  0.00     0.395 HD
ENDBRANCH   1   7
TORSDOF 1
ENDMDL
