MODEL 1
REMARK minimizedAffinity -1.77066779
REMARK minimizedRMSD -1
REMARK  1 active torsions:
REMARK  status: ('A' for Active; 'I' for Inactive)
REMARK    1  A    between atoms: N_2  and  C1_3 
ROOT
ATOM      1  C1  UNL d   1      -0.315   0.338   0.085  0.00  0.00     0.143 A 
ATOM      2  C2  UNL d   1       0.974  -0.017  -0.329  0.00  0.00    -0.057 A 
ATOM      3  C3  UNL d   1       1.691  -1.031   0.317  0.00  0.00     0.033 A 
ATOM      4  C4  UNL d   1       1.141  -1.691   1.411  0.00  0.00    -0.042 A 
ATOM      5  C5  UNL d   1      -0.128  -1.338   1.856  0.00  0.00     0.033 A 
ATOM      6  C6  UNL d   1      -0.842  -0.329   1.202  0.00  0.00    -0.057 A 
ENDROOT
BRANCH   1   7
ATOM      7  N   UNL d   1      -1.039   1.404  -0.454  0.00  0.00    -0.732 N 
ATOM      8  C   UNL d   1      -1.875   1.212  -1.620  0.00  0.00     0.284 C 
ATOM      9  H3  UNL d   1      -1.455   1.992   0.263  0.00  0.00     0.395 HD
ENDBRANCH   1   7
TORSDOF 1
ENDMDL
