MODEL 1
REMARK minimizedAffinity -3.78334761
REMARK minimizedRMSD -1
REMARK  1 active torsions:
REMARK  status: ('A' for Active; 'I' for Inactive)
REMARK    1  A    between atoms: N_2  and  C1_3 
ROOT
ATOM      1  C1  UNL d   1      -1.607   2.417  -2.938  0.00  0.00     0.143 A 
ATOM      2  C2  UNL d   1      -1.164   1.180  -3.419  0.00  0.00    -0.057 A 
ATOM      3  C3  UNL d   1      -1.949   0.027  -3.291  0.00  0.00     0.033 A 
ATOM      4  C4  UNL d   1      -3.182   0.086  -2.650  0.00  0.00    -0.042 A 
ATOM      5  C5  UNL d   1      -3.632   1.300  -2.142  0.00  0.00     0.033 A 
ATOM      6  C6  UNL d   1      -2.847   2.448  -2.280  0.00  0.00    -0.057 A 
ENDROOT
BRANCH   1   7
ATOM      7  N   UNL d   1      -0.832   3.578  -2.948  0.00  0.00    -0.732 N 
ATOM      8  C   UNL d   1      -0.178   4.018  -4.162  0.00  0.00     0.284 C 
ATOM      9  H3  UNL d   1      -1.252   4.330  -2.406  0.00  0.00     0.395 HD
ENDBRANCH   1   7
TORSDOF 1
ENDMDL
