MODEL 1
REMARK minimizedAffinity -3.6528039
REMARK minimizedRMSD -1
REMARK  1 active torsions:
REMARK  status: ('A' for Active; 'I' for Inactive)
REMARK    1  A    between atoms: N_2  and  C1_3 
ROOT
ATOM      1  C1  UNL d   1       0.527   0.175  -0.674  0.00  0.00     0.143 A 
ATOM      2  C2  UNL d   1       1.627  -0.575  -1.103  0.00  0.00    -0.057 A 
ATOM      3  C3  UNL d   1       2.367  -1.358  -0.208  0.00  0.00     0.033 A 
ATOM      4  C4  UNL d   1       2.035  -1.381   1.143  0.00  0.00    -0.042 A 
ATOM      5  C5  UNL d   1       0.961  -0.623   1.596  0.00  0.00     0.033 A 
ATOM      6  C6  UNL d   1       0.222   0.151   0.696  0.00  0.00    -0.057 A 
ENDROOT
BRANCH   1   7
ATOM      7  N   UNL d   1      -0.187   1.049  -1.497  0.00  0.00    -0.732 N 
ATOM      8  C   UNL d   1      -1.623   1.171  -1.373  0.00  0.00     0.284 C 
ATOM      9  H3  UNL d   1       0.295   1.935  -1.634  0.00  0.00     0.395 HD
ENDBRANCH   1   7
TORSDOF 1
ENDMDL
