MODEL 1
REMARK minimizedAffinity -3.09488463
REMARK minimizedRMSD -1
REMARK  1 active torsions:
REMARK  status: ('A' for Active; 'I' for Inactive)
REMARK    1  A    between atoms: N_2  and  C1_3 
ROOT
ATOM      1  C1  UNL d   1      -0.427   1.022  -0.570  0.00  0.00     0.143 A 
ATOM      2  C2  UNL d   1      -0.819   1.821  -1.650  0.00  0.00    -0.057 A 
ATOM      3  C3  UNL d   1      -2.136   1.802  -2.126  0.00  0.00     0.033 A 
ATOM      4  C4  UNL d   1      -3.079   0.959  -1.548  0.00  0.00    -0.042 A 
ATOM      5  C5  UNL d   1      -2.706   0.138  -0.490  0.00  0.00     0.033 A 
ATOM      6  C6  UNL d   1      -1.391   0.166  -0.014  0.00  0.00    -0.057 A 
ENDROOT
BRANCH   1   7
ATOM      7  N   UNL d   1       0.890   0.923  -0.114  0.00  0.00    -0.732 N 
ATOM      8  C   UNL d   1       1.695  -0.236  -0.433  0.00  0.00     0.284 C 
ATOM      9  H3  UNL d   1       1.390   1.807  -0.176  0.00  0.00     0.395 HD
ENDBRANCH   1   7
TORSDOF 1
ENDMDL
