MODEL 1
REMARK minimizedAffinity 0.00901790429
REMARK minimizedRMSD -1
REMARK  0 active torsions:
REMARK  status: ('A' for Active; 'I' for Inactive)
ROOT
ATOM      1  C   UNL d   1      -3.160   2.313  -1.478  0.00  0.00     0.020 A 
ATOM      2  C1  UNL d   1      -3.100   1.495  -2.605  0.00  0.00     0.020 A 
ATOM      3  C2  UNL d   1      -2.970   2.062  -3.874  0.00  0.00     0.034 A 
ATOM      4  C3  UNL d   1      -2.900   3.453  -4.020  0.00  0.00     0.017 A 
ATOM      5  C4  UNL d   1      -2.961   4.274  -2.888  0.00  0.00     0.017 A 
ATOM      6  C5  UNL d   1      -3.091   3.700  -1.619  0.00  0.00     0.034 A 
ATOM      7 Cl   UNL d   1      -2.881   5.997  -2.988  0.00  0.00    -0.070 Cl
ATOM      8 Cl1  UNL d   1      -2.740   4.086  -5.619  0.00  0.00    -0.070 Cl
ENDROOT
TORSDOF 0
ENDMDL
