MODEL 1
REMARK minimizedAffinity -1.48839688
REMARK minimizedRMSD -1
REMARK  0 active torsions:
REMARK  status: ('A' for Active; 'I' for Inactive)
ROOT
ATOM      1  C   UNL d   1      -2.555   6.000  -5.519  0.00  0.00     0.020 A 
ATOM      2  C1  UNL d   1      -1.528   5.098  -5.796  0.00  0.00     0.020 A 
ATOM      3  C2  UNL d   1      -1.174   4.132  -4.852  0.00  0.00     0.034 A 
ATOM      4  C3  UNL d   1      -1.848   4.064  -3.628  0.00  0.00     0.017 A 
ATOM      5  C4  UNL d   1      -2.879   4.970  -3.351  0.00  0.00     0.017 A 
ATOM      6  C5  UNL d   1      -3.229   5.935  -4.299  0.00  0.00     0.034 A 
ATOM      7 Cl   UNL d   1      -3.756   4.948  -1.862  0.00  0.00    -0.070 Cl
ATOM      8 Cl1  UNL d   1      -1.359   2.843  -2.507  0.00  0.00    -0.070 Cl
ENDROOT
TORSDOF 0
ENDMDL
