MODEL 1
REMARK minimizedAffinity -0.551562607
REMARK minimizedRMSD -1
REMARK  0 active torsions:
REMARK  status: ('A' for Active; 'I' for Inactive)
ROOT
ATOM      1  C   UNL d   1      -1.974   4.413  -4.194  0.00  0.00     0.020 A 
ATOM      2  C1  UNL d   1      -2.847   5.379  -3.693  0.00  0.00     0.020 A 
ATOM      3  C2  UNL d   1      -3.614   5.105  -2.560  0.00  0.00     0.034 A 
ATOM      4  C3  UNL d   1      -3.511   3.863  -1.922  0.00  0.00     0.017 A 
ATOM      5  C4  UNL d   1      -2.635   2.895  -2.425  0.00  0.00     0.017 A 
ATOM      6  C5  UNL d   1      -1.868   3.174  -3.561  0.00  0.00     0.034 A 
ATOM      7 Cl   UNL d   1      -2.453   1.340  -1.693  0.00  0.00    -0.070 Cl
ATOM      8 Cl1  UNL d   1      -4.490   3.594  -0.524  0.00  0.00    -0.070 Cl
ENDROOT
TORSDOF 0
ENDMDL
