MODEL 1
REMARK minimizedAffinity 9.51725674
REMARK minimizedRMSD -1
REMARK  0 active torsions:
REMARK  status: ('A' for Active; 'I' for Inactive)
ROOT
ATOM      1  C   UNL d   1       0.098  -2.547   0.112  0.00  0.00     0.020 A 
ATOM      2  C1  UNL d   1       0.875  -2.213   1.221  0.00  0.00     0.020 A 
ATOM      3  C2  UNL d   1       0.298  -1.539   2.299  0.00  0.00     0.034 A 
ATOM      4  C3  UNL d   1      -1.059  -1.197   2.271  0.00  0.00     0.017 A 
ATOM      5  C4  UNL d   1      -1.838  -1.533   1.158  0.00  0.00     0.017 A 
ATOM      6  C5  UNL d   1      -1.255  -2.208   0.081  0.00  0.00     0.034 A 
ATOM      7 Cl   UNL d   1      -3.519  -1.145   1.051  0.00  0.00    -0.070 Cl
ATOM      8 Cl1  UNL d   1      -1.706  -0.365   3.640  0.00  0.00    -0.070 Cl
ENDROOT
TORSDOF 0
ENDMDL
