MODEL 1
REMARK minimizedAffinity 2.95983839
REMARK minimizedRMSD -1
REMARK  0 active torsions:
REMARK  status: ('A' for Active; 'I' for Inactive)
ROOT
ATOM      1  C   UNL d   1      -3.300   5.607  -3.403  0.00  0.00     0.020 A 
ATOM      2  C1  UNL d   1      -3.292   5.063  -4.687  0.00  0.00     0.020 A 
ATOM      3  C2  UNL d   1      -3.377   3.680  -4.860  0.00  0.00     0.034 A 
ATOM      4  C3  UNL d   1      -3.471   2.836  -3.748  0.00  0.00     0.017 A 
ATOM      5  C4  UNL d   1      -3.479   3.382  -2.460  0.00  0.00     0.017 A 
ATOM      6  C5  UNL d   1      -3.394   4.768  -2.292  0.00  0.00     0.034 A 
ATOM      7 Cl   UNL d   1      -3.592   2.404  -1.039  0.00  0.00    -0.070 Cl
ATOM      8 Cl1  UNL d   1      -3.574   1.135  -4.037  0.00  0.00    -0.070 Cl
ENDROOT
TORSDOF 0
ENDMDL
