MODEL 1
REMARK minimizedAffinity 3.93213916
REMARK minimizedRMSD -1
REMARK  0 active torsions:
REMARK  status: ('A' for Active; 'I' for Inactive)
ROOT
ATOM      1  C   UNL d   1       1.465  -2.248   0.933  0.00  0.00     0.020 A 
ATOM      2  C1  UNL d   1       0.244  -1.803   1.437  0.00  0.00     0.020 A 
ATOM      3  C2  UNL d   1      -0.753  -1.361   0.563  0.00  0.00     0.034 A 
ATOM      4  C3  UNL d   1      -0.529  -1.362  -0.818  0.00  0.00     0.017 A 
ATOM      5  C4  UNL d   1       0.697  -1.809  -1.323  0.00  0.00     0.017 A 
ATOM      6  C5  UNL d   1       1.691  -2.251  -0.444  0.00  0.00     0.034 A 
ATOM      7 Cl   UNL d   1       1.047  -1.841  -3.016  0.00  0.00    -0.070 Cl
ATOM      8 Cl1  UNL d   1      -1.806  -0.802  -1.839  0.00  0.00    -0.070 Cl
ENDROOT
TORSDOF 0
ENDMDL
