MODEL 1
REMARK minimizedAffinity 2.29452682
REMARK minimizedRMSD -1
REMARK  0 active torsions:
REMARK  status: ('A' for Active; 'I' for Inactive)
ROOT
ATOM      1  C   UNL d   1       1.385  -2.207   1.226  0.00  0.00     0.020 A 
ATOM      2  C1  UNL d   1       0.133  -1.814   1.697  0.00  0.00     0.020 A 
ATOM      3  C2  UNL d   1      -0.891  -1.517   0.796  0.00  0.00     0.034 A 
ATOM      4  C3  UNL d   1      -0.665  -1.611  -0.582  0.00  0.00     0.017 A 
ATOM      5  C4  UNL d   1       0.592  -2.006  -1.055  0.00  0.00     0.017 A 
ATOM      6  C5  UNL d   1       1.614  -2.303  -0.148  0.00  0.00     0.034 A 
ATOM      7 Cl   UNL d   1       0.946  -2.146  -2.741  0.00  0.00    -0.070 Cl
ATOM      8 Cl1  UNL d   1      -1.977  -1.229  -1.640  0.00  0.00    -0.070 Cl
ENDROOT
TORSDOF 0
ENDMDL
