MODEL 1
REMARK minimizedAffinity 5.71790934
REMARK minimizedRMSD -1
REMARK  0 active torsions:
REMARK  status: ('A' for Active; 'I' for Inactive)
ROOT
ATOM      1  C   UNL d   1      -2.430   5.621  -2.359  0.00  0.00     0.020 A 
ATOM      2  C1  UNL d   1      -2.011   5.091  -3.579  0.00  0.00     0.020 A 
ATOM      3  C2  UNL d   1      -2.231   3.743  -3.867  0.00  0.00     0.034 A 
ATOM      4  C3  UNL d   1      -2.872   2.919  -2.934  0.00  0.00     0.017 A 
ATOM      5  C4  UNL d   1      -3.292   3.452  -1.710  0.00  0.00     0.017 A 
ATOM      6  C5  UNL d   1      -3.069   4.803  -1.427  0.00  0.00     0.034 A 
ATOM      7 Cl   UNL d   1      -4.089   2.498  -0.509  0.00  0.00    -0.070 Cl
ATOM      8 Cl1  UNL d   1      -3.111   1.261  -3.357  0.00  0.00    -0.070 Cl
ENDROOT
TORSDOF 0
ENDMDL
