MODEL 1
REMARK minimizedAffinity -1.65128899
REMARK minimizedRMSD -1
REMARK  0 active torsions:
REMARK  status: ('A' for Active; 'I' for Inactive)
ROOT
ATOM      1  C   UNL d   1      -4.008   3.009  -3.423  0.00  0.00     0.020 A 
ATOM      2  C1  UNL d   1      -3.506   4.294  -3.626  0.00  0.00     0.020 A 
ATOM      3  C2  UNL d   1      -2.148   4.552  -3.432  0.00  0.00     0.034 A 
ATOM      4  C3  UNL d   1      -1.286   3.523  -3.034  0.00  0.00     0.017 A 
ATOM      5  C4  UNL d   1      -1.790   2.234  -2.830  0.00  0.00     0.017 A 
ATOM      6  C5  UNL d   1      -3.152   1.981  -3.026  0.00  0.00     0.034 A 
ATOM      7 Cl   UNL d   1      -0.789   0.914  -2.339  0.00  0.00    -0.070 Cl
ATOM      8 Cl1  UNL d   1       0.383   3.913  -2.813  0.00  0.00    -0.070 Cl
ENDROOT
TORSDOF 0
ENDMDL
