MODEL 1
REMARK minimizedAffinity -2.00782418
REMARK minimizedRMSD -1
REMARK  0 active torsions:
REMARK  status: ('A' for Active; 'I' for Inactive)
ROOT
ATOM      1  C   UNL d   1       0.719  -1.809   3.340  0.00  0.00     0.020 A 
ATOM      2  C1  UNL d   1      -0.543  -1.221   3.264  0.00  0.00     0.020 A 
ATOM      3  C2  UNL d   1      -1.180  -1.092   2.028  0.00  0.00     0.034 A 
ATOM      4  C3  UNL d   1      -0.556  -1.553   0.863  0.00  0.00     0.017 A 
ATOM      5  C4  UNL d   1       0.711  -2.144   0.940  0.00  0.00     0.017 A 
ATOM      6  C5  UNL d   1       1.344  -2.270   2.181  0.00  0.00     0.034 A 
ATOM      7 Cl   UNL d   1       1.544  -2.736  -0.453  0.00  0.00    -0.070 Cl
ATOM      8 Cl1  UNL d   1      -1.402  -1.362  -0.632  0.00  0.00    -0.070 Cl
ENDROOT
TORSDOF 0
ENDMDL
