MODEL 1
REMARK minimizedAffinity 3.51506376
REMARK minimizedRMSD -1
REMARK  0 active torsions:
REMARK  status: ('A' for Active; 'I' for Inactive)
ROOT
ATOM      1  C1  BNZ d   1       5.315   3.615  -0.127  0.00  0.00     0.000 A 
ATOM      2  C2  BNZ d   1       4.532   2.915  -1.005  0.00  0.00     0.000 A 
ATOM      3  C3  BNZ d   1       4.352   1.567  -0.862  0.00  0.00     0.000 A 
ATOM      4  C4  BNZ d   1       4.988   0.915   0.133  0.00  0.00     0.000 A 
ATOM      5  C5  BNZ d   1       5.789   1.606   1.021  0.00  0.00     0.000 A 
ATOM      6  C6  BNZ d   1       5.936   2.968   0.898  0.00  0.00     0.000 A 
ENDROOT
TORSDOF 0
ENDMDL
