MODEL 1
REMARK minimizedAffinity 8.98021793
REMARK minimizedRMSD -1
REMARK  0 active torsions:
REMARK  status: ('A' for Active; 'I' for Inactive)
ROOT
ATOM      1  C1  BNZ d   1       5.992   5.726   0.655  0.00  0.00     0.000 A 
ATOM      2  C2  BNZ d   1       6.000   4.937   1.775  0.00  0.00     0.000 A 
ATOM      3  C3  BNZ d   1       5.967   3.574   1.671  0.00  0.00     0.000 A 
ATOM      4  C4  BNZ d   1       5.886   3.004   0.451  0.00  0.00     0.000 A 
ATOM      5  C5  BNZ d   1       5.868   3.786  -0.686  0.00  0.00     0.000 A 
ATOM      6  C6  BNZ d   1       5.940   5.156  -0.580  0.00  0.00     0.000 A 
ENDROOT
TORSDOF 0
ENDMDL
