MODEL 1
REMARK minimizedAffinity -0.265918136
REMARK minimizedRMSD -1
REMARK  0 active torsions:
REMARK  status: ('A' for Active; 'I' for Inactive)
ROOT
ATOM      1  C1  BNZ d   1       1.497  -5.951   6.000  0.00  0.00     0.000 A 
ATOM      2  C2  BNZ d   1       2.201  -4.949   5.387  0.00  0.00     0.000 A 
ATOM      3  C3  BNZ d   1       1.553  -3.911   4.776  0.00  0.00     0.000 A 
ATOM      4  C4  BNZ d   1       0.205  -3.898   4.744  0.00  0.00     0.000 A 
ATOM      5  C5  BNZ d   1      -0.519  -4.906   5.349  0.00  0.00     0.000 A 
ATOM      6  C6  BNZ d   1       0.136  -5.928   5.997  0.00  0.00     0.000 A 
ENDROOT
TORSDOF 0
ENDMDL
