MODEL 1
REMARK minimizedAffinity 9.06408024
REMARK minimizedRMSD -1
REMARK  0 active torsions:
REMARK  status: ('A' for Active; 'I' for Inactive)
ROOT
ATOM      1  C1  BNZ d   1       0.062  -4.219   4.174  0.00  0.00     0.000 A 
ATOM      2  C2  BNZ d   1       1.390  -4.225   4.507  0.00  0.00     0.000 A 
ATOM      3  C3  BNZ d   1       1.882  -5.130   5.405  0.00  0.00     0.000 A 
ATOM      4  C4  BNZ d   1       1.040  -6.000   5.999  0.00  0.00     0.000 A 
ATOM      5  C5  BNZ d   1      -0.304  -6.000   5.681  0.00  0.00     0.000 A 
ATOM      6  C6  BNZ d   1      -0.789  -5.113   4.747  0.00  0.00     0.000 A 
ENDROOT
TORSDOF 0
ENDMDL
