MODEL 1
REMARK minimizedAffinity 1.6655215
REMARK minimizedRMSD -1
REMARK  1 active torsions:
REMARK  status: ('A' for Active; 'I' for Inactive)
REMARK    1  A    between atoms: C1_2  and  C2_3 
ROOT
ATOM      1  C2  UNL d   1      -3.335   5.846   4.644  0.00  0.00    -0.077 A 
ATOM      2  C3  UNL d   1      -2.584   5.995   3.469  0.00  0.00     0.002 A 
ATOM      3  C4  UNL d   1      -3.200   5.899   2.220  0.00  0.00     0.002 A 
ATOM      4  C5  UNL d   1      -4.569   5.658   2.133  0.00  0.00    -0.004 A 
ATOM      5  C6  UNL d   1      -5.325   5.506   3.295  0.00  0.00     0.002 A 
ATOM      6  C7  UNL d   1      -4.710   5.601   4.545  0.00  0.00     0.002 A 
ENDROOT
BRANCH   1   7
ATOM      7  C1  UNL d   1      -2.681   5.999   5.992  0.00  0.00     0.055 C 
ATOM      8  C   UNL d   1      -1.164   6.000   5.875  0.00  0.00     0.019 C 
ENDBRANCH   1   7
TORSDOF 1
ENDMDL
