MODEL 1
REMARK minimizedAffinity 3.92359638
REMARK minimizedRMSD -1
REMARK  1 active torsions:
REMARK  status: ('A' for Active; 'I' for Inactive)
REMARK    1  A    between atoms: C1_2  and  C2_3 
ROOT
ATOM      1  C2  UNL d   1       2.418   2.152  -3.761  0.00  0.00    -0.077 A 
ATOM      2  C3  UNL d   1       3.643   1.471  -3.772  0.00  0.00     0.002 A 
ATOM      3  C4  UNL d   1       4.479   1.538  -4.889  0.00  0.00     0.002 A 
ATOM      4  C5  UNL d   1       4.100   2.289  -6.000  0.00  0.00    -0.004 A 
ATOM      5  C6  UNL d   1       2.883   2.969  -5.999  0.00  0.00     0.002 A 
ATOM      6  C7  UNL d   1       2.046   2.902  -4.884  0.00  0.00     0.002 A 
ENDROOT
BRANCH   1   7
ATOM      7  C1  UNL d   1       1.538   2.121  -2.538  0.00  0.00     0.055 C 
ATOM      8  C   UNL d   1       1.546   0.746  -1.886  0.00  0.00     0.019 C 
ENDBRANCH   1   7
TORSDOF 1
ENDMDL
