MODEL 1
REMARK minimizedAffinity -1.06948638
REMARK minimizedRMSD -1
REMARK  1 active torsions:
REMARK  status: ('A' for Active; 'I' for Inactive)
REMARK    1  A    between atoms: C1_2  and  C2_3 
ROOT
ATOM      1  C2  UNL d   1       3.005   1.471  -4.103  0.00  0.00    -0.077 A 
ATOM      2  C3  UNL d   1       2.079   2.514  -3.963  0.00  0.00     0.002 A 
ATOM      3  C4  UNL d   1       1.130   2.483  -2.939  0.00  0.00     0.002 A 
ATOM      4  C5  UNL d   1       1.102   1.415  -2.045  0.00  0.00    -0.004 A 
ATOM      5  C6  UNL d   1       2.018   0.372  -2.177  0.00  0.00     0.002 A 
ATOM      6  C7  UNL d   1       2.966   0.401  -3.201  0.00  0.00     0.002 A 
ENDROOT
BRANCH   1   7
ATOM      7  C1  UNL d   1       4.061   1.527  -5.176  0.00  0.00     0.055 C 
ATOM      8  C   UNL d   1       3.950   2.805  -5.995  0.00  0.00     0.019 C 
ENDBRANCH   1   7
TORSDOF 1
ENDMDL
