MODEL 1
REMARK minimizedAffinity 2.68898749
REMARK minimizedRMSD -1
REMARK  1 active torsions:
REMARK  status: ('A' for Active; 'I' for Inactive)
REMARK    1  A    between atoms: C1_2  and  C2_3 
ROOT
ATOM      1  C2  UNL d   1       1.807   1.560  -3.013  0.00  0.00    -0.077 A 
ATOM      2  C3  UNL d   1       1.395   2.893  -3.149  0.00  0.00     0.002 A 
ATOM      3  C4  UNL d   1       2.145   3.789  -3.914  0.00  0.00     0.002 A 
ATOM      4  C5  UNL d   1       3.308   3.361  -4.551  0.00  0.00    -0.004 A 
ATOM      5  C6  UNL d   1       3.727   2.038  -4.420  0.00  0.00     0.002 A 
ATOM      6  C7  UNL d   1       2.979   1.141  -3.655  0.00  0.00     0.002 A 
ENDROOT
BRANCH   1   7
ATOM      7  C1  UNL d   1       0.974   0.579  -2.230  0.00  0.00     0.055 C 
ATOM      8  C   UNL d   1       1.824  -0.560  -1.686  0.00  0.00     0.019 C 
ENDBRANCH   1   7
TORSDOF 1
ENDMDL
