MODEL 1
REMARK minimizedAffinity 0.482510298
REMARK minimizedRMSD -1
REMARK  1 active torsions:
REMARK  status: ('A' for Active; 'I' for Inactive)
REMARK    1  A    between atoms: C1_2  and  C2_3 
ROOT
ATOM      1  C2  UNL d   1      -4.302   5.999   3.864  0.00  0.00    -0.077 A 
ATOM      2  C3  UNL d   1      -3.096   6.000   3.150  0.00  0.00     0.002 A 
ATOM      3  C4  UNL d   1      -1.875   5.999   3.828  0.00  0.00     0.002 A 
ATOM      4  C5  UNL d   1      -1.849   5.994   5.221  0.00  0.00    -0.004 A 
ATOM      5  C6  UNL d   1      -3.044   5.995   5.939  0.00  0.00     0.002 A 
ATOM      6  C7  UNL d   1      -4.265   5.997   5.264  0.00  0.00     0.002 A 
ENDROOT
BRANCH   1   7
ATOM      7  C1  UNL d   1      -5.620   5.950   3.135  0.00  0.00     0.055 C 
ATOM      8  C   UNL d   1      -5.913   4.550   2.615  0.00  0.00     0.019 C 
ENDBRANCH   1   7
TORSDOF 1
ENDMDL
