MODEL 1
REMARK minimizedAffinity -0.414319783
REMARK minimizedRMSD -1
REMARK  1 active torsions:
REMARK  status: ('A' for Active; 'I' for Inactive)
REMARK    1  A    between atoms: C1_2  and  C2_3 
ROOT
ATOM      1  C2  UNL d   1       1.824  -0.352  -2.212  0.00  0.00    -0.077 A 
ATOM      2  C3  UNL d   1       1.461   0.440  -1.114  0.00  0.00     0.002 A 
ATOM      3  C4  UNL d   1       1.360   1.827  -1.247  0.00  0.00     0.002 A 
ATOM      4  C5  UNL d   1       1.616   2.431  -2.476  0.00  0.00    -0.004 A 
ATOM      5  C6  UNL d   1       1.980   1.651  -3.573  0.00  0.00     0.002 A 
ATOM      6  C7  UNL d   1       2.083   0.266  -3.442  0.00  0.00     0.002 A 
ENDROOT
BRANCH   1   7
ATOM      7  C1  UNL d   1       1.886  -1.852  -2.083  0.00  0.00     0.055 C 
ATOM      8  C   UNL d   1       2.291  -2.271  -0.678  0.00  0.00     0.019 C 
ENDBRANCH   1   7
TORSDOF 1
ENDMDL
