MODEL 1
REMARK minimizedAffinity -1.1980716
REMARK minimizedRMSD -1
REMARK  1 active torsions:
REMARK  status: ('A' for Active; 'I' for Inactive)
REMARK    1  A    between atoms: C1_2  and  C2_3 
ROOT
ATOM      1  C2  UNL d   1       1.556   0.488  -1.562  0.00  0.00    -0.077 A 
ATOM      2  C3  UNL d   1       1.369   1.750  -0.980  0.00  0.00     0.002 A 
ATOM      3  C4  UNL d   1       1.554   2.910  -1.735  0.00  0.00     0.002 A 
ATOM      4  C5  UNL d   1       1.922   2.820  -3.075  0.00  0.00    -0.004 A 
ATOM      5  C6  UNL d   1       2.112   1.570  -3.663  0.00  0.00     0.002 A 
ATOM      6  C7  UNL d   1       1.929   0.409  -2.909  0.00  0.00     0.002 A 
ENDROOT
BRANCH   1   7
ATOM      7  C1  UNL d   1       1.310  -0.765  -0.763  0.00  0.00     0.055 C 
ATOM      8  C   UNL d   1       2.230  -1.893  -1.205  0.00  0.00     0.019 C 
ENDBRANCH   1   7
TORSDOF 1
ENDMDL
