MODEL 1
REMARK minimizedAffinity -0.519903362
REMARK minimizedRMSD -1
REMARK  1 active torsions:
REMARK  status: ('A' for Active; 'I' for Inactive)
REMARK    1  A    between atoms: C1_2  and  C2_3 
ROOT
ATOM      1  C2  UNL d   1       4.745  -3.126   5.653  0.00  0.00    -0.077 A 
ATOM      2  C3  UNL d   1       5.969  -3.798   5.773  0.00  0.00     0.002 A 
ATOM      3  C4  UNL d   1       6.000  -5.183   5.948  0.00  0.00     0.002 A 
ATOM      4  C5  UNL d   1       4.811  -5.907   6.000  0.00  0.00    -0.004 A 
ATOM      5  C6  UNL d   1       3.588  -5.247   5.883  0.00  0.00     0.002 A 
ATOM      6  C7  UNL d   1       3.555  -3.863   5.710  0.00  0.00     0.002 A 
ENDROOT
BRANCH   1   7
ATOM      7  C1  UNL d   1       4.711  -1.638   5.415  0.00  0.00     0.055 C 
ATOM      8  C   UNL d   1       5.998  -0.974   5.882  0.00  0.00     0.019 C 
ENDBRANCH   1   7
TORSDOF 1
ENDMDL
