MODEL 1
REMARK minimizedAffinity 1.19952786
REMARK minimizedRMSD -1
REMARK  1 active torsions:
REMARK  status: ('A' for Active; 'I' for Inactive)
REMARK    1  A    between atoms: C1_2  and  C2_3 
ROOT
ATOM      1  C2  UNL d   1       1.800   1.908  -1.851  0.00  0.00    -0.077 A 
ATOM      2  C3  UNL d   1       1.696   3.113  -2.560  0.00  0.00     0.002 A 
ATOM      3  C4  UNL d   1       2.098   4.314  -1.974  0.00  0.00     0.002 A 
ATOM      4  C5  UNL d   1       2.610   4.323  -0.679  0.00  0.00    -0.004 A 
ATOM      5  C6  UNL d   1       2.716   3.130   0.036  0.00  0.00     0.002 A 
ATOM      6  C7  UNL d   1       2.314   1.928  -0.548  0.00  0.00     0.002 A 
ENDROOT
BRANCH   1   7
ATOM      7  C1  UNL d   1       1.414   0.604  -2.499  0.00  0.00     0.055 C 
ATOM      8  C   UNL d   1       1.656  -0.572  -1.564  0.00  0.00     0.019 C 
ENDBRANCH   1   7
TORSDOF 1
ENDMDL
