MODEL 1
REMARK minimizedAffinity 1.97665071
REMARK minimizedRMSD -1
REMARK  1 active torsions:
REMARK  status: ('A' for Active; 'I' for Inactive)
REMARK    1  A    between atoms: C1_2  and  C2_3 
ROOT
ATOM      1  C2  UNL d   1       4.028  -3.068   5.293  0.00  0.00    -0.077 A 
ATOM      2  C3  UNL d   1       3.593  -2.033   4.454  0.00  0.00     0.002 A 
ATOM      3  C4  UNL d   1       4.355  -0.872   4.311  0.00  0.00     0.002 A 
ATOM      4  C5  UNL d   1       5.558  -0.736   5.001  0.00  0.00    -0.004 A 
ATOM      5  C6  UNL d   1       5.998  -1.759   5.840  0.00  0.00     0.002 A 
ATOM      6  C7  UNL d   1       5.237  -2.920   5.985  0.00  0.00     0.002 A 
ENDROOT
BRANCH   1   7
ATOM      7  C1  UNL d   1       3.233  -4.342   5.410  0.00  0.00     0.055 C 
ATOM      8  C   UNL d   1       4.074  -5.468   5.993  0.00  0.00     0.019 C 
ENDBRANCH   1   7
TORSDOF 1
ENDMDL
