MODEL 1
REMARK minimizedAffinity 2.43275309
REMARK minimizedRMSD -1
REMARK  1 active torsions:
REMARK  status: ('A' for Active; 'I' for Inactive)
REMARK    1  A    between atoms: C1_2  and  C2_3 
ROOT
ATOM      1  C2  UNL d   1      -3.373   5.913   3.212  0.00  0.00    -0.077 A 
ATOM      2  C3  UNL d   1      -4.775   5.943   3.201  0.00  0.00     0.002 A 
ATOM      3  C4  UNL d   1      -5.490   5.979   4.400  0.00  0.00     0.002 A 
ATOM      4  C5  UNL d   1      -4.812   5.991   5.617  0.00  0.00    -0.004 A 
ATOM      5  C6  UNL d   1      -3.419   5.960   5.639  0.00  0.00     0.002 A 
ATOM      6  C7  UNL d   1      -2.702   5.922   4.442  0.00  0.00     0.002 A 
ENDROOT
BRANCH   1   7
ATOM      7  C1  UNL d   1      -2.599   5.923   1.920  0.00  0.00     0.055 C 
ATOM      8  C   UNL d   1      -2.812   4.636   1.137  0.00  0.00     0.019 C 
ENDBRANCH   1   7
TORSDOF 1
ENDMDL
