MODEL 1
REMARK minimizedAffinity -0.852031648
REMARK minimizedRMSD -1
REMARK  3 active torsions:
REMARK  status: ('A' for Active; 'I' for Inactive)
REMARK    1  A    between atoms: C3'_2  and  C2'_3 
REMARK    2  A    between atoms: C2'_3  and  C1'_4 
REMARK    3  A    between atoms: C1'_4  and  C1_5 
ROOT
ATOM      1  C1  N4B d   1       1.804  -0.549   0.438  0.00  0.00    -0.075 A 
ATOM      2  C2  N4B d   1       2.004  -1.721   1.199  0.00  0.00     0.002 A 
ATOM      3  C3  N4B d   1       1.009  -2.664   1.283  0.00  0.00     0.002 A 
ATOM      4  C4  N4B d   1      -0.196  -2.449   0.632  0.00  0.00    -0.004 A 
ATOM      5  C5  N4B d   1      -0.372  -1.326  -0.122  0.00  0.00     0.002 A 
ATOM      6  C6  N4B d   1       0.620  -0.372  -0.218  0.00  0.00     0.002 A 
ENDROOT
BRANCH   1   7
ATOM      7  C1' N4B d   1       2.830   0.550   0.387  0.00  0.00     0.057 C 
BRANCH   7   8
ATOM      8  C2' N4B d   1       2.147   1.885   0.668  0.00  0.00     0.009 C 
BRANCH   8   9
ATOM      9  C3' N4B d   1       1.674   1.990   2.108  0.00  0.00     0.004 C 
ATOM     10  C4' N4B d   1       2.651   2.708   2.990  0.00  0.00     0.003 C 
ENDBRANCH   8   9
ENDBRANCH   7   8
ENDBRANCH   1   7
TORSDOF 3
ENDMDL
