MODEL 1
REMARK minimizedAffinity -2.19307995
REMARK minimizedRMSD -1
REMARK  3 active torsions:
REMARK  status: ('A' for Active; 'I' for Inactive)
REMARK    1  A    between atoms: C3'_2  and  C2'_3 
REMARK    2  A    between atoms: C2'_3  and  C1'_4 
REMARK    3  A    between atoms: C1'_4  and  C1_5 
ROOT
ATOM      1  C1  N4B d   1      -0.083   0.183   0.333  0.00  0.00    -0.075 A 
ATOM      2  C2  N4B d   1       0.589   1.424   0.280  0.00  0.00     0.002 A 
ATOM      3  C3  N4B d   1       1.817   1.565   0.878  0.00  0.00     0.002 A 
ATOM      4  C4  N4B d   1       2.382   0.490   1.548  0.00  0.00    -0.004 A 
ATOM      5  C5  N4B d   1       1.738  -0.712   1.573  0.00  0.00     0.002 A 
ATOM      6  C6  N4B d   1       0.505  -0.870   0.973  0.00  0.00     0.002 A 
ENDROOT
BRANCH   1   7
ATOM      7  C1' N4B d   1      -1.466   0.004  -0.232  0.00  0.00     0.057 C 
BRANCH   7   8
ATOM      8  C2' N4B d   1      -1.579   0.788  -1.536  0.00  0.00     0.009 C 
BRANCH   8   9
ATOM      9  C3' N4B d   1      -2.942   0.619  -2.184  0.00  0.00     0.004 C 
ATOM     10  C4' N4B d   1      -2.854   0.264  -3.638  0.00  0.00     0.003 C 
ENDBRANCH   8   9
ENDBRANCH   7   8
ENDBRANCH   1   7
TORSDOF 3
ENDMDL
