MODEL 1
REMARK minimizedAffinity -4.5850606
REMARK minimizedRMSD -1
REMARK  3 active torsions:
REMARK  status: ('A' for Active; 'I' for Inactive)
REMARK    1  A    between atoms: C3'_2  and  C2'_3 
REMARK    2  A    between atoms: C2'_3  and  C1'_4 
REMARK    3  A    between atoms: C1'_4  and  C1_5 
ROOT
ATOM      1  C1  N4B d   1      -0.385  -0.161   0.504  0.00  0.00    -0.075 A 
ATOM      2  C2  N4B d   1       0.225  -1.015   1.449  0.00  0.00     0.002 A 
ATOM      3  C3  N4B d   1       1.414  -0.654   2.033  0.00  0.00     0.002 A 
ATOM      4  C4  N4B d   1       2.019   0.542   1.675  0.00  0.00    -0.004 A 
ATOM      5  C5  N4B d   1       1.411   1.372   0.780  0.00  0.00     0.002 A 
ATOM      6  C6  N4B d   1       0.213   1.024   0.188  0.00  0.00     0.002 A 
ENDROOT
BRANCH   1   7
ATOM      7  C1' N4B d   1      -1.642  -0.552  -0.225  0.00  0.00     0.057 C 
BRANCH   7   8
ATOM      8  C2' N4B d   1      -2.089   0.607  -1.111  0.00  0.00     0.009 C 
BRANCH   8   9
ATOM      9  C3' N4B d   1      -2.962   0.138  -2.262  0.00  0.00     0.004 C 
ATOM     10  C4' N4B d   1      -2.705  -1.289  -2.642  0.00  0.00     0.003 C 
ENDBRANCH   8   9
ENDBRANCH   7   8
ENDBRANCH   1   7
TORSDOF 3
ENDMDL
