MODEL 1
REMARK minimizedAffinity 10.8509521
REMARK minimizedRMSD -1
REMARK  0 active torsions:
REMARK  status: ('A' for Active; 'I' for Inactive)
ROOT
ATOM      1  C   UNL d   1       2.362   0.902  -2.610  0.00  0.00    -0.002 A 
ATOM      2  C1  UNL d   1       2.921   0.686  -1.358  0.00  0.00     0.010 A 
ATOM      3  C2  UNL d   1       2.528  -0.406  -0.583  0.00  0.00     0.041 A 
ATOM      4  C3  UNL d   1       1.554  -1.288  -1.092  0.00  0.00    -0.075 A 
ATOM      5  S   UNL d   1       0.919  -2.693  -0.321  0.00  0.00     0.015 SA
ATOM      6  C4  UNL d   1      -0.110  -3.040  -1.634  0.00  0.00     0.022 A 
ATOM      7  C5  UNL d   1       0.015  -2.117  -2.645  0.00  0.00     0.026 A 
ATOM      8  C6  UNL d   1       0.977  -1.092  -2.350  0.00  0.00    -0.082 A 
ATOM      9  C7  UNL d   1       1.396   0.025  -3.111  0.00  0.00     0.045 A 
ENDROOT
TORSDOF 0
ENDMDL
