MODEL 1
REMARK minimizedAffinity 22.5684395
REMARK minimizedRMSD -1
REMARK  0 active torsions:
REMARK  status: ('A' for Active; 'I' for Inactive)
ROOT
ATOM      1  C   UNL d   1       1.941  -0.629  -5.571  0.00  0.00    -0.002 A 
ATOM      2  C1  UNL d   1       2.353  -1.936  -5.353  0.00  0.00     0.010 A 
ATOM      3  C2  UNL d   1       2.345  -2.478  -4.065  0.00  0.00     0.041 A 
ATOM      4  C3  UNL d   1       1.910  -1.676  -2.992  0.00  0.00    -0.075 A 
ATOM      5  S   UNL d   1       1.814  -2.126  -1.330  0.00  0.00     0.015 SA
ATOM      6  C4  UNL d   1       1.223  -0.595  -0.872  0.00  0.00     0.022 A 
ATOM      7  C5  UNL d   1       1.096   0.252  -1.948  0.00  0.00     0.026 A 
ATOM      8  C6  UNL d   1       1.490  -0.357  -3.187  0.00  0.00    -0.082 A 
ATOM      9  C7  UNL d   1       1.511   0.163  -4.504  0.00  0.00     0.045 A 
ENDROOT
TORSDOF 0
ENDMDL
