MODEL 1
REMARK minimizedAffinity 0.30216983
REMARK minimizedRMSD -1
REMARK  0 active torsions:
REMARK  status: ('A' for Active; 'I' for Inactive)
ROOT
ATOM      1  C   UNL d   1       1.542   1.247  -0.529  0.00  0.00    -0.002 A 
ATOM      2  C1  UNL d   1       2.197   1.450  -1.735  0.00  0.00     0.010 A 
ATOM      3  C2  UNL d   1       2.340   2.737  -2.258  0.00  0.00     0.041 A 
ATOM      4  C3  UNL d   1       1.810   3.827  -1.539  0.00  0.00    -0.075 A 
ATOM      5  S   UNL d   1       1.867   5.491  -1.985  0.00  0.00     0.015 SA
ATOM      6  C4  UNL d   1       1.024   5.972  -0.584  0.00  0.00     0.022 A 
ATOM      7  C5  UNL d   1       0.700   4.902   0.215  0.00  0.00     0.026 A 
ATOM      8  C6  UNL d   1       1.148   3.647  -0.322  0.00  0.00    -0.082 A 
ATOM      9  C7  UNL d   1       1.018   2.330   0.181  0.00  0.00     0.045 A 
ENDROOT
TORSDOF 0
ENDMDL
