MODEL 1
REMARK minimizedAffinity 12.5271254
REMARK minimizedRMSD -1
REMARK  0 active torsions:
REMARK  status: ('A' for Active; 'I' for Inactive)
ROOT
ATOM      1  C   UNL d   1       1.794   2.632  -3.043  0.00  0.00    -0.002 A 
ATOM      2  C1  UNL d   1       1.258   1.517  -3.669  0.00  0.00     0.010 A 
ATOM      3  C2  UNL d   1       1.508   0.235  -3.174  0.00  0.00     0.041 A 
ATOM      4  C3  UNL d   1       2.313   0.093  -2.027  0.00  0.00    -0.075 A 
ATOM      5  S   UNL d   1       2.753  -1.378  -1.242  0.00  0.00     0.015 SA
ATOM      6  C4  UNL d   1       3.663  -0.559  -0.055  0.00  0.00     0.022 A 
ATOM      7  C5  UNL d   1       3.642   0.803  -0.239  0.00  0.00     0.026 A 
ATOM      8  C6  UNL d   1       2.863   1.202  -1.378  0.00  0.00    -0.082 A 
ATOM      9  C7  UNL d   1       2.592   2.487  -1.905  0.00  0.00     0.045 A 
ENDROOT
TORSDOF 0
ENDMDL
