MODEL 1
REMARK minimizedAffinity 1.88489354
REMARK minimizedRMSD -1
REMARK  0 active torsions:
REMARK  status: ('A' for Active; 'I' for Inactive)
ROOT
ATOM      1  C   UNL d   1       2.758   0.911  -2.135  0.00  0.00    -0.002 A 
ATOM      2  C1  UNL d   1       1.957   0.272  -1.198  0.00  0.00     0.010 A 
ATOM      3  C2  UNL d   1       1.071   1.004  -0.405  0.00  0.00     0.041 A 
ATOM      4  C3  UNL d   1       1.001   2.401  -0.572  0.00  0.00    -0.075 A 
ATOM      5  S   UNL d   1      -0.011   3.501   0.287  0.00  0.00     0.015 SA
ATOM      6  C4  UNL d   1       0.596   4.844  -0.569  0.00  0.00     0.022 A 
ATOM      7  C5  UNL d   1       1.548   4.480  -1.491  0.00  0.00     0.026 A 
ATOM      8  C6  UNL d   1       1.797   3.066  -1.509  0.00  0.00    -0.082 A 
ATOM      9  C7  UNL d   1       2.686   2.297  -2.297  0.00  0.00     0.045 A 
ENDROOT
TORSDOF 0
ENDMDL
