MODEL 1
REMARK minimizedAffinity 21.0283546
REMARK minimizedRMSD -1
REMARK  0 active torsions:
REMARK  status: ('A' for Active; 'I' for Inactive)
ROOT
ATOM      1  C   UNL d   1       2.305   0.344  -0.282  0.00  0.00    -0.002 A 
ATOM      2  C1  UNL d   1       3.366   0.740   0.521  0.00  0.00     0.010 A 
ATOM      3  C2  UNL d   1       3.144   1.171   1.830  0.00  0.00     0.041 A 
ATOM      4  C3  UNL d   1       1.826   1.195   2.325  0.00  0.00    -0.075 A 
ATOM      5  S   UNL d   1       1.315   1.683   3.898  0.00  0.00     0.015 SA
ATOM      6  C4  UNL d   1      -0.324   1.377   3.542  0.00  0.00     0.022 A 
ATOM      7  C5  UNL d   1      -0.495   0.914   2.259  0.00  0.00     0.026 A 
ATOM      8  C6  UNL d   1       0.741   0.800   1.537  0.00  0.00    -0.082 A 
ATOM      9  C7  UNL d   1       0.999   0.370   0.213  0.00  0.00     0.045 A 
ENDROOT
TORSDOF 0
ENDMDL
