MODEL 1
REMARK minimizedAffinity 0.935462415
REMARK minimizedRMSD -1
REMARK  0 active torsions:
REMARK  status: ('A' for Active; 'I' for Inactive)
ROOT
ATOM      1  C   UNL d   1       1.506   1.505  -0.759  0.00  0.00    -0.002 A 
ATOM      2  C1  UNL d   1       2.585   2.097  -1.401  0.00  0.00     0.010 A 
ATOM      3  C2  UNL d   1       2.672   3.486  -1.509  0.00  0.00     0.041 A 
ATOM      4  C3  UNL d   1       1.648   4.279  -0.954  0.00  0.00    -0.075 A 
ATOM      5  S   UNL d   1       1.544   6.000  -0.965  0.00  0.00     0.015 SA
ATOM      6  C4  UNL d   1       0.066   5.990  -0.117  0.00  0.00     0.022 A 
ATOM      7  C5  UNL d   1      -0.353   4.714   0.175  0.00  0.00     0.026 A 
ATOM      8  C6  UNL d   1       0.553   3.706  -0.302  0.00  0.00    -0.082 A 
ATOM      9  C7  UNL d   1       0.493   2.295  -0.209  0.00  0.00     0.045 A 
ENDROOT
TORSDOF 0
ENDMDL
