MODEL 1
REMARK minimizedAffinity 0.746982098
REMARK minimizedRMSD -1
REMARK  0 active torsions:
REMARK  status: ('A' for Active; 'I' for Inactive)
ROOT
ATOM      1  C   UNL d   1      -3.159   5.979  -5.802  0.00  0.00    -0.002 A 
ATOM      2  C1  UNL d   1      -4.540   6.000  -5.928  0.00  0.00     0.010 A 
ATOM      3  C2  UNL d   1      -5.266   4.809  -5.997  0.00  0.00     0.041 A 
ATOM      4  C3  UNL d   1      -4.572   3.584  -5.934  0.00  0.00    -0.075 A 
ATOM      5  S   UNL d   1      -5.251   2.000  -5.997  0.00  0.00     0.015 SA
ATOM      6  C4  UNL d   1      -3.723   1.259  -5.857  0.00  0.00     0.022 A 
ATOM      7  C5  UNL d   1      -2.708   2.182  -5.763  0.00  0.00     0.026 A 
ATOM      8  C6  UNL d   1      -3.181   3.537  -5.805  0.00  0.00    -0.082 A 
ATOM      9  C7  UNL d   1      -2.474   4.762  -5.740  0.00  0.00     0.045 A 
ENDROOT
TORSDOF 0
ENDMDL
