MODEL 1
REMARK minimizedAffinity 9.57897186
REMARK minimizedRMSD -1
REMARK  0 active torsions:
REMARK  status: ('A' for Active; 'I' for Inactive)
ROOT
ATOM      1  C   UNL d   1      -1.339  -4.869  -1.928  0.00  0.00    -0.002 A 
ATOM      2  C1  UNL d   1      -0.576  -3.754  -2.247  0.00  0.00     0.010 A 
ATOM      3  C2  UNL d   1      -0.827  -3.034  -3.417  0.00  0.00     0.041 A 
ATOM      4  C3  UNL d   1      -1.867  -3.456  -4.268  0.00  0.00    -0.075 A 
ATOM      5  S   UNL d   1      -2.355  -2.728  -5.753  0.00  0.00     0.015 SA
ATOM      6  C4  UNL d   1      -3.588  -3.879  -5.998  0.00  0.00     0.022 A 
ATOM      7  C5  UNL d   1      -3.640  -4.803  -4.982  0.00  0.00     0.026 A 
ATOM      8  C6  UNL d   1      -2.649  -4.574  -3.968  0.00  0.00    -0.082 A 
ATOM      9  C7  UNL d   1      -2.370  -5.284  -2.775  0.00  0.00     0.045 A 
ENDROOT
TORSDOF 0
ENDMDL
