MODEL 1
REMARK minimizedAffinity 15.0926685
REMARK minimizedRMSD -1
REMARK  0 active torsions:
REMARK  status: ('A' for Active; 'I' for Inactive)
ROOT
ATOM      1  C   UNL d   1      -1.484  -4.874  -0.327  0.00  0.00    -0.002 A 
ATOM      2  C1  UNL d   1      -1.228  -5.999  -1.099  0.00  0.00     0.010 A 
ATOM      3  C2  UNL d   1      -1.334  -5.946  -2.490  0.00  0.00     0.041 A 
ATOM      4  C3  UNL d   1      -1.704  -4.730  -3.099  0.00  0.00    -0.075 A 
ATOM      5  S   UNL d   1      -1.896  -4.429  -4.786  0.00  0.00     0.015 SA
ATOM      6  C4  UNL d   1      -2.322  -2.800  -4.522  0.00  0.00     0.022 A 
ATOM      7  C5  UNL d   1      -2.323  -2.477  -3.186  0.00  0.00     0.026 A 
ATOM      8  C6  UNL d   1      -1.966  -3.584  -2.344  0.00  0.00    -0.082 A 
ATOM      9  C7  UNL d   1      -1.851  -3.671  -0.935  0.00  0.00     0.045 A 
ENDROOT
TORSDOF 0
ENDMDL
