MODEL 1
REMARK minimizedAffinity 15.9423037
REMARK minimizedRMSD -1
REMARK  0 active torsions:
REMARK  status: ('A' for Active; 'I' for Inactive)
ROOT
ATOM      1  C   UNL d   1      -1.905  -4.205   2.256  0.00  0.00    -0.002 A 
ATOM      2  C1  UNL d   1      -3.081  -3.714   2.805  0.00  0.00     0.010 A 
ATOM      3  C2  UNL d   1      -3.057  -2.618   3.671  0.00  0.00     0.041 A 
ATOM      4  C3  UNL d   1      -1.820  -2.018   3.977  0.00  0.00    -0.075 A 
ATOM      5  S   UNL d   1      -1.548  -0.666   5.011  0.00  0.00     0.015 SA
ATOM      6  C4  UNL d   1       0.135  -0.708   4.748  0.00  0.00     0.022 A 
ATOM      7  C5  UNL d   1       0.499  -1.723   3.895  0.00  0.00     0.026 A 
ATOM      8  C6  UNL d   1      -0.622  -2.495   3.436  0.00  0.00    -0.082 A 
ATOM      9  C7  UNL d   1      -0.679  -3.607   2.562  0.00  0.00     0.045 A 
ENDROOT
TORSDOF 0
ENDMDL
