MODEL 1
REMARK minimizedAffinity 10.7494621
REMARK minimizedRMSD -1
REMARK  0 active torsions:
REMARK  status: ('A' for Active; 'I' for Inactive)
ROOT
ATOM      1  C   UNL d   1       1.578   2.030  -2.699  0.00  0.00    -0.002 A 
ATOM      2  C1  UNL d   1       1.580   1.391  -1.467  0.00  0.00     0.010 A 
ATOM      3  C2  UNL d   1       1.599   2.131  -0.283  0.00  0.00     0.041 A 
ATOM      4  C3  UNL d   1       1.614   3.538  -0.359  0.00  0.00    -0.075 A 
ATOM      5  S   UNL d   1       1.637   4.650   0.959  0.00  0.00     0.015 SA
ATOM      6  C4  UNL d   1       1.644   5.999  -0.082  0.00  0.00     0.022 A 
ATOM      7  C5  UNL d   1       1.629   5.629  -1.406  0.00  0.00     0.026 A 
ATOM      8  C6  UNL d   1       1.611   4.204  -1.587  0.00  0.00    -0.082 A 
ATOM      9  C7  UNL d   1       1.593   3.426  -2.770  0.00  0.00     0.045 A 
ENDROOT
TORSDOF 0
ENDMDL
