MODEL 1
REMARK minimizedAffinity -2.62612939
REMARK minimizedRMSD -1
REMARK  0 active torsions:
REMARK  status: ('A' for Active; 'I' for Inactive)
ROOT
ATOM      1  C1  DEN d   1      -1.626   2.149   0.304  0.00  0.00     0.130 A 
ATOM      2  C2  DEN d   1      -1.601   2.638   1.680  0.00  0.00    -0.031 A 
ATOM      3  C3  DEN d   1      -0.614   1.836   2.431  0.00  0.00     0.027 A 
ATOM      4  C4  DEN d   1       0.873  -0.101   1.600  0.00  0.00     0.027 A 
ATOM      5  C5  DEN d   1       1.195  -0.881   0.511  0.00  0.00    -0.003 A 
ATOM      6  C6  DEN d   1       0.581  -0.729  -0.704  0.00  0.00     0.001 A 
ATOM      7  C7  DEN d   1      -0.357   0.255  -0.872  0.00  0.00     0.017 A 
ATOM      8  C8  DEN d   1      -0.693   1.040   0.223  0.00  0.00    -0.094 A 
ATOM      9  C9  DEN d   1      -0.052   0.879   1.439  0.00  0.00    -0.072 A 
ENDROOT
TORSDOF 0
ENDMDL
