MODEL 1
REMARK minimizedAffinity -5.68922663
REMARK minimizedRMSD -1
REMARK  0 active torsions:
REMARK  status: ('A' for Active; 'I' for Inactive)
ROOT
ATOM      1  C1  DEN d   1       0.213   0.173  -1.358  0.00  0.00     0.130 A 
ATOM      2  C2  DEN d   1       0.779  -0.755  -0.383  0.00  0.00    -0.031 A 
ATOM      3  C3  DEN d   1       0.480  -0.237   0.967  0.00  0.00     0.027 A 
ATOM      4  C4  DEN d   1      -0.802   1.897   1.640  0.00  0.00     0.027 A 
ATOM      5  C5  DEN d   1      -1.461   3.008   1.161  0.00  0.00    -0.003 A 
ATOM      6  C6  DEN d   1      -1.578   3.268  -0.178  0.00  0.00     0.001 A 
ATOM      7  C7  DEN d   1      -1.066   2.381  -1.089  0.00  0.00     0.017 A 
ATOM      8  C8  DEN d   1      -0.394   1.262  -0.614  0.00  0.00    -0.094 A 
ATOM      9  C9  DEN d   1      -0.297   1.011   0.744  0.00  0.00    -0.072 A 
ENDROOT
TORSDOF 0
ENDMDL
