MODEL 1
REMARK minimizedAffinity 6.53538227
REMARK minimizedRMSD -1
REMARK  0 active torsions:
REMARK  status: ('A' for Active; 'I' for Inactive)
ROOT
ATOM      1  C1  DEN d   1      -2.599  -1.706  -1.352  0.00  0.00     0.130 A 
ATOM      2  C2  DEN d   1      -1.772  -2.723  -1.994  0.00  0.00    -0.031 A 
ATOM      3  C3  DEN d   1      -0.525  -2.077  -2.450  0.00  0.00     0.027 A 
ATOM      4  C4  DEN d   1       0.203   0.387  -2.221  0.00  0.00     0.027 A 
ATOM      5  C5  DEN d   1      -0.171   1.630  -1.760  0.00  0.00    -0.003 A 
ATOM      6  C6  DEN d   1      -1.385   1.853  -1.165  0.00  0.00     0.001 A 
ATOM      7  C7  DEN d   1      -2.250   0.808  -0.976  0.00  0.00     0.017 A 
ATOM      8  C8  DEN d   1      -1.883  -0.446  -1.445  0.00  0.00    -0.094 A 
ATOM      9  C9  DEN d   1      -0.647  -0.654  -2.032  0.00  0.00    -0.072 A 
ENDROOT
TORSDOF 0
ENDMDL
