MODEL 1
REMARK minimizedAffinity -3.12568188
REMARK minimizedRMSD -1
REMARK  0 active torsions:
REMARK  status: ('A' for Active; 'I' for Inactive)
ROOT
ATOM      1  C1  DEN d   1      -0.847  -0.234  -1.273  0.00  0.00     0.130 A 
ATOM      2  C2  DEN d   1       0.075  -1.364  -1.199  0.00  0.00    -0.031 A 
ATOM      3  C3  DEN d   1       0.847  -1.242   0.054  0.00  0.00     0.027 A 
ATOM      4  C4  DEN d   1       0.702   0.574   1.879  0.00  0.00     0.027 A 
ATOM      5  C5  DEN d   1       0.075   1.743   2.253  0.00  0.00    -0.003 A 
ATOM      6  C6  DEN d   1      -0.870   2.348   1.468  0.00  0.00     0.001 A 
ATOM      7  C7  DEN d   1      -1.249   1.762   0.289  0.00  0.00     0.017 A 
ATOM      8  C8  DEN d   1      -0.617   0.587  -0.098  0.00  0.00    -0.094 A 
ATOM      9  C9  DEN d   1       0.327  -0.015   0.715  0.00  0.00    -0.072 A 
ENDROOT
TORSDOF 0
ENDMDL
