MODEL 1
REMARK minimizedAffinity -3.05472112
REMARK minimizedRMSD -1
REMARK  0 active torsions:
REMARK  status: ('A' for Active; 'I' for Inactive)
ROOT
ATOM      1  C1  DEN d   1      -1.176  -0.797  -0.724  0.00  0.00     0.130 A 
ATOM      2  C2  DEN d   1       0.102  -1.469  -0.943  0.00  0.00    -0.031 A 
ATOM      3  C3  DEN d   1       1.120  -0.797  -0.110  0.00  0.00     0.027 A 
ATOM      4  C4  DEN d   1       0.842   1.206   1.491  0.00  0.00     0.027 A 
ATOM      5  C5  DEN d   1      -0.054   2.121   1.999  0.00  0.00    -0.003 A 
ATOM      6  C6  DEN d   1      -1.368   2.149   1.613  0.00  0.00     0.001 A 
ATOM      7  C7  DEN d   1      -1.834   1.215   0.725  0.00  0.00     0.017 A 
ATOM      8  C8  DEN d   1      -0.935   0.294   0.203  0.00  0.00    -0.094 A 
ATOM      9  C9  DEN d   1       0.386   0.275   0.615  0.00  0.00    -0.072 A 
ENDROOT
TORSDOF 0
ENDMDL
