MODEL 1
REMARK minimizedAffinity 0.284753412
REMARK minimizedRMSD -1
REMARK  0 active torsions:
REMARK  status: ('A' for Active; 'I' for Inactive)
ROOT
ATOM      1  C   UNL d   1       5.962   4.284  -5.016  0.00  0.00     0.023 A 
ATOM      2  C1  UNL d   1       5.816   5.495  -5.693  0.00  0.00     0.003 A 
ATOM      3  C2  UNL d   1       4.541   5.989  -5.977  0.00  0.00     0.048 A 
ATOM      4  C3  UNL d   1       3.416   5.267  -5.579  0.00  0.00     0.023 A 
ATOM      5  C4  UNL d   1       3.557   4.055  -4.900  0.00  0.00     0.048 A 
ATOM      6  C5  UNL d   1       4.834   3.565  -4.620  0.00  0.00     0.003 A 
ATOM      7  I   UNL d   1       1.517   5.999  -6.000  0.00  0.00    -0.146 I 
ENDROOT
TORSDOF 0
ENDMDL
