MODEL 1
REMARK minimizedAffinity 6.38491821
REMARK minimizedRMSD -1
REMARK  0 active torsions:
REMARK  status: ('A' for Active; 'I' for Inactive)
ROOT
ATOM      1  C   UNL d   1       4.721   4.246  -5.138  0.00  0.00     0.023 A 
ATOM      2  C1  UNL d   1       4.568   5.494  -5.741  0.00  0.00     0.003 A 
ATOM      3  C2  UNL d   1       3.289   5.999  -5.988  0.00  0.00     0.048 A 
ATOM      4  C3  UNL d   1       2.169   5.250  -5.628  0.00  0.00     0.023 A 
ATOM      5  C4  UNL d   1       2.318   4.001  -5.024  0.00  0.00     0.048 A 
ATOM      6  C5  UNL d   1       3.598   3.500  -4.780  0.00  0.00     0.003 A 
ATOM      7  I   UNL d   1       0.265   6.000  -5.994  0.00  0.00    -0.146 I 
ENDROOT
TORSDOF 0
ENDMDL
