MODEL 1
REMARK minimizedAffinity -1.10699463
REMARK minimizedRMSD -1
REMARK  0 active torsions:
REMARK  status: ('A' for Active; 'I' for Inactive)
ROOT
ATOM      1  C   UNL d   1      -2.322   6.000  -2.473  0.00  0.00     0.023 A 
ATOM      2  C1  UNL d   1      -2.685   5.999  -3.820  0.00  0.00     0.003 A 
ATOM      3  C2  UNL d   1      -1.700   5.998  -4.810  0.00  0.00     0.048 A 
ATOM      4  C3  UNL d   1      -0.354   5.996  -4.446  0.00  0.00     0.023 A 
ATOM      5  C4  UNL d   1       0.014   5.996  -3.099  0.00  0.00     0.048 A 
ATOM      6  C5  UNL d   1      -0.974   5.998  -2.113  0.00  0.00     0.003 A 
ATOM      7  I   UNL d   1       1.114   5.994  -5.917  0.00  0.00    -0.146 I 
ENDROOT
TORSDOF 0
ENDMDL
