MODEL 1
REMARK minimizedAffinity 4.31153679
REMARK minimizedRMSD -1
REMARK  0 active torsions:
REMARK  status: ('A' for Active; 'I' for Inactive)
ROOT
ATOM      1  C   UNL d   1      -0.499   1.040   2.330  0.00  0.00     0.023 A 
ATOM      2  C1  UNL d   1      -1.189  -0.013   1.730  0.00  0.00     0.003 A 
ATOM      3  C2  UNL d   1      -0.702  -0.590   0.555  0.00  0.00     0.048 A 
ATOM      4  C3  UNL d   1       0.476  -0.109  -0.014  0.00  0.00     0.023 A 
ATOM      5  C4  UNL d   1       1.171   0.945   0.583  0.00  0.00     0.048 A 
ATOM      6  C5  UNL d   1       0.680   1.519   1.757  0.00  0.00     0.003 A 
ATOM      7  I   UNL d   1       1.203  -0.965  -1.763  0.00  0.00    -0.146 I 
ENDROOT
TORSDOF 0
ENDMDL
