MODEL 1
REMARK minimizedAffinity 5.71353626
REMARK minimizedRMSD -1
REMARK  0 active torsions:
REMARK  status: ('A' for Active; 'I' for Inactive)
ROOT
ATOM      1  C   UNL d   1       4.532   4.345  -5.350  0.00  0.00     0.023 A 
ATOM      2  C1  UNL d   1       4.109   5.514  -5.983  0.00  0.00     0.003 A 
ATOM      3  C2  UNL d   1       2.812   5.990  -5.780  0.00  0.00     0.048 A 
ATOM      4  C3  UNL d   1       1.944   5.293  -4.940  0.00  0.00     0.023 A 
ATOM      5  C4  UNL d   1       2.363   4.123  -4.304  0.00  0.00     0.048 A 
ATOM      6  C5  UNL d   1       3.661   3.651  -4.511  0.00  0.00     0.003 A 
ATOM      7  I   UNL d   1       0.013   5.999  -4.636  0.00  0.00    -0.146 I 
ENDROOT
TORSDOF 0
ENDMDL
