MODEL 1
REMARK minimizedAffinity -1.69253302
REMARK minimizedRMSD -1
REMARK  0 active torsions:
REMARK  status: ('A' for Active; 'I' for Inactive)
ROOT
ATOM      1  C   UNL d   1      -3.265   5.999  -1.925  0.00  0.00     0.023 A 
ATOM      2  C1  UNL d   1      -2.009   5.999  -1.317  0.00  0.00     0.003 A 
ATOM      3  C2  UNL d   1      -0.853   5.998  -2.100  0.00  0.00     0.048 A 
ATOM      4  C3  UNL d   1      -0.959   5.999  -3.490  0.00  0.00     0.023 A 
ATOM      5  C4  UNL d   1      -2.214   5.999  -4.103  0.00  0.00     0.048 A 
ATOM      6  C5  UNL d   1      -3.367   5.999  -3.316  0.00  0.00     0.003 A 
ATOM      7  I   UNL d   1       0.760   5.998  -4.658  0.00  0.00    -0.146 I 
ENDROOT
TORSDOF 0
ENDMDL
