MODEL 1
REMARK minimizedAffinity 2.76107788
REMARK minimizedRMSD -1
REMARK  0 active torsions:
REMARK  status: ('A' for Active; 'I' for Inactive)
ROOT
ATOM      1  C   UNL d   1      -2.822   5.985  -1.690  0.00  0.00     0.023 A 
ATOM      2  C1  UNL d   1      -1.470   5.991  -1.347  0.00  0.00     0.003 A 
ATOM      3  C2  UNL d   1      -0.495   5.994  -2.347  0.00  0.00     0.048 A 
ATOM      4  C3  UNL d   1      -0.879   5.992  -3.687  0.00  0.00     0.023 A 
ATOM      5  C4  UNL d   1      -2.231   5.986  -4.035  0.00  0.00     0.048 A 
ATOM      6  C5  UNL d   1      -3.202   5.983  -3.032  0.00  0.00     0.003 A 
ATOM      7  I   UNL d   1       0.569   5.996  -5.178  0.00  0.00    -0.146 I 
ENDROOT
TORSDOF 0
ENDMDL
