MODEL 1
REMARK minimizedAffinity 1.43346035
REMARK minimizedRMSD -1
REMARK  0 active torsions:
REMARK  status: ('A' for Active; 'I' for Inactive)
ROOT
ATOM      1  C   UNL d   1      -3.407   5.994  -0.612  0.00  0.00     0.023 A 
ATOM      2  C1  UNL d   1      -2.055   5.983  -0.270  0.00  0.00     0.003 A 
ATOM      3  C2  UNL d   1      -1.080   5.978  -1.270  0.00  0.00     0.048 A 
ATOM      4  C3  UNL d   1      -1.465   5.985  -2.610  0.00  0.00     0.023 A 
ATOM      5  C4  UNL d   1      -2.817   5.996  -2.958  0.00  0.00     0.048 A 
ATOM      6  C5  UNL d   1      -3.788   6.000  -1.954  0.00  0.00     0.003 A 
ATOM      7  I   UNL d   1      -0.016   5.977  -4.101  0.00  0.00    -0.146 I 
ENDROOT
TORSDOF 0
ENDMDL
