MODEL 1
REMARK minimizedAffinity 3.68979406
REMARK minimizedRMSD -1
REMARK  0 active torsions:
REMARK  status: ('A' for Active; 'I' for Inactive)
ROOT
ATOM      1  C   UNL d   1      -0.514  -0.617   2.887  0.00  0.00     0.023 A 
ATOM      2  C1  UNL d   1      -0.602   0.705   3.322  0.00  0.00     0.003 A 
ATOM      3  C2  UNL d   1      -0.066   1.734   2.545  0.00  0.00     0.048 A 
ATOM      4  C3  UNL d   1       0.556   1.434   1.333  0.00  0.00     0.023 A 
ATOM      5  C4  UNL d   1       0.646   0.112   0.894  0.00  0.00     0.048 A 
ATOM      6  C5  UNL d   1       0.110  -0.914   1.675  0.00  0.00     0.003 A 
ATOM      7  I   UNL d   1       1.354   2.964   0.175  0.00  0.00    -0.146 I 
ENDROOT
TORSDOF 0
ENDMDL
