MODEL 1
REMARK minimizedAffinity 3.98569345
REMARK minimizedRMSD -1
REMARK  0 active torsions:
REMARK  status: ('A' for Active; 'I' for Inactive)
ROOT
ATOM      1  C   UNL d   1      -0.900  -1.445   0.480  0.00  0.00     0.023 A 
ATOM      2  C1  UNL d   1       0.396  -1.306  -0.016  0.00  0.00     0.003 A 
ATOM      3  C2  UNL d   1       1.056  -0.080   0.088  0.00  0.00     0.048 A 
ATOM      4  C3  UNL d   1       0.415   1.002   0.690  0.00  0.00     0.023 A 
ATOM      5  C4  UNL d   1      -0.881   0.867   1.189  0.00  0.00     0.048 A 
ATOM      6  C5  UNL d   1      -1.538  -0.360   1.082  0.00  0.00     0.003 A 
ATOM      7  I   UNL d   1       1.397   2.828   0.846  0.00  0.00    -0.146 I 
ENDROOT
TORSDOF 0
ENDMDL
