MODEL 1
REMARK minimizedAffinity -0.896732628
REMARK minimizedRMSD -1
REMARK  0 active torsions:
REMARK  status: ('A' for Active; 'I' for Inactive)
ROOT
ATOM      1  C   UNL d   1      -2.636   5.999  -1.914  0.00  0.00     0.023 A 
ATOM      2  C1  UNL d   1      -2.960   6.000  -3.270  0.00  0.00     0.003 A 
ATOM      3  C2  UNL d   1      -1.947   6.000  -4.231  0.00  0.00     0.048 A 
ATOM      4  C3  UNL d   1      -0.612   5.998  -3.829  0.00  0.00     0.023 A 
ATOM      5  C4  UNL d   1      -0.283   5.997  -2.472  0.00  0.00     0.048 A 
ATOM      6  C5  UNL d   1      -1.299   5.997  -1.515  0.00  0.00     0.003 A 
ATOM      7  I   UNL d   1       0.898   5.998  -5.257  0.00  0.00    -0.146 I 
ENDROOT
TORSDOF 0
ENDMDL
