MODEL 1
REMARK minimizedAffinity 5.55689049
REMARK minimizedRMSD -1
REMARK  0 active torsions:
REMARK  status: ('A' for Active; 'I' for Inactive)
ROOT
ATOM      1  C   UNL d   1       0.546   4.263  -5.034  0.00  0.00     0.023 A 
ATOM      2  C1  UNL d   1       0.689   5.476  -5.708  0.00  0.00     0.003 A 
ATOM      3  C2  UNL d   1       1.963   5.976  -5.985  0.00  0.00     0.048 A 
ATOM      4  C3  UNL d   1       3.090   5.257  -5.587  0.00  0.00     0.023 A 
ATOM      5  C4  UNL d   1       2.951   4.042  -4.914  0.00  0.00     0.048 A 
ATOM      6  C5  UNL d   1       1.675   3.547  -4.638  0.00  0.00     0.003 A 
ATOM      7  I   UNL d   1       4.987   5.999  -5.999  0.00  0.00    -0.146 I 
ENDROOT
TORSDOF 0
ENDMDL
