MODEL 1
REMARK minimizedAffinity 0.545101464
REMARK minimizedRMSD -1
REMARK  0 active torsions:
REMARK  status: ('A' for Active; 'I' for Inactive)
ROOT
ATOM      1  C   UNL d   1       5.979   4.453  -4.446  0.00  0.00     0.023 A 
ATOM      2  C1  UNL d   1       5.883   5.566  -5.281  0.00  0.00     0.003 A 
ATOM      3  C2  UNL d   1       4.632   6.000  -5.726  0.00  0.00     0.048 A 
ATOM      4  C3  UNL d   1       3.482   5.317  -5.331  0.00  0.00     0.023 A 
ATOM      5  C4  UNL d   1       3.574   4.204  -4.494  0.00  0.00     0.048 A 
ATOM      6  C5  UNL d   1       4.826   3.773  -4.053  0.00  0.00     0.003 A 
ATOM      7  I   UNL d   1       1.620   5.962  -5.992  0.00  0.00    -0.146 I 
ENDROOT
TORSDOF 0
ENDMDL
