MODEL 1
REMARK minimizedAffinity 1.39870155
REMARK minimizedRMSD -1
REMARK  0 active torsions:
REMARK  status: ('A' for Active; 'I' for Inactive)
ROOT
ATOM      1  C   UNL d   1      -1.439   5.985  -3.860  0.00  0.00     0.023 A 
ATOM      2  C1  UNL d   1      -0.427   5.998  -2.899  0.00  0.00     0.003 A 
ATOM      3  C2  UNL d   1       0.912   6.000  -3.294  0.00  0.00     0.048 A 
ATOM      4  C3  UNL d   1       1.233   5.988  -4.651  0.00  0.00     0.023 A 
ATOM      5  C4  UNL d   1       0.224   5.976  -5.616  0.00  0.00     0.048 A 
ATOM      6  C5  UNL d   1      -1.114   5.974  -5.216  0.00  0.00     0.003 A 
ATOM      7  I   UNL d   1       3.225   5.990  -5.242  0.00  0.00    -0.146 I 
ENDROOT
TORSDOF 0
ENDMDL
