MODEL 1
REMARK minimizedAffinity 1.91589534
REMARK minimizedRMSD -1
REMARK  0 active torsions:
REMARK  status: ('A' for Active; 'I' for Inactive)
ROOT
ATOM      1  C   UNL d   1       1.711   2.317   0.952  0.00  0.00     0.023 A 
ATOM      2  C1  UNL d   1       1.222   1.043   1.243  0.00  0.00     0.003 A 
ATOM      3  C2  UNL d   1       1.126   0.084   0.233  0.00  0.00     0.048 A 
ATOM      4  C3  UNL d   1       1.521   0.404  -1.066  0.00  0.00     0.023 A 
ATOM      5  C4  UNL d   1       2.012   1.677  -1.361  0.00  0.00     0.048 A 
ATOM      6  C5  UNL d   1       2.106   2.633  -0.348  0.00  0.00     0.003 A 
ATOM      7  I   UNL d   1       1.378  -1.022  -2.571  0.00  0.00    -0.146 I 
ENDROOT
TORSDOF 0
ENDMDL
