MODEL 1
REMARK minimizedAffinity 0.630633116
REMARK minimizedRMSD -1
REMARK  0 active torsions:
REMARK  status: ('A' for Active; 'I' for Inactive)
ROOT
ATOM      1  C   UNL d   1      -2.687   1.786  -3.239  0.00  0.00    -0.002 A 
ATOM      2  C1  UNL d   1      -1.492   2.491  -3.221  0.00  0.00     0.010 A 
ATOM      3  C2  UNL d   1      -0.567   2.297  -2.194  0.00  0.00     0.041 A 
ATOM      4  C3  UNL d   1      -0.865   1.371  -1.175  0.00  0.00    -0.075 A 
ATOM      5  S   UNL d   1       0.117   0.968   0.184  0.00  0.00     0.015 SA
ATOM      6  C4  UNL d   1      -1.026  -0.151   0.773  0.00  0.00     0.022 A 
ATOM      7  C5  UNL d   1      -2.136  -0.228  -0.035  0.00  0.00     0.026 A 
ATOM      8  C6  UNL d   1      -2.062   0.648  -1.171  0.00  0.00    -0.082 A 
ATOM      9  C7  UNL d   1      -2.979   0.868  -2.226  0.00  0.00     0.045 A 
ENDROOT
TORSDOF 0
ENDMDL
