MODEL 1
REMARK minimizedAffinity 3.12293553
REMARK minimizedRMSD -1
REMARK  0 active torsions:
REMARK  status: ('A' for Active; 'I' for Inactive)
ROOT
ATOM      1  C   UNL d   1      -1.070   2.640  -3.551  0.00  0.00    -0.002 A 
ATOM      2  C1  UNL d   1      -2.232   1.891  -3.667  0.00  0.00     0.010 A 
ATOM      3  C2  UNL d   1      -2.573   0.953  -2.690  0.00  0.00     0.041 A 
ATOM      4  C3  UNL d   1      -1.719   0.781  -1.583  0.00  0.00    -0.075 A 
ATOM      5  S   UNL d   1      -1.934  -0.308  -0.263  0.00  0.00     0.015 SA
ATOM      6  C4  UNL d   1      -0.488   0.197   0.485  0.00  0.00     0.022 A 
ATOM      7  C5  UNL d   1       0.156   1.171  -0.240  0.00  0.00     0.026 A 
ATOM      8  C6  UNL d   1      -0.543   1.524  -1.444  0.00  0.00    -0.082 A 
ATOM      9  C7  UNL d   1      -0.225   2.466  -2.452  0.00  0.00     0.045 A 
ENDROOT
TORSDOF 0
ENDMDL
