MODEL 1
REMARK minimizedAffinity 2.74555945
REMARK minimizedRMSD -1
REMARK  0 active torsions:
REMARK  status: ('A' for Active; 'I' for Inactive)
ROOT
ATOM      1  C   UNL d   1      -1.844   2.018  -2.508  0.00  0.00    -0.002 A 
ATOM      2  C1  UNL d   1      -2.592   0.994  -1.944  0.00  0.00     0.010 A 
ATOM      3  C2  UNL d   1      -2.014   0.114  -1.027  0.00  0.00     0.041 A 
ATOM      4  C3  UNL d   1      -0.659   0.284  -0.680  0.00  0.00    -0.075 A 
ATOM      5  S   UNL d   1       0.260  -0.672   0.422  0.00  0.00     0.015 SA
ATOM      6  C4  UNL d   1       1.666   0.257   0.171  0.00  0.00     0.022 A 
ATOM      7  C5  UNL d   1       1.458   1.275  -0.729  0.00  0.00     0.026 A 
ATOM      8  C6  UNL d   1       0.115   1.308  -1.234  0.00  0.00    -0.082 A 
ATOM      9  C7  UNL d   1      -0.500   2.183  -2.162  0.00  0.00     0.045 A 
ENDROOT
TORSDOF 0
ENDMDL
