MODEL 1
REMARK minimizedAffinity 3.05193877
REMARK minimizedRMSD -1
REMARK  0 active torsions:
REMARK  status: ('A' for Active; 'I' for Inactive)
ROOT
ATOM      1  C   UNL d   1      -1.655  -0.338   1.974  0.00  0.00    -0.002 A 
ATOM      2  C1  UNL d   1      -2.443  -0.566   0.854  0.00  0.00     0.010 A 
ATOM      3  C2  UNL d   1      -1.896  -0.483  -0.428  0.00  0.00     0.041 A 
ATOM      4  C3  UNL d   1      -0.530  -0.167  -0.567  0.00  0.00    -0.075 A 
ATOM      5  S   UNL d   1       0.357  -0.012  -2.037  0.00  0.00     0.015 SA
ATOM      6  C4  UNL d   1       1.802   0.359  -1.214  0.00  0.00     0.022 A 
ATOM      7  C5  UNL d   1       1.630   0.369   0.150  0.00  0.00     0.026 A 
ATOM      8  C6  UNL d   1       0.284   0.066   0.546  0.00  0.00    -0.082 A 
ATOM      9  C7  UNL d   1      -0.301  -0.024   1.832  0.00  0.00     0.045 A 
ENDROOT
TORSDOF 0
ENDMDL
