MODEL 1
REMARK minimizedAffinity -0.971438408
REMARK minimizedRMSD -1
REMARK  0 active torsions:
REMARK  status: ('A' for Active; 'I' for Inactive)
ROOT
ATOM      1  C   UNL d   1       2.538  -1.828   0.689  0.00  0.00    -0.002 A 
ATOM      2  C1  UNL d   1       2.748  -0.982  -0.390  0.00  0.00     0.010 A 
ATOM      3  C2  UNL d   1       1.788  -0.033  -0.746  0.00  0.00     0.041 A 
ATOM      4  C3  UNL d   1       0.601   0.052   0.008  0.00  0.00    -0.075 A 
ATOM      5  S   UNL d   1      -0.715   1.137  -0.243  0.00  0.00     0.015 SA
ATOM      6  C4  UNL d   1      -1.587   0.503   1.077  0.00  0.00     0.022 A 
ATOM      7  C5  UNL d   1      -0.906  -0.513   1.705  0.00  0.00     0.026 A 
ATOM      8  C6  UNL d   1       0.367  -0.789   1.100  0.00  0.00    -0.082 A 
ATOM      9  C7  UNL d   1       1.360  -1.741   1.435  0.00  0.00     0.045 A 
ENDROOT
TORSDOF 0
ENDMDL
