MODEL 1
REMARK minimizedAffinity 3.91174698
REMARK minimizedRMSD -1
REMARK  0 active torsions:
REMARK  status: ('A' for Active; 'I' for Inactive)
ROOT
ATOM      1  C   UNL d   1       1.998   0.906  -0.167  0.00  0.00    -0.002 A 
ATOM      2  C1  UNL d   1       1.452  -0.327   0.162  0.00  0.00     0.010 A 
ATOM      3  C2  UNL d   1       0.226  -0.726  -0.373  0.00  0.00     0.041 A 
ATOM      4  C3  UNL d   1      -0.449   0.143  -1.254  0.00  0.00    -0.075 A 
ATOM      5  S   UNL d   1      -1.963  -0.134  -2.031  0.00  0.00     0.015 SA
ATOM      6  C4  UNL d   1      -1.920   1.377  -2.818  0.00  0.00     0.022 A 
ATOM      7  C5  UNL d   1      -0.786   2.088  -2.506  0.00  0.00     0.026 A 
ATOM      8  C6  UNL d   1       0.081   1.389  -1.600  0.00  0.00    -0.082 A 
ATOM      9  C7  UNL d   1       1.326   1.765  -1.040  0.00  0.00     0.045 A 
ENDROOT
TORSDOF 0
ENDMDL
