MODEL 1
REMARK minimizedAffinity -2.7289741
REMARK minimizedRMSD -1
REMARK  0 active torsions:
REMARK  status: ('A' for Active; 'I' for Inactive)
ROOT
ATOM      1  C   UNL d   1       2.303  -1.469   0.921  0.00  0.00    -0.002 A 
ATOM      2  C1  UNL d   1       2.431  -0.781  -0.277  0.00  0.00     0.010 A 
ATOM      3  C2  UNL d   1       1.379  -0.004  -0.766  0.00  0.00     0.041 A 
ATOM      4  C3  UNL d   1       0.184   0.071  -0.023  0.00  0.00    -0.075 A 
ATOM      5  S   UNL d   1      -1.236   0.961  -0.426  0.00  0.00     0.015 SA
ATOM      6  C4  UNL d   1      -2.047   0.449   0.984  0.00  0.00     0.022 A 
ATOM      7  C5  UNL d   1      -1.267  -0.381   1.754  0.00  0.00     0.026 A 
ATOM      8  C6  UNL d   1       0.032  -0.612   1.187  0.00  0.00    -0.082 A 
ATOM      9  C7  UNL d   1       1.117  -1.392   1.656  0.00  0.00     0.045 A 
ENDROOT
TORSDOF 0
ENDMDL
