MODEL 1
REMARK minimizedAffinity -0.946419239
REMARK minimizedRMSD -1
REMARK  0 active torsions:
REMARK  status: ('A' for Active; 'I' for Inactive)
ROOT
ATOM      1  C   UNL d   1      -3.177   0.935  -2.642  0.00  0.00    -0.002 A 
ATOM      2  C1  UNL d   1      -2.051   1.745  -2.694  0.00  0.00     0.010 A 
ATOM      3  C2  UNL d   1      -1.135   1.756  -1.641  0.00  0.00     0.041 A 
ATOM      4  C3  UNL d   1      -1.372   0.930  -0.524  0.00  0.00    -0.075 A 
ATOM      5  S   UNL d   1      -0.387   0.779   0.884  0.00  0.00     0.015 SA
ATOM      6  C4  UNL d   1      -1.438  -0.364   1.587  0.00  0.00     0.022 A 
ATOM      7  C5  UNL d   1      -2.518  -0.635   0.781  0.00  0.00     0.026 A 
ATOM      8  C6  UNL d   1      -2.498   0.106  -0.449  0.00  0.00    -0.082 A 
ATOM      9  C7  UNL d   1      -3.408   0.118  -1.533  0.00  0.00     0.045 A 
ENDROOT
TORSDOF 0
ENDMDL
