MODEL 1
REMARK minimizedAffinity -4.95714664
REMARK minimizedRMSD -1
REMARK  0 active torsions:
REMARK  status: ('A' for Active; 'I' for Inactive)
ROOT
ATOM      1  C   UNL d   1       1.288  -2.410   1.944  0.00  0.00    -0.002 A 
ATOM      2  C1  UNL d   1       1.941  -1.950   0.809  0.00  0.00     0.010 A 
ATOM      3  C2  UNL d   1       1.392  -0.920   0.043  0.00  0.00     0.041 A 
ATOM      4  C3  UNL d   1       0.166  -0.354   0.440  0.00  0.00    -0.075 A 
ATOM      5  S   UNL d   1      -0.694   0.919  -0.343  0.00  0.00     0.015 SA
ATOM      6  C4  UNL d   1      -1.949   0.882   0.810  0.00  0.00     0.022 A 
ATOM      7  C5  UNL d   1      -1.733  -0.072   1.776  0.00  0.00     0.026 A 
ATOM      8  C6  UNL d   1      -0.511  -0.799   1.580  0.00  0.00    -0.082 A 
ATOM      9  C7  UNL d   1       0.071  -1.846   2.336  0.00  0.00     0.045 A 
ENDROOT
TORSDOF 0
ENDMDL
