MODEL 1
REMARK minimizedAffinity -3.46712685
REMARK minimizedRMSD -1
REMARK  0 active torsions:
REMARK  status: ('A' for Active; 'I' for Inactive)
ROOT
ATOM      1  C   UNL d   1      -3.150   0.596  -2.792  0.00  0.00    -0.002 A 
ATOM      2  C1  UNL d   1      -2.014   1.360  -3.019  0.00  0.00     0.010 A 
ATOM      3  C2  UNL d   1      -1.015   1.453  -2.048  0.00  0.00     0.041 A 
ATOM      4  C3  UNL d   1      -1.177   0.757  -0.834  0.00  0.00    -0.075 A 
ATOM      5  S   UNL d   1      -0.084   0.723   0.499  0.00  0.00     0.015 SA
ATOM      6  C4  UNL d   1      -1.098  -0.307   1.401  0.00  0.00     0.022 A 
ATOM      7  C5  UNL d   1      -2.247  -0.627   0.717  0.00  0.00     0.026 A 
ATOM      8  C6  UNL d   1      -2.311  -0.020  -0.582  0.00  0.00    -0.082 A 
ATOM      9  C7  UNL d   1      -3.307  -0.093  -1.586  0.00  0.00     0.045 A 
ENDROOT
TORSDOF 0
ENDMDL
