MODEL 1
REMARK minimizedAffinity 12.2418499
REMARK minimizedRMSD -1
REMARK  0 active torsions:
REMARK  status: ('A' for Active; 'I' for Inactive)
ROOT
ATOM      1  C   UNL d   1      -5.687  -1.846  -3.756  0.00  0.00    -0.002 A 
ATOM      2  C1  UNL d   1      -5.994  -0.713  -4.496  0.00  0.00     0.010 A 
ATOM      3  C2  UNL d   1      -5.249   0.458  -4.344  0.00  0.00     0.041 A 
ATOM      4  C3  UNL d   1      -4.178   0.471  -3.429  0.00  0.00    -0.075 A 
ATOM      5  S   UNL d   1      -3.127   1.791  -3.077  0.00  0.00     0.015 SA
ATOM      6  C4  UNL d   1      -2.244   0.882  -1.937  0.00  0.00     0.022 A 
ATOM      7  C5  UNL d   1      -2.727  -0.400  -1.815  0.00  0.00     0.026 A 
ATOM      8  C6  UNL d   1      -3.849  -0.658  -2.673  0.00  0.00    -0.082 A 
ATOM      9  C7  UNL d   1      -4.624  -1.830  -2.849  0.00  0.00     0.045 A 
ENDROOT
TORSDOF 0
ENDMDL
