MODEL 1
REMARK minimizedAffinity 9.87400341
REMARK minimizedRMSD -1
REMARK  0 active torsions:
REMARK  status: ('A' for Active; 'I' for Inactive)
ROOT
ATOM      1  C   UNL d   1       3.464  -2.691   1.501  0.00  0.00    -0.002 A 
ATOM      2  C1  UNL d   1       2.766  -3.233   0.431  0.00  0.00     0.010 A 
ATOM      3  C2  UNL d   1       1.396  -3.005   0.288  0.00  0.00     0.041 A 
ATOM      4  C3  UNL d   1       0.733  -2.214   1.247  0.00  0.00    -0.075 A 
ATOM      5  S   UNL d   1      -0.941  -1.801   1.275  0.00  0.00     0.015 SA
ATOM      6  C4  UNL d   1      -0.769  -0.894   2.708  0.00  0.00     0.022 A 
ATOM      7  C5  UNL d   1       0.527  -0.897   3.168  0.00  0.00     0.026 A 
ATOM      8  C6  UNL d   1       1.414  -1.657   2.333  0.00  0.00    -0.082 A 
ATOM      9  C7  UNL d   1       2.802  -1.907   2.450  0.00  0.00     0.045 A 
ENDROOT
TORSDOF 0
ENDMDL
