MODEL 1
REMARK minimizedAffinity 16.1911736
REMARK minimizedRMSD -1
REMARK  0 active torsions:
REMARK  status: ('A' for Active; 'I' for Inactive)
ROOT
ATOM      1  C   UNL d   1      -5.844   0.717   3.801  0.00  0.00    -0.002 A 
ATOM      2  C1  UNL d   1      -6.000   0.787   5.178  0.00  0.00     0.010 A 
ATOM      3  C2  UNL d   1      -5.241   1.682   5.934  0.00  0.00     0.041 A 
ATOM      4  C3  UNL d   1      -4.314   2.514   5.276  0.00  0.00    -0.075 A 
ATOM      5  S   UNL d   1      -3.276   3.688   5.997  0.00  0.00     0.015 SA
ATOM      6  C4  UNL d   1      -2.602   4.124   4.494  0.00  0.00     0.022 A 
ATOM      7  C5  UNL d   1      -3.144   3.402   3.457  0.00  0.00     0.026 A 
ATOM      8  C6  UNL d   1      -4.140   2.463   3.890  0.00  0.00    -0.082 A 
ATOM      9  C7  UNL d   1      -4.924   1.544   3.152  0.00  0.00     0.045 A 
ENDROOT
TORSDOF 0
ENDMDL
