MODEL 1
REMARK minimizedAffinity 17.0015755
REMARK minimizedRMSD -1
REMARK  0 active torsions:
REMARK  status: ('A' for Active; 'I' for Inactive)
ROOT
ATOM      1  C   UNL d   1       3.819  -3.617   0.843  0.00  0.00    -0.002 A 
ATOM      2  C1  UNL d   1       2.855  -4.245   0.066  0.00  0.00     0.010 A 
ATOM      3  C2  UNL d   1       1.527  -3.814   0.097  0.00  0.00     0.041 A 
ATOM      4  C3  UNL d   1       1.181  -2.731   0.929  0.00  0.00    -0.075 A 
ATOM      5  S   UNL d   1      -0.382  -2.031   1.128  0.00  0.00     0.015 SA
ATOM      6  C4  UNL d   1       0.193  -0.883   2.248  0.00  0.00     0.022 A 
ATOM      7  C5  UNL d   1       1.542  -1.016   2.476  0.00  0.00     0.026 A 
ATOM      8  C6  UNL d   1       2.134  -2.083   1.719  0.00  0.00    -0.082 A 
ATOM      9  C7  UNL d   1       3.472  -2.543   1.666  0.00  0.00     0.045 A 
ENDROOT
TORSDOF 0
ENDMDL
