MODEL 1
REMARK minimizedAffinity 11.28792
REMARK minimizedRMSD -1
REMARK  0 active torsions:
REMARK  status: ('A' for Active; 'I' for Inactive)
ROOT
ATOM      1  C   UNL d   1       2.128  -0.635   2.266  0.00  0.00    -0.002 A 
ATOM      2  C1  UNL d   1       2.147  -1.498   1.179  0.00  0.00     0.010 A 
ATOM      3  C2  UNL d   1       1.024  -2.262   0.859  0.00  0.00     0.041 A 
ATOM      4  C3  UNL d   1      -0.131  -2.143   1.656  0.00  0.00    -0.075 A 
ATOM      5  S   UNL d   1      -1.625  -2.979   1.454  0.00  0.00     0.015 SA
ATOM      6  C4  UNL d   1      -2.325  -2.210   2.804  0.00  0.00     0.022 A 
ATOM      7  C5  UNL d   1      -1.454  -1.334   3.407  0.00  0.00     0.026 A 
ATOM      8  C6  UNL d   1      -0.176  -1.280   2.755  0.00  0.00    -0.082 A 
ATOM      9  C7  UNL d   1       0.980  -0.519   3.054  0.00  0.00     0.045 A 
ENDROOT
TORSDOF 0
ENDMDL
