MODEL 1
REMARK minimizedAffinity 21.153944
REMARK minimizedRMSD -1
REMARK  0 active torsions:
REMARK  status: ('A' for Active; 'I' for Inactive)
ROOT
ATOM      1  C   UNL d   1      -2.391  -0.738  -1.015  0.00  0.00    -0.002 A 
ATOM      2  C1  UNL d   1      -3.694  -0.600  -1.473  0.00  0.00     0.010 A 
ATOM      3  C2  UNL d   1      -4.030   0.427  -2.358  0.00  0.00     0.041 A 
ATOM      4  C3  UNL d   1      -3.024   1.319  -2.780  0.00  0.00    -0.075 A 
ATOM      5  S   UNL d   1      -3.203   2.650  -3.861  0.00  0.00     0.015 SA
ATOM      6  C4  UNL d   1      -1.554   3.066  -3.741  0.00  0.00     0.022 A 
ATOM      7  C5  UNL d   1      -0.870   2.220  -2.900  0.00  0.00     0.026 A 
ATOM      8  C6  UNL d   1      -1.705   1.199  -2.334  0.00  0.00    -0.082 A 
ATOM      9  C7  UNL d   1      -1.397   0.148  -1.436  0.00  0.00     0.045 A 
ENDROOT
TORSDOF 0
ENDMDL
