MODEL 1
REMARK minimizedAffinity 18.5132599
REMARK minimizedRMSD -1
REMARK  0 active torsions:
REMARK  status: ('A' for Active; 'I' for Inactive)
ROOT
ATOM      1  C   UNL d   1      -1.931   3.434  -3.791  0.00  0.00    -0.002 A 
ATOM      2  C1  UNL d   1      -0.584   3.114  -3.696  0.00  0.00     0.010 A 
ATOM      3  C2  UNL d   1      -0.172   1.977  -2.998  0.00  0.00     0.041 A 
ATOM      4  C3  UNL d   1      -1.146   1.158  -2.394  0.00  0.00    -0.075 A 
ATOM      5  S   UNL d   1      -0.874  -0.285  -1.489  0.00  0.00     0.015 SA
ATOM      6  C4  UNL d   1      -2.540  -0.511  -1.209  0.00  0.00     0.022 A 
ATOM      7  C5  UNL d   1      -3.299   0.481  -1.783  0.00  0.00     0.026 A 
ATOM      8  C6  UNL d   1      -2.508   1.459  -2.476  0.00  0.00    -0.082 A 
ATOM      9  C7  UNL d   1      -2.894   2.619  -3.190  0.00  0.00     0.045 A 
ENDROOT
TORSDOF 0
ENDMDL
