MODEL 1
REMARK minimizedAffinity -5.32727098
REMARK minimizedRMSD -1
REMARK  3 active torsions:
REMARK  status: ('A' for Active; 'I' for Inactive)
REMARK    1  A    between atoms: C3'_2  and  C2'_3 
REMARK    2  A    between atoms: C2'_3  and  C1'_4 
REMARK    3  A    between atoms: C1'_4  and  C1_5 
ROOT
ATOM      1  C1  N4B d   1      -0.741  -0.222   1.661  0.00  0.00    -0.075 A 
ATOM      2  C2  N4B d   1      -0.603  -0.968   2.853  0.00  0.00     0.002 A 
ATOM      3  C3  N4B d   1      -1.657  -1.066   3.727  0.00  0.00     0.002 A 
ATOM      4  C4  N4B d   1      -2.848  -0.415   3.442  0.00  0.00    -0.004 A 
ATOM      5  C5  N4B d   1      -2.982   0.282   2.277  0.00  0.00     0.002 A 
ATOM      6  C6  N4B d   1      -1.932   0.386   1.387  0.00  0.00     0.002 A 
ENDROOT
BRANCH   1   7
ATOM      7  C1' N4B d   1       0.410  -0.015   0.716  0.00  0.00     0.057 C 
BRANCH   7   8
ATOM      8  C2' N4B d   1      -0.133   0.350  -0.663  0.00  0.00     0.009 C 
BRANCH   8   9
ATOM      9  C3' N4B d   1       0.707  -0.244  -1.780  0.00  0.00     0.004 C 
ATOM     10  C4' N4B d   1      -0.091  -0.530  -3.017  0.00  0.00     0.003 C 
ENDBRANCH   8   9
ENDBRANCH   7   8
ENDBRANCH   1   7
TORSDOF 3
ENDMDL
