MODEL 1
REMARK minimizedAffinity -3.3128531
REMARK minimizedRMSD -1
REMARK  3 active torsions:
REMARK  status: ('A' for Active; 'I' for Inactive)
REMARK    1  A    between atoms: C3'_2  and  C2'_3 
REMARK    2  A    between atoms: C2'_3  and  C1'_4 
REMARK    3  A    between atoms: C1'_4  and  C1_5 
ROOT
ATOM      1  C1  N4B d   1      -0.033   0.240  -0.124  0.00  0.00    -0.075 A 
ATOM      2  C2  N4B d   1       0.910   0.093   0.917  0.00  0.00     0.002 A 
ATOM      3  C3  N4B d   1       0.531   0.306   2.220  0.00  0.00     0.002 A 
ATOM      4  C4  N4B d   1      -0.773   0.683   2.503  0.00  0.00    -0.004 A 
ATOM      5  C5  N4B d   1      -1.683   0.798   1.493  0.00  0.00     0.002 A 
ATOM      6  C6  N4B d   1      -1.318   0.583   0.180  0.00  0.00     0.002 A 
ENDROOT
BRANCH   1   7
ATOM      7  C1' N4B d   1       0.355   0.101  -1.571  0.00  0.00     0.057 C 
BRANCH   7   8
ATOM      8  C2' N4B d   1       1.357  -1.041  -1.714  0.00  0.00     0.009 C 
BRANCH   8   9
ATOM      9  C3' N4B d   1       2.071  -1.006  -3.054  0.00  0.00     0.004 C 
ATOM     10  C4' N4B d   1       1.331  -1.747  -4.127  0.00  0.00     0.003 C 
ENDBRANCH   8   9
ENDBRANCH   7   8
ENDBRANCH   1   7
TORSDOF 3
ENDMDL
