MODEL 1
REMARK minimizedAffinity -3.55395937
REMARK minimizedRMSD -1
REMARK  3 active torsions:
REMARK  status: ('A' for Active; 'I' for Inactive)
REMARK    1  A    between atoms: C3'_2  and  C2'_3 
REMARK    2  A    between atoms: C2'_3  and  C1'_4 
REMARK    3  A    between atoms: C1'_4  and  C1_5 
ROOT
ATOM      1  C1  N4B d   1       0.262   0.528  -0.061  0.00  0.00    -0.075 A 
ATOM      2  C2  N4B d   1      -0.717   0.696   0.943  0.00  0.00     0.002 A 
ATOM      3  C3  N4B d   1      -0.426   0.376   2.246  0.00  0.00     0.002 A 
ATOM      4  C4  N4B d   1       0.825  -0.129   2.565  0.00  0.00    -0.004 A 
ATOM      5  C5  N4B d   1       1.773  -0.265   1.594  0.00  0.00     0.002 A 
ATOM      6  C6  N4B d   1       1.496   0.057   0.281  0.00  0.00     0.002 A 
ENDROOT
BRANCH   1   7
ATOM      7  C1' N4B d   1      -0.037   0.784  -1.513  0.00  0.00     0.057 C 
BRANCH   7   8
ATOM      8  C2' N4B d   1       1.046   0.135  -2.369  0.00  0.00     0.009 C 
BRANCH   8   9
ATOM      9  C3' N4B d   1       0.565  -1.155  -3.011  0.00  0.00     0.004 C 
ATOM     10  C4' N4B d   1       1.635  -2.205  -3.077  0.00  0.00     0.003 C 
ENDBRANCH   8   9
ENDBRANCH   7   8
ENDBRANCH   1   7
TORSDOF 3
ENDMDL
