MODEL 1
REMARK minimizedAffinity -0.709968686
REMARK minimizedRMSD -1
REMARK  3 active torsions:
REMARK  status: ('A' for Active; 'I' for Inactive)
REMARK    1  A    between atoms: C3'_2  and  C2'_3 
REMARK    2  A    between atoms: C2'_3  and  C1'_4 
REMARK    3  A    between atoms: C1'_4  and  C1_5 
ROOT
ATOM      1  C1  N4B d   1      -0.122   0.312   0.058  0.00  0.00    -0.075 A 
ATOM      2  C2  N4B d   1       0.414   0.298   1.365  0.00  0.00     0.002 A 
ATOM      3  C3  N4B d   1      -0.422   0.382   2.451  0.00  0.00     0.002 A 
ATOM      4  C4  N4B d   1      -1.790   0.500   2.256  0.00  0.00    -0.004 A 
ATOM      5  C5  N4B d   1      -2.302   0.488   0.991  0.00  0.00     0.002 A 
ATOM      6  C6  N4B d   1      -1.474   0.399  -0.110  0.00  0.00     0.002 A 
ENDROOT
BRANCH   1   7
ATOM      7  C1' N4B d   1       0.758   0.308  -1.161  0.00  0.00     0.057 C 
BRANCH   7   8
ATOM      8  C2' N4B d   1       0.652  -1.048  -1.852  0.00  0.00     0.009 C 
BRANCH   8   9
ATOM      9  C3' N4B d   1       1.467  -1.099  -3.133  0.00  0.00     0.004 C 
ATOM     10  C4' N4B d   1       0.896  -2.045  -4.147  0.00  0.00     0.003 C 
ENDBRANCH   8   9
ENDBRANCH   7   8
ENDBRANCH   1   7
TORSDOF 3
ENDMDL
