MODEL 1
REMARK minimizedAffinity 3.70024323
REMARK minimizedRMSD -1
REMARK  3 active torsions:
REMARK  status: ('A' for Active; 'I' for Inactive)
REMARK    1  A    between atoms: C3'_2  and  C2'_3 
REMARK    2  A    between atoms: C2'_3  and  C1'_4 
REMARK    3  A    between atoms: C1'_4  and  C1_5 
ROOT
ATOM      1  C1  N4B d   1       0.099   0.163   0.030  0.00  0.00    -0.075 A 
ATOM      2  C2  N4B d   1       0.610  -0.407   1.217  0.00  0.00     0.002 A 
ATOM      3  C3  N4B d   1       1.776   0.073   1.762  0.00  0.00     0.002 A 
ATOM      4  C4  N4B d   1       2.455   1.105   1.131  0.00  0.00    -0.004 A 
ATOM      5  C5  N4B d   1       1.941   1.667  -0.001  0.00  0.00     0.002 A 
ATOM      6  C6  N4B d   1       0.768   1.197  -0.558  0.00  0.00     0.002 A 
ENDROOT
BRANCH   1   7
ATOM      7  C1' N4B d   1      -1.126  -0.384  -0.650  0.00  0.00     0.057 C 
BRANCH   7   8
ATOM      8  C2' N4B d   1      -2.228   0.671  -0.623  0.00  0.00     0.009 C 
BRANCH   8   9
ATOM      9  C3' N4B d   1      -3.152   0.496   0.570  0.00  0.00     0.004 C 
ATOM     10  C4' N4B d   1      -2.668   1.219   1.791  0.00  0.00     0.003 C 
ENDBRANCH   8   9
ENDBRANCH   7   8
ENDBRANCH   1   7
TORSDOF 3
ENDMDL
