MODEL 1
REMARK minimizedAffinity -7.07663774
REMARK minimizedRMSD -1
REMARK  3 active torsions:
REMARK  status: ('A' for Active; 'I' for Inactive)
REMARK    1  A    between atoms: C3'_2  and  C2'_3 
REMARK    2  A    between atoms: C2'_3  and  C1'_4 
REMARK    3  A    between atoms: C1'_4  and  C1_5 
ROOT
ATOM      1  C1  N4B d   1      -0.337   0.058   0.002  0.00  0.00    -0.075 A 
ATOM      2  C2  N4B d   1      -1.697  -0.118   0.340  0.00  0.00     0.002 A 
ATOM      3  C3  N4B d   1      -2.067  -0.237   1.657  0.00  0.00     0.002 A 
ATOM      4  C4  N4B d   1      -1.098  -0.203   2.648  0.00  0.00    -0.004 A 
ATOM      5  C5  N4B d   1       0.211  -0.008   2.315  0.00  0.00     0.002 A 
ATOM      6  C6  N4B d   1       0.597   0.117   0.996  0.00  0.00     0.002 A 
ENDROOT
BRANCH   1   7
ATOM      7  C1' N4B d   1       0.126   0.107  -1.428  0.00  0.00     0.057 C 
BRANCH   7   8
ATOM      8  C2' N4B d   1      -0.670  -0.904  -2.248  0.00  0.00     0.009 C 
BRANCH   8   9
ATOM      9  C3' N4B d   1       0.147  -1.477  -3.393  0.00  0.00     0.004 C 
ATOM     10  C4' N4B d   1       1.609  -1.569  -3.075  0.00  0.00     0.003 C 
ENDBRANCH   8   9
ENDBRANCH   7   8
ENDBRANCH   1   7
TORSDOF 3
ENDMDL
