MODEL 1
REMARK minimizedAffinity 0.129026279
REMARK minimizedRMSD -1
REMARK  3 active torsions:
REMARK  status: ('A' for Active; 'I' for Inactive)
REMARK    1  A    between atoms: C3'_2  and  C2'_3 
REMARK    2  A    between atoms: C2'_3  and  C1'_4 
REMARK    3  A    between atoms: C1'_4  and  C1_5 
ROOT
ATOM      1  C1  N4B d   1       0.193  -0.306  -1.748  0.00  0.00    -0.075 A 
ATOM      2  C2  N4B d   1       1.472  -0.040  -2.286  0.00  0.00     0.002 A 
ATOM      3  C3  N4B d   1       1.926  -0.761  -3.364  0.00  0.00     0.002 A 
ATOM      4  C4  N4B d   1       1.131  -1.760  -3.905  0.00  0.00    -0.004 A 
ATOM      5  C5  N4B d   1      -0.112  -1.993  -3.396  0.00  0.00     0.002 A 
ATOM      6  C6  N4B d   1      -0.584  -1.274  -2.316  0.00  0.00     0.002 A 
ENDROOT
BRANCH   1   7
ATOM      7  C1' N4B d   1      -0.312   0.396  -0.518  0.00  0.00     0.057 C 
BRANCH   7   8
ATOM      8  C2' N4B d   1       0.877   0.845   0.327  0.00  0.00     0.009 C 
BRANCH   8   9
ATOM      9  C3' N4B d   1       1.216  -0.163   1.412  0.00  0.00     0.004 C 
ATOM     10  C4' N4B d   1       0.813   0.300   2.780  0.00  0.00     0.003 C 
ENDBRANCH   8   9
ENDBRANCH   7   8
ENDBRANCH   1   7
TORSDOF 3
ENDMDL
