MODEL 1
REMARK minimizedAffinity -1.95239151
REMARK minimizedRMSD -1
REMARK  3 active torsions:
REMARK  status: ('A' for Active; 'I' for Inactive)
REMARK    1  A    between atoms: C3'_2  and  C2'_3 
REMARK    2  A    between atoms: C2'_3  and  C1'_4 
REMARK    3  A    between atoms: C1'_4  and  C1_5 
ROOT
ATOM      1  C1  N4B d   1       0.376   0.129  -0.048  0.00  0.00    -0.075 A 
ATOM      2  C2  N4B d   1       1.720  -0.077   0.333  0.00  0.00     0.002 A 
ATOM      3  C3  N4B d   1       2.058  -0.117   1.663  0.00  0.00     0.002 A 
ATOM      4  C4  N4B d   1       1.077   0.065   2.626  0.00  0.00    -0.004 A 
ATOM      5  C5  N4B d   1      -0.223   0.238   2.250  0.00  0.00     0.002 A 
ATOM      6  C6  N4B d   1      -0.578   0.277   0.916  0.00  0.00     0.002 A 
ENDROOT
BRANCH   1   7
ATOM      7  C1' N4B d   1      -0.028   0.266  -1.491  0.00  0.00     0.057 C 
BRANCH   7   8
ATOM      8  C2' N4B d   1       1.112  -0.223  -2.379  0.00  0.00     0.009 C 
BRANCH   8   9
ATOM      9  C3' N4B d   1       0.604  -1.016  -3.571  0.00  0.00     0.004 C 
ATOM     10  C4' N4B d   1       0.813  -2.493  -3.418  0.00  0.00     0.003 C 
ENDBRANCH   8   9
ENDBRANCH   7   8
ENDBRANCH   1   7
TORSDOF 3
ENDMDL
