MODEL 1
REMARK minimizedAffinity -5.82478714
REMARK minimizedRMSD -1
REMARK  3 active torsions:
REMARK  status: ('A' for Active; 'I' for Inactive)
REMARK    1  A    between atoms: C3'_2  and  C2'_3 
REMARK    2  A    between atoms: C2'_3  and  C1'_4 
REMARK    3  A    between atoms: C1'_4  and  C1_5 
ROOT
ATOM      1  C1  N4B d   1      -0.143   0.046   0.093  0.00  0.00    -0.075 A 
ATOM      2  C2  N4B d   1       0.641  -0.077   1.261  0.00  0.00     0.002 A 
ATOM      3  C3  N4B d   1       0.033  -0.251   2.481  0.00  0.00     0.002 A 
ATOM      4  C4  N4B d   1      -1.352  -0.286   2.558  0.00  0.00    -0.004 A 
ATOM      5  C5  N4B d   1      -2.100  -0.192   1.421  0.00  0.00     0.002 A 
ATOM      6  C6  N4B d   1      -1.503  -0.021   0.189  0.00  0.00     0.002 A 
ENDROOT
BRANCH   1   7
ATOM      7  C1' N4B d   1       0.473   0.323  -1.251  0.00  0.00     0.057 C 
BRANCH   7   8
ATOM      8  C2' N4B d   1       0.454  -0.955  -2.084  0.00  0.00     0.009 C 
BRANCH   8   9
ATOM      9  C3' N4B d   1       1.261  -0.811  -3.363  0.00  0.00     0.004 C 
ATOM     10  C4' N4B d   1       2.132  -2.001  -3.636  0.00  0.00     0.003 C 
ENDBRANCH   8   9
ENDBRANCH   7   8
ENDBRANCH   1   7
TORSDOF 3
ENDMDL
