MODEL 1
REMARK minimizedAffinity 6.42268133
REMARK minimizedRMSD -1
REMARK  0 active torsions:
REMARK  status: ('A' for Active; 'I' for Inactive)
ROOT
ATOM      1  C   UNL d   1       2.175  -3.722  -3.410  0.00  0.00     0.023 A 
ATOM      2  C1  UNL d   1       1.969  -3.368  -2.077  0.00  0.00     0.003 A 
ATOM      3  C2  UNL d   1       2.819  -3.859  -1.084  0.00  0.00     0.048 A 
ATOM      4  C3  UNL d   1       3.873  -4.703  -1.431  0.00  0.00     0.023 A 
ATOM      5  C4  UNL d   1       4.084  -5.059  -2.765  0.00  0.00     0.048 A 
ATOM      6  C5  UNL d   1       3.231  -4.566  -3.754  0.00  0.00     0.003 A 
ATOM      7  I   UNL d   1       5.140  -5.435   0.045  0.00  0.00    -0.146 I 
ENDROOT
TORSDOF 0
ENDMDL
