MODEL 1
REMARK minimizedAffinity 12.0286198
REMARK minimizedRMSD -1
REMARK  0 active torsions:
REMARK  status: ('A' for Active; 'I' for Inactive)
ROOT
ATOM      1  C   UNL d   1      -4.077  -5.000   4.811  0.00  0.00     0.023 A 
ATOM      2  C1  UNL d   1      -3.261  -4.308   3.916  0.00  0.00     0.003 A 
ATOM      3  C2  UNL d   1      -3.811  -3.343   3.069  0.00  0.00     0.048 A 
ATOM      4  C3  UNL d   1      -5.178  -3.074   3.124  0.00  0.00     0.023 A 
ATOM      5  C4  UNL d   1      -5.999  -3.763   4.019  0.00  0.00     0.048 A 
ATOM      6  C5  UNL d   1      -5.445  -4.727   4.862  0.00  0.00     0.003 A 
ATOM      7  I   UNL d   1      -6.000  -1.638   1.865  0.00  0.00    -0.146 I 
ENDROOT
TORSDOF 0
ENDMDL
