MODEL 1
REMARK minimizedAffinity 4.25371599
REMARK minimizedRMSD -1
REMARK  0 active torsions:
REMARK  status: ('A' for Active; 'I' for Inactive)
ROOT
ATOM      1  C   UNL d   1      -5.094  -5.863   3.754  0.00  0.00     0.023 A 
ATOM      2  C1  UNL d   1      -4.179  -5.033   4.403  0.00  0.00     0.003 A 
ATOM      3  C2  UNL d   1      -4.166  -3.663   4.138  0.00  0.00     0.048 A 
ATOM      4  C3  UNL d   1      -5.072  -3.127   3.223  0.00  0.00     0.023 A 
ATOM      5  C4  UNL d   1      -5.990  -3.953   2.571  0.00  0.00     0.048 A 
ATOM      6  C5  UNL d   1      -5.998  -5.323   2.840  0.00  0.00     0.003 A 
ATOM      7  I   UNL d   1      -5.056  -1.087   2.826  0.00  0.00    -0.146 I 
ENDROOT
TORSDOF 0
ENDMDL
