MODEL 1
REMARK minimizedAffinity 1.39885664
REMARK minimizedRMSD -1
REMARK  0 active torsions:
REMARK  status: ('A' for Active; 'I' for Inactive)
ROOT
ATOM      1  C   UNL d   1       3.235  -3.909  -4.450  0.00  0.00     0.023 A 
ATOM      2  C1  UNL d   1       2.399  -3.593  -3.379  0.00  0.00     0.003 A 
ATOM      3  C2  UNL d   1       2.769  -3.937  -2.077  0.00  0.00     0.048 A 
ATOM      4  C3  UNL d   1       3.978  -4.595  -1.853  0.00  0.00     0.023 A 
ATOM      5  C4  UNL d   1       4.818  -4.912  -2.921  0.00  0.00     0.048 A 
ATOM      6  C5  UNL d   1       4.443  -4.568  -4.221  0.00  0.00     0.003 A 
ATOM      7  I   UNL d   1       4.532  -5.107   0.084  0.00  0.00    -0.146 I 
ENDROOT
TORSDOF 0
ENDMDL
