MODEL 1
REMARK minimizedAffinity 6.28107643
REMARK minimizedRMSD -1
REMARK  0 active torsions:
REMARK  status: ('A' for Active; 'I' for Inactive)
ROOT
ATOM      1  C   UNL d   1       4.452  -5.426  -0.827  0.00  0.00     0.023 A 
ATOM      2  C1  UNL d   1       3.609  -4.590  -0.093  0.00  0.00     0.003 A 
ATOM      3  C2  UNL d   1       2.759  -3.701  -0.753  0.00  0.00     0.048 A 
ATOM      4  C3  UNL d   1       2.755  -3.653  -2.146  0.00  0.00     0.023 A 
ATOM      5  C4  UNL d   1       3.595  -4.488  -2.885  0.00  0.00     0.048 A 
ATOM      6  C5  UNL d   1       4.444  -5.375  -2.221  0.00  0.00     0.003 A 
ATOM      7  I   UNL d   1       1.489  -2.330  -3.131  0.00  0.00    -0.146 I 
ENDROOT
TORSDOF 0
ENDMDL
