MODEL 1
REMARK minimizedAffinity 1.91164517
REMARK minimizedRMSD -1
REMARK  0 active torsions:
REMARK  status: ('A' for Active; 'I' for Inactive)
ROOT
ATOM      1  C   UNL d   1      -5.222  -4.591   2.589  0.00  0.00     0.023 A 
ATOM      2  C1  UNL d   1      -4.125  -4.278   3.392  0.00  0.00     0.003 A 
ATOM      3  C2  UNL d   1      -3.804  -2.943   3.648  0.00  0.00     0.048 A 
ATOM      4  C3  UNL d   1      -4.584  -1.927   3.098  0.00  0.00     0.023 A 
ATOM      5  C4  UNL d   1      -5.683  -2.235   2.295  0.00  0.00     0.048 A 
ATOM      6  C5  UNL d   1      -6.000  -3.570   2.041  0.00  0.00     0.003 A 
ATOM      7  I   UNL d   1      -4.107   0.060   3.478  0.00  0.00    -0.146 I 
ENDROOT
TORSDOF 0
ENDMDL
