MODEL 1
REMARK minimizedAffinity 2.26863003
REMARK minimizedRMSD -1
REMARK  0 active torsions:
REMARK  status: ('A' for Active; 'I' for Inactive)
ROOT
ATOM      1  C   UNL d   1       4.031  -4.772  -2.324  0.00  0.00     0.023 A 
ATOM      2  C1  UNL d   1       3.768  -4.349  -1.021  0.00  0.00     0.003 A 
ATOM      3  C2  UNL d   1       3.048  -3.174  -0.799  0.00  0.00     0.048 A 
ATOM      4  C3  UNL d   1       2.593  -2.426  -1.885  0.00  0.00     0.023 A 
ATOM      5  C4  UNL d   1       2.854  -2.845  -3.191  0.00  0.00     0.048 A 
ATOM      6  C5  UNL d   1       3.575  -4.020  -3.408  0.00  0.00     0.003 A 
ATOM      7  I   UNL d   1       1.521  -0.676  -1.557  0.00  0.00    -0.146 I 
ENDROOT
TORSDOF 0
ENDMDL
