MODEL 1
REMARK minimizedAffinity 5.23236084
REMARK minimizedRMSD -1
REMARK  0 active torsions:
REMARK  status: ('A' for Active; 'I' for Inactive)
ROOT
ATOM      1  C   UNL d   1       2.665  -4.015  -4.310  0.00  0.00     0.023 A 
ATOM      2  C1  UNL d   1       3.987  -4.452  -4.398  0.00  0.00     0.003 A 
ATOM      3  C2  UNL d   1       4.666  -4.863  -3.249  0.00  0.00     0.048 A 
ATOM      4  C3  UNL d   1       4.017  -4.834  -2.015  0.00  0.00     0.023 A 
ATOM      5  C4  UNL d   1       2.694  -4.399  -1.922  0.00  0.00     0.048 A 
ATOM      6  C5  UNL d   1       2.020  -3.988  -3.073  0.00  0.00     0.003 A 
ATOM      7  I   UNL d   1       5.026  -5.445  -0.303  0.00  0.00    -0.146 I 
ENDROOT
TORSDOF 0
ENDMDL
