MODEL 1
REMARK minimizedAffinity -0.173721805
REMARK minimizedRMSD -1
REMARK  0 active torsions:
REMARK  status: ('A' for Active; 'I' for Inactive)
ROOT
ATOM      1  C   UNL d   1       2.313  -3.267  -3.930  0.00  0.00     0.023 A 
ATOM      2  C1  UNL d   1       1.648  -3.039  -2.725  0.00  0.00     0.003 A 
ATOM      3  C2  UNL d   1       2.223  -3.448  -1.520  0.00  0.00     0.048 A 
ATOM      4  C3  UNL d   1       3.464  -4.084  -1.527  0.00  0.00     0.023 A 
ATOM      5  C4  UNL d   1       4.133  -4.314  -2.730  0.00  0.00     0.048 A 
ATOM      6  C5  UNL d   1       3.554  -3.904  -3.932  0.00  0.00     0.003 A 
ATOM      7  I   UNL d   1       4.322  -4.694   0.265  0.00  0.00    -0.146 I 
ENDROOT
TORSDOF 0
ENDMDL
