MODEL 1
REMARK minimizedAffinity 6.53197908
REMARK minimizedRMSD -1
REMARK  0 active torsions:
REMARK  status: ('A' for Active; 'I' for Inactive)
ROOT
ATOM      1  C   UNL d   1       2.411  -4.266  -4.154  0.00  0.00     0.023 A 
ATOM      2  C1  UNL d   1       3.751  -4.649  -4.105  0.00  0.00     0.003 A 
ATOM      3  C2  UNL d   1       4.352  -4.937  -2.878  0.00  0.00     0.048 A 
ATOM      4  C3  UNL d   1       3.606  -4.840  -1.703  0.00  0.00     0.023 A 
ATOM      5  C4  UNL d   1       2.265  -4.458  -1.747  0.00  0.00     0.048 A 
ATOM      6  C5  UNL d   1       1.668  -4.170  -2.976  0.00  0.00     0.003 A 
ATOM      7  I   UNL d   1       4.499  -5.268   0.125  0.00  0.00    -0.146 I 
ENDROOT
TORSDOF 0
ENDMDL
