MODEL 1
REMARK minimizedAffinity 1.47199738
REMARK minimizedRMSD -1
REMARK  0 active torsions:
REMARK  status: ('A' for Active; 'I' for Inactive)
ROOT
ATOM      1  C   UNL d   1       1.527  -4.653  -3.460  0.00  0.00     0.023 A 
ATOM      2  C1  UNL d   1       2.119  -3.438  -3.115  0.00  0.00     0.003 A 
ATOM      3  C2  UNL d   1       3.156  -3.406  -2.181  0.00  0.00     0.048 A 
ATOM      4  C3  UNL d   1       3.597  -4.593  -1.596  0.00  0.00     0.023 A 
ATOM      5  C4  UNL d   1       3.008  -5.811  -1.939  0.00  0.00     0.048 A 
ATOM      6  C5  UNL d   1       1.971  -5.838  -2.873  0.00  0.00     0.003 A 
ATOM      7  I   UNL d   1       5.141  -4.548  -0.205  0.00  0.00    -0.146 I 
ENDROOT
TORSDOF 0
ENDMDL
