MODEL 1
REMARK minimizedAffinity 16.9671097
REMARK minimizedRMSD -1
REMARK  0 active torsions:
REMARK  status: ('A' for Active; 'I' for Inactive)
ROOT
ATOM      1  C   UNL d   1       0.670   5.973  -0.040  0.00  0.00     0.023 A 
ATOM      2  C1  UNL d   1       1.245   5.531  -1.232  0.00  0.00     0.003 A 
ATOM      3  C2  UNL d   1       1.797   4.251  -1.310  0.00  0.00     0.048 A 
ATOM      4  C3  UNL d   1       1.768   3.416  -0.193  0.00  0.00     0.023 A 
ATOM      5  C4  UNL d   1       1.193   3.853   1.001  0.00  0.00     0.048 A 
ATOM      6  C5  UNL d   1       0.644   5.135   1.075  0.00  0.00     0.003 A 
ATOM      7  I   UNL d   1       2.588   1.510  -0.308  0.00  0.00    -0.146 I 
ENDROOT
TORSDOF 0
ENDMDL
