MODEL 1
REMARK minimizedAffinity 14.0097971
REMARK minimizedRMSD -1
REMARK  0 active torsions:
REMARK  status: ('A' for Active; 'I' for Inactive)
ROOT
ATOM      1  C   UNL d   1      -0.482  -5.126  -2.186  0.00  0.00     0.023 A 
ATOM      2  C1  UNL d   1      -0.069  -4.398  -3.302  0.00  0.00     0.003 A 
ATOM      3  C2  UNL d   1      -1.008  -3.959  -4.238  0.00  0.00     0.048 A 
ATOM      4  C3  UNL d   1      -2.359  -4.250  -4.050  0.00  0.00     0.023 A 
ATOM      5  C4  UNL d   1      -2.777  -4.977  -2.935  0.00  0.00     0.048 A 
ATOM      6  C5  UNL d   1      -1.834  -5.415  -2.002  0.00  0.00     0.003 A 
ATOM      7  I   UNL d   1      -3.758  -3.598  -5.441  0.00  0.00    -0.146 I 
ENDROOT
TORSDOF 0
ENDMDL
