MODEL 1
REMARK minimizedAffinity 1.97170794
REMARK minimizedRMSD -1
REMARK  0 active torsions:
REMARK  status: ('A' for Active; 'I' for Inactive)
ROOT
ATOM      1  C   UNL d   1      -0.164   0.259   1.291  0.00  0.00     0.023 A 
ATOM      2  C1  UNL d   1      -0.168   1.631   1.544  0.00  0.00     0.003 A 
ATOM      3  C2  UNL d   1      -1.195   2.199   2.301  0.00  0.00     0.048 A 
ATOM      4  C3  UNL d   1      -2.213   1.390   2.804  0.00  0.00     0.023 A 
ATOM      5  C4  UNL d   1      -2.212   0.017   2.554  0.00  0.00     0.048 A 
ATOM      6  C5  UNL d   1      -1.185  -0.547   1.795  0.00  0.00     0.003 A 
ATOM      7  I   UNL d   1      -3.741   2.234   3.931  0.00  0.00    -0.146 I 
ENDROOT
TORSDOF 0
ENDMDL
