MODEL 1
REMARK minimizedAffinity 3.17578769
REMARK minimizedRMSD -1
REMARK  0 active torsions:
REMARK  status: ('A' for Active; 'I' for Inactive)
ROOT
ATOM      1  C   UNL d   1       0.945   0.648   1.247  0.00  0.00     0.023 A 
ATOM      2  C1  UNL d   1       0.364   1.905   1.080  0.00  0.00     0.003 A 
ATOM      3  C2  UNL d   1      -0.802   2.234   1.774  0.00  0.00     0.048 A 
ATOM      4  C3  UNL d   1      -1.381   1.302   2.635  0.00  0.00     0.023 A 
ATOM      5  C4  UNL d   1      -0.802   0.044   2.806  0.00  0.00     0.048 A 
ATOM      6  C5  UNL d   1       0.363  -0.282   2.109  0.00  0.00     0.003 A 
ATOM      7  I   UNL d   1      -3.116   1.791   3.670  0.00  0.00    -0.146 I 
ENDROOT
TORSDOF 0
ENDMDL
