MODEL 1
REMARK minimizedAffinity 0.601587236
REMARK minimizedRMSD -1
REMARK  0 active torsions:
REMARK  status: ('A' for Active; 'I' for Inactive)
ROOT
ATOM      1  C   UNL d   1      -3.545   1.260   3.277  0.00  0.00     0.023 A 
ATOM      2  C1  UNL d   1      -3.122   0.026   2.780  0.00  0.00     0.003 A 
ATOM      3  C2  UNL d   1      -1.881  -0.086   2.150  0.00  0.00     0.048 A 
ATOM      4  C3  UNL d   1      -1.067   1.039   2.020  0.00  0.00     0.023 A 
ATOM      5  C4  UNL d   1      -1.486   2.275   2.516  0.00  0.00     0.048 A 
ATOM      6  C5  UNL d   1      -2.728   2.383   3.145  0.00  0.00     0.003 A 
ATOM      7  I   UNL d   1       0.780   0.875   1.083  0.00  0.00    -0.146 I 
ENDROOT
TORSDOF 0
ENDMDL
