MODEL 1
REMARK minimizedAffinity 0.564431608
REMARK minimizedRMSD -1
REMARK  0 active torsions:
REMARK  status: ('A' for Active; 'I' for Inactive)
ROOT
ATOM      1  C   UNL d   1      -1.761   1.051   2.052  0.00  0.00     0.023 A 
ATOM      2  C1  UNL d   1      -2.810   0.238   2.481  0.00  0.00     0.003 A 
ATOM      3  C2  UNL d   1      -3.661   0.673   3.499  0.00  0.00     0.048 A 
ATOM      4  C3  UNL d   1      -3.457   1.922   4.084  0.00  0.00     0.023 A 
ATOM      5  C4  UNL d   1      -2.408   2.739   3.659  0.00  0.00     0.048 A 
ATOM      6  C5  UNL d   1      -1.560   2.300   2.641  0.00  0.00     0.003 A 
ATOM      7  I   UNL d   1      -4.722   2.571   5.600  0.00  0.00    -0.146 I 
ENDROOT
TORSDOF 0
ENDMDL
