MODEL 1
REMARK minimizedAffinity 4.92789268
REMARK minimizedRMSD -1
REMARK  0 active torsions:
REMARK  status: ('A' for Active; 'I' for Inactive)
ROOT
ATOM      1  C   UNL d   1      -4.482  -1.456  -1.870  0.00  0.00     0.023 A 
ATOM      2  C1  UNL d   1      -4.103  -2.356  -2.866  0.00  0.00     0.003 A 
ATOM      3  C2  UNL d   1      -3.736  -3.661  -2.528  0.00  0.00     0.048 A 
ATOM      4  C3  UNL d   1      -3.750  -4.058  -1.191  0.00  0.00     0.023 A 
ATOM      5  C4  UNL d   1      -4.129  -3.161  -0.191  0.00  0.00     0.048 A 
ATOM      6  C5  UNL d   1      -4.495  -1.858  -0.534  0.00  0.00     0.003 A 
ATOM      7  I   UNL d   1      -3.204  -5.999  -0.685  0.00  0.00    -0.146 I 
ENDROOT
TORSDOF 0
ENDMDL
