MODEL 1
REMARK minimizedAffinity 1.30703592
REMARK minimizedRMSD -1
REMARK  0 active torsions:
REMARK  status: ('A' for Active; 'I' for Inactive)
ROOT
ATOM      1  C   UNL d   1      -4.870  -4.060  -1.089  0.00  0.00     0.023 A 
ATOM      2  C1  UNL d   1      -3.897  -3.235  -0.525  0.00  0.00     0.003 A 
ATOM      3  C2  UNL d   1      -2.724  -3.789  -0.007  0.00  0.00     0.048 A 
ATOM      4  C3  UNL d   1      -2.530  -5.168  -0.058  0.00  0.00     0.023 A 
ATOM      5  C4  UNL d   1      -3.500  -5.998  -0.623  0.00  0.00     0.048 A 
ATOM      6  C5  UNL d   1      -4.671  -5.440  -1.138  0.00  0.00     0.003 A 
ATOM      7  I   UNL d   1      -0.785  -5.995   0.711  0.00  0.00    -0.146 I 
ENDROOT
TORSDOF 0
ENDMDL
