MODEL 1
REMARK minimizedAffinity -3.65715432
REMARK minimizedRMSD -1
REMARK  0 active torsions:
REMARK  status: ('A' for Active; 'I' for Inactive)
ROOT
ATOM      1  C   UNL d   1      -2.627   0.825   2.979  0.00  0.00     0.023 A 
ATOM      2  C1  UNL d   1      -2.103  -0.395   2.551  0.00  0.00     0.003 A 
ATOM      3  C2  UNL d   1      -0.860  -0.437   1.915  0.00  0.00     0.048 A 
ATOM      4  C3  UNL d   1      -0.147   0.743   1.711  0.00  0.00     0.023 A 
ATOM      5  C4  UNL d   1      -0.667   1.966   2.138  0.00  0.00     0.048 A 
ATOM      6  C5  UNL d   1      -1.910   2.004   2.772  0.00  0.00     0.003 A 
ATOM      7  I   UNL d   1       1.703   0.682   0.765  0.00  0.00    -0.146 I 
ENDROOT
TORSDOF 0
ENDMDL
