MODEL 1
REMARK minimizedAffinity 3.29750752
REMARK minimizedRMSD -1
REMARK  0 active torsions:
REMARK  status: ('A' for Active; 'I' for Inactive)
ROOT
ATOM      1  C   UNL d   1      -1.458   1.079   1.590  0.00  0.00     0.023 A 
ATOM      2  C1  UNL d   1      -1.603   2.401   2.011  0.00  0.00     0.003 A 
ATOM      3  C2  UNL d   1      -2.568   2.731   2.964  0.00  0.00     0.048 A 
ATOM      4  C3  UNL d   1      -3.386   1.733   3.493  0.00  0.00     0.023 A 
ATOM      5  C4  UNL d   1      -3.244   0.408   3.076  0.00  0.00     0.048 A 
ATOM      6  C5  UNL d   1      -2.277   0.084   2.123  0.00  0.00     0.003 A 
ATOM      7  I   UNL d   1      -4.824   2.220   4.912  0.00  0.00    -0.146 I 
ENDROOT
TORSDOF 0
ENDMDL
