MODEL 1
REMARK minimizedAffinity -2.33189917
REMARK minimizedRMSD -1
REMARK  0 active torsions:
REMARK  status: ('A' for Active; 'I' for Inactive)
ROOT
ATOM      1  C   UNL d   1       0.008   0.313   0.767  0.00  0.00     0.023 A 
ATOM      2  C1  UNL d   1       0.054   1.673   1.072  0.00  0.00     0.003 A 
ATOM      3  C2  UNL d   1      -0.921   2.238   1.897  0.00  0.00     0.048 A 
ATOM      4  C3  UNL d   1      -1.938   1.437   2.415  0.00  0.00     0.023 A 
ATOM      5  C4  UNL d   1      -1.987   0.075   2.113  0.00  0.00     0.048 A 
ATOM      6  C5  UNL d   1      -1.011  -0.485   1.287  0.00  0.00     0.003 A 
ATOM      7  I   UNL d   1      -3.389   2.275   3.644  0.00  0.00    -0.146 I 
ENDROOT
TORSDOF 0
ENDMDL
