MODEL 1
REMARK minimizedAffinity 0.898610771
REMARK minimizedRMSD -1
REMARK  0 active torsions:
REMARK  status: ('A' for Active; 'I' for Inactive)
ROOT
ATOM      1  C   UNL d   1      -0.093   0.159   1.199  0.00  0.00     0.023 A 
ATOM      2  C1  UNL d   1      -0.082   1.537   1.413  0.00  0.00     0.003 A 
ATOM      3  C2  UNL d   1      -1.107   2.140   2.144  0.00  0.00     0.048 A 
ATOM      4  C3  UNL d   1      -2.141   1.359   2.659  0.00  0.00     0.023 A 
ATOM      5  C4  UNL d   1      -2.156  -0.021   2.449  0.00  0.00     0.048 A 
ATOM      6  C5  UNL d   1      -1.129  -0.619   1.716  0.00  0.00     0.003 A 
ATOM      7  I   UNL d   1      -3.668   2.254   3.748  0.00  0.00    -0.146 I 
ENDROOT
TORSDOF 0
ENDMDL
