MODEL 1
REMARK minimizedAffinity 1.05732322
REMARK minimizedRMSD -1
REMARK  0 active torsions:
REMARK  status: ('A' for Active; 'I' for Inactive)
ROOT
ATOM      1  C   UNL d   1       0.233  -0.960   1.087  0.00  0.00     0.023 A 
ATOM      2  C1  UNL d   1      -1.086  -1.027   1.539  0.00  0.00     0.003 A 
ATOM      3  C2  UNL d   1      -1.771   0.143   1.871  0.00  0.00     0.048 A 
ATOM      4  C3  UNL d   1      -1.133   1.377   1.749  0.00  0.00     0.023 A 
ATOM      5  C4  UNL d   1       0.185   1.449   1.296  0.00  0.00     0.048 A 
ATOM      6  C5  UNL d   1       0.867   0.276   0.966  0.00  0.00     0.003 A 
ATOM      7  I   UNL d   1      -2.151   3.120   2.243  0.00  0.00    -0.146 I 
ENDROOT
TORSDOF 0
ENDMDL
