MODEL 1
REMARK minimizedAffinity 8.7557497
REMARK minimizedRMSD -1
REMARK  0 active torsions:
REMARK  status: ('A' for Active; 'I' for Inactive)
ROOT
ATOM      1  C   UNL d   1       1.017  -0.451   1.028  0.00  0.00     0.023 A 
ATOM      2  C1  UNL d   1       0.134  -0.755   2.065  0.00  0.00     0.003 A 
ATOM      3  C2  UNL d   1      -0.707   0.233   2.581  0.00  0.00     0.048 A 
ATOM      4  C3  UNL d   1      -0.661   1.523   2.055  0.00  0.00     0.023 A 
ATOM      5  C4  UNL d   1       0.220   1.833   1.017  0.00  0.00     0.048 A 
ATOM      6  C5  UNL d   1       1.059   0.842   0.505  0.00  0.00     0.003 A 
ATOM      7  I   UNL d   1      -1.912   2.996   2.821  0.00  0.00    -0.146 I 
ENDROOT
TORSDOF 0
ENDMDL
