MODEL 1
REMARK minimizedAffinity 0.0930690616
REMARK minimizedRMSD -1
REMARK  0 active torsions:
REMARK  status: ('A' for Active; 'I' for Inactive)
ROOT
ATOM      1  C   UNL d   1       0.127   0.567   1.121  0.00  0.00     0.023 A 
ATOM      2  C1  UNL d   1       0.004   1.923   1.424  0.00  0.00     0.003 A 
ATOM      3  C2  UNL d   1      -1.087   2.376   2.170  0.00  0.00     0.048 A 
ATOM      4  C3  UNL d   1      -2.049   1.468   2.610  0.00  0.00     0.023 A 
ATOM      5  C4  UNL d   1      -1.929   0.110   2.309  0.00  0.00     0.048 A 
ATOM      6  C5  UNL d   1      -0.838  -0.338   1.563  0.00  0.00     0.003 A 
ATOM      7  I   UNL d   1      -3.673   2.141   3.719  0.00  0.00    -0.146 I 
ENDROOT
TORSDOF 0
ENDMDL
