MODEL 1
REMARK minimizedAffinity 0.494467229
REMARK minimizedRMSD -1
REMARK  0 active torsions:
REMARK  status: ('A' for Active; 'I' for Inactive)
ROOT
ATOM      1  C   UNL d   1      -2.207   1.513   2.033  0.00  0.00     0.023 A 
ATOM      2  C1  UNL d   1      -1.956   0.215   1.589  0.00  0.00     0.003 A 
ATOM      3  C2  UNL d   1      -0.723  -0.101   1.014  0.00  0.00     0.048 A 
ATOM      4  C3  UNL d   1       0.254   0.885   0.887  0.00  0.00     0.023 A 
ATOM      5  C4  UNL d   1       0.007   2.185   1.331  0.00  0.00     0.048 A 
ATOM      6  C5  UNL d   1      -1.227   2.497   1.904  0.00  0.00     0.003 A 
ATOM      7  I   UNL d   1       2.090   0.417   0.032  0.00  0.00    -0.146 I 
ENDROOT
TORSDOF 0
ENDMDL
