MODEL 1
REMARK minimizedAffinity -0.586684525
REMARK minimizedRMSD -1
REMARK  0 active torsions:
REMARK  status: ('A' for Active; 'I' for Inactive)
ROOT
ATOM      1  C   UNL d   1      -0.406   0.855   1.253  0.00  0.00     0.023 A 
ATOM      2  C1  UNL d   1      -0.607   2.205   1.542  0.00  0.00     0.003 A 
ATOM      3  C2  UNL d   1      -1.655   2.592   2.380  0.00  0.00     0.048 A 
ATOM      4  C3  UNL d   1      -2.497   1.625   2.927  0.00  0.00     0.023 A 
ATOM      5  C4  UNL d   1      -2.299   0.273   2.642  0.00  0.00     0.048 A 
ATOM      6  C5  UNL d   1      -1.251  -0.110   1.803  0.00  0.00     0.003 A 
ATOM      7  I   UNL d   1      -4.056   2.199   4.176  0.00  0.00    -0.146 I 
ENDROOT
TORSDOF 0
ENDMDL
