MODEL 1
REMARK minimizedAffinity -2.92240047
REMARK minimizedRMSD -1
REMARK  0 active torsions:
REMARK  status: ('A' for Active; 'I' for Inactive)
ROOT
ATOM      1  C   UNL d   1      -0.056  -0.044   1.118  0.00  0.00     0.023 A 
ATOM      2  C1  UNL d   1      -1.037  -0.787   1.774  0.00  0.00     0.003 A 
ATOM      3  C2  UNL d   1      -2.038  -0.138   2.500  0.00  0.00     0.048 A 
ATOM      4  C3  UNL d   1      -2.052   1.255   2.565  0.00  0.00     0.023 A 
ATOM      5  C4  UNL d   1      -1.072   2.003   1.910  0.00  0.00     0.048 A 
ATOM      6  C5  UNL d   1      -0.074   1.349   1.185  0.00  0.00     0.003 A 
ATOM      7  I   UNL d   1      -3.540   2.223   3.646  0.00  0.00    -0.146 I 
ENDROOT
TORSDOF 0
ENDMDL
