MODEL 1
REMARK minimizedAffinity 16.1212101
REMARK minimizedRMSD -1
REMARK  0 active torsions:
REMARK  status: ('A' for Active; 'I' for Inactive)
ROOT
ATOM      1  C   UNL d   1       2.902  -2.967   0.974  0.00  0.00    -0.002 A 
ATOM      2  C1  UNL d   1       2.542  -2.800  -0.356  0.00  0.00     0.010 A 
ATOM      3  C2  UNL d   1       1.197  -2.783  -0.731  0.00  0.00     0.041 A 
ATOM      4  C3  UNL d   1       0.210  -2.937   0.264  0.00  0.00    -0.075 A 
ATOM      5  S   UNL d   1      -1.499  -2.947   0.039  0.00  0.00     0.015 SA
ATOM      6  C4  UNL d   1      -1.791  -3.172   1.703  0.00  0.00     0.022 A 
ATOM      7  C5  UNL d   1      -0.624  -3.240   2.427  0.00  0.00     0.026 A 
ATOM      8  C6  UNL d   1       0.549  -3.105   1.609  0.00  0.00    -0.082 A 
ATOM      9  C7  UNL d   1       1.921  -3.119   1.957  0.00  0.00     0.045 A 
ENDROOT
TORSDOF 0
ENDMDL
