MODEL 1
REMARK minimizedAffinity 5.53562927
REMARK minimizedRMSD -1
REMARK  0 active torsions:
REMARK  status: ('A' for Active; 'I' for Inactive)
ROOT
ATOM      1  C   UNL d   1      -1.814   0.541  -3.731  0.00  0.00    -0.002 A 
ATOM      2  C1  UNL d   1      -0.744  -0.342  -3.703  0.00  0.00     0.010 A 
ATOM      3  C2  UNL d   1       0.483   0.011  -4.269  0.00  0.00     0.041 A 
ATOM      4  C3  UNL d   1       0.618   1.280  -4.867  0.00  0.00    -0.075 A 
ATOM      5  S   UNL d   1       2.026   1.929  -5.621  0.00  0.00     0.015 SA
ATOM      6  C4  UNL d   1       1.240   3.394  -5.997  0.00  0.00     0.022 A 
ATOM      7  C5  UNL d   1      -0.065   3.404  -5.565  0.00  0.00     0.026 A 
ATOM      8  C6  UNL d   1      -0.445   2.186  -4.906  0.00  0.00    -0.082 A 
ATOM      9  C7  UNL d   1      -1.676   1.799  -4.325  0.00  0.00     0.045 A 
ENDROOT
TORSDOF 0
ENDMDL
