MODEL 1
REMARK minimizedAffinity 12.5716095
REMARK minimizedRMSD -1
REMARK  0 active torsions:
REMARK  status: ('A' for Active; 'I' for Inactive)
ROOT
ATOM      1  C   UNL d   1       0.761   4.309  -5.982  0.00  0.00    -0.002 A 
ATOM      2  C1  UNL d   1       1.212   3.012  -5.777  0.00  0.00     0.010 A 
ATOM      3  C2  UNL d   1       0.493   2.130  -4.968  0.00  0.00     0.041 A 
ATOM      4  C3  UNL d   1      -0.699   2.577  -4.364  0.00  0.00    -0.075 A 
ATOM      5  S   UNL d   1      -1.745   1.672  -3.335  0.00  0.00     0.015 SA
ATOM      6  C4  UNL d   1      -2.816   2.984  -3.144  0.00  0.00     0.022 A 
ATOM      7  C5  UNL d   1      -2.400   4.094  -3.842  0.00  0.00     0.026 A 
ATOM      8  C6  UNL d   1      -1.174   3.877  -4.557  0.00  0.00    -0.082 A 
ATOM      9  C7  UNL d   1      -0.422   4.748  -5.382  0.00  0.00     0.045 A 
ENDROOT
TORSDOF 0
ENDMDL
