MODEL 1
REMARK minimizedAffinity 14.0554676
REMARK minimizedRMSD -1
REMARK  0 active torsions:
REMARK  status: ('A' for Active; 'I' for Inactive)
ROOT
ATOM      1  C   UNL d   1      -1.725  -3.197   1.288  0.00  0.00    -0.002 A 
ATOM      2  C1  UNL d   1      -1.451  -2.148   2.154  0.00  0.00     0.010 A 
ATOM      3  C2  UNL d   1      -0.167  -1.604   2.228  0.00  0.00     0.041 A 
ATOM      4  C3  UNL d   1       0.846  -2.136   1.406  0.00  0.00    -0.075 A 
ATOM      5  S   UNL d   1       2.492  -1.629   1.326  0.00  0.00     0.015 SA
ATOM      6  C4  UNL d   1       2.870  -2.792   0.138  0.00  0.00     0.022 A 
ATOM      7  C5  UNL d   1       1.779  -3.557  -0.199  0.00  0.00     0.026 A 
ATOM      8  C6  UNL d   1       0.595  -3.192   0.525  0.00  0.00    -0.082 A 
ATOM      9  C7  UNL d   1      -0.717  -3.722   0.475  0.00  0.00     0.045 A 
ENDROOT
TORSDOF 0
ENDMDL
