MODEL 1
REMARK minimizedAffinity 0.47284469
REMARK minimizedRMSD -1
REMARK  0 active torsions:
REMARK  status: ('A' for Active; 'I' for Inactive)
ROOT
ATOM      1  C   UNL d   1       0.034   0.470   1.858  0.00  0.00    -0.002 A 
ATOM      2  C1  UNL d   1      -1.096  -0.326   1.984  0.00  0.00     0.010 A 
ATOM      3  C2  UNL d   1      -1.060  -1.673   1.622  0.00  0.00     0.041 A 
ATOM      4  C3  UNL d   1       0.143  -2.214   1.127  0.00  0.00    -0.075 A 
ATOM      5  S   UNL d   1       0.422  -3.839   0.622  0.00  0.00     0.015 SA
ATOM      6  C4  UNL d   1       2.049  -3.515   0.227  0.00  0.00     0.022 A 
ATOM      7  C5  UNL d   1       2.387  -2.205   0.469  0.00  0.00     0.026 A 
ATOM      8  C6  UNL d   1       1.295  -1.434   0.992  0.00  0.00    -0.082 A 
ATOM      9  C7  UNL d   1       1.226  -0.070   1.367  0.00  0.00     0.045 A 
ENDROOT
TORSDOF 0
ENDMDL
