MODEL 1
REMARK minimizedAffinity -1.48850155
REMARK minimizedRMSD -1
REMARK  1 active torsions:
REMARK  status: ('A' for Active; 'I' for Inactive)
REMARK    1  A    between atoms: C1_2  and  C2_3 
ROOT
ATOM      1  C2  UNL d   1       0.708  -0.477  -0.145  0.00  0.00    -0.081 A 
ATOM      2  C3  UNL d   1       0.289  -0.468   1.191  0.00  0.00     0.006 A 
ATOM      3  C4  UNL d   1      -0.650   0.469   1.632  0.00  0.00     0.002 A 
ATOM      4  C5  UNL d   1      -1.189   1.406   0.744  0.00  0.00    -0.080 A 
ATOM      5  C6  UNL d   1      -2.219   2.397   1.197  0.00  0.00     0.076 C 
ATOM      6  C7  UNL d   1      -0.756   1.408  -0.587  0.00  0.00     0.002 A 
ATOM      7  C8  UNL d   1       0.182   0.473  -1.028  0.00  0.00     0.006 A 
ENDROOT
BRANCH   1   8
ATOM      8  C1  UNL d   1       1.671  -1.526  -0.639  0.00  0.00     0.054 C 
ATOM      9  C   UNL d   1       0.940  -2.663  -1.338  0.00  0.00     0.018 C 
ENDBRANCH   1   8
TORSDOF 1
ENDMDL
