MODEL 1
REMARK minimizedAffinity -5.47486162
REMARK minimizedRMSD -1
REMARK  1 active torsions:
REMARK  status: ('A' for Active; 'I' for Inactive)
REMARK    1  A    between atoms: C1_2  and  C2_3 
ROOT
ATOM      1  C2  UNL d   1       0.888  -0.925  -0.026  0.00  0.00    -0.081 A 
ATOM      2  C3  UNL d   1       0.327  -1.085   1.246  0.00  0.00     0.006 A 
ATOM      3  C4  UNL d   1      -0.583  -0.148   1.742  0.00  0.00     0.002 A 
ATOM      4  C5  UNL d   1      -0.952   0.960   0.971  0.00  0.00    -0.080 A 
ATOM      5  C6  UNL d   1      -1.950   1.957   1.479  0.00  0.00     0.076 C 
ATOM      6  C7  UNL d   1      -0.378   1.129  -0.293  0.00  0.00     0.002 A 
ATOM      7  C8  UNL d   1       0.532   0.193  -0.789  0.00  0.00     0.006 A 
ENDROOT
BRANCH   1   8
ATOM      8  C1  UNL d   1       1.820  -1.967  -0.589  0.00  0.00     0.054 C 
ATOM      9  C   UNL d   1       1.179  -2.712  -1.752  0.00  0.00     0.018 C 
ENDBRANCH   1   8
TORSDOF 1
ENDMDL
