MODEL 1
REMARK minimizedAffinity -5.82606649
REMARK minimizedRMSD -1
REMARK  1 active torsions:
REMARK  status: ('A' for Active; 'I' for Inactive)
REMARK    1  A    between atoms: C1_2  and  C2_3 
ROOT
ATOM      1  C2  UNL d   1       0.599  -0.932  -0.198  0.00  0.00    -0.081 A 
ATOM      2  C3  UNL d   1      -0.175  -1.059   0.963  0.00  0.00     0.006 A 
ATOM      3  C4  UNL d   1      -0.894   0.031   1.457  0.00  0.00     0.002 A 
ATOM      4  C5  UNL d   1      -0.859   1.264   0.796  0.00  0.00    -0.080 A 
ATOM      5  C6  UNL d   1      -1.650   2.434   1.299  0.00  0.00     0.076 C 
ATOM      6  C7  UNL d   1      -0.072   1.396  -0.353  0.00  0.00     0.002 A 
ATOM      7  C8  UNL d   1       0.648   0.306  -0.848  0.00  0.00     0.006 A 
ENDROOT
BRANCH   1   8
ATOM      8  C1  UNL d   1       1.324  -2.123  -0.770  0.00  0.00     0.054 C 
ATOM      9  C   UNL d   1       0.618  -2.659  -2.007  0.00  0.00     0.018 C 
ENDBRANCH   1   8
TORSDOF 1
ENDMDL
