MODEL 1
REMARK minimizedAffinity -2.05241752
REMARK minimizedRMSD -1
REMARK  1 active torsions:
REMARK  status: ('A' for Active; 'I' for Inactive)
REMARK    1  A    between atoms: C1_2  and  C2_3 
ROOT
ATOM      1  C2  UNL d   1       0.182  -0.386   1.721  0.00  0.00    -0.081 A 
ATOM      2  C3  UNL d   1      -0.651   0.674   2.098  0.00  0.00     0.006 A 
ATOM      3  C4  UNL d   1      -1.095   1.598   1.149  0.00  0.00     0.002 A 
ATOM      4  C5  UNL d   1      -0.720   1.472  -0.193  0.00  0.00    -0.080 A 
ATOM      5  C6  UNL d   1      -1.214   2.440  -1.228  0.00  0.00     0.076 C 
ATOM      6  C7  UNL d   1       0.126   0.423  -0.567  0.00  0.00     0.002 A 
ATOM      7  C8  UNL d   1       0.571  -0.500   0.382  0.00  0.00     0.006 A 
ENDROOT
BRANCH   1   8
ATOM      8  C1  UNL d   1       0.610  -1.421   2.730  0.00  0.00     0.054 C 
ATOM      9  C   UNL d   1      -0.561  -1.869   3.593  0.00  0.00     0.018 C 
ENDBRANCH   1   8
TORSDOF 1
ENDMDL
