MODEL 1
REMARK minimizedAffinity -2.96798563
REMARK minimizedRMSD -1
REMARK  1 active torsions:
REMARK  status: ('A' for Active; 'I' for Inactive)
REMARK    1  A    between atoms: C1_2  and  C2_3 
ROOT
ATOM      1  C2  UNL d   1       0.700  -0.439  -0.166  0.00  0.00    -0.081 A 
ATOM      2  C3  UNL d   1       0.027  -0.703   1.032  0.00  0.00     0.006 A 
ATOM      3  C4  UNL d   1      -0.926   0.194   1.521  0.00  0.00     0.002 A 
ATOM      4  C5  UNL d   1      -1.226   1.365   0.816  0.00  0.00    -0.080 A 
ATOM      5  C6  UNL d   1      -2.269   2.321   1.314  0.00  0.00     0.076 C 
ATOM      6  C7  UNL d   1      -0.541   1.637  -0.372  0.00  0.00     0.002 A 
ATOM      7  C8  UNL d   1       0.412   0.741  -0.861  0.00  0.00     0.006 A 
ENDROOT
BRANCH   1   8
ATOM      8  C1  UNL d   1       1.681  -1.436  -0.729  0.00  0.00     0.054 C 
ATOM      9  C   UNL d   1       0.967  -2.558  -1.469  0.00  0.00     0.018 C 
ENDBRANCH   1   8
TORSDOF 1
ENDMDL
