MODEL 1
REMARK minimizedAffinity -5.81570673
REMARK minimizedRMSD -1
REMARK  1 active torsions:
REMARK  status: ('A' for Active; 'I' for Inactive)
REMARK    1  A    between atoms: C1_2  and  C2_3 
ROOT
ATOM      1  C2  UNL d   1       0.691  -0.665  -0.312  0.00  0.00    -0.081 A 
ATOM      2  C3  UNL d   1       0.498  -0.643   1.075  0.00  0.00     0.006 A 
ATOM      3  C4  UNL d   1      -0.413   0.246   1.650  0.00  0.00     0.002 A 
ATOM      4  C5  UNL d   1      -1.152   1.122   0.847  0.00  0.00    -0.080 A 
ATOM      5  C6  UNL d   1      -2.156   2.061   1.449  0.00  0.00     0.076 C 
ATOM      6  C7  UNL d   1      -0.947   1.112  -0.537  0.00  0.00     0.002 A 
ATOM      7  C8  UNL d   1      -0.036   0.224  -1.112  0.00  0.00     0.006 A 
ENDROOT
BRANCH   1   8
ATOM      8  C1  UNL d   1       1.625  -1.667  -0.940  0.00  0.00     0.054 C 
ATOM      9  C   UNL d   1       0.884  -2.592  -1.895  0.00  0.00     0.018 C 
ENDBRANCH   1   8
TORSDOF 1
ENDMDL
