MODEL 1
REMARK minimizedAffinity -3.21982694
REMARK minimizedRMSD -1
REMARK  1 active torsions:
REMARK  status: ('A' for Active; 'I' for Inactive)
REMARK    1  A    between atoms: C1_2  and  C2_3 
ROOT
ATOM      1  C2  UNL d   1       0.931  -0.870  -1.188  0.00  0.00    -0.081 A 
ATOM      2  C3  UNL d   1       0.259  -1.251  -2.356  0.00  0.00     0.006 A 
ATOM      3  C4  UNL d   1       0.279  -2.580  -2.783  0.00  0.00     0.002 A 
ATOM      4  C5  UNL d   1       0.964  -3.553  -2.045  0.00  0.00    -0.080 A 
ATOM      5  C6  UNL d   1       0.967  -4.989  -2.476  0.00  0.00     0.076 C 
ATOM      6  C7  UNL d   1       1.650  -3.169  -0.888  0.00  0.00     0.002 A 
ATOM      7  C8  UNL d   1       1.631  -1.839  -0.461  0.00  0.00     0.006 A 
ENDROOT
BRANCH   1   8
ATOM      8  C1  UNL d   1       0.858   0.551  -0.690  0.00  0.00     0.054 C 
ATOM      9  C   UNL d   1      -0.522   0.873  -0.135  0.00  0.00     0.018 C 
ENDBRANCH   1   8
TORSDOF 1
ENDMDL
