MODEL 1
REMARK minimizedAffinity -5.3326931
REMARK minimizedRMSD -1
REMARK  1 active torsions:
REMARK  status: ('A' for Active; 'I' for Inactive)
REMARK    1  A    between atoms: C1_2  and  C2_3 
ROOT
ATOM      1  C2  UNL d   1       0.594  -0.870  -0.126  0.00  0.00    -0.081 A 
ATOM      2  C3  UNL d   1       0.221  -0.967   1.220  0.00  0.00     0.006 A 
ATOM      3  C4  UNL d   1      -0.511   0.056   1.827  0.00  0.00     0.002 A 
ATOM      4  C5  UNL d   1      -0.888   1.189   1.098  0.00  0.00    -0.080 A 
ATOM      5  C6  UNL d   1      -1.699   2.281   1.730  0.00  0.00     0.076 C 
ATOM      6  C7  UNL d   1      -0.499   1.294  -0.242  0.00  0.00     0.002 A 
ATOM      7  C8  UNL d   1       0.233   0.272  -0.850  0.00  0.00     0.006 A 
ENDROOT
BRANCH   1   8
ATOM      8  C1  UNL d   1       1.327  -2.001  -0.802  0.00  0.00     0.054 C 
ATOM      9  C   UNL d   1       0.576  -2.491  -2.031  0.00  0.00     0.018 C 
ENDBRANCH   1   8
TORSDOF 1
ENDMDL
