MODEL 1
REMARK minimizedAffinity -5.45804262
REMARK minimizedRMSD -1
REMARK  1 active torsions:
REMARK  status: ('A' for Active; 'I' for Inactive)
REMARK    1  A    between atoms: C1_2  and  C2_3 
ROOT
ATOM      1  C2  UNL d   1       0.362  -0.483  -0.143  0.00  0.00    -0.081 A 
ATOM      2  C3  UNL d   1      -0.086  -0.598   1.179  0.00  0.00     0.006 A 
ATOM      3  C4  UNL d   1      -0.933   0.368   1.726  0.00  0.00     0.002 A 
ATOM      4  C5  UNL d   1      -1.353   1.461   0.960  0.00  0.00    -0.080 A 
ATOM      5  C6  UNL d   1      -2.286   2.489   1.527  0.00  0.00     0.076 C 
ATOM      6  C7  UNL d   1      -0.892   1.585  -0.355  0.00  0.00     0.002 A 
ATOM      7  C8  UNL d   1      -0.044   0.620  -0.903  0.00  0.00     0.006 A 
ENDROOT
BRANCH   1   8
ATOM      8  C1  UNL d   1       1.223  -1.557  -0.757  0.00  0.00     0.054 C 
ATOM      9  C   UNL d   1       0.649  -2.035  -2.083  0.00  0.00     0.018 C 
ENDBRANCH   1   8
TORSDOF 1
ENDMDL
