MODEL 1
REMARK minimizedAffinity -1.90201592
REMARK minimizedRMSD -1
REMARK  1 active torsions:
REMARK  status: ('A' for Active; 'I' for Inactive)
REMARK    1  A    between atoms: C1_2  and  C2_3 
ROOT
ATOM      1  C2  UNL d   1       0.042  -0.278   0.209  0.00  0.00    -0.081 A 
ATOM      2  C3  UNL d   1      -0.704   0.043   1.350  0.00  0.00     0.006 A 
ATOM      3  C4  UNL d   1      -1.103   1.361   1.587  0.00  0.00     0.002 A 
ATOM      4  C5  UNL d   1      -0.770   2.377   0.685  0.00  0.00    -0.080 A 
ATOM      5  C6  UNL d   1      -1.217   3.790   0.912  0.00  0.00     0.076 C 
ATOM      6  C7  UNL d   1      -0.009   2.059  -0.446  0.00  0.00     0.002 A 
ATOM      7  C8  UNL d   1       0.390   0.741  -0.683  0.00  0.00     0.006 A 
ENDROOT
BRANCH   1   8
ATOM      8  C1  UNL d   1       0.418  -1.709  -0.082  0.00  0.00     0.054 C 
ATOM      9  C   UNL d   1       0.800  -1.893  -1.544  0.00  0.00     0.018 C 
ENDBRANCH   1   8
TORSDOF 1
ENDMDL
