MODEL 1
REMARK minimizedAffinity -0.337320715
REMARK minimizedRMSD -1
REMARK  1 active torsions:
REMARK  status: ('A' for Active; 'I' for Inactive)
REMARK    1  A    between atoms: C1_2  and  C2_3 
ROOT
ATOM      1  C2  UNL d   1      -0.856   2.385   0.806  0.00  0.00    -0.081 A 
ATOM      2  C3  UNL d   1      -1.726   2.126   1.872  0.00  0.00     0.006 A 
ATOM      3  C4  UNL d   1      -1.806   0.845   2.425  0.00  0.00     0.002 A 
ATOM      4  C5  UNL d   1      -1.013  -0.194   1.927  0.00  0.00    -0.080 A 
ATOM      5  C6  UNL d   1      -1.068  -1.566   2.531  0.00  0.00     0.076 C 
ATOM      6  C7  UNL d   1      -0.157   0.061   0.850  0.00  0.00     0.002 A 
ATOM      7  C8  UNL d   1      -0.077   1.341   0.297  0.00  0.00     0.006 A 
ENDROOT
BRANCH   1   8
ATOM      8  C1  UNL d   1      -0.720   3.780   0.250  0.00  0.00     0.054 C 
ATOM      9  C   UNL d   1       0.013   3.775  -1.084  0.00  0.00     0.018 C 
ENDBRANCH   1   8
TORSDOF 1
ENDMDL
