MODEL 1
REMARK minimizedAffinity -2.79640746
REMARK minimizedRMSD -1
REMARK  2 active torsions:
REMARK  status: ('A' for Active; 'I' for Inactive)
REMARK    1  A    between atoms: C1_2  and  C2_3 
REMARK    2  A    between atoms: C2_3  and  C3_4 
ROOT
ATOM      1  C3  UNL d   1       0.289   0.029  -0.071  0.00  0.00    -0.075 A 
ATOM      2  C4  UNL d   1       1.522   0.659   0.149  0.00  0.00     0.002 A 
ATOM      3  C5  UNL d   1       2.711  -0.068   0.080  0.00  0.00     0.002 A 
ATOM      4  C6  UNL d   1       2.682  -1.433  -0.198  0.00  0.00    -0.004 A 
ATOM      5  C7  UNL d   1       1.461  -2.072  -0.402  0.00  0.00     0.002 A 
ATOM      6  C8  UNL d   1       0.270  -1.346  -0.338  0.00  0.00     0.002 A 
ENDROOT
BRANCH   1   7
ATOM      7  C2  UNL d   1      -0.999   0.816  -0.027  0.00  0.00     0.056 C 
BRANCH   7   8
ATOM      8  C1  UNL d   1      -2.256  -0.032  -0.247  0.00  0.00     0.007 C 
ATOM      9  C   UNL d   1      -3.394   0.325   0.700  0.00  0.00     0.009 C 
ENDBRANCH   7   8
ENDBRANCH   1   7
TORSDOF 2
ENDMDL
