MODEL 1
REMARK minimizedAffinity -3.87494683
REMARK minimizedRMSD -1
REMARK  2 active torsions:
REMARK  status: ('A' for Active; 'I' for Inactive)
REMARK    1  A    between atoms: C1_2  and  C2_3 
REMARK    2  A    between atoms: C2_3  and  C3_4 
ROOT
ATOM      1  C3  UNL d   1      -1.441   0.837   0.378  0.00  0.00    -0.075 A 
ATOM      2  C4  UNL d   1      -1.731   1.382   1.637  0.00  0.00     0.002 A 
ATOM      3  C5  UNL d   1      -3.044   1.695   1.988  0.00  0.00     0.002 A 
ATOM      4  C6  UNL d   1      -4.081   1.477   1.084  0.00  0.00    -0.004 A 
ATOM      5  C7  UNL d   1      -3.803   0.951  -0.176  0.00  0.00     0.002 A 
ATOM      6  C8  UNL d   1      -2.490   0.633  -0.528  0.00  0.00     0.002 A 
ENDROOT
BRANCH   1   7
ATOM      7  C2  UNL d   1      -0.025   0.468   0.003  0.00  0.00     0.056 C 
BRANCH   7   8
ATOM      8  C1  UNL d   1       0.142  -0.987  -0.446  0.00  0.00     0.007 C 
ATOM      9  C   UNL d   1       1.587  -1.467  -0.399  0.00  0.00     0.009 C 
ENDBRANCH   7   8
ENDBRANCH   1   7
TORSDOF 2
ENDMDL
