MODEL 1
REMARK minimizedAffinity 1.7854116
REMARK minimizedRMSD -1
REMARK  2 active torsions:
REMARK  status: ('A' for Active; 'I' for Inactive)
REMARK    1  A    between atoms: C1_2  and  C2_3 
REMARK    2  A    between atoms: C2_3  and  C3_4 
ROOT
ATOM      1  C3  UNL d   1       2.435  -1.389   0.418  0.00  0.00    -0.075 A 
ATOM      2  C4  UNL d   1       3.436  -1.178   1.377  0.00  0.00     0.002 A 
ATOM      3  C5  UNL d   1       3.755   0.114   1.795  0.00  0.00     0.002 A 
ATOM      4  C6  UNL d   1       3.088   1.210   1.253  0.00  0.00    -0.004 A 
ATOM      5  C7  UNL d   1       2.104   1.013   0.286  0.00  0.00     0.002 A 
ATOM      6  C8  UNL d   1       1.779  -0.279  -0.130  0.00  0.00     0.002 A 
ENDROOT
BRANCH   1   7
ATOM      7  C2  UNL d   1       2.064  -2.787  -0.017  0.00  0.00     0.056 C 
BRANCH   7   8
ATOM      8  C1  UNL d   1       0.585  -2.954  -0.384  0.00  0.00     0.007 C 
ATOM      9  C   UNL d   1       0.058  -4.359  -0.128  0.00  0.00     0.009 C 
ENDBRANCH   7   8
ENDBRANCH   1   7
TORSDOF 2
ENDMDL
