MODEL 1
REMARK minimizedAffinity -4.05337477
REMARK minimizedRMSD -1
REMARK  2 active torsions:
REMARK  status: ('A' for Active; 'I' for Inactive)
REMARK    1  A    between atoms: C1_2  and  C2_3 
REMARK    2  A    between atoms: C2_3  and  C3_4 
ROOT
ATOM      1  C3  UNL d   1      -1.269   0.593  -0.201  0.00  0.00    -0.075 A 
ATOM      2  C4  UNL d   1      -0.874  -0.744  -0.054  0.00  0.00     0.002 A 
ATOM      3  C5  UNL d   1       0.478  -1.090  -0.072  0.00  0.00     0.002 A 
ATOM      4  C6  UNL d   1       1.449  -0.106  -0.246  0.00  0.00    -0.004 A 
ATOM      5  C7  UNL d   1       1.067   1.224  -0.409  0.00  0.00     0.002 A 
ATOM      6  C8  UNL d   1      -0.284   1.573  -0.388  0.00  0.00     0.002 A 
ENDROOT
BRANCH   1   7
ATOM      7  C2  UNL d   1      -2.728   0.978  -0.153  0.00  0.00     0.056 C 
BRANCH   7   8
ATOM      8  C1  UNL d   1      -3.221   1.387   1.239  0.00  0.00     0.007 C 
ATOM      9  C   UNL d   1      -4.392   0.549   1.732  0.00  0.00     0.009 C 
ENDBRANCH   7   8
ENDBRANCH   1   7
TORSDOF 2
ENDMDL
