MODEL 1
REMARK minimizedAffinity -5.11173582
REMARK minimizedRMSD -1
REMARK  2 active torsions:
REMARK  status: ('A' for Active; 'I' for Inactive)
REMARK    1  A    between atoms: C1_2  and  C2_3 
REMARK    2  A    between atoms: C2_3  and  C3_4 
ROOT
ATOM      1  C3  UNL d   1      -0.333   0.478  -0.323  0.00  0.00    -0.075 A 
ATOM      2  C4  UNL d   1       0.744   0.544   0.573  0.00  0.00     0.002 A 
ATOM      3  C5  UNL d   1       1.672  -0.496   0.644  0.00  0.00     0.002 A 
ATOM      4  C6  UNL d   1       1.529  -1.618  -0.169  0.00  0.00    -0.004 A 
ATOM      5  C7  UNL d   1       0.454  -1.702  -1.051  0.00  0.00     0.002 A 
ATOM      6  C8  UNL d   1      -0.473  -0.661  -1.128  0.00  0.00     0.002 A 
ENDROOT
BRANCH   1   7
ATOM      7  C2  UNL d   1      -1.323   1.613  -0.427  0.00  0.00     0.056 C 
BRANCH   7   8
ATOM      8  C1  UNL d   1      -2.746   1.240   0.002  0.00  0.00     0.007 C 
ATOM      9  C   UNL d   1      -3.237   2.032   1.206  0.00  0.00     0.009 C 
ENDBRANCH   7   8
ENDBRANCH   1   7
TORSDOF 2
ENDMDL
