MODEL 1
REMARK minimizedAffinity -4.6736021
REMARK minimizedRMSD -1
REMARK  2 active torsions:
REMARK  status: ('A' for Active; 'I' for Inactive)
REMARK    1  A    between atoms: C1_2  and  C2_3 
REMARK    2  A    between atoms: C2_3  and  C3_4 
ROOT
ATOM      1  C3  UNL d   1      -1.788   0.647  -0.045  0.00  0.00    -0.075 A 
ATOM      2  C4  UNL d   1      -1.342  -0.595   0.429  0.00  0.00     0.002 A 
ATOM      3  C5  UNL d   1       0.023  -0.864   0.537  0.00  0.00     0.002 A 
ATOM      4  C6  UNL d   1       0.957   0.099   0.163  0.00  0.00    -0.004 A 
ATOM      5  C7  UNL d   1       0.525   1.330  -0.326  0.00  0.00     0.002 A 
ATOM      6  C8  UNL d   1      -0.840   1.604  -0.430  0.00  0.00     0.002 A 
ENDROOT
BRANCH   1   7
ATOM      7  C2  UNL d   1      -3.263   0.955  -0.136  0.00  0.00     0.056 C 
BRANCH   7   8
ATOM      8  C1  UNL d   1      -4.169  -0.190   0.329  0.00  0.00     0.007 C 
ATOM      9  C   UNL d   1      -5.202  -0.600  -0.712  0.00  0.00     0.009 C 
ENDBRANCH   7   8
ENDBRANCH   1   7
TORSDOF 2
ENDMDL
