MODEL 1
REMARK minimizedAffinity -2.08834505
REMARK minimizedRMSD -1
REMARK  2 active torsions:
REMARK  status: ('A' for Active; 'I' for Inactive)
REMARK    1  A    between atoms: C1_2  and  C2_3 
REMARK    2  A    between atoms: C2_3  and  C3_4 
ROOT
ATOM      1  C3  UNL d   1       0.311   0.067  -0.221  0.00  0.00    -0.075 A 
ATOM      2  C4  UNL d   1       0.914   0.348   1.013  0.00  0.00     0.002 A 
ATOM      3  C5  UNL d   1       1.992  -0.415   1.465  0.00  0.00     0.002 A 
ATOM      4  C6  UNL d   1       2.472  -1.472   0.695  0.00  0.00    -0.004 A 
ATOM      5  C7  UNL d   1       1.869  -1.771  -0.525  0.00  0.00     0.002 A 
ATOM      6  C8  UNL d   1       0.794  -1.006  -0.982  0.00  0.00     0.002 A 
ENDROOT
BRANCH   1   7
ATOM      7  C2  UNL d   1      -0.836   0.907  -0.729  0.00  0.00     0.056 C 
BRANCH   7   8
ATOM      8  C1  UNL d   1      -1.788   1.393   0.369  0.00  0.00     0.007 C 
ATOM      9  C   UNL d   1      -3.258   1.225   0.007  0.00  0.00     0.009 C 
ENDBRANCH   7   8
ENDBRANCH   1   7
TORSDOF 2
ENDMDL
