MODEL 1
REMARK minimizedAffinity -4.30164671
REMARK minimizedRMSD -1
REMARK  0 active torsions:
REMARK  status: ('A' for Active; 'I' for Inactive)
ROOT
ATOM      1  C1  BNZ d   1      -1.803  -0.282   0.450  0.00  0.00     0.000 A 
ATOM      2  C2  BNZ d   1      -1.960   0.261   1.697  0.00  0.00     0.000 A 
ATOM      3  C3  BNZ d   1      -0.931   0.921   2.309  0.00  0.00     0.000 A 
ATOM      4  C4  BNZ d   1       0.265   1.002   1.690  0.00  0.00     0.000 A 
ATOM      5  C5  BNZ d   1       0.442   0.452   0.437  0.00  0.00     0.000 A 
ATOM      6  C6  BNZ d   1      -0.608  -0.178  -0.192  0.00  0.00     0.000 A 
ENDROOT
TORSDOF 0
ENDMDL
