MODEL 1
REMARK minimizedAffinity -4.56799459
REMARK minimizedRMSD -1
REMARK  0 active torsions:
REMARK  status: ('A' for Active; 'I' for Inactive)
ROOT
ATOM      1  C1  BNZ d   1       0.570   0.173   0.637  0.00  0.00     0.000 A 
ATOM      2  C2  BNZ d   1       1.482  -0.269   1.557  0.00  0.00     0.000 A 
ATOM      3  C3  BNZ d   1       1.197  -0.240   2.894  0.00  0.00     0.000 A 
ATOM      4  C4  BNZ d   1       0.019   0.268   3.310  0.00  0.00     0.000 A 
ATOM      5  C5  BNZ d   1      -0.907   0.726   2.395  0.00  0.00     0.000 A 
ATOM      6  C6  BNZ d   1      -0.633   0.659   1.048  0.00  0.00     0.000 A 
ENDROOT
TORSDOF 0
ENDMDL
