MODEL 1
REMARK minimizedAffinity -4.64000702
REMARK minimizedRMSD -1
REMARK  0 active torsions:
REMARK  status: ('A' for Active; 'I' for Inactive)
ROOT
ATOM      1  C1  BNZ d   1      -1.352  -0.035   0.898  0.00  0.00     0.000 A 
ATOM      2  C2  BNZ d   1      -0.071   0.066   0.427  0.00  0.00     0.000 A 
ATOM      3  C3  BNZ d   1       0.902   0.675   1.169  0.00  0.00     0.000 A 
ATOM      4  C4  BNZ d   1       0.584   1.218   2.361  0.00  0.00     0.000 A 
ATOM      5  C5  BNZ d   1      -0.706   1.133   2.846  0.00  0.00     0.000 A 
ATOM      6  C6  BNZ d   1      -1.674   0.485   2.114  0.00  0.00     0.000 A 
ENDROOT
TORSDOF 0
ENDMDL
