MODEL 1
REMARK minimizedAffinity -1.93355799
REMARK minimizedRMSD -1
REMARK  0 active torsions:
REMARK  status: ('A' for Active; 'I' for Inactive)
ROOT
ATOM      1  C1  BNZ d   1       0.598  -0.814   0.318  0.00  0.00     0.000 A 
ATOM      2  C2  BNZ d   1       0.646  -0.522   1.655  0.00  0.00     0.000 A 
ATOM      3  C3  BNZ d   1      -0.441   0.001   2.297  0.00  0.00     0.000 A 
ATOM      4  C4  BNZ d   1      -1.561   0.268   1.594  0.00  0.00     0.000 A 
ATOM      5  C5  BNZ d   1      -1.623  -0.012   0.244  0.00  0.00     0.000 A 
ATOM      6  C6  BNZ d   1      -0.539  -0.575  -0.391  0.00  0.00     0.000 A 
ENDROOT
TORSDOF 0
ENDMDL
