MODEL 1
REMARK minimizedAffinity -1.18764043
REMARK minimizedRMSD -1
REMARK  0 active torsions:
REMARK  status: ('A' for Active; 'I' for Inactive)
ROOT
ATOM      1  C1  BNZ d   1      -0.446   1.379   2.094  0.00  0.00     0.000 A 
ATOM      2  C2  BNZ d   1      -0.346   1.394   3.460  0.00  0.00     0.000 A 
ATOM      3  C3  BNZ d   1       0.236   0.355   4.131  0.00  0.00     0.000 A 
ATOM      4  C4  BNZ d   1       0.680  -0.714   3.441  0.00  0.00     0.000 A 
ATOM      5  C5  BNZ d   1       0.578  -0.749   2.064  0.00  0.00     0.000 A 
ATOM      6  C6  BNZ d   1       0.027   0.315   1.389  0.00  0.00     0.000 A 
ENDROOT
TORSDOF 0
ENDMDL
