MODEL 1
REMARK minimizedAffinity -4.32683897
REMARK minimizedRMSD -1
REMARK  0 active torsions:
REMARK  status: ('A' for Active; 'I' for Inactive)
ROOT
ATOM      1  C1  BNZ d   1       0.721  -0.016   1.121  0.00  0.00     0.000 A 
ATOM      2  C2  BNZ d   1       0.449   0.760   2.216  0.00  0.00     0.000 A 
ATOM      3  C3  BNZ d   1      -0.841   1.036   2.576  0.00  0.00     0.000 A 
ATOM      4  C4  BNZ d   1      -1.854   0.568   1.820  0.00  0.00     0.000 A 
ATOM      5  C5  BNZ d   1      -1.597  -0.208   0.708  0.00  0.00     0.000 A 
ATOM      6  C6  BNZ d   1      -0.298  -0.516   0.370  0.00  0.00     0.000 A 
ENDROOT
TORSDOF 0
ENDMDL
