MODEL 1
REMARK minimizedAffinity -5.13390207
REMARK minimizedRMSD -1
REMARK  0 active torsions:
REMARK  status: ('A' for Active; 'I' for Inactive)
ROOT
ATOM      1  C1  BNZ d   1      -1.222   0.110   1.175  0.00  0.00     0.000 A 
ATOM      2  C2  BNZ d   1      -0.018  -0.076   0.548  0.00  0.00     0.000 A 
ATOM      3  C3  BNZ d   1       1.129   0.462   1.063  0.00  0.00     0.000 A 
ATOM      4  C4  BNZ d   1       1.065   1.216   2.178  0.00  0.00     0.000 A 
ATOM      5  C5  BNZ d   1      -0.142   1.421   2.816  0.00  0.00     0.000 A 
ATOM      6  C6  BNZ d   1      -1.289   0.846   2.318  0.00  0.00     0.000 A 
ENDROOT
TORSDOF 0
ENDMDL
