MODEL 1
REMARK minimizedAffinity -3.23471642
REMARK minimizedRMSD -1
REMARK  0 active torsions:
REMARK  status: ('A' for Active; 'I' for Inactive)
ROOT
ATOM      1  C1  BNZ d   1       1.378  -0.891   4.488  0.00  0.00     0.000 A 
ATOM      2  C2  BNZ d   1       0.101  -1.122   4.926  0.00  0.00     0.000 A 
ATOM      3  C3  BNZ d   1      -0.972  -0.595   4.264  0.00  0.00     0.000 A 
ATOM      4  C4  BNZ d   1      -0.767   0.195   3.190  0.00  0.00     0.000 A 
ATOM      5  C5  BNZ d   1       0.515   0.445   2.742  0.00  0.00     0.000 A 
ATOM      6  C6  BNZ d   1       1.591  -0.119   3.387  0.00  0.00     0.000 A 
ENDROOT
TORSDOF 0
ENDMDL
