MODEL 1
REMARK minimizedAffinity 1.3961885
REMARK minimizedRMSD -1
REMARK  1 active torsions:
REMARK  status: ('A' for Active; 'I' for Inactive)
REMARK    1  A    between atoms: C1_2  and  C2_3 
ROOT
ATOM      1  C2  UNL d   1       4.299  -5.474  -4.287  0.00  0.00    -0.077 A 
ATOM      2  C3  UNL d   1       5.552  -6.000  -3.941  0.00  0.00     0.002 A 
ATOM      3  C4  UNL d   1       6.000  -5.947  -2.620  0.00  0.00     0.002 A 
ATOM      4  C5  UNL d   1       5.200  -5.373  -1.634  0.00  0.00    -0.004 A 
ATOM      5  C6  UNL d   1       3.953  -4.846  -1.968  0.00  0.00     0.002 A 
ATOM      6  C7  UNL d   1       3.504  -4.897  -3.289  0.00  0.00     0.002 A 
ENDROOT
BRANCH   1   7
ATOM      7  C1  UNL d   1       3.794  -5.575  -5.703  0.00  0.00     0.055 C 
ATOM      8  C   UNL d   1       2.333  -5.999  -5.740  0.00  0.00     0.019 C 
ENDBRANCH   1   7
TORSDOF 1
ENDMDL
