MODEL 1
REMARK minimizedAffinity 11.0694618
REMARK minimizedRMSD -1
REMARK  1 active torsions:
REMARK  status: ('A' for Active; 'I' for Inactive)
REMARK    1  A    between atoms: C1_2  and  C2_3 
ROOT
ATOM      1  C2  UNL d   1       1.365   2.100   1.108  0.00  0.00    -0.077 A 
ATOM      2  C3  UNL d   1       1.106   2.984   0.051  0.00  0.00     0.002 A 
ATOM      3  C4  UNL d   1      -0.200   3.399  -0.218  0.00  0.00     0.002 A 
ATOM      4  C5  UNL d   1      -1.255   2.938   0.566  0.00  0.00    -0.004 A 
ATOM      5  C6  UNL d   1      -1.008   2.057   1.618  0.00  0.00     0.002 A 
ATOM      6  C7  UNL d   1       0.296   1.640   1.888  0.00  0.00     0.002 A 
ENDROOT
BRANCH   1   7
ATOM      7  C1  UNL d   1       2.778   1.690   1.431  0.00  0.00     0.055 C 
ATOM      8  C   UNL d   1       3.146   2.052   2.862  0.00  0.00     0.019 C 
ENDBRANCH   1   7
TORSDOF 1
ENDMDL
