MODEL 1
REMARK minimizedAffinity 10.4550467
REMARK minimizedRMSD -1
REMARK  1 active torsions:
REMARK  status: ('A' for Active; 'I' for Inactive)
REMARK    1  A    between atoms: C1_2  and  C2_3 
ROOT
ATOM      1  C2  UNL d   1       3.648   2.199   3.783  0.00  0.00    -0.077 A 
ATOM      2  C3  UNL d   1       4.827   1.465   3.594  0.00  0.00     0.002 A 
ATOM      3  C4  UNL d   1       5.996   1.819   4.271  0.00  0.00     0.002 A 
ATOM      4  C5  UNL d   1       5.995   2.903   5.146  0.00  0.00    -0.004 A 
ATOM      5  C6  UNL d   1       4.827   3.640   5.340  0.00  0.00     0.002 A 
ATOM      6  C7  UNL d   1       3.659   3.289   4.663  0.00  0.00     0.002 A 
ENDROOT
BRANCH   1   7
ATOM      7  C1  UNL d   1       2.374   1.790   3.091  0.00  0.00     0.055 C 
ATOM      8  C   UNL d   1       2.569   1.693   1.585  0.00  0.00     0.019 C 
ENDBRANCH   1   7
TORSDOF 1
ENDMDL
