MODEL 1
REMARK minimizedAffinity 1.17998922
REMARK minimizedRMSD -1
REMARK  1 active torsions:
REMARK  status: ('A' for Active; 'I' for Inactive)
REMARK    1  A    between atoms: C1_2  and  C2_3 
ROOT
ATOM      1  C2  UNL d   1      -3.410   2.922  -5.026  0.00  0.00    -0.077 A 
ATOM      2  C3  UNL d   1      -4.491   2.052  -4.827  0.00  0.00     0.002 A 
ATOM      3  C4  UNL d   1      -5.780   2.429  -5.208  0.00  0.00     0.002 A 
ATOM      4  C5  UNL d   1      -5.999   3.674  -5.794  0.00  0.00    -0.004 A 
ATOM      5  C6  UNL d   1      -4.931   4.547  -5.993  0.00  0.00     0.002 A 
ATOM      6  C7  UNL d   1      -3.642   4.172  -5.612  0.00  0.00     0.002 A 
ENDROOT
BRANCH   1   7
ATOM      7  C1  UNL d   1      -2.011   2.497  -4.660  0.00  0.00     0.055 C 
ATOM      8  C   UNL d   1      -1.256   3.620  -3.965  0.00  0.00     0.019 C 
ENDBRANCH   1   7
TORSDOF 1
ENDMDL
