MODEL 1
REMARK minimizedAffinity 1.75918913
REMARK minimizedRMSD -1
REMARK  1 active torsions:
REMARK  status: ('A' for Active; 'I' for Inactive)
REMARK    1  A    between atoms: C1_2  and  C2_3 
ROOT
ATOM      1  C2  UNL d   1       4.324  -5.013  -4.839  0.00  0.00    -0.077 A 
ATOM      2  C3  UNL d   1       3.536  -4.862  -3.689  0.00  0.00     0.002 A 
ATOM      3  C4  UNL d   1       2.194  -5.245  -3.697  0.00  0.00     0.002 A 
ATOM      4  C5  UNL d   1       1.628  -5.785  -4.850  0.00  0.00    -0.004 A 
ATOM      5  C6  UNL d   1       2.403  -5.937  -5.999  0.00  0.00     0.002 A 
ATOM      6  C7  UNL d   1       3.744  -5.554  -5.994  0.00  0.00     0.002 A 
ENDROOT
BRANCH   1   7
ATOM      7  C1  UNL d   1       5.785  -4.646  -4.818  0.00  0.00     0.055 C 
ATOM      8  C   UNL d   1       5.996  -3.245  -4.262  0.00  0.00     0.019 C 
ENDBRANCH   1   7
TORSDOF 1
ENDMDL
