MODEL 1
REMARK minimizedAffinity -1.33787346
REMARK minimizedRMSD -1
REMARK  1 active torsions:
REMARK  status: ('A' for Active; 'I' for Inactive)
REMARK    1  A    between atoms: C1_2  and  C2_3 
ROOT
ATOM      1  C2  UNL d   1       4.593  -4.929  -4.530  0.00  0.00    -0.077 A 
ATOM      2  C3  UNL d   1       3.603  -4.831  -3.542  0.00  0.00     0.002 A 
ATOM      3  C4  UNL d   1       2.315  -5.312  -3.783  0.00  0.00     0.002 A 
ATOM      4  C5  UNL d   1       2.006  -5.897  -5.009  0.00  0.00    -0.004 A 
ATOM      5  C6  UNL d   1       2.983  -5.997  -5.999  0.00  0.00     0.002 A 
ATOM      6  C7  UNL d   1       4.271  -5.516  -5.760  0.00  0.00     0.002 A 
ENDROOT
BRANCH   1   7
ATOM      7  C1  UNL d   1       5.996  -4.455  -4.254  0.00  0.00     0.055 C 
ATOM      8  C   UNL d   1       5.999  -3.212  -3.377  0.00  0.00     0.019 C 
ENDBRANCH   1   7
TORSDOF 1
ENDMDL
