MODEL 1
REMARK minimizedAffinity 13.9501247
REMARK minimizedRMSD -1
REMARK  1 active torsions:
REMARK  status: ('A' for Active; 'I' for Inactive)
REMARK    1  A    between atoms: C1_2  and  C2_3 
ROOT
ATOM      1  C2  UNL d   1      -2.209  -3.796   2.892  0.00  0.00    -0.077 A 
ATOM      2  C3  UNL d   1      -1.801  -3.796   4.233  0.00  0.00     0.002 A 
ATOM      3  C4  UNL d   1      -2.134  -4.862   5.072  0.00  0.00     0.002 A 
ATOM      4  C5  UNL d   1      -2.872  -5.936   4.578  0.00  0.00    -0.004 A 
ATOM      5  C6  UNL d   1      -3.284  -5.943   3.246  0.00  0.00     0.002 A 
ATOM      6  C7  UNL d   1      -2.953  -4.879   2.406  0.00  0.00     0.002 A 
ENDROOT
BRANCH   1   7
ATOM      7  C1  UNL d   1      -1.809  -2.671   1.973  0.00  0.00     0.055 C 
ATOM      8  C   UNL d   1      -1.534  -3.178   0.565  0.00  0.00     0.019 C 
ENDBRANCH   1   7
TORSDOF 1
ENDMDL
