MODEL 1
REMARK minimizedAffinity 12.9687824
REMARK minimizedRMSD -1
REMARK  1 active torsions:
REMARK  status: ('A' for Active; 'I' for Inactive)
REMARK    1  A    between atoms: C1_2  and  C2_3 
ROOT
ATOM      1  C2  UNL d   1       5.181  -3.856  -4.758  0.00  0.00    -0.077 A 
ATOM      2  C3  UNL d   1       5.914  -4.930  -5.283  0.00  0.00     0.002 A 
ATOM      3  C4  UNL d   1       5.258  -5.998  -5.899  0.00  0.00     0.002 A 
ATOM      4  C5  UNL d   1       3.869  -6.000  -6.000  0.00  0.00    -0.004 A 
ATOM      5  C6  UNL d   1       3.131  -4.938  -5.479  0.00  0.00     0.002 A 
ATOM      6  C7  UNL d   1       3.784  -3.870  -4.861  0.00  0.00     0.002 A 
ENDROOT
BRANCH   1   7
ATOM      7  C1  UNL d   1       5.889  -2.680  -4.137  0.00  0.00     0.055 C 
ATOM      8  C   UNL d   1       5.069  -2.075  -3.006  0.00  0.00     0.019 C 
ENDBRANCH   1   7
TORSDOF 1
ENDMDL
