MODEL 1
REMARK minimizedAffinity 6.15235853
REMARK minimizedRMSD -1
REMARK  1 active torsions:
REMARK  status: ('A' for Active; 'I' for Inactive)
REMARK    1  A    between atoms: C1_2  and  C2_3 
ROOT
ATOM      1  C2  UNL d   1       5.255  -3.833  -4.723  0.00  0.00    -0.077 A 
ATOM      2  C3  UNL d   1       5.964  -4.856  -5.368  0.00  0.00     0.002 A 
ATOM      3  C4  UNL d   1       5.285  -5.933  -5.941  0.00  0.00     0.002 A 
ATOM      4  C5  UNL d   1       3.895  -5.995  -5.879  0.00  0.00    -0.004 A 
ATOM      5  C6  UNL d   1       3.181  -4.983  -5.238  0.00  0.00     0.002 A 
ATOM      6  C7  UNL d   1       3.858  -3.907  -4.663  0.00  0.00     0.002 A 
ENDROOT
BRANCH   1   7
ATOM      7  C1  UNL d   1       5.982  -2.646  -4.147  0.00  0.00     0.055 C 
ATOM      8  C   UNL d   1       5.303  -1.340  -4.534  0.00  0.00     0.019 C 
ENDBRANCH   1   7
TORSDOF 1
ENDMDL
