MODEL 1
REMARK minimizedAffinity 11.7063446
REMARK minimizedRMSD -1
REMARK  1 active torsions:
REMARK  status: ('A' for Active; 'I' for Inactive)
REMARK    1  A    between atoms: C1_2  and  C2_3 
ROOT
ATOM      1  C2  UNL d   1       3.485   1.960   0.160  0.00  0.00    -0.077 A 
ATOM      2  C3  UNL d   1       2.100   1.964  -0.056  0.00  0.00     0.002 A 
ATOM      3  C4  UNL d   1       1.217   2.065   1.021  0.00  0.00     0.002 A 
ATOM      4  C5  UNL d   1       1.710   2.167   2.320  0.00  0.00    -0.004 A 
ATOM      5  C6  UNL d   1       3.086   2.162   2.546  0.00  0.00     0.002 A 
ATOM      6  C7  UNL d   1       3.969   2.060   1.470  0.00  0.00     0.002 A 
ENDROOT
BRANCH   1   7
ATOM      7  C1  UNL d   1       4.439   1.901  -1.004  0.00  0.00     0.055 C 
ATOM      8  C   UNL d   1       5.695   2.717  -0.733  0.00  0.00     0.019 C 
ENDBRANCH   1   7
TORSDOF 1
ENDMDL
