MODEL 1
REMARK minimizedAffinity 14.2963619
REMARK minimizedRMSD -1
REMARK  1 active torsions:
REMARK  status: ('A' for Active; 'I' for Inactive)
REMARK    1  A    between atoms: C1_2  and  C2_3 
ROOT
ATOM      1  C2  UNL d   1      -1.985  -3.427   0.309  0.00  0.00    -0.077 A 
ATOM      2  C3  UNL d   1      -1.633  -3.596  -1.038  0.00  0.00     0.002 A 
ATOM      3  C4  UNL d   1      -1.575  -4.874  -1.597  0.00  0.00     0.002 A 
ATOM      4  C5  UNL d   1      -1.872  -5.991  -0.819  0.00  0.00    -0.004 A 
ATOM      5  C6  UNL d   1      -2.220  -5.833   0.522  0.00  0.00     0.002 A 
ATOM      6  C7  UNL d   1      -2.278  -4.557   1.083  0.00  0.00     0.002 A 
ENDROOT
BRANCH   1   7
ATOM      7  C1  UNL d   1      -2.095  -2.046   0.901  0.00  0.00     0.055 C 
ATOM      8  C   UNL d   1      -1.443  -1.979   2.274  0.00  0.00     0.019 C 
ENDBRANCH   1   7
TORSDOF 1
ENDMDL
