MODEL 1
REMARK minimizedAffinity 4.31686735
REMARK minimizedRMSD -1
REMARK  1 active torsions:
REMARK  status: ('A' for Active; 'I' for Inactive)
REMARK    1  A    between atoms: C1_2  and  C2_3 
ROOT
ATOM      1  C2  UNL d   1       5.185   2.745  -3.606  0.00  0.00    -0.077 A 
ATOM      2  C3  UNL d   1       4.094   1.889  -3.809  0.00  0.00     0.002 A 
ATOM      3  C4  UNL d   1       3.368   1.939  -5.001  0.00  0.00     0.002 A 
ATOM      4  C5  UNL d   1       3.728   2.841  -6.000  0.00  0.00    -0.004 A 
ATOM      5  C6  UNL d   1       4.811   3.698  -5.807  0.00  0.00     0.002 A 
ATOM      6  C7  UNL d   1       5.537   3.650  -4.616  0.00  0.00     0.002 A 
ENDROOT
BRANCH   1   7
ATOM      7  C1  UNL d   1       5.999   2.658  -2.342  0.00  0.00     0.055 C 
ATOM      8  C   UNL d   1       5.152   2.966  -1.116  0.00  0.00     0.019 C 
ENDBRANCH   1   7
TORSDOF 1
ENDMDL
