MODEL 1
REMARK minimizedAffinity 11.4033537
REMARK minimizedRMSD -1
REMARK  1 active torsions:
REMARK  status: ('A' for Active; 'I' for Inactive)
REMARK    1  A    between atoms: C1_2  and  C2_3 
ROOT
ATOM      1  C2  UNL d   1       0.881   1.939   1.535  0.00  0.00    -0.077 A 
ATOM      2  C3  UNL d   1       1.300   1.928   0.197  0.00  0.00     0.002 A 
ATOM      3  C4  UNL d   1       2.626   1.630  -0.125  0.00  0.00     0.002 A 
ATOM      4  C5  UNL d   1       3.541   1.337   0.884  0.00  0.00    -0.004 A 
ATOM      5  C6  UNL d   1       3.134   1.348   2.217  0.00  0.00     0.002 A 
ATOM      6  C7  UNL d   1       1.810   1.646   2.541  0.00  0.00     0.002 A 
ENDROOT
BRANCH   1   7
ATOM      7  C1  UNL d   1      -0.559   2.212   1.882  0.00  0.00     0.055 C 
ATOM      8  C   UNL d   1      -0.958   1.518   3.176  0.00  0.00     0.019 C 
ENDBRANCH   1   7
TORSDOF 1
ENDMDL
