MODEL 1
REMARK minimizedAffinity -0.461665064
REMARK minimizedRMSD -1
REMARK  1 active torsions:
REMARK  status: ('A' for Active; 'I' for Inactive)
REMARK    1  A    between atoms: C1_2  and  C2_3 
ROOT
ATOM      1  C2  UNL d   1      -0.005   0.370   1.031  0.00  0.00    -0.077 A 
ATOM      2  C3  UNL d   1       1.292   0.336   0.502  0.00  0.00     0.002 A 
ATOM      3  C4  UNL d   1       2.189   1.373   0.763  0.00  0.00     0.002 A 
ATOM      4  C5  UNL d   1       1.800   2.449   1.558  0.00  0.00    -0.004 A 
ATOM      5  C6  UNL d   1       0.511   2.493   2.088  0.00  0.00     0.002 A 
ATOM      6  C7  UNL d   1      -0.387   1.458   1.826  0.00  0.00     0.002 A 
ENDROOT
BRANCH   1   7
ATOM      7  C1  UNL d   1      -0.958  -0.772   0.791  0.00  0.00     0.055 C 
ATOM      8  C   UNL d   1      -2.406  -0.322   0.924  0.00  0.00     0.019 C 
ENDBRANCH   1   7
TORSDOF 1
ENDMDL
