MODEL 1
REMARK minimizedAffinity -2.63444018
REMARK minimizedRMSD -1
REMARK  0 active torsions:
REMARK  status: ('A' for Active; 'I' for Inactive)
ROOT
ATOM      1  C   UNL d   1       0.558   0.285  -0.111  0.00  0.00     0.078 C 
ATOM      2  C1  UNL d   1      -0.315   0.941  -1.139  0.00  0.00    -0.077 A 
ATOM      3  C2  UNL d   1      -0.438   2.335  -1.198  0.00  0.00    -0.001 A 
ATOM      4  C3  UNL d   1      -1.261   2.931  -2.154  0.00  0.00     0.003 A 
ATOM      5  C4  UNL d   1      -1.969   2.141  -3.058  0.00  0.00    -0.005 A 
ATOM      6  C5  UNL d   1      -1.854   0.754  -3.007  0.00  0.00     0.003 A 
ATOM      7  C6  UNL d   1      -1.031   0.156  -2.051  0.00  0.00    -0.001 A 
ENDROOT
TORSDOF 0
ENDMDL
