MODEL 1
REMARK minimizedAffinity 0.321128845
REMARK minimizedRMSD -1
REMARK  0 active torsions:
REMARK  status: ('A' for Active; 'I' for Inactive)
ROOT
ATOM      1  C   UNL d   1       0.372   1.043   0.201  0.00  0.00     0.078 C 
ATOM      2  C1  UNL d   1      -0.741   1.034  -0.804  0.00  0.00    -0.077 A 
ATOM      3  C2  UNL d   1      -0.770   1.958  -1.856  0.00  0.00    -0.001 A 
ATOM      4  C3  UNL d   1      -1.817   1.944  -2.778  0.00  0.00     0.003 A 
ATOM      5  C4  UNL d   1      -2.844   1.010  -2.658  0.00  0.00    -0.005 A 
ATOM      6  C5  UNL d   1      -2.824   0.088  -1.613  0.00  0.00     0.003 A 
ATOM      7  C6  UNL d   1      -1.778   0.100  -0.689  0.00  0.00    -0.001 A 
ENDROOT
TORSDOF 0
ENDMDL
