MODEL 1
REMARK minimizedAffinity -1.14327705
REMARK minimizedRMSD -1
REMARK  0 active torsions:
REMARK  status: ('A' for Active; 'I' for Inactive)
ROOT
ATOM      1  C   UNL d   1       1.747  -0.904  -0.068  0.00  0.00     0.078 C 
ATOM      2  C1  UNL d   1       0.728  -1.096   1.015  0.00  0.00    -0.077 A 
ATOM      3  C2  UNL d   1       1.011  -1.877   2.142  0.00  0.00    -0.001 A 
ATOM      4  C3  UNL d   1       0.050  -2.055   3.137  0.00  0.00     0.003 A 
ATOM      5  C4  UNL d   1      -1.203  -1.456   3.016  0.00  0.00    -0.005 A 
ATOM      6  C5  UNL d   1      -1.495  -0.678   1.897  0.00  0.00     0.003 A 
ATOM      7  C6  UNL d   1      -0.534  -0.499   0.900  0.00  0.00    -0.001 A 
ENDROOT
TORSDOF 0
ENDMDL
