MODEL 1
REMARK minimizedAffinity -5.39974499
REMARK minimizedRMSD -1
REMARK  0 active torsions:
REMARK  status: ('A' for Active; 'I' for Inactive)
ROOT
ATOM      1  C   UNL d   1       1.068  -2.698   1.359  0.00  0.00     0.078 C 
ATOM      2  C1  UNL d   1       0.411  -1.398   1.005  0.00  0.00    -0.077 A 
ATOM      3  C2  UNL d   1       0.938  -0.572   0.003  0.00  0.00    -0.001 A 
ATOM      4  C3  UNL d   1       0.321   0.640  -0.309  0.00  0.00     0.003 A 
ATOM      5  C4  UNL d   1      -0.825   1.039   0.376  0.00  0.00    -0.005 A 
ATOM      6  C5  UNL d   1      -1.355   0.226   1.376  0.00  0.00     0.003 A 
ATOM      7  C6  UNL d   1      -0.739  -0.987   1.689  0.00  0.00    -0.001 A 
ENDROOT
TORSDOF 0
ENDMDL
