MODEL 1
REMARK minimizedAffinity -1.51536441
REMARK minimizedRMSD -1
REMARK  0 active torsions:
REMARK  status: ('A' for Active; 'I' for Inactive)
ROOT
ATOM      1  C   UNL d   1      -1.616   0.806   1.914  0.00  0.00     0.078 C 
ATOM      2  C1  UNL d   1      -2.006  -0.063   0.756  0.00  0.00    -0.077 A 
ATOM      3  C2  UNL d   1      -2.815   0.429  -0.275  0.00  0.00    -0.001 A 
ATOM      4  C3  UNL d   1      -3.179  -0.394  -1.342  0.00  0.00     0.003 A 
ATOM      5  C4  UNL d   1      -2.738  -1.715  -1.388  0.00  0.00    -0.005 A 
ATOM      6  C5  UNL d   1      -1.934  -2.215  -0.365  0.00  0.00     0.003 A 
ATOM      7  C6  UNL d   1      -1.570  -1.393   0.703  0.00  0.00    -0.001 A 
ENDROOT
TORSDOF 0
ENDMDL
