MODEL 1
REMARK minimizedAffinity -2.2358923
REMARK minimizedRMSD -1
REMARK  0 active torsions:
REMARK  status: ('A' for Active; 'I' for Inactive)
ROOT
ATOM      1  C   UNL d   1       1.140  -3.762   1.219  0.00  0.00     0.078 C 
ATOM      2  C1  UNL d   1       1.542  -2.487   0.540  0.00  0.00    -0.077 A 
ATOM      3  C2  UNL d   1       1.325  -1.246   1.150  0.00  0.00    -0.001 A 
ATOM      4  C3  UNL d   1       1.696  -0.066   0.502  0.00  0.00     0.003 A 
ATOM      5  C4  UNL d   1       2.284  -0.117  -0.760  0.00  0.00    -0.005 A 
ATOM      6  C5  UNL d   1       2.502  -1.347  -1.376  0.00  0.00     0.003 A 
ATOM      7  C6  UNL d   1       2.132  -2.528  -0.730  0.00  0.00    -0.001 A 
ENDROOT
TORSDOF 0
ENDMDL
