MODEL 1
REMARK minimizedAffinity 2.31382251
REMARK minimizedRMSD -1
REMARK  0 active torsions:
REMARK  status: ('A' for Active; 'I' for Inactive)
ROOT
ATOM      1  C   UNL d   1      -2.511  -2.565  -1.494  0.00  0.00     0.078 C 
ATOM      2  C1  UNL d   1      -2.550  -1.473  -0.467  0.00  0.00    -0.077 A 
ATOM      3  C2  UNL d   1      -2.831  -0.151  -0.830  0.00  0.00    -0.001 A 
ATOM      4  C3  UNL d   1      -2.855   0.857   0.135  0.00  0.00     0.003 A 
ATOM      5  C4  UNL d   1      -2.597   0.553   1.470  0.00  0.00    -0.005 A 
ATOM      6  C5  UNL d   1      -2.315  -0.760   1.841  0.00  0.00     0.003 A 
ATOM      7  C6  UNL d   1      -2.291  -1.769   0.877  0.00  0.00    -0.001 A 
ENDROOT
TORSDOF 0
ENDMDL
