MODEL 1
REMARK minimizedAffinity 2.59217811
REMARK minimizedRMSD -1
REMARK  0 active torsions:
REMARK  status: ('A' for Active; 'I' for Inactive)
ROOT
ATOM      1  C   UNL d   1      -0.477  -1.903   2.521  0.00  0.00     0.078 C 
ATOM      2  C1  UNL d   1      -1.181  -1.582   1.236  0.00  0.00    -0.077 A 
ATOM      3  C2  UNL d   1      -1.590  -2.598   0.364  0.00  0.00    -0.001 A 
ATOM      4  C3  UNL d   1      -2.236  -2.284  -0.833  0.00  0.00     0.003 A 
ATOM      5  C4  UNL d   1      -2.477  -0.954  -1.170  0.00  0.00    -0.005 A 
ATOM      6  C5  UNL d   1      -2.072   0.065  -0.309  0.00  0.00     0.003 A 
ATOM      7  C6  UNL d   1      -1.426  -0.248   0.888  0.00  0.00    -0.001 A 
ENDROOT
TORSDOF 0
ENDMDL
