MODEL 1
REMARK minimizedAffinity 2.03638458
REMARK minimizedRMSD -1
REMARK  0 active torsions:
REMARK  status: ('A' for Active; 'I' for Inactive)
ROOT
ATOM      1  C   UNL d   1       3.416   0.862  -2.003  0.00  0.00     0.078 C 
ATOM      2  C1  UNL d   1       2.916  -0.144  -1.009  0.00  0.00    -0.077 A 
ATOM      3  C2  UNL d   1       3.098  -1.517  -1.219  0.00  0.00    -0.001 A 
ATOM      4  C3  UNL d   1       2.619  -2.442  -0.291  0.00  0.00     0.003 A 
ATOM      5  C4  UNL d   1       1.954  -2.005   0.854  0.00  0.00    -0.005 A 
ATOM      6  C5  UNL d   1       1.767  -0.642   1.070  0.00  0.00     0.003 A 
ATOM      7  C6  UNL d   1       2.245   0.285   0.142  0.00  0.00    -0.001 A 
ENDROOT
TORSDOF 0
ENDMDL
