MODEL 1
REMARK minimizedAffinity 4.70010853
REMARK minimizedRMSD -1
REMARK  0 active torsions:
REMARK  status: ('A' for Active; 'I' for Inactive)
ROOT
ATOM      1  C   UNL d   1      -2.717   1.149   0.759  0.00  0.00     0.078 C 
ATOM      2  C1  UNL d   1      -2.774   1.486  -0.701  0.00  0.00    -0.077 A 
ATOM      3  C2  UNL d   1      -3.887   1.144  -1.478  0.00  0.00    -0.001 A 
ATOM      4  C3  UNL d   1      -3.922   1.456  -2.838  0.00  0.00     0.003 A 
ATOM      5  C4  UNL d   1      -2.845   2.110  -3.434  0.00  0.00    -0.005 A 
ATOM      6  C5  UNL d   1      -1.731   2.452  -2.669  0.00  0.00     0.003 A 
ATOM      7  C6  UNL d   1      -1.695   2.141  -1.309  0.00  0.00    -0.001 A 
ENDROOT
TORSDOF 0
ENDMDL
