MODEL 1
REMARK minimizedAffinity -0.293418527
REMARK minimizedRMSD -1
REMARK  0 active torsions:
REMARK  status: ('A' for Active; 'I' for Inactive)
ROOT
ATOM      1  C   UNL d   1       3.672   0.559  -2.435  0.00  0.00     0.078 C 
ATOM      2  C1  UNL d   1       3.049  -0.130  -1.258  0.00  0.00    -0.077 A 
ATOM      3  C2  UNL d   1       2.489   0.606  -0.206  0.00  0.00    -0.001 A 
ATOM      4  C3  UNL d   1       1.921  -0.048   0.888  0.00  0.00     0.003 A 
ATOM      5  C4  UNL d   1       1.907  -1.440   0.941  0.00  0.00    -0.005 A 
ATOM      6  C5  UNL d   1       2.463  -2.181  -0.100  0.00  0.00     0.003 A 
ATOM      7  C6  UNL d   1       3.032  -1.529  -1.195  0.00  0.00    -0.001 A 
ENDROOT
TORSDOF 0
ENDMDL
