MODEL 1
REMARK minimizedAffinity 0.856229007
REMARK minimizedRMSD -1
REMARK  0 active torsions:
REMARK  status: ('A' for Active; 'I' for Inactive)
ROOT
ATOM      1  C   UNL d   1      -3.033   1.085  -2.277  0.00  0.00     0.078 C 
ATOM      2  C1  UNL d   1      -2.974   0.947  -0.785  0.00  0.00    -0.077 A 
ATOM      3  C2  UNL d   1      -4.138   1.010  -0.008  0.00  0.00    -0.001 A 
ATOM      4  C3  UNL d   1      -4.067   0.889   1.380  0.00  0.00     0.003 A 
ATOM      5  C4  UNL d   1      -2.835   0.706   2.005  0.00  0.00    -0.005 A 
ATOM      6  C5  UNL d   1      -1.672   0.644   1.241  0.00  0.00     0.003 A 
ATOM      7  C6  UNL d   1      -1.740   0.765  -0.148  0.00  0.00    -0.001 A 
ENDROOT
TORSDOF 0
ENDMDL
