MODEL 1
REMARK minimizedAffinity 5.18026924
REMARK minimizedRMSD -1
REMARK  0 active torsions:
REMARK  status: ('A' for Active; 'I' for Inactive)
ROOT
ATOM      1  C   UNL d   1       2.257  -1.908   1.303  0.00  0.00     0.078 C 
ATOM      2  C1  UNL d   1       0.885  -1.828   1.903  0.00  0.00    -0.077 A 
ATOM      3  C2  UNL d   1      -0.252  -1.718   1.093  0.00  0.00    -0.001 A 
ATOM      4  C3  UNL d   1      -1.522  -1.635   1.666  0.00  0.00     0.003 A 
ATOM      5  C4  UNL d   1      -1.667  -1.659   3.051  0.00  0.00    -0.005 A 
ATOM      6  C5  UNL d   1      -0.542  -1.765   3.866  0.00  0.00     0.003 A 
ATOM      7  C6  UNL d   1       0.729  -1.849   3.295  0.00  0.00    -0.001 A 
ENDROOT
TORSDOF 0
ENDMDL
