MODEL 1
REMARK minimizedAffinity 7.14075136
REMARK minimizedRMSD -1
REMARK  0 active torsions:
REMARK  status: ('A' for Active; 'I' for Inactive)
ROOT
ATOM      1  C   UNL d   1      -3.834   0.721  -0.407  0.00  0.00     0.078 C 
ATOM      2  C1  UNL d   1      -3.368   1.403  -1.659  0.00  0.00    -0.077 A 
ATOM      3  C2  UNL d   1      -4.190   1.474  -2.790  0.00  0.00    -0.001 A 
ATOM      4  C3  UNL d   1      -3.740   2.104  -3.951  0.00  0.00     0.003 A 
ATOM      5  C4  UNL d   1      -2.466   2.668  -3.992  0.00  0.00    -0.005 A 
ATOM      6  C5  UNL d   1      -1.641   2.601  -2.872  0.00  0.00     0.003 A 
ATOM      7  C6  UNL d   1      -2.089   1.971  -1.710  0.00  0.00    -0.001 A 
ENDROOT
TORSDOF 0
ENDMDL
