MODEL 1
REMARK minimizedAffinity 0.295655221
REMARK minimizedRMSD -1
REMARK  0 active torsions:
REMARK  status: ('A' for Active; 'I' for Inactive)
ROOT
ATOM      1  C   UNL d   1       3.586  -0.341  -1.768  0.00  0.00     0.078 C 
ATOM      2  C1  UNL d   1       2.881  -1.215  -0.774  0.00  0.00    -0.077 A 
ATOM      3  C2  UNL d   1       2.858  -0.886   0.587  0.00  0.00    -0.001 A 
ATOM      4  C3  UNL d   1       2.206  -1.714   1.503  0.00  0.00     0.003 A 
ATOM      5  C4  UNL d   1       1.573  -2.876   1.067  0.00  0.00    -0.005 A 
ATOM      6  C5  UNL d   1       1.593  -3.213  -0.284  0.00  0.00     0.003 A 
ATOM      7  C6  UNL d   1       2.244  -2.386  -1.201  0.00  0.00    -0.001 A 
ENDROOT
TORSDOF 0
ENDMDL
