MODEL 1
REMARK minimizedAffinity -0.110405445
REMARK minimizedRMSD -1
REMARK  0 active torsions:
REMARK  status: ('A' for Active; 'I' for Inactive)
ROOT
ATOM      1  C   UNL d   1       3.496  -0.112  -1.806  0.00  0.00     0.078 C 
ATOM      2  C1  UNL d   1       2.474  -0.390  -0.744  0.00  0.00    -0.077 A 
ATOM      3  C2  UNL d   1       2.347  -1.667  -0.183  0.00  0.00    -0.001 A 
ATOM      4  C3  UNL d   1       1.384  -1.914   0.797  0.00  0.00     0.003 A 
ATOM      5  C4  UNL d   1       0.541  -0.890   1.224  0.00  0.00    -0.005 A 
ATOM      6  C5  UNL d   1       0.659   0.383   0.669  0.00  0.00     0.003 A 
ATOM      7  C6  UNL d   1       1.621   0.632  -0.311  0.00  0.00    -0.001 A 
ENDROOT
TORSDOF 0
ENDMDL
