MODEL 1
REMARK minimizedAffinity -5.98219442
REMARK minimizedRMSD -1
REMARK  0 active torsions:
REMARK  status: ('A' for Active; 'I' for Inactive)
ROOT
ATOM      1  C   UNL d   1       0.389  -0.297  -1.375  0.00  0.00     0.077 C 
ATOM      2  C1  UNL d   1      -0.200  -0.230   0.003  0.00  0.00    -0.074 A 
ATOM      3  C2  UNL d   1       0.561  -0.567   1.127  0.00  0.00    -0.005 A 
ATOM      4  C3  UNL d   1       0.003  -0.491   2.403  0.00  0.00     0.006 A 
ATOM      5  C4  UNL d   1      -1.320  -0.078   2.568  0.00  0.00    -0.005 A 
ATOM      6  C5  UNL d   1      -2.096   0.264   1.456  0.00  0.00    -0.074 A 
ATOM      7  C6  UNL d   1      -3.516   0.719   1.616  0.00  0.00     0.077 C 
ATOM      8  C7  UNL d   1      -1.526   0.192   0.177  0.00  0.00    -0.001 A 
ENDROOT
TORSDOF 0
ENDMDL
