MODEL 1
REMARK minimizedAffinity -3.44538951
REMARK minimizedRMSD -1
REMARK  0 active torsions:
REMARK  status: ('A' for Active; 'I' for Inactive)
ROOT
ATOM      1  C   UNL d   1      -0.007   0.362  -1.483  0.00  0.00     0.077 C 
ATOM      2  C1  UNL d   1       0.184   0.436   0.003  0.00  0.00    -0.074 A 
ATOM      3  C2  UNL d   1       1.456   0.614   0.556  0.00  0.00    -0.005 A 
ATOM      4  C3  UNL d   1       1.617   0.691   1.940  0.00  0.00     0.006 A 
ATOM      5  C4  UNL d   1       0.509   0.591   2.782  0.00  0.00    -0.005 A 
ATOM      6  C5  UNL d   1      -0.771   0.413   2.247  0.00  0.00    -0.074 A 
ATOM      7  C6  UNL d   1      -1.973   0.313   3.139  0.00  0.00     0.077 C 
ATOM      8  C7  UNL d   1      -0.925   0.344   0.856  0.00  0.00    -0.001 A 
ENDROOT
TORSDOF 0
ENDMDL
