MODEL 1
REMARK minimizedAffinity -5.44119549
REMARK minimizedRMSD -1
REMARK  0 active torsions:
REMARK  status: ('A' for Active; 'I' for Inactive)
ROOT
ATOM      1  C   UNL d   1       0.368  -0.698  -0.769  0.00  0.00     0.077 C 
ATOM      2  C1  UNL d   1      -0.090  -0.656   0.659  0.00  0.00    -0.074 A 
ATOM      3  C2  UNL d   1       0.647  -1.284   1.668  0.00  0.00    -0.005 A 
ATOM      4  C3  UNL d   1       0.213  -1.229   2.993  0.00  0.00     0.006 A 
ATOM      5  C4  UNL d   1      -0.959  -0.546   3.321  0.00  0.00    -0.005 A 
ATOM      6  C5  UNL d   1      -1.708   0.088   2.325  0.00  0.00    -0.074 A 
ATOM      7  C6  UNL d   1      -2.965   0.834   2.661  0.00  0.00     0.077 C 
ATOM      8  C7  UNL d   1      -1.262   0.034   0.997  0.00  0.00    -0.001 A 
ENDROOT
TORSDOF 0
ENDMDL
