MODEL 1
REMARK minimizedAffinity -4.16321659
REMARK minimizedRMSD -1
REMARK  0 active torsions:
REMARK  status: ('A' for Active; 'I' for Inactive)
ROOT
ATOM      1  C   UNL d   1      -2.463   0.261   2.233  0.00  0.00     0.077 C 
ATOM      2  C1  UNL d   1      -1.025   0.234   1.808  0.00  0.00    -0.074 A 
ATOM      3  C2  UNL d   1      -0.008  -0.022   2.733  0.00  0.00    -0.005 A 
ATOM      4  C3  UNL d   1       1.325  -0.054   2.322  0.00  0.00     0.006 A 
ATOM      5  C4  UNL d   1       1.653   0.171   0.984  0.00  0.00    -0.005 A 
ATOM      6  C5  UNL d   1       0.649   0.428   0.045  0.00  0.00    -0.074 A 
ATOM      7  C6  UNL d   1       0.983   0.662  -1.398  0.00  0.00     0.077 C 
ATOM      8  C7  UNL d   1      -0.688   0.451   0.465  0.00  0.00    -0.001 A 
ENDROOT
TORSDOF 0
ENDMDL
