MODEL 1
REMARK minimizedAffinity -5.98777962
REMARK minimizedRMSD -1
REMARK  0 active torsions:
REMARK  status: ('A' for Active; 'I' for Inactive)
ROOT
ATOM      1  C   UNL d   1      -3.459   0.495   1.495  0.00  0.00     0.077 C 
ATOM      2  C1  UNL d   1      -1.978   0.269   1.563  0.00  0.00    -0.074 A 
ATOM      3  C2  UNL d   1      -1.352  -0.037   2.776  0.00  0.00    -0.005 A 
ATOM      4  C3  UNL d   1       0.025  -0.253   2.823  0.00  0.00     0.006 A 
ATOM      5  C4  UNL d   1       0.789  -0.167   1.658  0.00  0.00    -0.005 A 
ATOM      6  C5  UNL d   1       0.181   0.136   0.436  0.00  0.00    -0.074 A 
ATOM      7  C6  UNL d   1       0.987   0.223  -0.826  0.00  0.00     0.077 C 
ATOM      8  C7  UNL d   1      -1.204   0.346   0.397  0.00  0.00    -0.001 A 
ENDROOT
TORSDOF 0
ENDMDL
