MODEL 1
REMARK minimizedAffinity -6.04619455
REMARK minimizedRMSD -1
REMARK  0 active torsions:
REMARK  status: ('A' for Active; 'I' for Inactive)
ROOT
ATOM      1  C   UNL d   1      -3.687   0.385   1.532  0.00  0.00     0.077 C 
ATOM      2  C1  UNL d   1      -2.200   0.191   1.526  0.00  0.00    -0.074 A 
ATOM      3  C2  UNL d   1      -1.491   0.031   2.721  0.00  0.00    -0.005 A 
ATOM      4  C3  UNL d   1      -0.110  -0.158   2.700  0.00  0.00     0.006 A 
ATOM      5  C4  UNL d   1       0.577  -0.190   1.485  0.00  0.00    -0.005 A 
ATOM      6  C5  UNL d   1      -0.115  -0.032   0.280  0.00  0.00    -0.074 A 
ATOM      7  C6  UNL d   1       0.605  -0.073  -1.035  0.00  0.00     0.077 C 
ATOM      8  C7  UNL d   1      -1.505   0.151   0.309  0.00  0.00    -0.001 A 
ENDROOT
TORSDOF 0
ENDMDL
