MODEL 1
REMARK minimizedAffinity -1.82195616
REMARK minimizedRMSD -1
REMARK  0 active torsions:
REMARK  status: ('A' for Active; 'I' for Inactive)
ROOT
ATOM      1  C   UNL d   1      -1.927   0.159   2.598  0.00  0.00     0.077 C 
ATOM      2  C1  UNL d   1      -0.601   0.240   1.901  0.00  0.00    -0.074 A 
ATOM      3  C2  UNL d   1       0.560   0.579   2.603  0.00  0.00    -0.005 A 
ATOM      4  C3  UNL d   1       1.788   0.640   1.944  0.00  0.00     0.006 A 
ATOM      5  C4  UNL d   1       1.866   0.365   0.578  0.00  0.00    -0.005 A 
ATOM      6  C5  UNL d   1       0.716   0.024  -0.140  0.00  0.00    -0.074 A 
ATOM      7  C6  UNL d   1       0.784  -0.285  -1.607  0.00  0.00     0.077 C 
ATOM      8  C7  UNL d   1      -0.513  -0.043   0.531  0.00  0.00    -0.001 A 
ENDROOT
TORSDOF 0
ENDMDL
