MODEL 1
REMARK minimizedAffinity -5.56563091
REMARK minimizedRMSD -1
REMARK  0 active torsions:
REMARK  status: ('A' for Active; 'I' for Inactive)
ROOT
ATOM      1  C   UNL d   1       2.780   0.671   2.235  0.00  0.00     0.077 C 
ATOM      2  C1  UNL d   1       1.402   0.205   1.873  0.00  0.00    -0.074 A 
ATOM      3  C2  UNL d   1       0.798  -0.854   2.558  0.00  0.00    -0.005 A 
ATOM      4  C3  UNL d   1      -0.489  -1.270   2.217  0.00  0.00     0.006 A 
ATOM      5  C4  UNL d   1      -1.184  -0.632   1.188  0.00  0.00    -0.005 A 
ATOM      6  C5  UNL d   1      -0.597   0.429   0.493  0.00  0.00    -0.074 A 
ATOM      7  C6  UNL d   1      -1.333   1.132  -0.609  0.00  0.00     0.077 C 
ATOM      8  C7  UNL d   1       0.694   0.846   0.846  0.00  0.00    -0.001 A 
ENDROOT
TORSDOF 0
ENDMDL
