MODEL 1
REMARK minimizedAffinity 0.984022081
REMARK minimizedRMSD -1
REMARK  0 active torsions:
REMARK  status: ('A' for Active; 'I' for Inactive)
ROOT
ATOM      1  C   UNL d   1      -3.450   0.631  -0.814  0.00  0.00     0.077 C 
ATOM      2  C1  UNL d   1      -1.990   0.332  -0.976  0.00  0.00    -0.074 A 
ATOM      3  C2  UNL d   1      -1.518  -0.361  -2.096  0.00  0.00    -0.005 A 
ATOM      4  C3  UNL d   1      -0.156  -0.624  -2.239  0.00  0.00     0.006 A 
ATOM      5  C4  UNL d   1       0.748  -0.197  -1.265  0.00  0.00    -0.005 A 
ATOM      6  C5  UNL d   1       0.295   0.498  -0.139  0.00  0.00    -0.074 A 
ATOM      7  C6  UNL d   1       1.253   0.973   0.913  0.00  0.00     0.077 C 
ATOM      8  C7  UNL d   1      -1.075   0.764  -0.006  0.00  0.00    -0.001 A 
ENDROOT
TORSDOF 0
ENDMDL
