MODEL 1
REMARK minimizedAffinity -3.9174428
REMARK minimizedRMSD -1
REMARK  0 active torsions:
REMARK  status: ('A' for Active; 'I' for Inactive)
ROOT
ATOM      1  C   UNL d   1       0.375  -0.274  -1.262  0.00  0.00     0.077 C 
ATOM      2  C1  UNL d   1       0.392   0.136   0.181  0.00  0.00    -0.074 A 
ATOM      3  C2  UNL d   1       1.243   1.150   0.630  0.00  0.00    -0.005 A 
ATOM      4  C3  UNL d   1       1.241   1.528   1.973  0.00  0.00     0.006 A 
ATOM      5  C4  UNL d   1       0.388   0.895   2.879  0.00  0.00    -0.005 A 
ATOM      6  C5  UNL d   1      -0.471  -0.120   2.448  0.00  0.00    -0.074 A 
ATOM      7  C6  UNL d   1      -1.401  -0.803   3.406  0.00  0.00     0.077 C 
ATOM      8  C7  UNL d   1      -0.468  -0.489   1.096  0.00  0.00    -0.001 A 
ENDROOT
TORSDOF 0
ENDMDL
