MODEL 1
REMARK minimizedAffinity -4.67964172
REMARK minimizedRMSD -1
REMARK  0 active torsions:
REMARK  status: ('A' for Active; 'I' for Inactive)
ROOT
ATOM      1  C   UNL d   1      -2.767  -1.140   2.286  0.00  0.00     0.077 C 
ATOM      2  C1  UNL d   1      -1.426  -0.537   1.988  0.00  0.00    -0.074 A 
ATOM      3  C2  UNL d   1      -0.537  -0.216   3.019  0.00  0.00    -0.005 A 
ATOM      4  C3  UNL d   1       0.710   0.336   2.725  0.00  0.00     0.006 A 
ATOM      5  C4  UNL d   1       1.080   0.572   1.401  0.00  0.00    -0.005 A 
ATOM      6  C5  UNL d   1       0.205   0.256   0.357  0.00  0.00    -0.074 A 
ATOM      7  C6  UNL d   1       0.591   0.494  -1.073  0.00  0.00     0.077 C 
ATOM      8  C7  UNL d   1      -1.044  -0.304   0.659  0.00  0.00    -0.001 A 
ENDROOT
TORSDOF 0
ENDMDL
