MODEL 1
REMARK minimizedAffinity -5.38878679
REMARK minimizedRMSD -1
REMARK  0 active torsions:
REMARK  status: ('A' for Active; 'I' for Inactive)
ROOT
ATOM      1  C   UNL d   1       2.899   1.689   0.798  0.00  0.00     0.077 C 
ATOM      2  C1  UNL d   1       1.519   1.102   0.802  0.00  0.00    -0.074 A 
ATOM      3  C2  UNL d   1       0.728   1.117  -0.351  0.00  0.00    -0.005 A 
ATOM      4  C3  UNL d   1      -0.551   0.559  -0.335  0.00  0.00     0.006 A 
ATOM      5  C4  UNL d   1      -1.050  -0.019   0.833  0.00  0.00    -0.005 A 
ATOM      6  C5  UNL d   1      -0.274  -0.044   1.995  0.00  0.00    -0.074 A 
ATOM      7  C6  UNL d   1      -0.792  -0.670   3.256  0.00  0.00     0.077 C 
ATOM      8  C7  UNL d   1       1.013   0.513   1.969  0.00  0.00    -0.001 A 
ENDROOT
TORSDOF 0
ENDMDL
