MODEL 1
REMARK minimizedAffinity 7.41781378
REMARK minimizedRMSD -1
REMARK  0 active torsions:
REMARK  status: ('A' for Active; 'I' for Inactive)
ROOT
ATOM      1  C   UNL d   1       0.818   0.343  -1.292  0.00  0.00     0.077 C 
ATOM      2  C1  UNL d   1       0.811   0.780   0.143  0.00  0.00    -0.074 A 
ATOM      3  C2  UNL d   1       2.008   0.988   0.837  0.00  0.00    -0.005 A 
ATOM      4  C3  UNL d   1       1.986   1.404   2.168  0.00  0.00     0.006 A 
ATOM      5  C4  UNL d   1       0.769   1.615   2.818  0.00  0.00    -0.005 A 
ATOM      6  C5  UNL d   1      -0.437   1.413   2.140  0.00  0.00    -0.074 A 
ATOM      7  C6  UNL d   1      -1.754   1.644   2.821  0.00  0.00     0.077 C 
ATOM      8  C7  UNL d   1      -0.407   1.002   0.801  0.00  0.00    -0.001 A 
ENDROOT
TORSDOF 0
ENDMDL
