MODEL 1
REMARK minimizedAffinity -4.50169992
REMARK minimizedRMSD -1
REMARK  0 active torsions:
REMARK  status: ('A' for Active; 'I' for Inactive)
ROOT
ATOM      1  C   UNL d   1       0.690  -0.518   0.316  0.00  0.00     0.078 C 
ATOM      2  C1  UNL d   1      -0.557   0.313   0.378  0.00  0.00    -0.077 A 
ATOM      3  C2  UNL d   1      -0.928   1.137  -0.691  0.00  0.00    -0.001 A 
ATOM      4  C3  UNL d   1      -2.086   1.913  -0.615  0.00  0.00     0.003 A 
ATOM      5  C4  UNL d   1      -2.882   1.872   0.529  0.00  0.00    -0.005 A 
ATOM      6  C5  UNL d   1      -2.519   1.057   1.598  0.00  0.00     0.003 A 
ATOM      7  C6  UNL d   1      -1.361   0.281   1.524  0.00  0.00    -0.001 A 
ENDROOT
TORSDOF 0
ENDMDL
