MODEL 1
REMARK minimizedAffinity -0.398159236
REMARK minimizedRMSD -1
REMARK  0 active torsions:
REMARK  status: ('A' for Active; 'I' for Inactive)
ROOT
ATOM      1  C   UNL d   1       1.794  -2.322  -0.319  0.00  0.00     0.078 C 
ATOM      2  C1  UNL d   1       0.962  -1.079  -0.210  0.00  0.00    -0.077 A 
ATOM      3  C2  UNL d   1      -0.279  -0.983  -0.850  0.00  0.00    -0.001 A 
ATOM      4  C3  UNL d   1      -1.038   0.184  -0.748  0.00  0.00     0.003 A 
ATOM      5  C4  UNL d   1      -0.563   1.265  -0.008  0.00  0.00    -0.005 A 
ATOM      6  C5  UNL d   1       0.672   1.180   0.630  0.00  0.00     0.003 A 
ATOM      7  C6  UNL d   1       1.432   0.014   0.529  0.00  0.00    -0.001 A 
ENDROOT
TORSDOF 0
ENDMDL
