MODEL 1
REMARK minimizedAffinity -3.10854721
REMARK minimizedRMSD -1
REMARK  0 active torsions:
REMARK  status: ('A' for Active; 'I' for Inactive)
ROOT
ATOM      1  C   UNL d   1      -0.019   0.925  -0.084  0.00  0.00     0.078 C 
ATOM      2  C1  UNL d   1      -1.406   1.156   0.438  0.00  0.00    -0.077 A 
ATOM      3  C2  UNL d   1      -1.627   1.940   1.577  0.00  0.00    -0.001 A 
ATOM      4  C3  UNL d   1      -2.922   2.139   2.056  0.00  0.00     0.003 A 
ATOM      5  C4  UNL d   1      -4.007   1.556   1.404  0.00  0.00    -0.005 A 
ATOM      6  C5  UNL d   1      -3.797   0.772   0.271  0.00  0.00     0.003 A 
ATOM      7  C6  UNL d   1      -2.502   0.572  -0.210  0.00  0.00    -0.001 A 
ENDROOT
TORSDOF 0
ENDMDL
