MODEL 1
REMARK minimizedAffinity -5.65311575
REMARK minimizedRMSD -1
REMARK  0 active torsions:
REMARK  status: ('A' for Active; 'I' for Inactive)
ROOT
ATOM      1  C   UNL d   1      -0.315   0.596  -0.756  0.00  0.00     0.078 C 
ATOM      2  C1  UNL d   1       1.022   0.165  -0.230  0.00  0.00    -0.077 A 
ATOM      3  C2  UNL d   1       1.999   1.107   0.113  0.00  0.00    -0.001 A 
ATOM      4  C3  UNL d   1       3.243   0.692   0.592  0.00  0.00     0.003 A 
ATOM      5  C4  UNL d   1       3.521  -0.667   0.731  0.00  0.00    -0.005 A 
ATOM      6  C5  UNL d   1       2.555  -1.611   0.389  0.00  0.00     0.003 A 
ATOM      7  C6  UNL d   1       1.311  -1.198  -0.090  0.00  0.00    -0.001 A 
ENDROOT
TORSDOF 0
ENDMDL
