MODEL 1
REMARK minimizedAffinity -5.67120171
REMARK minimizedRMSD -1
REMARK  0 active torsions:
REMARK  status: ('A' for Active; 'I' for Inactive)
ROOT
ATOM      1  C   UNL d   1      -0.854   0.329  -0.369  0.00  0.00     0.078 C 
ATOM      2  C1  UNL d   1       0.605   0.279  -0.028  0.00  0.00    -0.077 A 
ATOM      3  C2  UNL d   1       1.416   1.414  -0.157  0.00  0.00    -0.001 A 
ATOM      4  C3  UNL d   1       2.774   1.351   0.155  0.00  0.00     0.003 A 
ATOM      5  C4  UNL d   1       3.335   0.155   0.599  0.00  0.00    -0.005 A 
ATOM      6  C5  UNL d   1       2.538  -0.980   0.729  0.00  0.00     0.003 A 
ATOM      7  C6  UNL d   1       1.179  -0.919   0.417  0.00  0.00    -0.001 A 
ENDROOT
TORSDOF 0
ENDMDL
