MODEL 1
REMARK minimizedAffinity -4.93066359
REMARK minimizedRMSD -1
REMARK  0 active torsions:
REMARK  status: ('A' for Active; 'I' for Inactive)
ROOT
ATOM      1  C   UNL d   1      -0.623   0.757  -0.583  0.00  0.00     0.078 C 
ATOM      2  C1  UNL d   1       0.359  -0.238  -0.040  0.00  0.00    -0.077 A 
ATOM      3  C2  UNL d   1       0.937  -0.065   1.223  0.00  0.00    -0.001 A 
ATOM      4  C3  UNL d   1       1.856  -0.994   1.712  0.00  0.00     0.003 A 
ATOM      5  C4  UNL d   1       2.207  -2.103   0.944  0.00  0.00    -0.005 A 
ATOM      6  C5  UNL d   1       1.638  -2.282  -0.316  0.00  0.00     0.003 A 
ATOM      7  C6  UNL d   1       0.719  -1.354  -0.806  0.00  0.00    -0.001 A 
ENDROOT
TORSDOF 0
ENDMDL
