MODEL 1
REMARK minimizedAffinity -3.71436834
REMARK minimizedRMSD -1
REMARK  0 active torsions:
REMARK  status: ('A' for Active; 'I' for Inactive)
ROOT
ATOM      1  C   UNL d   1      -0.595   1.057  -0.609  0.00  0.00     0.078 C 
ATOM      2  C1  UNL d   1       0.298  -0.105  -0.292  0.00  0.00    -0.077 A 
ATOM      3  C2  UNL d   1       1.147  -0.080   0.821  0.00  0.00    -0.001 A 
ATOM      4  C3  UNL d   1       1.980  -1.165   1.098  0.00  0.00     0.003 A 
ATOM      5  C4  UNL d   1       1.974  -2.283   0.266  0.00  0.00    -0.005 A 
ATOM      6  C5  UNL d   1       1.134  -2.316  -0.845  0.00  0.00     0.003 A 
ATOM      7  C6  UNL d   1       0.300  -1.232  -1.124  0.00  0.00    -0.001 A 
ENDROOT
TORSDOF 0
ENDMDL
