MODEL 1
REMARK minimizedAffinity -1.34779477
REMARK minimizedRMSD -1
REMARK  0 active torsions:
REMARK  status: ('A' for Active; 'I' for Inactive)
ROOT
ATOM      1  C   UNL d   1       0.001  -1.521  -1.111  0.00  0.00     0.078 C 
ATOM      2  C1  UNL d   1       0.325  -0.160  -0.573  0.00  0.00    -0.077 A 
ATOM      3  C2  UNL d   1       1.535   0.471  -0.887  0.00  0.00    -0.001 A 
ATOM      4  C3  UNL d   1       1.827   1.735  -0.370  0.00  0.00     0.003 A 
ATOM      5  C4  UNL d   1       0.914   2.378   0.464  0.00  0.00    -0.005 A 
ATOM      6  C5  UNL d   1      -0.291   1.757   0.784  0.00  0.00     0.003 A 
ATOM      7  C6  UNL d   1      -0.585   0.493   0.268  0.00  0.00    -0.001 A 
ENDROOT
TORSDOF 0
ENDMDL
