MODEL 1
REMARK minimizedAffinity -4.79442263
REMARK minimizedRMSD -1
REMARK  0 active torsions:
REMARK  status: ('A' for Active; 'I' for Inactive)
ROOT
ATOM      1  C   UNL d   1       2.926  -1.785   0.349  0.00  0.00     0.078 C 
ATOM      2  C1  UNL d   1       1.783  -0.866   0.036  0.00  0.00    -0.077 A 
ATOM      3  C2  UNL d   1       0.549  -1.370  -0.395  0.00  0.00    -0.001 A 
ATOM      4  C3  UNL d   1      -0.503  -0.503  -0.692  0.00  0.00     0.003 A 
ATOM      5  C4  UNL d   1      -0.332   0.874  -0.563  0.00  0.00    -0.005 A 
ATOM      6  C5  UNL d   1       0.892   1.385  -0.138  0.00  0.00     0.003 A 
ATOM      7  C6  UNL d   1       1.945   0.520   0.160  0.00  0.00    -0.001 A 
ENDROOT
TORSDOF 0
ENDMDL
