MODEL 1
REMARK minimizedAffinity -3.0662539
REMARK minimizedRMSD -1
REMARK  0 active torsions:
REMARK  status: ('A' for Active; 'I' for Inactive)
ROOT
ATOM      1  C   UNL d   1      -0.230  -0.998  -0.801  0.00  0.00     0.172 C 
ATOM      2  N   UNL d   1      -1.577  -1.438  -0.523  0.00  0.00    -0.070 N 
ATOM      3  C1  UNL d   1      -2.304  -1.126   0.595  0.00  0.00    -0.004 A 
ATOM      4  C2  UNL d   1      -3.534  -1.736   0.481  0.00  0.00    -0.047 A 
ATOM      5  C3  UNL d   1      -3.547  -2.438  -0.747  0.00  0.00    -0.047 A 
ATOM      6  C4  UNL d   1      -2.323  -2.237  -1.348  0.00  0.00    -0.004 A 
ENDROOT
TORSDOF 0
ENDMDL
