MODEL 1
REMARK minimizedAffinity -1.92604661
REMARK minimizedRMSD -1
REMARK  0 active torsions:
REMARK  status: ('A' for Active; 'I' for Inactive)
ROOT
ATOM      1  C   UNL d   1      -0.147  -0.670  -0.727  0.00  0.00     0.172 C 
ATOM      2  N   UNL d   1      -1.477  -1.105  -0.369  0.00  0.00    -0.070 N 
ATOM      3  C1  UNL d   1      -2.158  -0.742   0.761  0.00  0.00    -0.004 A 
ATOM      4  C2  UNL d   1      -3.387  -1.366   0.732  0.00  0.00    -0.047 A 
ATOM      5  C3  UNL d   1      -3.445  -2.131  -0.458  0.00  0.00    -0.047 A 
ATOM      6  C4  UNL d   1      -2.249  -1.951  -1.120  0.00  0.00    -0.004 A 
ENDROOT
TORSDOF 0
ENDMDL
