MODEL 1
REMARK minimizedAffinity -1.40599048
REMARK minimizedRMSD -1
REMARK  0 active torsions:
REMARK  status: ('A' for Active; 'I' for Inactive)
ROOT
ATOM      1  C   UNL d   1      -2.889  -0.081   0.675  0.00  0.00     0.172 C 
ATOM      2  N   UNL d   1      -2.284  -1.047  -0.212  0.00  0.00    -0.070 N 
ATOM      3  C1  UNL d   1      -2.556  -2.388  -0.236  0.00  0.00    -0.004 A 
ATOM      4  C2  UNL d   1      -1.777  -2.960  -1.219  0.00  0.00    -0.047 A 
ATOM      5  C3  UNL d   1      -1.009  -1.925  -1.805  0.00  0.00    -0.047 A 
ATOM      6  C4  UNL d   1      -1.343  -0.752  -1.163  0.00  0.00    -0.004 A 
ENDROOT
TORSDOF 0
ENDMDL
