MODEL 1
REMARK minimizedAffinity -2.84742665
REMARK minimizedRMSD -1
REMARK  0 active torsions:
REMARK  status: ('A' for Active; 'I' for Inactive)
ROOT
ATOM      1  C   UNL d   1      -5.983   5.693   1.240  0.00  0.00     0.172 C 
ATOM      2  N   UNL d   1      -5.403   5.061   2.401  0.00  0.00    -0.070 N 
ATOM      3  C1  UNL d   1      -5.660   3.786   2.828  0.00  0.00    -0.004 A 
ATOM      4  C2  UNL d   1      -4.913   3.563   3.965  0.00  0.00    -0.047 A 
ATOM      5  C3  UNL d   1      -4.183   4.745   4.231  0.00  0.00    -0.047 A 
ATOM      6  C4  UNL d   1      -4.505   5.656   3.247  0.00  0.00    -0.004 A 
ENDROOT
TORSDOF 0
ENDMDL
