MODEL 1
REMARK minimizedAffinity -3.06253552
REMARK minimizedRMSD -1
REMARK  0 active torsions:
REMARK  status: ('A' for Active; 'I' for Inactive)
ROOT
ATOM      1  C   UNL d   1      -5.182   2.273   5.327  0.00  0.00     0.172 C 
ATOM      2  N   UNL d   1      -5.202   3.512   4.585  0.00  0.00    -0.070 N 
ATOM      3  C1  UNL d   1      -4.957   3.644   3.245  0.00  0.00    -0.004 A 
ATOM      4  C2  UNL d   1      -5.072   4.980   2.924  0.00  0.00    -0.047 A 
ATOM      5  C3  UNL d   1      -5.396   5.674   4.113  0.00  0.00    -0.047 A 
ATOM      6  C4  UNL d   1      -5.470   4.742   5.126  0.00  0.00    -0.004 A 
ENDROOT
TORSDOF 0
ENDMDL
