MODEL 1
REMARK minimizedAffinity 0.395557553
REMARK minimizedRMSD -1
REMARK  0 active torsions:
REMARK  status: ('A' for Active; 'I' for Inactive)
ROOT
ATOM      1  C   UNL d   1      -0.022  -0.481  -0.949  0.00  0.00     0.172 C 
ATOM      2  N   UNL d   1      -1.293  -1.119  -0.697  0.00  0.00    -0.070 N 
ATOM      3  C1  UNL d   1      -1.845  -2.123  -1.447  0.00  0.00    -0.004 A 
ATOM      4  C2  UNL d   1      -3.056  -2.457  -0.880  0.00  0.00    -0.047 A 
ATOM      5  C3  UNL d   1      -3.238  -1.624   0.250  0.00  0.00    -0.047 A 
ATOM      6  C4  UNL d   1      -2.131  -0.806   0.340  0.00  0.00    -0.004 A 
ENDROOT
TORSDOF 0
ENDMDL
