MODEL 1
REMARK minimizedAffinity -1.71278381
REMARK minimizedRMSD -1
REMARK  0 active torsions:
REMARK  status: ('A' for Active; 'I' for Inactive)
ROOT
ATOM      1  C   UNL d   1      -5.370   5.250   0.366  0.00  0.00     0.172 C 
ATOM      2  N   UNL d   1      -5.520   4.897   1.758  0.00  0.00    -0.070 N 
ATOM      3  C1  UNL d   1      -5.208   3.684   2.312  0.00  0.00    -0.004 A 
ATOM      4  C2  UNL d   1      -5.493   3.749   3.658  0.00  0.00    -0.047 A 
ATOM      5  C3  UNL d   1      -5.994   5.046   3.923  0.00  0.00    -0.047 A 
ATOM      6  C4  UNL d   1      -6.000   5.736   2.729  0.00  0.00    -0.004 A 
ENDROOT
TORSDOF 0
ENDMDL
