MODEL 1
REMARK minimizedAffinity -2.40753531
REMARK minimizedRMSD -1
REMARK  0 active torsions:
REMARK  status: ('A' for Active; 'I' for Inactive)
ROOT
ATOM      1  C   UNL d   1      -5.217   3.371   5.328  0.00  0.00     0.172 C 
ATOM      2  N   UNL d   1      -5.075   4.205   4.157  0.00  0.00    -0.070 N 
ATOM      3  C1  UNL d   1      -4.559   3.808   2.952  0.00  0.00    -0.004 A 
ATOM      4  C2  UNL d   1      -4.596   4.891   2.100  0.00  0.00    -0.047 A 
ATOM      5  C3  UNL d   1      -5.153   5.976   2.818  0.00  0.00    -0.047 A 
ATOM      6  C4  UNL d   1      -5.440   5.524   4.089  0.00  0.00    -0.004 A 
ENDROOT
TORSDOF 0
ENDMDL
