MODEL 1
REMARK minimizedAffinity -2.54320455
REMARK minimizedRMSD -1
REMARK  0 active torsions:
REMARK  status: ('A' for Active; 'I' for Inactive)
ROOT
ATOM      1  C   UNL d   1      -4.881   5.494   1.611  0.00  0.00     0.172 C 
ATOM      2  N   UNL d   1      -4.842   4.785   2.868  0.00  0.00    -0.070 N 
ATOM      3  C1  UNL d   1      -5.913   4.199   3.487  0.00  0.00    -0.004 A 
ATOM      4  C2  UNL d   1      -5.464   3.627   4.657  0.00  0.00    -0.047 A 
ATOM      5  C3  UNL d   1      -4.074   3.879   4.745  0.00  0.00    -0.047 A 
ATOM      6  C4  UNL d   1      -3.715   4.597   3.624  0.00  0.00    -0.004 A 
ENDROOT
TORSDOF 0
ENDMDL
