MODEL 1
REMARK minimizedAffinity -2.03013325
REMARK minimizedRMSD -1
REMARK  0 active torsions:
REMARK  status: ('A' for Active; 'I' for Inactive)
ROOT
ATOM      1  C   UNL d   1      -5.709   5.982   2.956  0.00  0.00     0.172 C 
ATOM      2  N   UNL d   1      -5.665   5.348   1.659  0.00  0.00    -0.070 N 
ATOM      3  C1  UNL d   1      -5.638   5.997   0.454  0.00  0.00    -0.004 A 
ATOM      4  C2  UNL d   1      -5.599   5.041  -0.539  0.00  0.00    -0.047 A 
ATOM      5  C3  UNL d   1      -5.604   3.775   0.092  0.00  0.00    -0.047 A 
ATOM      6  C4  UNL d   1      -5.646   3.994   1.453  0.00  0.00    -0.004 A 
ENDROOT
TORSDOF 0
ENDMDL
