MODEL 1
REMARK minimizedAffinity -2.2522614
REMARK minimizedRMSD -1
REMARK  0 active torsions:
REMARK  status: ('A' for Active; 'I' for Inactive)
ROOT
ATOM      1  C   UNL d   1      -5.256   4.500   1.609  0.00  0.00     0.172 C 
ATOM      2  N   UNL d   1      -5.468   4.682   3.025  0.00  0.00    -0.070 N 
ATOM      3  C1  UNL d   1      -5.244   3.741   3.994  0.00  0.00    -0.004 A 
ATOM      4  C2  UNL d   1      -5.566   4.302   5.211  0.00  0.00    -0.047 A 
ATOM      5  C3  UNL d   1      -6.000   5.627   4.965  0.00  0.00    -0.047 A 
ATOM      6  C4  UNL d   1      -5.929   5.836   3.604  0.00  0.00    -0.004 A 
ENDROOT
TORSDOF 0
ENDMDL
