MODEL 1
REMARK minimizedAffinity -2.46906996
REMARK minimizedRMSD -1
REMARK  0 active torsions:
REMARK  status: ('A' for Active; 'I' for Inactive)
ROOT
ATOM      1  C   UNL d   1      -5.249   5.239   2.086  0.00  0.00     0.172 C 
ATOM      2  N   UNL d   1      -5.391   4.214   3.093  0.00  0.00    -0.070 N 
ATOM      3  C1  UNL d   1      -6.000   4.368   4.310  0.00  0.00    -0.004 A 
ATOM      4  C2  UNL d   1      -5.928   3.163   4.974  0.00  0.00    -0.047 A 
ATOM      5  C3  UNL d   1      -5.252   2.253   4.128  0.00  0.00    -0.047 A 
ATOM      6  C4  UNL d   1      -4.931   2.929   2.970  0.00  0.00    -0.004 A 
ENDROOT
TORSDOF 0
ENDMDL
