MODEL 1
REMARK minimizedAffinity -2.83518243
REMARK minimizedRMSD -1
REMARK  0 active torsions:
REMARK  status: ('A' for Active; 'I' for Inactive)
ROOT
ATOM      1  C   UNL d   1      -5.206   4.460   1.601  0.00  0.00     0.172 C 
ATOM      2  N   UNL d   1      -4.947   4.298   3.012  0.00  0.00    -0.070 N 
ATOM      3  C1  UNL d   1      -3.910   4.865   3.704  0.00  0.00    -0.004 A 
ATOM      4  C2  UNL d   1      -4.014   4.469   5.020  0.00  0.00    -0.047 A 
ATOM      5  C3  UNL d   1      -5.152   3.635   5.123  0.00  0.00    -0.047 A 
ATOM      6  C4  UNL d   1      -5.711   3.546   3.865  0.00  0.00    -0.004 A 
ENDROOT
TORSDOF 0
ENDMDL
