MODEL 1
REMARK minimizedAffinity -2.0776298
REMARK minimizedRMSD -1
REMARK  0 active torsions:
REMARK  status: ('A' for Active; 'I' for Inactive)
ROOT
ATOM      1  C   UNL d   1      -5.675   5.914   0.247  0.00  0.00     0.172 C 
ATOM      2  N   UNL d   1      -5.636   5.342   1.572  0.00  0.00    -0.070 N 
ATOM      3  C1  UNL d   1      -5.234   4.070   1.881  0.00  0.00    -0.004 A 
ATOM      4  C2  UNL d   1      -5.342   3.913   3.246  0.00  0.00    -0.047 A 
ATOM      5  C3  UNL d   1      -5.827   5.133   3.775  0.00  0.00    -0.047 A 
ATOM      6  C4  UNL d   1      -6.000   6.000   2.717  0.00  0.00    -0.004 A 
ENDROOT
TORSDOF 0
ENDMDL
