MODEL 1
REMARK minimizedAffinity -2.542696
REMARK minimizedRMSD -1
REMARK  0 active torsions:
REMARK  status: ('A' for Active; 'I' for Inactive)
ROOT
ATOM      1  C   UNL d   1      -4.867   3.383   4.574  0.00  0.00     0.172 C 
ATOM      2  N   UNL d   1      -5.098   4.227   3.426  0.00  0.00    -0.070 N 
ATOM      3  C1  UNL d   1      -4.798   5.561   3.342  0.00  0.00    -0.004 A 
ATOM      4  C2  UNL d   1      -5.170   5.999   2.090  0.00  0.00    -0.047 A 
ATOM      5  C3  UNL d   1      -5.713   4.892   1.397  0.00  0.00    -0.047 A 
ATOM      6  C4  UNL d   1      -5.657   3.808   2.247  0.00  0.00    -0.004 A 
ENDROOT
TORSDOF 0
ENDMDL
