MODEL 1
REMARK minimizedAffinity -2.80169845
REMARK minimizedRMSD -1
REMARK  0 active torsions:
REMARK  status: ('A' for Active; 'I' for Inactive)
ROOT
ATOM      1  C   UNL d   1      -5.973   3.352   4.291  0.00  0.00     0.172 C 
ATOM      2  N   UNL d   1      -5.467   4.266   3.294  0.00  0.00    -0.070 N 
ATOM      3  C1  UNL d   1      -4.763   5.413   3.546  0.00  0.00    -0.004 A 
ATOM      4  C2  UNL d   1      -4.464   6.000   2.335  0.00  0.00    -0.047 A 
ATOM      5  C3  UNL d   1      -5.008   5.177   1.320  0.00  0.00    -0.047 A 
ATOM      6  C4  UNL d   1      -5.624   4.111   1.942  0.00  0.00    -0.004 A 
ENDROOT
TORSDOF 0
ENDMDL
