MODEL 1
REMARK minimizedAffinity -2.37124348
REMARK minimizedRMSD -1
REMARK  0 active torsions:
REMARK  status: ('A' for Active; 'I' for Inactive)
ROOT
ATOM      1  C   UNL d   1      -5.455   5.889   1.026  0.00  0.00     0.172 C 
ATOM      2  N   UNL d   1      -5.539   5.340   2.359  0.00  0.00    -0.070 N 
ATOM      3  C1  UNL d   1      -5.177   5.984   3.512  0.00  0.00    -0.004 A 
ATOM      4  C2  UNL d   1      -5.409   5.126   4.565  0.00  0.00    -0.047 A 
ATOM      5  C3  UNL d   1      -5.927   3.924   4.027  0.00  0.00    -0.047 A 
ATOM      6  C4  UNL d   1      -5.997   4.084   2.659  0.00  0.00    -0.004 A 
ENDROOT
TORSDOF 0
ENDMDL
