MODEL 1
REMARK minimizedAffinity -4.5264864
REMARK minimizedRMSD -1
REMARK  0 active torsions:
REMARK  status: ('A' for Active; 'I' for Inactive)
ROOT
ATOM      1  C   UNL d   1       0.722   0.226  -0.446  0.00  0.00     0.023 A 
ATOM      2  C1  UNL d   1       1.043   0.943   0.707  0.00  0.00     0.003 A 
ATOM      3  C2  UNL d   1       1.453   2.274   0.612  0.00  0.00     0.048 A 
ATOM      4  C3  UNL d   1       1.538   2.883  -0.639  0.00  0.00     0.023 A 
ATOM      5  C4  UNL d   1       1.217   2.171  -1.795  0.00  0.00     0.048 A 
ATOM      6  C5  UNL d   1       0.809   0.840  -1.696  0.00  0.00     0.003 A 
ATOM      7  I   UNL d   1       2.148   4.865  -0.783  0.00  0.00    -0.146 I 
ENDROOT
TORSDOF 0
ENDMDL
