MODEL 1
REMARK minimizedAffinity 3.19258833
REMARK minimizedRMSD -1
REMARK  0 active torsions:
REMARK  status: ('A' for Active; 'I' for Inactive)
ROOT
ATOM      1  C   UNL d   1       1.269  -0.038  -0.270  0.00  0.00     0.023 A 
ATOM      2  C1  UNL d   1       0.955   0.938   0.675  0.00  0.00     0.003 A 
ATOM      3  C2  UNL d   1       1.094   2.291   0.356  0.00  0.00     0.048 A 
ATOM      4  C3  UNL d   1       1.546   2.660  -0.910  0.00  0.00     0.023 A 
ATOM      5  C4  UNL d   1       1.861   1.686  -1.859  0.00  0.00     0.048 A 
ATOM      6  C5  UNL d   1       1.721   0.335  -1.536  0.00  0.00     0.003 A 
ATOM      7  I   UNL d   1       1.754   4.672  -1.387  0.00  0.00    -0.146 I 
ENDROOT
TORSDOF 0
ENDMDL
