MODEL 1
REMARK minimizedAffinity 0.747366726
REMARK minimizedRMSD -1
REMARK  0 active torsions:
REMARK  status: ('A' for Active; 'I' for Inactive)
ROOT
ATOM      1  C   UNL d   1       0.558   1.574  -1.892  0.00  0.00     0.023 A 
ATOM      2  C1  UNL d   1       0.226   2.646  -2.721  0.00  0.00     0.003 A 
ATOM      3  C2  UNL d   1       0.743   3.917  -2.462  0.00  0.00     0.048 A 
ATOM      4  C3  UNL d   1       1.592   4.109  -1.372  0.00  0.00     0.023 A 
ATOM      5  C4  UNL d   1       1.928   3.039  -0.540  0.00  0.00     0.048 A 
ATOM      6  C5  UNL d   1       1.408   1.770  -0.803  0.00  0.00     0.003 A 
ATOM      7  I   UNL d   1       2.362   6.000  -0.984  0.00  0.00    -0.146 I 
ENDROOT
TORSDOF 0
ENDMDL
