MODEL 1
REMARK minimizedAffinity 2.86207533
REMARK minimizedRMSD -1
REMARK  0 active torsions:
REMARK  status: ('A' for Active; 'I' for Inactive)
ROOT
ATOM      1  C   UNL d   1       1.394   3.091  -0.848  0.00  0.00     0.023 A 
ATOM      2  C1  UNL d   1       0.662   2.563   0.216  0.00  0.00     0.003 A 
ATOM      3  C2  UNL d   1       0.624   1.183   0.421  0.00  0.00     0.048 A 
ATOM      4  C3  UNL d   1       1.319   0.336  -0.441  0.00  0.00     0.023 A 
ATOM      5  C4  UNL d   1       2.053   0.860  -1.506  0.00  0.00     0.048 A 
ATOM      6  C5  UNL d   1       2.088   2.241  -1.708  0.00  0.00     0.003 A 
ATOM      7  I   UNL d   1       1.263  -1.720  -0.137  0.00  0.00    -0.146 I 
ENDROOT
TORSDOF 0
ENDMDL
