MODEL 1
REMARK minimizedAffinity -1.01797438
REMARK minimizedRMSD -1
REMARK  0 active torsions:
REMARK  status: ('A' for Active; 'I' for Inactive)
ROOT
ATOM      1  C   UNL d   1       1.337   3.287  -0.141  0.00  0.00     0.023 A 
ATOM      2  C1  UNL d   1       0.898   2.376   0.820  0.00  0.00     0.003 A 
ATOM      3  C2  UNL d   1       0.901   1.008   0.540  0.00  0.00     0.048 A 
ATOM      4  C3  UNL d   1       1.345   0.558  -0.702  0.00  0.00     0.023 A 
ATOM      5  C4  UNL d   1       1.786   1.465  -1.667  0.00  0.00     0.048 A 
ATOM      6  C5  UNL d   1       1.781   2.832  -1.383  0.00  0.00     0.003 A 
ATOM      7  I   UNL d   1       1.351  -1.478  -1.121  0.00  0.00    -0.146 I 
ENDROOT
TORSDOF 0
ENDMDL
