MODEL 1
REMARK minimizedAffinity 1.42608678
REMARK minimizedRMSD -1
REMARK  0 active torsions:
REMARK  status: ('A' for Active; 'I' for Inactive)
ROOT
ATOM      1  C   UNL d   1       0.781   0.758  -0.289  0.00  0.00     0.023 A 
ATOM      2  C1  UNL d   1       1.054   1.254  -1.564  0.00  0.00     0.003 A 
ATOM      3  C2  UNL d   1       1.387   2.600  -1.734  0.00  0.00     0.048 A 
ATOM      4  C3  UNL d   1       1.447   3.443  -0.625  0.00  0.00     0.023 A 
ATOM      5  C4  UNL d   1       1.175   2.950   0.652  0.00  0.00     0.048 A 
ATOM      6  C5  UNL d   1       0.841   1.605   0.817  0.00  0.00     0.003 A 
ATOM      7  I   UNL d   1       1.943   5.445  -0.876  0.00  0.00    -0.146 I 
ENDROOT
TORSDOF 0
ENDMDL
