MODEL 1
REMARK minimizedAffinity 10.1472855
REMARK minimizedRMSD -1
REMARK  0 active torsions:
REMARK  status: ('A' for Active; 'I' for Inactive)
ROOT
ATOM      1  C   UNL d   1       1.429  -1.175  -0.317  0.00  0.00     0.023 A 
ATOM      2  C1  UNL d   1       2.163  -0.277   0.459  0.00  0.00     0.003 A 
ATOM      3  C2  UNL d   1       2.200   1.076   0.117  0.00  0.00     0.048 A 
ATOM      4  C3  UNL d   1       1.499   1.525  -1.002  0.00  0.00     0.023 A 
ATOM      5  C4  UNL d   1       0.763   0.631  -1.781  0.00  0.00     0.048 A 
ATOM      6  C5  UNL d   1       0.730  -0.722  -1.435  0.00  0.00     0.003 A 
ATOM      7  I   UNL d   1       1.552   3.539  -1.514  0.00  0.00    -0.146 I 
ENDROOT
TORSDOF 0
ENDMDL
