MODEL 1
REMARK minimizedAffinity -2.80260205
REMARK minimizedRMSD -1
REMARK  0 active torsions:
REMARK  status: ('A' for Active; 'I' for Inactive)
ROOT
ATOM      1  C   UNL d   1       1.490   4.525  -0.027  0.00  0.00     0.023 A 
ATOM      2  C1  UNL d   1       1.719   4.002  -1.299  0.00  0.00     0.003 A 
ATOM      3  C2  UNL d   1       1.640   2.624  -1.513  0.00  0.00     0.048 A 
ATOM      4  C3  UNL d   1       1.330   1.776  -0.451  0.00  0.00     0.023 A 
ATOM      5  C4  UNL d   1       1.099   2.295   0.824  0.00  0.00     0.048 A 
ATOM      6  C5  UNL d   1       1.180   3.673   1.033  0.00  0.00     0.003 A 
ATOM      7  I   UNL d   1       1.212  -0.275  -0.768  0.00  0.00    -0.146 I 
ENDROOT
TORSDOF 0
ENDMDL
