MODEL 1
REMARK minimizedAffinity -4.3268466
REMARK minimizedRMSD -1
REMARK  0 active torsions:
REMARK  status: ('A' for Active; 'I' for Inactive)
ROOT
ATOM      1  C   UNL d   1       0.913   1.261  -0.846  0.00  0.00     0.023 A 
ATOM      2  C1  UNL d   1       1.330   1.854  -2.038  0.00  0.00     0.003 A 
ATOM      3  C2  UNL d   1       1.660   3.210  -2.067  0.00  0.00     0.048 A 
ATOM      4  C3  UNL d   1       1.574   3.968  -0.900  0.00  0.00     0.023 A 
ATOM      5  C4  UNL d   1       1.159   3.379   0.296  0.00  0.00     0.048 A 
ATOM      6  C5  UNL d   1       0.828   2.023   0.320  0.00  0.00     0.003 A 
ATOM      7  I   UNL d   1       2.066   5.987  -0.940  0.00  0.00    -0.146 I 
ENDROOT
TORSDOF 0
ENDMDL
