MODEL 1
REMARK minimizedAffinity -0.0495639853
REMARK minimizedRMSD -1
REMARK  0 active torsions:
REMARK  status: ('A' for Active; 'I' for Inactive)
ROOT
ATOM      1  C   UNL d   1       1.504   1.759  -1.838  0.00  0.00     0.023 A 
ATOM      2  C1  UNL d   1       1.613   0.422  -1.456  0.00  0.00     0.003 A 
ATOM      3  C2  UNL d   1       1.395   0.054  -0.126  0.00  0.00     0.048 A 
ATOM      4  C3  UNL d   1       1.067   1.028   0.815  0.00  0.00     0.023 A 
ATOM      5  C4  UNL d   1       0.956   2.368   0.438  0.00  0.00     0.048 A 
ATOM      6  C5  UNL d   1       1.175   2.730  -0.893  0.00  0.00     0.003 A 
ATOM      7  I   UNL d   1       0.742   0.484   2.795  0.00  0.00    -0.146 I 
ENDROOT
TORSDOF 0
ENDMDL
