MODEL 1
REMARK minimizedAffinity 5.5443902
REMARK minimizedRMSD -1
REMARK  0 active torsions:
REMARK  status: ('A' for Active; 'I' for Inactive)
ROOT
ATOM      1  C   UNL d   1       1.711   1.187  -0.312  0.00  0.00     0.023 A 
ATOM      2  C1  UNL d   1       1.482   2.032   0.774  0.00  0.00     0.003 A 
ATOM      3  C2  UNL d   1       1.414   3.414   0.583  0.00  0.00     0.048 A 
ATOM      4  C3  UNL d   1       1.575   3.944  -0.697  0.00  0.00     0.023 A 
ATOM      5  C4  UNL d   1       1.804   3.102  -1.786  0.00  0.00     0.048 A 
ATOM      6  C5  UNL d   1       1.872   1.721  -1.590  0.00  0.00     0.003 A 
ATOM      7  I   UNL d   1       1.474   6.000  -0.983  0.00  0.00    -0.146 I 
ENDROOT
TORSDOF 0
ENDMDL
