MODEL 1
REMARK minimizedAffinity 6.3410697
REMARK minimizedRMSD -1
REMARK  0 active torsions:
REMARK  status: ('A' for Active; 'I' for Inactive)
ROOT
ATOM      1  C   UNL d   1       0.793   4.483   0.081  0.00  0.00     0.023 A 
ATOM      2  C1  UNL d   1       1.181   3.599   1.088  0.00  0.00     0.003 A 
ATOM      3  C2  UNL d   1       1.516   2.281   0.770  0.00  0.00     0.048 A 
ATOM      4  C3  UNL d   1       1.461   1.854  -0.556  0.00  0.00     0.023 A 
ATOM      5  C4  UNL d   1       1.074   2.735  -1.567  0.00  0.00     0.048 A 
ATOM      6  C5  UNL d   1       0.739   4.052  -1.245  0.00  0.00     0.003 A 
ATOM      7  I   UNL d   1       1.960  -0.107  -1.031  0.00  0.00    -0.146 I 
ENDROOT
TORSDOF 0
ENDMDL
