MODEL 1
REMARK minimizedAffinity 1.65118122
REMARK minimizedRMSD -1
REMARK  0 active torsions:
REMARK  status: ('A' for Active; 'I' for Inactive)
ROOT
ATOM      1  C   UNL d   1       0.976  -0.410   0.474  0.00  0.00     0.023 A 
ATOM      2  C1  UNL d   1       0.888   0.836   1.094  0.00  0.00     0.003 A 
ATOM      3  C2  UNL d   1       1.050   2.003   0.344  0.00  0.00     0.048 A 
ATOM      4  C3  UNL d   1       1.298   1.916  -1.025  0.00  0.00     0.023 A 
ATOM      5  C4  UNL d   1       1.385   0.671  -1.650  0.00  0.00     0.048 A 
ATOM      6  C5  UNL d   1       1.224  -0.493  -0.896  0.00  0.00     0.003 A 
ATOM      7  I   UNL d   1       1.538   3.652  -2.143  0.00  0.00    -0.146 I 
ENDROOT
TORSDOF 0
ENDMDL
