MODEL 1
REMARK minimizedAffinity -2.93201447
REMARK minimizedRMSD -1
REMARK  0 active torsions:
REMARK  status: ('A' for Active; 'I' for Inactive)
ROOT
ATOM      1  C   UNL d   1       1.216   4.095   0.200  0.00  0.00     0.023 A 
ATOM      2  C1  UNL d   1       1.392   3.769  -1.145  0.00  0.00     0.003 A 
ATOM      3  C2  UNL d   1       1.328   2.436  -1.555  0.00  0.00     0.048 A 
ATOM      4  C3  UNL d   1       1.087   1.434  -0.616  0.00  0.00     0.023 A 
ATOM      5  C4  UNL d   1       0.909   1.756   0.731  0.00  0.00     0.048 A 
ATOM      6  C5  UNL d   1       0.975   3.090   1.137  0.00  0.00     0.003 A 
ATOM      7  I   UNL d   1       0.990  -0.551  -1.224  0.00  0.00    -0.146 I 
ENDROOT
TORSDOF 0
ENDMDL
