MODEL 1
REMARK minimizedAffinity -0.0852511972
REMARK minimizedRMSD -1
REMARK  0 active torsions:
REMARK  status: ('A' for Active; 'I' for Inactive)
ROOT
ATOM      1  C   UNL d   1       0.821   0.744  -0.925  0.00  0.00     0.023 A 
ATOM      2  C1  UNL d   1       0.932   1.433  -2.133  0.00  0.00     0.003 A 
ATOM      3  C2  UNL d   1       1.182   2.807  -2.134  0.00  0.00     0.048 A 
ATOM      4  C3  UNL d   1       1.320   3.485  -0.924  0.00  0.00     0.023 A 
ATOM      5  C4  UNL d   1       1.210   2.800   0.287  0.00  0.00     0.048 A 
ATOM      6  C5  UNL d   1       0.960   1.426   0.283  0.00  0.00     0.003 A 
ATOM      7  I   UNL d   1       1.691   5.530  -0.923  0.00  0.00    -0.146 I 
ENDROOT
TORSDOF 0
ENDMDL
