MODEL 1
REMARK minimizedAffinity -4.10178089
REMARK minimizedRMSD -1
REMARK  2 active torsions:
REMARK  status: ('A' for Active; 'I' for Inactive)
REMARK    1  A    between atoms: C1_2  and  C2_3 
REMARK    2  A    between atoms: C2_3  and  C3_4 
ROOT
ATOM      1  C3  UNL d   1      -0.888   1.626   0.617  0.00  0.00    -0.075 A 
ATOM      2  C4  UNL d   1      -0.782   0.793   1.740  0.00  0.00     0.002 A 
ATOM      3  C5  UNL d   1      -0.068  -0.403   1.671  0.00  0.00     0.002 A 
ATOM      4  C6  UNL d   1       0.539  -0.787   0.477  0.00  0.00    -0.004 A 
ATOM      5  C7  UNL d   1       0.426   0.024  -0.650  0.00  0.00     0.002 A 
ATOM      6  C8  UNL d   1      -0.284   1.224  -0.582  0.00  0.00     0.002 A 
ENDROOT
BRANCH   1   7
ATOM      7  C2  UNL d   1      -1.635   2.936   0.693  0.00  0.00     0.056 C 
BRANCH   7   8
ATOM      8  C1  UNL d   1      -1.009   4.061  -0.137  0.00  0.00     0.007 C 
ATOM      9  C   UNL d   1       0.375   4.469   0.351  0.00  0.00     0.009 C 
ENDBRANCH   7   8
ENDBRANCH   1   7
TORSDOF 2
ENDMDL
