MODEL 1
REMARK minimizedAffinity -5.03681564
REMARK minimizedRMSD -1
REMARK  2 active torsions:
REMARK  status: ('A' for Active; 'I' for Inactive)
REMARK    1  A    between atoms: C1_2  and  C2_3 
REMARK    2  A    between atoms: C2_3  and  C3_4 
ROOT
ATOM      1  C3  UNL d   1       0.196  -0.044  -0.193  0.00  0.00    -0.075 A 
ATOM      2  C4  UNL d   1      -0.466   1.054  -0.761  0.00  0.00     0.002 A 
ATOM      3  C5  UNL d   1      -1.395   1.782  -0.018  0.00  0.00     0.002 A 
ATOM      4  C6  UNL d   1      -1.681   1.418   1.295  0.00  0.00    -0.004 A 
ATOM      5  C7  UNL d   1      -1.042   0.318   1.864  0.00  0.00     0.002 A 
ATOM      6  C8  UNL d   1      -0.108  -0.410   1.125  0.00  0.00     0.002 A 
ENDROOT
BRANCH   1   7
ATOM      7  C2  UNL d   1       1.224  -0.819  -0.982  0.00  0.00     0.056 C 
BRANCH   7   8
ATOM      8  C1  UNL d   1       0.933  -2.320  -1.082  0.00  0.00     0.007 C 
ATOM      9  C   UNL d   1       0.419  -2.742  -2.452  0.00  0.00     0.009 C 
ENDBRANCH   7   8
ENDBRANCH   1   7
TORSDOF 2
ENDMDL
