MODEL 1
REMARK minimizedAffinity -5.67593193
REMARK minimizedRMSD -1
REMARK  2 active torsions:
REMARK  status: ('A' for Active; 'I' for Inactive)
REMARK    1  A    between atoms: C1_2  and  C2_3 
REMARK    2  A    between atoms: C2_3  and  C3_4 
ROOT
ATOM      1  C3  UNL d   1       0.025  -0.305  -0.174  0.00  0.00    -0.075 A 
ATOM      2  C4  UNL d   1      -0.393  -0.871   1.039  0.00  0.00     0.002 A 
ATOM      3  C5  UNL d   1      -1.180  -0.139   1.928  0.00  0.00     0.002 A 
ATOM      4  C6  UNL d   1      -1.551   1.168   1.622  0.00  0.00    -0.004 A 
ATOM      5  C7  UNL d   1      -1.128   1.746   0.427  0.00  0.00     0.002 A 
ATOM      6  C8  UNL d   1      -0.343   1.015  -0.467  0.00  0.00     0.002 A 
ENDROOT
BRANCH   1   7
ATOM      7  C2  UNL d   1       0.853  -1.102  -1.154  0.00  0.00     0.056 C 
BRANCH   7   8
ATOM      8  C1  UNL d   1       0.034  -1.774  -2.260  0.00  0.00     0.007 C 
ATOM      9  C   UNL d   1      -0.194  -3.261  -2.020  0.00  0.00     0.009 C 
ENDBRANCH   7   8
ENDBRANCH   1   7
TORSDOF 2
ENDMDL
