MODEL 1
REMARK minimizedAffinity -4.64172173
REMARK minimizedRMSD -1
REMARK  2 active torsions:
REMARK  status: ('A' for Active; 'I' for Inactive)
REMARK    1  A    between atoms: C1_2  and  C2_3 
REMARK    2  A    between atoms: C2_3  and  C3_4 
ROOT
ATOM      1  C3  UNL d   1       0.212  -0.198  -0.375  0.00  0.00    -0.075 A 
ATOM      2  C4  UNL d   1       0.012   1.014  -1.051  0.00  0.00     0.002 A 
ATOM      3  C5  UNL d   1      -0.783   2.015  -0.492  0.00  0.00     0.002 A 
ATOM      4  C6  UNL d   1      -1.395   1.814   0.743  0.00  0.00    -0.004 A 
ATOM      5  C7  UNL d   1      -1.217   0.607   1.417  0.00  0.00     0.002 A 
ATOM      6  C8  UNL d   1      -0.418  -0.394   0.861  0.00  0.00     0.002 A 
ENDROOT
BRANCH   1   7
ATOM      7  C2  UNL d   1       1.095  -1.274  -0.961  0.00  0.00     0.056 C 
BRANCH   7   8
ATOM      8  C1  UNL d   1       0.697  -1.704  -2.377  0.00  0.00     0.007 C 
ATOM      9  C   UNL d   1       0.364  -3.187  -2.482  0.00  0.00     0.009 C 
ENDBRANCH   7   8
ENDBRANCH   1   7
TORSDOF 2
ENDMDL
