MODEL 1
REMARK minimizedAffinity -2.97783351
REMARK minimizedRMSD -1
REMARK  2 active torsions:
REMARK  status: ('A' for Active; 'I' for Inactive)
REMARK    1  A    between atoms: C1_2  and  C2_3 
REMARK    2  A    between atoms: C2_3  and  C3_4 
ROOT
ATOM      1  C3  UNL d   1      -1.024   1.527   0.064  0.00  0.00    -0.075 A 
ATOM      2  C4  UNL d   1      -0.432   2.448  -0.813  0.00  0.00     0.002 A 
ATOM      3  C5  UNL d   1       0.771   2.144  -1.452  0.00  0.00     0.002 A 
ATOM      4  C6  UNL d   1       1.401   0.925  -1.215  0.00  0.00    -0.004 A 
ATOM      5  C7  UNL d   1       0.830   0.010  -0.333  0.00  0.00     0.002 A 
ATOM      6  C8  UNL d   1      -0.375   0.309   0.305  0.00  0.00     0.002 A 
ENDROOT
BRANCH   1   7
ATOM      7  C2  UNL d   1      -2.340   1.837   0.737  0.00  0.00     0.056 C 
BRANCH   7   8
ATOM      8  C1  UNL d   1      -2.202   2.623   2.045  0.00  0.00     0.007 C 
ATOM      9  C   UNL d   1      -1.016   2.179   2.890  0.00  0.00     0.009 C 
ENDBRANCH   7   8
ENDBRANCH   1   7
TORSDOF 2
ENDMDL
