MODEL 1
REMARK minimizedAffinity -3.66846347
REMARK minimizedRMSD -1
REMARK  2 active torsions:
REMARK  status: ('A' for Active; 'I' for Inactive)
REMARK    1  A    between atoms: C1_2  and  C2_3 
REMARK    2  A    between atoms: C2_3  and  C3_4 
ROOT
ATOM      1  C3  UNL d   1       0.070   0.092  -0.118  0.00  0.00    -0.075 A 
ATOM      2  C4  UNL d   1      -0.239  -0.188   1.221  0.00  0.00     0.002 A 
ATOM      3  C5  UNL d   1      -1.224   0.540   1.888  0.00  0.00     0.002 A 
ATOM      4  C6  UNL d   1      -1.904   1.563   1.230  0.00  0.00    -0.004 A 
ATOM      5  C7  UNL d   1      -1.593   1.861  -0.095  0.00  0.00     0.002 A 
ATOM      6  C8  UNL d   1      -0.611   1.131  -0.766  0.00  0.00     0.002 A 
ENDROOT
BRANCH   1   7
ATOM      7  C2  UNL d   1       1.115  -0.712  -0.855  0.00  0.00     0.056 C 
BRANCH   7   8
ATOM      8  C1  UNL d   1       1.085  -2.211  -0.539  0.00  0.00     0.007 C 
ATOM      9  C   UNL d   1       0.740  -3.072  -1.747  0.00  0.00     0.009 C 
ENDBRANCH   7   8
ENDBRANCH   1   7
TORSDOF 2
ENDMDL
