MODEL 1
REMARK minimizedAffinity -3.66330338
REMARK minimizedRMSD -1
REMARK  2 active torsions:
REMARK  status: ('A' for Active; 'I' for Inactive)
REMARK    1  A    between atoms: C1_2  and  C2_3 
REMARK    2  A    between atoms: C2_3  and  C3_4 
ROOT
ATOM      1  C3  UNL d   1      -0.018   0.044   0.017  0.00  0.00    -0.075 A 
ATOM      2  C4  UNL d   1      -0.053   1.119  -0.884  0.00  0.00     0.002 A 
ATOM      3  C5  UNL d   1      -0.837   2.241  -0.617  0.00  0.00     0.002 A 
ATOM      4  C6  UNL d   1      -1.603   2.299   0.545  0.00  0.00    -0.004 A 
ATOM      5  C7  UNL d   1      -1.589   1.230   1.439  0.00  0.00     0.002 A 
ATOM      6  C8  UNL d   1      -0.801   0.108   1.177  0.00  0.00     0.002 A 
ENDROOT
BRANCH   1   7
ATOM      7  C2  UNL d   1       0.852  -1.160  -0.252  0.00  0.00     0.056 C 
BRANCH   7   8
ATOM      8  C1  UNL d   1       0.755  -1.693  -1.685  0.00  0.00     0.007 C 
ATOM      9  C   UNL d   1       0.709  -3.214  -1.759  0.00  0.00     0.009 C 
ENDBRANCH   7   8
ENDBRANCH   1   7
TORSDOF 2
ENDMDL
