MODEL 1
REMARK minimizedAffinity -3.22481465
REMARK minimizedRMSD -1
REMARK  2 active torsions:
REMARK  status: ('A' for Active; 'I' for Inactive)
REMARK    1  A    between atoms: C1_2  and  C2_3 
REMARK    2  A    between atoms: C2_3  and  C3_4 
ROOT
ATOM      1  C3  UNL d   1       0.666  -0.777  -0.641  0.00  0.00    -0.075 A 
ATOM      2  C4  UNL d   1       0.086  -1.068   0.603  0.00  0.00     0.002 A 
ATOM      3  C5  UNL d   1      -0.567  -0.072   1.329  0.00  0.00     0.002 A 
ATOM      4  C6  UNL d   1      -0.640   1.226   0.828  0.00  0.00    -0.004 A 
ATOM      5  C7  UNL d   1      -0.054   1.529  -0.399  0.00  0.00     0.002 A 
ATOM      6  C8  UNL d   1       0.596   0.534  -1.130  0.00  0.00     0.002 A 
ENDROOT
BRANCH   1   7
ATOM      7  C2  UNL d   1       1.348  -1.857  -1.446  0.00  0.00     0.056 C 
BRANCH   7   8
ATOM      8  C1  UNL d   1       0.402  -2.654  -2.351  0.00  0.00     0.007 C 
ATOM      9  C   UNL d   1      -0.121  -3.927  -1.700  0.00  0.00     0.009 C 
ENDBRANCH   7   8
ENDBRANCH   1   7
TORSDOF 2
ENDMDL
