MODEL 1
REMARK minimizedAffinity -5.34664965
REMARK minimizedRMSD -1
REMARK  2 active torsions:
REMARK  status: ('A' for Active; 'I' for Inactive)
REMARK    1  A    between atoms: C1_2  and  C2_3 
REMARK    2  A    between atoms: C2_3  and  C3_4 
ROOT
ATOM      1  C3  UNL d   1       0.319  -0.132  -0.324  0.00  0.00    -0.075 A 
ATOM      2  C4  UNL d   1      -0.452   1.016  -0.558  0.00  0.00     0.002 A 
ATOM      3  C5  UNL d   1      -1.216   1.577   0.465  0.00  0.00     0.002 A 
ATOM      4  C6  UNL d   1      -1.228   0.993   1.730  0.00  0.00    -0.004 A 
ATOM      5  C7  UNL d   1      -0.479  -0.157   1.970  0.00  0.00     0.002 A 
ATOM      6  C8  UNL d   1       0.290  -0.718   0.949  0.00  0.00     0.002 A 
ENDROOT
BRANCH   1   7
ATOM      7  C2  UNL d   1       1.171  -0.727  -1.419  0.00  0.00     0.056 C 
BRANCH   7   8
ATOM      8  C1  UNL d   1       1.248  -2.257  -1.388  0.00  0.00     0.007 C 
ATOM      9  C   UNL d   1       0.559  -2.917  -2.575  0.00  0.00     0.009 C 
ENDBRANCH   7   8
ENDBRANCH   1   7
TORSDOF 2
ENDMDL
