MODEL 1
REMARK minimizedAffinity -4.37553787
REMARK minimizedRMSD -1
REMARK  2 active torsions:
REMARK  status: ('A' for Active; 'I' for Inactive)
REMARK    1  A    between atoms: C1_2  and  C2_3 
REMARK    2  A    between atoms: C2_3  and  C3_4 
ROOT
ATOM      1  C3  UNL d   1       0.020  -0.187  -0.088  0.00  0.00    -0.075 A 
ATOM      2  C4  UNL d   1      -0.118  -0.512   1.269  0.00  0.00     0.002 A 
ATOM      3  C5  UNL d   1      -0.894   0.283   2.112  0.00  0.00     0.002 A 
ATOM      4  C6  UNL d   1      -1.532   1.417   1.614  0.00  0.00    -0.004 A 
ATOM      5  C7  UNL d   1      -1.387   1.759   0.271  0.00  0.00     0.002 A 
ATOM      6  C8  UNL d   1      -0.615   0.963  -0.576  0.00  0.00     0.002 A 
ENDROOT
BRANCH   1   7
ATOM      7  C2  UNL d   1       0.834  -1.060  -1.013  0.00  0.00     0.056 C 
BRANCH   7   8
ATOM      8  C1  UNL d   1       0.569  -2.560  -0.849  0.00  0.00     0.007 C 
ATOM      9  C   UNL d   1       0.015  -3.213  -2.108  0.00  0.00     0.009 C 
ENDBRANCH   7   8
ENDBRANCH   1   7
TORSDOF 2
ENDMDL
