MODEL 1
REMARK minimizedAffinity -1.01252341
REMARK minimizedRMSD -1
REMARK  2 active torsions:
REMARK  status: ('A' for Active; 'I' for Inactive)
REMARK    1  A    between atoms: C1_2  and  C2_3 
REMARK    2  A    between atoms: C2_3  and  C3_4 
ROOT
ATOM      1  C3  UNL d   1      -0.522   0.219   0.745  0.00  0.00    -0.075 A 
ATOM      2  C4  UNL d   1      -1.702   0.301  -0.008  0.00  0.00     0.002 A 
ATOM      3  C5  UNL d   1      -2.707   1.202   0.344  0.00  0.00     0.002 A 
ATOM      4  C6  UNL d   1      -2.550   2.023   1.458  0.00  0.00    -0.004 A 
ATOM      5  C7  UNL d   1      -1.390   1.939   2.224  0.00  0.00     0.002 A 
ATOM      6  C8  UNL d   1      -0.381   1.041   1.871  0.00  0.00     0.002 A 
ENDROOT
BRANCH   1   7
ATOM      7  C2  UNL d   1       0.582  -0.733   0.352  0.00  0.00     0.056 C 
BRANCH   7   8
ATOM      8  C1  UNL d   1       0.375  -1.398  -1.013  0.00  0.00     0.007 C 
ATOM      9  C   UNL d   1       0.989  -2.789  -1.103  0.00  0.00     0.009 C 
ENDBRANCH   7   8
ENDBRANCH   1   7
TORSDOF 2
ENDMDL
