MODEL 1
REMARK minimizedAffinity -3.04995155
REMARK minimizedRMSD -1
REMARK  2 active torsions:
REMARK  status: ('A' for Active; 'I' for Inactive)
REMARK    1  A    between atoms: C1_2  and  C2_3 
REMARK    2  A    between atoms: C2_3  and  C3_4 
ROOT
ATOM      1  C3  UNL d   1       0.574  -1.144  -1.496  0.00  0.00    -0.075 A 
ATOM      2  C4  UNL d   1      -0.142  -1.645  -2.594  0.00  0.00     0.002 A 
ATOM      3  C5  UNL d   1      -0.096  -3.003  -2.910  0.00  0.00     0.002 A 
ATOM      4  C6  UNL d   1       0.672  -3.875  -2.141  0.00  0.00    -0.004 A 
ATOM      5  C7  UNL d   1       1.400  -3.386  -1.058  0.00  0.00     0.002 A 
ATOM      6  C8  UNL d   1       1.352  -2.028  -0.737  0.00  0.00     0.002 A 
ENDROOT
BRANCH   1   7
ATOM      7  C2  UNL d   1       0.505   0.319  -1.132  0.00  0.00     0.056 C 
BRANCH   7   8
ATOM      8  C1  UNL d   1      -0.888   0.789  -0.697  0.00  0.00     0.007 C 
ATOM      9  C   UNL d   1      -1.048   2.303  -0.731  0.00  0.00     0.009 C 
ENDBRANCH   7   8
ENDBRANCH   1   7
TORSDOF 2
ENDMDL
