MODEL 1
REMARK minimizedAffinity -1.19083202
REMARK minimizedRMSD -1
REMARK  2 active torsions:
REMARK  status: ('A' for Active; 'I' for Inactive)
REMARK    1  A    between atoms: C1_2  and  C2_3 
REMARK    2  A    between atoms: C2_3  and  C3_4 
ROOT
ATOM      1  C3  UNL d   1      -0.314   0.566  -0.800  0.00  0.00    -0.075 A 
ATOM      2  C4  UNL d   1       0.553   1.641  -1.042  0.00  0.00     0.002 A 
ATOM      3  C5  UNL d   1       0.059   2.942  -1.140  0.00  0.00     0.002 A 
ATOM      4  C6  UNL d   1      -1.306   3.184  -1.009  0.00  0.00    -0.004 A 
ATOM      5  C7  UNL d   1      -2.180   2.122  -0.785  0.00  0.00     0.002 A 
ATOM      6  C8  UNL d   1      -1.688   0.819  -0.682  0.00  0.00     0.002 A 
ENDROOT
BRANCH   1   7
ATOM      7  C2  UNL d   1       0.217  -0.840  -0.664  0.00  0.00     0.056 C 
BRANCH   7   8
ATOM      8  C1  UNL d   1       1.084  -1.061   0.581  0.00  0.00     0.007 C 
ATOM      9  C   UNL d   1       0.270  -1.237   1.856  0.00  0.00     0.009 C 
ENDBRANCH   7   8
ENDBRANCH   1   7
TORSDOF 2
ENDMDL
