MODEL 1
REMARK minimizedAffinity -3.66251564
REMARK minimizedRMSD -1
REMARK  2 active torsions:
REMARK  status: ('A' for Active; 'I' for Inactive)
REMARK    1  A    between atoms: C1_2  and  C2_3 
REMARK    2  A    between atoms: C2_3  and  C3_4 
ROOT
ATOM      1  C3  UNL d   1       0.744   0.006  -0.655  0.00  0.00    -0.075 A 
ATOM      2  C4  UNL d   1       0.662   1.257  -1.283  0.00  0.00     0.002 A 
ATOM      3  C5  UNL d   1      -0.288   2.194  -0.875  0.00  0.00     0.002 A 
ATOM      4  C6  UNL d   1      -1.173   1.889   0.156  0.00  0.00    -0.004 A 
ATOM      5  C7  UNL d   1      -1.113   0.642   0.776  0.00  0.00     0.002 A 
ATOM      6  C8  UNL d   1      -0.160  -0.295   0.373  0.00  0.00     0.002 A 
ENDROOT
BRANCH   1   7
ATOM      7  C2  UNL d   1       1.789  -1.001  -1.072  0.00  0.00     0.056 C 
BRANCH   7   8
ATOM      8  C1  UNL d   1       1.239  -2.413  -1.300  0.00  0.00     0.007 C 
ATOM      9  C   UNL d   1       0.480  -2.557  -2.612  0.00  0.00     0.009 C 
ENDBRANCH   7   8
ENDBRANCH   1   7
TORSDOF 2
ENDMDL
