MODEL 1
REMARK minimizedAffinity -2.74694252
REMARK minimizedRMSD -1
REMARK  2 active torsions:
REMARK  status: ('A' for Active; 'I' for Inactive)
REMARK    1  A    between atoms: C1_2  and  C2_3 
REMARK    2  A    between atoms: C2_3  and  C3_4 
ROOT
ATOM      1  C3  UNL d   1       0.026  -0.152  -0.342  0.00  0.00    -0.075 A 
ATOM      2  C4  UNL d   1       0.878   0.824  -0.878  0.00  0.00     0.002 A 
ATOM      3  C5  UNL d   1       0.393   2.094  -1.191  0.00  0.00     0.002 A 
ATOM      4  C6  UNL d   1      -0.950   2.400  -0.983  0.00  0.00    -0.004 A 
ATOM      5  C7  UNL d   1      -1.810   1.433  -0.466  0.00  0.00     0.002 A 
ATOM      6  C8  UNL d   1      -1.326   0.163  -0.147  0.00  0.00     0.002 A 
ENDROOT
BRANCH   1   7
ATOM      7  C2  UNL d   1       0.552  -1.519   0.027  0.00  0.00     0.056 C 
BRANCH   7   8
ATOM      8  C1  UNL d   1      -0.269  -2.679  -0.547  0.00  0.00     0.007 C 
ATOM      9  C   UNL d   1       0.516  -3.544  -1.524  0.00  0.00     0.009 C 
ENDBRANCH   7   8
ENDBRANCH   1   7
TORSDOF 2
ENDMDL
