MODEL 1
REMARK minimizedAffinity -0.0508840494
REMARK minimizedRMSD -1
REMARK  0 active torsions:
REMARK  status: ('A' for Active; 'I' for Inactive)
ROOT
ATOM      1  C   UNL d   1       0.603  -2.359   5.966  0.00  0.00     0.124 A 
ATOM      2  C1  UNL d   1      -0.756  -2.077   5.979  0.00  0.00     0.062 A 
ATOM      3  C2  UNL d   1      -1.685  -3.114   5.978  0.00  0.00     0.162 A 
ATOM      4  C3  UNL d   1      -1.259  -4.442   5.965  0.00  0.00    -0.034 A 
ATOM      5  C4  UNL d   1       0.110  -4.717   5.951  0.00  0.00     0.162 A 
ATOM      6  C5  UNL d   1       1.035  -3.677   5.952  0.00  0.00     0.062 A 
ATOM      7  F   UNL d   1       2.347  -3.951   5.940  0.00  0.00    -0.097 F 
ATOM      8  F1  UNL d   1       0.555  -5.982   5.938  0.00  0.00    -0.096 F 
ATOM      9  I   UNL d   1      -2.645  -5.994   5.963  0.00  0.00    -0.060 I 
ATOM     10  F2  UNL d   1      -2.992  -2.813   5.991  0.00  0.00    -0.096 F 
ATOM     11  F3  UNL d   1      -1.176  -0.804   5.992  0.00  0.00    -0.097 F 
ATOM     12  F4  UNL d   1       1.495  -1.360   5.966  0.00  0.00    -0.092 F 
ENDROOT
TORSDOF 0
ENDMDL
