MODEL 1
REMARK minimizedAffinity 2.08242559
REMARK minimizedRMSD -1
REMARK  0 active torsions:
REMARK  status: ('A' for Active; 'I' for Inactive)
ROOT
ATOM      1  C   UNL d   1      -1.513   1.056   2.757  0.00  0.00     0.124 A 
ATOM      2  C1  UNL d   1      -0.320   1.088   2.048  0.00  0.00     0.062 A 
ATOM      3  C2  UNL d   1      -0.184   0.356   0.872  0.00  0.00     0.162 A 
ATOM      4  C3  UNL d   1      -1.245  -0.415   0.397  0.00  0.00    -0.034 A 
ATOM      5  C4  UNL d   1      -2.442  -0.443   1.115  0.00  0.00     0.162 A 
ATOM      6  C5  UNL d   1      -2.572   0.291   2.290  0.00  0.00     0.062 A 
ATOM      7  F   UNL d   1      -3.726   0.258   2.973  0.00  0.00    -0.097 F 
ATOM      8  F1  UNL d   1      -3.482  -1.173   0.686  0.00  0.00    -0.096 F 
ATOM      9  I   UNL d   1      -1.046  -1.511  -1.361  0.00  0.00    -0.060 I 
ATOM     10  F2  UNL d   1       0.980   0.405   0.208  0.00  0.00    -0.096 F 
ATOM     11  F3  UNL d   1       0.705   1.826   2.498  0.00  0.00    -0.097 F 
ATOM     12  F4  UNL d   1      -1.641   1.760   3.888  0.00  0.00    -0.092 F 
ENDROOT
TORSDOF 0
ENDMDL
