MODEL 1
REMARK minimizedAffinity 10.3748474
REMARK minimizedRMSD -1
REMARK  0 active torsions:
REMARK  status: ('A' for Active; 'I' for Inactive)
ROOT
ATOM      1  C   UNL d   1      -1.645  -1.155  -0.433  0.00  0.00     0.124 A 
ATOM      2  C1  UNL d   1      -1.401  -1.563  -1.737  0.00  0.00     0.062 A 
ATOM      3  C2  UNL d   1      -1.217  -2.913  -2.025  0.00  0.00     0.162 A 
ATOM      4  C3  UNL d   1      -1.278  -3.864  -1.007  0.00  0.00    -0.034 A 
ATOM      5  C4  UNL d   1      -1.524  -3.446   0.302  0.00  0.00     0.162 A 
ATOM      6  C5  UNL d   1      -1.707  -2.096   0.585  0.00  0.00     0.062 A 
ATOM      7  F   UNL d   1      -1.943  -1.704   1.845  0.00  0.00    -0.097 F 
ATOM      8  F1  UNL d   1      -1.589  -4.334   1.305  0.00  0.00    -0.096 F 
ATOM      9  I   UNL d   1      -1.004  -5.883  -1.433  0.00  0.00    -0.060 I 
ATOM     10  F2  UNL d   1      -0.982  -3.279  -3.294  0.00  0.00    -0.096 F 
ATOM     11  F3  UNL d   1      -1.340  -0.656  -2.722  0.00  0.00    -0.097 F 
ATOM     12  F4  UNL d   1      -1.821   0.144  -0.158  0.00  0.00    -0.092 F 
ENDROOT
TORSDOF 0
ENDMDL
