MODEL 1
REMARK minimizedAffinity 17.3324394
REMARK minimizedRMSD -1
REMARK  0 active torsions:
REMARK  status: ('A' for Active; 'I' for Inactive)
ROOT
ATOM      1  C   UNL d   1      -3.327  -2.308  -3.696  0.00  0.00     0.124 A 
ATOM      2  C1  UNL d   1      -4.597  -1.918  -3.295  0.00  0.00     0.062 A 
ATOM      3  C2  UNL d   1      -4.761  -1.124  -2.164  0.00  0.00     0.162 A 
ATOM      4  C3  UNL d   1      -3.651  -0.713  -1.426  0.00  0.00    -0.034 A 
ATOM      5  C4  UNL d   1      -2.376  -1.110  -1.835  0.00  0.00     0.162 A 
ATOM      6  C5  UNL d   1      -2.218  -1.904  -2.966  0.00  0.00     0.062 A 
ATOM      7  F   UNL d   1      -0.990  -2.280  -3.353  0.00  0.00    -0.097 F 
ATOM      8  F1  UNL d   1      -1.288  -0.733  -1.149  0.00  0.00    -0.096 F 
ATOM      9  I   UNL d   1      -3.891   0.474   0.266  0.00  0.00    -0.060 I 
ATOM     10  F2  UNL d   1      -6.000  -0.762  -1.799  0.00  0.00    -0.096 F 
ATOM     11  F3  UNL d   1      -5.670  -2.308  -3.998  0.00  0.00    -0.097 F 
ATOM     12  F4  UNL d   1      -3.172  -3.073  -4.785  0.00  0.00    -0.092 F 
ENDROOT
TORSDOF 0
ENDMDL
