MODEL 1
REMARK minimizedAffinity 16.0696621
REMARK minimizedRMSD -1
REMARK  0 active torsions:
REMARK  status: ('A' for Active; 'I' for Inactive)
ROOT
ATOM      1  C   UNL d   1       0.338  -1.439   5.591  0.00  0.00     0.124 A 
ATOM      2  C1  UNL d   1      -0.642  -0.485   5.356  0.00  0.00     0.062 A 
ATOM      3  C2  UNL d   1      -0.288   0.793   4.932  0.00  0.00     0.162 A 
ATOM      4  C3  UNL d   1       1.053   1.124   4.738  0.00  0.00    -0.034 A 
ATOM      5  C4  UNL d   1       2.033   0.159   4.977  0.00  0.00     0.162 A 
ATOM      6  C5  UNL d   1       1.674  -1.117   5.401  0.00  0.00     0.062 A 
ATOM      7  F   UNL d   1       2.622  -2.037   5.627  0.00  0.00    -0.097 F 
ATOM      8  F1  UNL d   1       3.332   0.443   4.801  0.00  0.00    -0.096 F 
ATOM      9  I   UNL d   1       1.587   3.033   4.104  0.00  0.00    -0.060 I 
ATOM     10  F2  UNL d   1      -1.256   1.695   4.713  0.00  0.00    -0.096 F 
ATOM     11  F3  UNL d   1      -1.934  -0.793   5.539  0.00  0.00    -0.097 F 
ATOM     12  F4  UNL d   1      -0.006  -2.667   6.000  0.00  0.00    -0.092 F 
ENDROOT
TORSDOF 0
ENDMDL
