MODEL 1
REMARK minimizedAffinity 24.9544735
REMARK minimizedRMSD -1
REMARK  0 active torsions:
REMARK  status: ('A' for Active; 'I' for Inactive)
ROOT
ATOM      1  C   UNL d   1      -4.526  -0.748   1.322  0.00  0.00     0.124 A 
ATOM      2  C1  UNL d   1      -3.393  -1.540   1.444  0.00  0.00     0.062 A 
ATOM      3  C2  UNL d   1      -2.639  -1.862   0.319  0.00  0.00     0.162 A 
ATOM      4  C3  UNL d   1      -3.014  -1.390  -0.938  0.00  0.00    -0.034 A 
ATOM      5  C4  UNL d   1      -4.155  -0.594  -1.054  0.00  0.00     0.162 A 
ATOM      6  C5  UNL d   1      -4.906  -0.275   0.073  0.00  0.00     0.062 A 
ATOM      7  F   UNL d   1      -6.000   0.491  -0.047  0.00  0.00    -0.097 F 
ATOM      8  F1  UNL d   1      -4.545  -0.123  -2.248  0.00  0.00    -0.096 F 
ATOM      9  I   UNL d   1      -1.889  -1.868  -2.623  0.00  0.00    -0.060 I 
ATOM     10  F2  UNL d   1      -1.549  -2.630   0.467  0.00  0.00    -0.096 F 
ATOM     11  F3  UNL d   1      -3.024  -1.999   2.649  0.00  0.00    -0.097 F 
ATOM     12  F4  UNL d   1      -5.250  -0.441   2.405  0.00  0.00    -0.092 F 
ENDROOT
TORSDOF 0
ENDMDL
