MODEL 1
REMARK minimizedAffinity 16.9931946
REMARK minimizedRMSD -1
REMARK  0 active torsions:
REMARK  status: ('A' for Active; 'I' for Inactive)
ROOT
ATOM      1  C   UNL d   1       0.193   1.394   3.659  0.00  0.00     0.124 A 
ATOM      2  C1  UNL d   1       0.369   2.345   2.663  0.00  0.00     0.062 A 
ATOM      3  C2  UNL d   1       1.060   2.020   1.499  0.00  0.00     0.162 A 
ATOM      4  C3  UNL d   1       1.579   0.737   1.324  0.00  0.00    -0.034 A 
ATOM      5  C4  UNL d   1       1.399  -0.214   2.330  0.00  0.00     0.162 A 
ATOM      6  C5  UNL d   1       0.708   0.116   3.492  0.00  0.00     0.062 A 
ATOM      7  F   UNL d   1       0.539  -0.804   4.453  0.00  0.00    -0.097 F 
ATOM      8  F1  UNL d   1       1.885  -1.456   2.194  0.00  0.00    -0.096 F 
ATOM      9  I   UNL d   1       2.612   0.247  -0.415  0.00  0.00    -0.060 I 
ATOM     10  F2  UNL d   1       1.214   2.959   0.554  0.00  0.00    -0.096 F 
ATOM     11  F3  UNL d   1      -0.126   3.580   2.823  0.00  0.00    -0.097 F 
ATOM     12  F4  UNL d   1      -0.470   1.710   4.779  0.00  0.00    -0.092 F 
ENDROOT
TORSDOF 0
ENDMDL
