MODEL 1
REMARK minimizedAffinity 17.1938896
REMARK minimizedRMSD -1
REMARK  0 active torsions:
REMARK  status: ('A' for Active; 'I' for Inactive)
ROOT
ATOM      1  C   UNL d   1       0.639   0.401   0.436  0.00  0.00     0.124 A 
ATOM      2  C1  UNL d   1       1.959   0.628   0.072  0.00  0.00     0.062 A 
ATOM      3  C2  UNL d   1       2.624  -0.279  -0.748  0.00  0.00     0.162 A 
ATOM      4  C3  UNL d   1       1.970  -1.422  -1.210  0.00  0.00    -0.034 A 
ATOM      5  C4  UNL d   1       0.643  -1.643  -0.838  0.00  0.00     0.162 A 
ATOM      6  C5  UNL d   1      -0.017  -0.734  -0.019  0.00  0.00     0.062 A 
ATOM      7  F   UNL d   1      -1.292  -0.955   0.333  0.00  0.00    -0.097 F 
ATOM      8  F1  UNL d   1      -0.015  -2.731  -1.264  0.00  0.00    -0.096 F 
ATOM      9  I   UNL d   1       2.962  -2.780  -2.436  0.00  0.00    -0.060 I 
ATOM     10  F2  UNL d   1       3.900  -0.035  -1.085  0.00  0.00    -0.096 F 
ATOM     11  F3  UNL d   1       2.596   1.723   0.511  0.00  0.00    -0.097 F 
ATOM     12  F4  UNL d   1       0.002   1.275   1.226  0.00  0.00    -0.092 F 
ENDROOT
TORSDOF 0
ENDMDL
