MODEL 1
REMARK minimizedAffinity -4.99857759
REMARK minimizedRMSD -1
REMARK  1 active torsions:
REMARK  status: ('A' for Active; 'I' for Inactive)
REMARK    1  A    between atoms: C3_4  and  O_7 
ROOT
ATOM      1  C   UNL d   1      -0.360  -0.952  -1.193  0.00  0.00    -0.033 A 
ATOM      2  C1  UNL d   1      -0.519  -1.088   0.188  0.00  0.00     0.039 A 
ATOM      3  C2  UNL d   1      -0.237  -2.307   0.808  0.00  0.00    -0.080 A 
ATOM      4  C3  UNL d   1       0.202  -3.380   0.038  0.00  0.00     0.150 A 
ATOM      5  C4  UNL d   1       0.366  -3.251  -1.337  0.00  0.00    -0.007 A 
ATOM      6  C5  UNL d   1       0.084  -2.033  -1.955  0.00  0.00     0.039 A 
ENDROOT
BRANCH   4   7
ATOM      7  O   UNL d   1       0.485  -4.590   0.598  0.00  0.00    -0.526 OA
ATOM      8  H5  UNL d   1       0.299  -4.540   1.551  0.00  0.00     0.418 HD
ENDBRANCH   4   7
TORSDOF 1
ENDMDL
