MODEL 1
REMARK minimizedAffinity -3.90266299
REMARK minimizedRMSD -1
REMARK  1 active torsions:
REMARK  status: ('A' for Active; 'I' for Inactive)
REMARK    1  A    between atoms: C3_4  and  O_7 
ROOT
ATOM      1  C   UNL d   1       0.423  -4.093  -1.231  0.00  0.00    -0.033 A 
ATOM      2  C1  UNL d   1       0.510  -3.072  -2.178  0.00  0.00     0.039 A 
ATOM      3  C2  UNL d   1       0.405  -1.737  -1.781  0.00  0.00    -0.080 A 
ATOM      4  C3  UNL d   1       0.215  -1.439  -0.434  0.00  0.00     0.150 A 
ATOM      5  C4  UNL d   1       0.131  -2.451   0.516  0.00  0.00    -0.007 A 
ATOM      6  C5  UNL d   1       0.235  -3.783   0.117  0.00  0.00     0.039 A 
ENDROOT
BRANCH   4   7
ATOM      7  O   UNL d   1       0.102  -0.152   0.001  0.00  0.00    -0.526 OA
ATOM      8  H5  UNL d   1       0.150   0.439  -0.769  0.00  0.00     0.418 HD
ENDBRANCH   4   7
TORSDOF 1
ENDMDL
