MODEL 1
REMARK minimizedAffinity -3.9309144
REMARK minimizedRMSD -1
REMARK  1 active torsions:
REMARK  status: ('A' for Active; 'I' for Inactive)
REMARK    1  A    between atoms: C3_4  and  O_7 
ROOT
ATOM      1  C   UNL d   1      -0.841   0.309   0.673  0.00  0.00    -0.033 A 
ATOM      2  C1  UNL d   1      -1.853  -0.621   0.917  0.00  0.00     0.039 A 
ATOM      3  C2  UNL d   1      -1.610  -1.984   0.739  0.00  0.00    -0.080 A 
ATOM      4  C3  UNL d   1      -0.351  -2.404   0.318  0.00  0.00     0.150 A 
ATOM      5  C4  UNL d   1       0.664  -1.483   0.077  0.00  0.00    -0.007 A 
ATOM      6  C5  UNL d   1       0.418  -0.122   0.254  0.00  0.00     0.039 A 
ENDROOT
BRANCH   4   7
ATOM      7  O   UNL d   1      -0.067  -3.723   0.125  0.00  0.00    -0.526 OA
ATOM      8  H5  UNL d   1      -0.871  -4.240   0.303  0.00  0.00     0.418 HD
ENDBRANCH   4   7
TORSDOF 1
ENDMDL
