MODEL 1
REMARK minimizedAffinity -2.61735606
REMARK minimizedRMSD -1
REMARK  1 active torsions:
REMARK  status: ('A' for Active; 'I' for Inactive)
REMARK    1  A    between atoms: C3_4  and  O_7 
ROOT
ATOM      1  C   UNL d   1       2.249   3.737   1.184  0.00  0.00    -0.033 A 
ATOM      2  C1  UNL d   1       0.892   3.699   1.510  0.00  0.00     0.039 A 
ATOM      3  C2  UNL d   1       0.016   2.900   0.772  0.00  0.00    -0.080 A 
ATOM      4  C3  UNL d   1       0.510   2.143  -0.286  0.00  0.00     0.150 A 
ATOM      5  C4  UNL d   1       1.861   2.172  -0.614  0.00  0.00    -0.007 A 
ATOM      6  C5  UNL d   1       2.734   2.972   0.123  0.00  0.00     0.039 A 
ENDROOT
BRANCH   4   7
ATOM      7  O   UNL d   1      -0.307   1.351  -1.038  0.00  0.00    -0.526 OA
ATOM      8  H5  UNL d   1      -1.217   1.453  -0.715  0.00  0.00     0.418 HD
ENDBRANCH   4   7
TORSDOF 1
ENDMDL
