MODEL 1
REMARK minimizedAffinity -4.11131096
REMARK minimizedRMSD -1
REMARK  1 active torsions:
REMARK  status: ('A' for Active; 'I' for Inactive)
REMARK    1  A    between atoms: C3_4  and  O_7 
ROOT
ATOM      1  C   UNL d   1       0.257  -2.022  -2.759  0.00  0.00    -0.033 A 
ATOM      2  C1  UNL d   1      -0.329  -3.182  -2.250  0.00  0.00     0.039 A 
ATOM      3  C2  UNL d   1      -0.710  -3.244  -0.908  0.00  0.00    -0.080 A 
ATOM      4  C3  UNL d   1      -0.499  -2.139  -0.087  0.00  0.00     0.150 A 
ATOM      5  C4  UNL d   1       0.081  -0.979  -0.588  0.00  0.00    -0.007 A 
ATOM      6  C5  UNL d   1       0.461  -0.920  -1.928  0.00  0.00     0.039 A 
ENDROOT
BRANCH   4   7
ATOM      7  O   UNL d   1      -0.849  -2.154   1.231  0.00  0.00    -0.526 OA
ATOM      8  H5  UNL d   1      -1.211  -3.030   1.443  0.00  0.00     0.418 HD
ENDBRANCH   4   7
TORSDOF 1
ENDMDL
