MODEL 1
REMARK minimizedAffinity -5.0766058
REMARK minimizedRMSD -1
REMARK  1 active torsions:
REMARK  status: ('A' for Active; 'I' for Inactive)
REMARK    1  A    between atoms: C3_4  and  O_7 
ROOT
ATOM      1  C   UNL d   1      -1.037  -0.367   1.384  0.00  0.00    -0.033 A 
ATOM      2  C1  UNL d   1      -0.540   0.291   0.257  0.00  0.00     0.039 A 
ATOM      3  C2  UNL d   1      -0.025  -0.444  -0.812  0.00  0.00    -0.080 A 
ATOM      4  C3  UNL d   1      -0.013  -1.834  -0.744  0.00  0.00     0.150 A 
ATOM      5  C4  UNL d   1      -0.510  -2.497   0.374  0.00  0.00    -0.007 A 
ATOM      6  C5  UNL d   1      -1.024  -1.761   1.441  0.00  0.00     0.039 A 
ENDROOT
BRANCH   4   7
ATOM      7  O   UNL d   1       0.484  -2.594  -1.760  0.00  0.00    -0.526 OA
ATOM      8  H5  UNL d   1       0.819  -2.000  -2.453  0.00  0.00     0.418 HD
ENDBRANCH   4   7
TORSDOF 1
ENDMDL
