MODEL 1
REMARK minimizedAffinity -4.41605997
REMARK minimizedRMSD -1
REMARK  1 active torsions:
REMARK  status: ('A' for Active; 'I' for Inactive)
REMARK    1  A    between atoms: C3_4  and  O_7 
ROOT
ATOM      1  C   UNL d   1      -0.174  -3.463  -0.062  0.00  0.00    -0.033 A 
ATOM      2  C1  UNL d   1      -0.412  -2.730   1.102  0.00  0.00     0.039 A 
ATOM      3  C2  UNL d   1      -0.270  -1.341   1.095  0.00  0.00    -0.080 A 
ATOM      4  C3  UNL d   1       0.109  -0.698  -0.080  0.00  0.00     0.150 A 
ATOM      5  C4  UNL d   1       0.345  -1.422  -1.244  0.00  0.00    -0.007 A 
ATOM      6  C5  UNL d   1       0.203  -2.809  -1.236  0.00  0.00     0.039 A 
ENDROOT
BRANCH   4   7
ATOM      7  O   UNL d   1       0.265   0.655  -0.133  0.00  0.00    -0.526 OA
ATOM      8  H5  UNL d   1       0.097   1.019   0.752  0.00  0.00     0.418 HD
ENDBRANCH   4   7
TORSDOF 1
ENDMDL
