MODEL 1
REMARK minimizedAffinity -5.14109993
REMARK minimizedRMSD -1
REMARK  1 active torsions:
REMARK  status: ('A' for Active; 'I' for Inactive)
REMARK    1  A    between atoms: C3_4  and  O_7 
ROOT
ATOM      1  C   UNL d   1      -0.082  -3.857  -0.269  0.00  0.00    -0.033 A 
ATOM      2  C1  UNL d   1      -0.180  -3.074   0.883  0.00  0.00     0.039 A 
ATOM      3  C2  UNL d   1      -0.101  -1.683   0.793  0.00  0.00    -0.080 A 
ATOM      4  C3  UNL d   1       0.073  -1.088  -0.453  0.00  0.00     0.150 A 
ATOM      5  C4  UNL d   1       0.167  -1.861  -1.606  0.00  0.00    -0.007 A 
ATOM      6  C5  UNL d   1       0.089  -3.250  -1.514  0.00  0.00     0.039 A 
ENDROOT
BRANCH   4   7
ATOM      7  O   UNL d   1       0.160   0.266  -0.591  0.00  0.00    -0.526 OA
ATOM      8  H5  UNL d   1       0.108   0.669   0.292  0.00  0.00     0.418 HD
ENDBRANCH   4   7
TORSDOF 1
ENDMDL
