MODEL 1
REMARK minimizedAffinity -2.47097182
REMARK minimizedRMSD -1
REMARK  1 active torsions:
REMARK  status: ('A' for Active; 'I' for Inactive)
REMARK    1  A    between atoms: C3_4  and  O_7 
ROOT
ATOM      1  C   UNL d   1       1.802   3.563   0.424  0.00  0.00    -0.033 A 
ATOM      2  C1  UNL d   1       0.432   3.402   0.211  0.00  0.00     0.039 A 
ATOM      3  C2  UNL d   1      -0.080   2.151  -0.140  0.00  0.00    -0.080 A 
ATOM      4  C3  UNL d   1       0.788   1.070  -0.273  0.00  0.00     0.150 A 
ATOM      5  C4  UNL d   1       2.154   1.223  -0.058  0.00  0.00    -0.007 A 
ATOM      6  C5  UNL d   1       2.663   2.473   0.291  0.00  0.00     0.039 A 
ENDROOT
BRANCH   4   7
ATOM      7  O   UNL d   1       0.336  -0.168  -0.618  0.00  0.00    -0.526 OA
ATOM      8  H5  UNL d   1      -0.624  -0.117  -0.762  0.00  0.00     0.418 HD
ENDBRANCH   4   7
TORSDOF 1
ENDMDL
