MODEL 1
REMARK minimizedAffinity -4.87843609
REMARK minimizedRMSD -1
REMARK  1 active torsions:
REMARK  status: ('A' for Active; 'I' for Inactive)
REMARK    1  A    between atoms: C3_4  and  O_7 
ROOT
ATOM      1  C   UNL d   1      -0.257   0.356   0.279  0.00  0.00    -0.033 A 
ATOM      2  C1  UNL d   1       0.585  -0.309  -0.615  0.00  0.00     0.039 A 
ATOM      3  C2  UNL d   1       0.730  -1.695  -0.541  0.00  0.00    -0.080 A 
ATOM      4  C3  UNL d   1       0.028  -2.405   0.429  0.00  0.00     0.150 A 
ATOM      5  C4  UNL d   1      -0.815  -1.750   1.321  0.00  0.00    -0.007 A 
ATOM      6  C5  UNL d   1      -0.958  -0.365   1.246  0.00  0.00     0.039 A 
ENDROOT
BRANCH   4   7
ATOM      7  O   UNL d   1       0.142  -3.759   0.544  0.00  0.00    -0.526 OA
ATOM      8  H5  UNL d   1       0.780  -4.071  -0.119  0.00  0.00     0.418 HD
ENDBRANCH   4   7
TORSDOF 1
ENDMDL
