MODEL 1
REMARK minimizedAffinity -4.86603069
REMARK minimizedRMSD -1
REMARK  1 active torsions:
REMARK  status: ('A' for Active; 'I' for Inactive)
REMARK    1  A    between atoms: C3_4  and  O_7 
ROOT
ATOM      1  C   UNL d   1      -0.522  -1.741   0.324  0.00  0.00    -0.033 A 
ATOM      2  C1  UNL d   1      -0.532  -0.345   0.336  0.00  0.00     0.039 A 
ATOM      3  C2  UNL d   1      -0.480   0.365  -0.866  0.00  0.00    -0.080 A 
ATOM      4  C3  UNL d   1      -0.421  -0.332  -2.069  0.00  0.00     0.150 A 
ATOM      5  C4  UNL d   1      -0.415  -1.723  -2.088  0.00  0.00    -0.007 A 
ATOM      6  C5  UNL d   1      -0.465  -2.430  -0.887  0.00  0.00     0.039 A 
ENDROOT
BRANCH   4   7
ATOM      7  O   UNL d   1      -0.364   0.318  -3.267  0.00  0.00    -0.526 OA
ATOM      8  H5  UNL d   1      -0.346   1.274  -3.097  0.00  0.00     0.418 HD
ENDBRANCH   4   7
TORSDOF 1
ENDMDL
