MODEL 1
REMARK minimizedAffinity -3.2385397
REMARK minimizedRMSD -1
REMARK  1 active torsions:
REMARK  status: ('A' for Active; 'I' for Inactive)
REMARK    1  A    between atoms: C3_4  and  O_7 
ROOT
ATOM      1  C   UNL d   1      -0.343   0.574   0.020  0.00  0.00    -0.033 A 
ATOM      2  C1  UNL d   1      -0.995   0.197   1.196  0.00  0.00     0.039 A 
ATOM      3  C2  UNL d   1      -0.932  -1.126   1.637  0.00  0.00    -0.080 A 
ATOM      4  C3  UNL d   1      -0.215  -2.061   0.895  0.00  0.00     0.150 A 
ATOM      5  C4  UNL d   1       0.439  -1.691  -0.275  0.00  0.00    -0.007 A 
ATOM      6  C5  UNL d   1       0.375  -0.370  -0.715  0.00  0.00     0.039 A 
ENDROOT
BRANCH   4   7
ATOM      7  O   UNL d   1      -0.130  -3.365   1.284  0.00  0.00    -0.526 OA
ATOM      8  H5  UNL d   1      -0.654  -3.479   2.094  0.00  0.00     0.418 HD
ENDBRANCH   4   7
TORSDOF 1
ENDMDL
