MODEL 1
REMARK minimizedAffinity -2.80071115
REMARK minimizedRMSD -1
REMARK  1 active torsions:
REMARK  status: ('A' for Active; 'I' for Inactive)
REMARK    1  A    between atoms: C3_4  and  O_7 
ROOT
ATOM      1  C   UNL d   1      -0.009   0.131  -0.969  0.00  0.00    -0.033 A 
ATOM      2  C1  UNL d   1      -0.632  -0.034   0.269  0.00  0.00     0.039 A 
ATOM      3  C2  UNL d   1      -0.795  -1.313   0.806  0.00  0.00    -0.080 A 
ATOM      4  C3  UNL d   1      -0.330  -2.416   0.095  0.00  0.00     0.150 A 
ATOM      5  C4  UNL d   1       0.295  -2.258  -1.138  0.00  0.00    -0.007 A 
ATOM      6  C5  UNL d   1       0.455  -0.981  -1.672  0.00  0.00     0.039 A 
ENDROOT
BRANCH   4   7
ATOM      7  O   UNL d   1      -0.470  -3.684   0.576  0.00  0.00    -0.526 OA
ATOM      8  H5  UNL d   1      -0.945  -3.641   1.423  0.00  0.00     0.418 HD
ENDBRANCH   4   7
TORSDOF 1
ENDMDL
