MODEL 1
REMARK minimizedAffinity -4.04923439
REMARK minimizedRMSD -1
REMARK  1 active torsions:
REMARK  status: ('A' for Active; 'I' for Inactive)
REMARK    1  A    between atoms: C3_4  and  O_7 
ROOT
ATOM      1  C   UNL d   1      -0.993   0.256   1.455  0.00  0.00    -0.033 A 
ATOM      2  C1  UNL d   1      -0.793   0.807   0.188  0.00  0.00     0.039 A 
ATOM      3  C2  UNL d   1      -0.475  -0.018  -0.892  0.00  0.00    -0.080 A 
ATOM      4  C3  UNL d   1      -0.362  -1.391  -0.693  0.00  0.00     0.150 A 
ATOM      5  C4  UNL d   1      -0.564  -1.948   0.566  0.00  0.00    -0.007 A 
ATOM      6  C5  UNL d   1      -0.880  -1.122   1.643  0.00  0.00     0.039 A 
ENDROOT
BRANCH   4   7
ATOM      7  O   UNL d   1      -0.050  -2.236  -1.716  0.00  0.00    -0.526 OA
ATOM      8  H5  UNL d   1       0.089  -1.708  -2.520  0.00  0.00     0.418 HD
ENDBRANCH   4   7
TORSDOF 1
ENDMDL
