MODEL 1
REMARK minimizedAffinity 7.44371367
REMARK minimizedRMSD -1
REMARK  2 active torsions:
REMARK  status: ('A' for Active; 'I' for Inactive)
REMARK    1  A    between atoms: C1_2  and  C2_3 
REMARK    2  A    between atoms: C2_3  and  C3_4 
ROOT
ATOM      1  C3  UNL d   1      -0.197   3.747   1.727  0.00  0.00    -0.075 A 
ATOM      2  C4  UNL d   1      -0.642   5.069   1.876  0.00  0.00     0.002 A 
ATOM      3  C5  UNL d   1      -0.671   5.934   0.781  0.00  0.00     0.002 A 
ATOM      4  C6  UNL d   1      -0.247   5.493  -0.470  0.00  0.00    -0.004 A 
ATOM      5  C7  UNL d   1       0.213   4.187  -0.626  0.00  0.00     0.002 A 
ATOM      6  C8  UNL d   1       0.239   3.318   0.466  0.00  0.00     0.002 A 
ENDROOT
BRANCH   1   7
ATOM      7  C2  UNL d   1      -0.191   2.797   2.901  0.00  0.00     0.056 C 
BRANCH   7   8
ATOM      8  C1  UNL d   1       1.197   2.250   3.253  0.00  0.00     0.007 C 
ATOM      9  C   UNL d   1       2.236   3.342   3.470  0.00  0.00     0.009 C 
ENDBRANCH   7   8
ENDBRANCH   1   7
TORSDOF 2
ENDMDL
