MODEL 1
REMARK minimizedAffinity 7.46543169
REMARK minimizedRMSD -1
REMARK  2 active torsions:
REMARK  status: ('A' for Active; 'I' for Inactive)
REMARK    1  A    between atoms: C1_2  and  C2_3 
REMARK    2  A    between atoms: C2_3  and  C3_4 
ROOT
ATOM      1  C3  UNL d   1       4.689  -4.377  -2.136  0.00  0.00    -0.075 A 
ATOM      2  C4  UNL d   1       3.587  -5.184  -1.819  0.00  0.00     0.002 A 
ATOM      3  C5  UNL d   1       2.998  -5.993  -2.791  0.00  0.00     0.002 A 
ATOM      4  C6  UNL d   1       3.497  -5.999  -4.092  0.00  0.00    -0.004 A 
ATOM      5  C7  UNL d   1       4.581  -5.189  -4.422  0.00  0.00     0.002 A 
ATOM      6  C8  UNL d   1       5.174  -4.381  -3.450  0.00  0.00     0.002 A 
ENDROOT
BRANCH   1   7
ATOM      7  C2  UNL d   1       5.349  -3.522  -1.081  0.00  0.00     0.056 C 
BRANCH   7   8
ATOM      8  C1  UNL d   1       5.053  -2.024  -1.217  0.00  0.00     0.007 C 
ATOM      9  C   UNL d   1       3.926  -1.550  -0.310  0.00  0.00     0.009 C 
ENDBRANCH   7   8
ENDBRANCH   1   7
TORSDOF 2
ENDMDL
