MODEL 1
REMARK minimizedAffinity 6.31196928
REMARK minimizedRMSD -1
REMARK  2 active torsions:
REMARK  status: ('A' for Active; 'I' for Inactive)
REMARK    1  A    between atoms: C1_2  and  C2_3 
REMARK    2  A    between atoms: C2_3  and  C3_4 
ROOT
ATOM      1  C3  UNL d   1      -1.102   2.260   2.510  0.00  0.00    -0.075 A 
ATOM      2  C4  UNL d   1      -0.993   3.030   1.343  0.00  0.00     0.002 A 
ATOM      3  C5  UNL d   1       0.258   3.317   0.798  0.00  0.00     0.002 A 
ATOM      4  C6  UNL d   1       1.415   2.848   1.416  0.00  0.00    -0.004 A 
ATOM      5  C7  UNL d   1       1.320   2.096   2.585  0.00  0.00     0.002 A 
ATOM      6  C8  UNL d   1       0.069   1.803   3.130  0.00  0.00     0.002 A 
ENDROOT
BRANCH   1   7
ATOM      7  C2  UNL d   1      -2.454   1.921   3.089  0.00  0.00     0.056 C 
BRANCH   7   8
ATOM      8  C1  UNL d   1      -3.177   0.783   2.360  0.00  0.00     0.007 C 
ATOM      9  C   UNL d   1      -2.999   0.829   0.849  0.00  0.00     0.009 C 
ENDBRANCH   7   8
ENDBRANCH   1   7
TORSDOF 2
ENDMDL
