MODEL 1
REMARK minimizedAffinity 12.0801401
REMARK minimizedRMSD -1
REMARK  2 active torsions:
REMARK  status: ('A' for Active; 'I' for Inactive)
REMARK    1  A    between atoms: C1_2  and  C2_3 
REMARK    2  A    between atoms: C2_3  and  C3_4 
ROOT
ATOM      1  C3  UNL d   1      -0.618   1.259  -0.008  0.00  0.00    -0.075 A 
ATOM      2  C4  UNL d   1       0.418   0.585  -0.671  0.00  0.00     0.002 A 
ATOM      3  C5  UNL d   1       0.130  -0.404  -1.612  0.00  0.00     0.002 A 
ATOM      4  C6  UNL d   1      -1.193  -0.740  -1.892  0.00  0.00    -0.004 A 
ATOM      5  C7  UNL d   1      -2.229  -0.088  -1.226  0.00  0.00     0.002 A 
ATOM      6  C8  UNL d   1      -1.944   0.906  -0.289  0.00  0.00     0.002 A 
ENDROOT
BRANCH   1   7
ATOM      7  C2  UNL d   1      -0.314   2.352   0.989  0.00  0.00     0.056 C 
BRANCH   7   8
ATOM      8  C1  UNL d   1      -0.749   3.749   0.535  0.00  0.00     0.007 C 
ATOM      9  C   UNL d   1       0.118   4.315  -0.581  0.00  0.00     0.009 C 
ENDBRANCH   7   8
ENDBRANCH   1   7
TORSDOF 2
ENDMDL
