MODEL 1
REMARK minimizedAffinity 2.25719643
REMARK minimizedRMSD -1
REMARK  2 active torsions:
REMARK  status: ('A' for Active; 'I' for Inactive)
REMARK    1  A    between atoms: C1_2  and  C2_3 
REMARK    2  A    between atoms: C2_3  and  C3_4 
ROOT
ATOM      1  C3  UNL d   1       0.735   1.591   2.279  0.00  0.00    -0.075 A 
ATOM      2  C4  UNL d   1       1.205   2.252   1.135  0.00  0.00     0.002 A 
ATOM      3  C5  UNL d   1       0.396   3.170   0.465  0.00  0.00     0.002 A 
ATOM      4  C6  UNL d   1      -0.894   3.431   0.922  0.00  0.00    -0.004 A 
ATOM      5  C7  UNL d   1      -1.377   2.768   2.048  0.00  0.00     0.002 A 
ATOM      6  C8  UNL d   1      -0.569   1.852   2.723  0.00  0.00     0.002 A 
ENDROOT
BRANCH   1   7
ATOM      7  C2  UNL d   1       1.615   0.618   3.027  0.00  0.00     0.056 C 
BRANCH   7   8
ATOM      8  C1  UNL d   1       0.843  -0.413   3.855  0.00  0.00     0.007 C 
ATOM      9  C   UNL d   1       1.746  -1.425   4.548  0.00  0.00     0.009 C 
ENDBRANCH   7   8
ENDBRANCH   1   7
TORSDOF 2
ENDMDL
