MODEL 1
REMARK minimizedAffinity 7.62530041
REMARK minimizedRMSD -1
REMARK  2 active torsions:
REMARK  status: ('A' for Active; 'I' for Inactive)
REMARK    1  A    between atoms: C1_2  and  C2_3 
REMARK    2  A    between atoms: C2_3  and  C3_4 
ROOT
ATOM      1  C3  UNL d   1      -0.256   2.900   1.980  0.00  0.00    -0.075 A 
ATOM      2  C4  UNL d   1       1.071   2.734   2.404  0.00  0.00     0.002 A 
ATOM      3  C5  UNL d   1       1.392   1.777   3.367  0.00  0.00     0.002 A 
ATOM      4  C6  UNL d   1       0.392   0.984   3.926  0.00  0.00    -0.004 A 
ATOM      5  C7  UNL d   1      -0.932   1.152   3.524  0.00  0.00     0.002 A 
ATOM      6  C8  UNL d   1      -1.255   2.105   2.557  0.00  0.00     0.002 A 
ENDROOT
BRANCH   1   7
ATOM      7  C2  UNL d   1      -0.606   3.913   0.916  0.00  0.00     0.056 C 
BRANCH   7   8
ATOM      8  C1  UNL d   1       0.418   4.002  -0.221  0.00  0.00     0.007 C 
ATOM      9  C   UNL d   1      -0.006   4.946  -1.338  0.00  0.00     0.009 C 
ENDBRANCH   7   8
ENDBRANCH   1   7
TORSDOF 2
ENDMDL
