MODEL 1
REMARK minimizedAffinity -4.82672167
REMARK minimizedRMSD -1
REMARK  1 active torsions:
REMARK  status: ('A' for Active; 'I' for Inactive)
REMARK    1  A    between atoms: N_2  and  C1_3 
ROOT
ATOM      1  C1  UNL d   1       0.602  -0.324  -0.126  0.00  0.00     0.143 A 
ATOM      2  C2  UNL d   1      -0.011  -0.115   1.113  0.00  0.00    -0.057 A 
ATOM      3  C3  UNL d   1       0.497  -0.694   2.282  0.00  0.00     0.033 A 
ATOM      4  C4  UNL d   1       1.615  -1.519   2.227  0.00  0.00    -0.042 A 
ATOM      5  C5  UNL d   1       2.226  -1.762   1.003  0.00  0.00     0.033 A 
ATOM      6  C6  UNL d   1       1.718  -1.175  -0.160  0.00  0.00    -0.057 A 
ENDROOT
BRANCH   1   7
ATOM      7  N   UNL d   1       0.088   0.143  -1.338  0.00  0.00    -0.732 N 
ATOM      8  C   UNL d   1      -0.192   1.551  -1.526  0.00  0.00     0.284 C 
ATOM      9  H3  UNL d   1       0.520  -0.306  -2.143  0.00  0.00     0.395 HD
ENDBRANCH   1   7
TORSDOF 1
ENDMDL
