MODEL 1
REMARK minimizedAffinity -3.33410716
REMARK minimizedRMSD -1
REMARK  1 active torsions:
REMARK  status: ('A' for Active; 'I' for Inactive)
REMARK    1  A    between atoms: N_2  and  C1_3 
ROOT
ATOM      1  C1  UNL d   1       0.576  -0.082   0.224  0.00  0.00     0.143 A 
ATOM      2  C2  UNL d   1      -0.497  -0.427   1.052  0.00  0.00    -0.057 A 
ATOM      3  C3  UNL d   1      -0.337  -0.539   2.439  0.00  0.00     0.033 A 
ATOM      4  C4  UNL d   1       0.910  -0.335   3.020  0.00  0.00    -0.042 A 
ATOM      5  C5  UNL d   1       1.996  -0.016   2.213  0.00  0.00     0.033 A 
ATOM      6  C6  UNL d   1       1.829   0.101   0.830  0.00  0.00    -0.057 A 
ENDROOT
BRANCH   1   7
ATOM      7  N   UNL d   1       0.503  -0.051  -1.171  0.00  0.00    -0.732 N 
ATOM      8  C   UNL d   1      -0.619   0.574  -1.837  0.00  0.00     0.284 C 
ATOM      9  H3  UNL d   1       1.404   0.143  -1.603  0.00  0.00     0.395 HD
ENDBRANCH   1   7
TORSDOF 1
ENDMDL
