MODEL 1
REMARK minimizedAffinity -4.87988567
REMARK minimizedRMSD -1
REMARK  1 active torsions:
REMARK  status: ('A' for Active; 'I' for Inactive)
REMARK    1  A    between atoms: N_2  and  C1_3 
ROOT
ATOM      1  C1  UNL d   1       0.171  -0.251   0.154  0.00  0.00     0.143 A 
ATOM      2  C2  UNL d   1       1.455  -0.539   0.628  0.00  0.00    -0.057 A 
ATOM      3  C3  UNL d   1       1.676  -0.871   1.971  0.00  0.00     0.033 A 
ATOM      4  C4  UNL d   1       0.617  -0.892   2.872  0.00  0.00    -0.042 A 
ATOM      5  C5  UNL d   1      -0.665  -0.585   2.428  0.00  0.00     0.033 A 
ATOM      6  C6  UNL d   1      -0.880  -0.261   1.085  0.00  0.00    -0.057 A 
ENDROOT
BRANCH   1   7
ATOM      7  N   UNL d   1      -0.099   0.181  -1.147  0.00  0.00    -0.732 N 
ATOM      8  C   UNL d   1       0.044   1.576  -1.504  0.00  0.00     0.284 C 
ATOM      9  H3  UNL d   1       0.248  -0.466  -1.851  0.00  0.00     0.395 HD
ENDBRANCH   1   7
TORSDOF 1
ENDMDL
