MODEL 1
REMARK minimizedAffinity 10.2420788
REMARK minimizedRMSD -1
REMARK  1 active torsions:
REMARK  status: ('A' for Active; 'I' for Inactive)
REMARK    1  A    between atoms: N_2  and  C1_3 
ROOT
ATOM      1  C1  UNL d   1      -2.606   2.965  -5.233  0.00  0.00     0.143 A 
ATOM      2  C2  UNL d   1      -3.855   2.710  -5.808  0.00  0.00    -0.057 A 
ATOM      3  C3  UNL d   1      -4.809   3.725  -5.952  0.00  0.00     0.033 A 
ATOM      4  C4  UNL d   1      -4.540   5.010  -5.494  0.00  0.00    -0.042 A 
ATOM      5  C5  UNL d   1      -3.314   5.281  -4.896  0.00  0.00     0.033 A 
ATOM      6  C6  UNL d   1      -2.363   4.265  -4.761  0.00  0.00    -0.057 A 
ENDROOT
BRANCH   1   7
ATOM      7  N   UNL d   1      -1.653   1.977  -4.973  0.00  0.00    -0.732 N 
ATOM      8  C   UNL d   1      -0.716   1.568  -5.998  0.00  0.00     0.284 C 
ATOM      9  H3  UNL d   1      -1.242   2.067  -4.046  0.00  0.00     0.395 HD
ENDBRANCH   1   7
TORSDOF 1
ENDMDL
