MODEL 1
REMARK minimizedAffinity 1.09142506
REMARK minimizedRMSD -1
REMARK  1 active torsions:
REMARK  status: ('A' for Active; 'I' for Inactive)
REMARK    1  A    between atoms: N_2  and  C1_3 
ROOT
ATOM      1  C1  UNL d   1      -3.621   4.086  -4.841  0.00  0.00     0.143 A 
ATOM      2  C2  UNL d   1      -4.807   3.345  -4.818  0.00  0.00    -0.057 A 
ATOM      3  C3  UNL d   1      -5.983   3.838  -5.397  0.00  0.00     0.033 A 
ATOM      4  C4  UNL d   1      -6.000   5.098  -5.986  0.00  0.00    -0.042 A 
ATOM      5  C5  UNL d   1      -4.839   5.863  -5.999  0.00  0.00     0.033 A 
ATOM      6  C6  UNL d   1      -3.666   5.362  -5.425  0.00  0.00    -0.057 A 
ENDROOT
BRANCH   1   7
ATOM      7  N   UNL d   1      -2.445   3.693  -4.197  0.00  0.00    -0.732 N 
ATOM      8  C   UNL d   1      -2.497   3.000  -2.928  0.00  0.00     0.284 C 
ATOM      9  H3  UNL d   1      -1.752   3.325  -4.844  0.00  0.00     0.395 HD
ENDBRANCH   1   7
TORSDOF 1
ENDMDL
