MODEL 1
REMARK minimizedAffinity 10.3016691
REMARK minimizedRMSD -1
REMARK  1 active torsions:
REMARK  status: ('A' for Active; 'I' for Inactive)
REMARK    1  A    between atoms: N_2  and  C1_3 
ROOT
ATOM      1  C1  UNL d   1      -0.867   3.312  -0.074  0.00  0.00     0.143 A 
ATOM      2  C2  UNL d   1      -1.597   2.854  -1.176  0.00  0.00    -0.057 A 
ATOM      3  C3  UNL d   1      -2.941   2.480  -1.053  0.00  0.00     0.033 A 
ATOM      4  C4  UNL d   1      -3.572   2.530   0.186  0.00  0.00    -0.042 A 
ATOM      5  C5  UNL d   1      -2.859   2.958   1.300  0.00  0.00     0.033 A 
ATOM      6  C6  UNL d   1      -1.519   3.337   1.169  0.00  0.00    -0.057 A 
ENDROOT
BRANCH   1   7
ATOM      7  N   UNL d   1       0.498   3.604  -0.112  0.00  0.00    -0.732 N 
ATOM      8  C   UNL d   1       1.467   2.674   0.426  0.00  0.00     0.284 C 
ATOM      9  H3  UNL d   1       0.778   4.035  -0.991  0.00  0.00     0.395 HD
ENDBRANCH   1   7
TORSDOF 1
ENDMDL
