MODEL 1
REMARK minimizedAffinity -3.36395097
REMARK minimizedRMSD -1
REMARK  1 active torsions:
REMARK  status: ('A' for Active; 'I' for Inactive)
REMARK    1  A    between atoms: N_2  and  C1_3 
ROOT
ATOM      1  C1  UNL d   1      -0.443   0.295   0.662  0.00  0.00     0.143 A 
ATOM      2  C2  UNL d   1      -1.582   1.030   0.316  0.00  0.00    -0.057 A 
ATOM      3  C3  UNL d   1      -2.017   2.106   1.099  0.00  0.00     0.033 A 
ATOM      4  C4  UNL d   1      -1.335   2.450   2.261  0.00  0.00    -0.042 A 
ATOM      5  C5  UNL d   1      -0.215   1.718   2.638  0.00  0.00     0.033 A 
ATOM      6  C6  UNL d   1       0.219   0.648   1.849  0.00  0.00    -0.057 A 
ENDROOT
BRANCH   1   7
ATOM      7  N   UNL d   1      -0.016  -0.847  -0.020  0.00  0.00    -0.732 N 
ATOM      8  C   UNL d   1       0.739  -0.732  -1.249  0.00  0.00     0.284 C 
ATOM      9  H3  UNL d   1       0.321  -1.572   0.609  0.00  0.00     0.395 HD
ENDBRANCH   1   7
TORSDOF 1
ENDMDL
