MODEL 1
REMARK minimizedAffinity -0.783339918
REMARK minimizedRMSD -1
REMARK  1 active torsions:
REMARK  status: ('A' for Active; 'I' for Inactive)
REMARK    1  A    between atoms: N_2  and  C1_3 
ROOT
ATOM      1  C1  UNL d   1       1.807  -0.460   1.082  0.00  0.00     0.143 A 
ATOM      2  C2  UNL d   1       2.769  -0.769   0.114  0.00  0.00    -0.057 A 
ATOM      3  C3  UNL d   1       4.074  -1.126   0.475  0.00  0.00     0.033 A 
ATOM      4  C4  UNL d   1       4.449  -1.153   1.814  0.00  0.00    -0.042 A 
ATOM      5  C5  UNL d   1       3.516  -0.825   2.792  0.00  0.00     0.033 A 
ATOM      6  C6  UNL d   1       2.213  -0.476   2.425  0.00  0.00    -0.057 A 
ENDROOT
BRANCH   1   7
ATOM      7  N   UNL d   1       0.522  -0.003   0.782  0.00  0.00    -0.732 N 
ATOM      8  C   UNL d   1       0.181   0.412  -0.562  0.00  0.00     0.284 C 
ATOM      9  H3  UNL d   1      -0.202  -0.548   1.245  0.00  0.00     0.395 HD
ENDBRANCH   1   7
TORSDOF 1
ENDMDL
