MODEL 1
REMARK minimizedAffinity -1.55636501
REMARK minimizedRMSD -1
REMARK  1 active torsions:
REMARK  status: ('A' for Active; 'I' for Inactive)
REMARK    1  A    between atoms: N_2  and  C1_3 
ROOT
ATOM      1  C1  UNL d   1       0.727   0.183   0.419  0.00  0.00     0.143 A 
ATOM      2  C2  UNL d   1       0.371   0.479   1.739  0.00  0.00    -0.057 A 
ATOM      3  C3  UNL d   1      -0.406   1.602   2.048  0.00  0.00     0.033 A 
ATOM      4  C4  UNL d   1      -0.818   2.467   1.040  0.00  0.00    -0.042 A 
ATOM      5  C5  UNL d   1      -0.456   2.207  -0.276  0.00  0.00     0.033 A 
ATOM      6  C6  UNL d   1       0.315   1.080  -0.579  0.00  0.00    -0.057 A 
ENDROOT
BRANCH   1   7
ATOM      7  N   UNL d   1       1.580  -0.863   0.059  0.00  0.00    -0.732 N 
ATOM      8  C   UNL d   1       2.992  -0.803   0.370  0.00  0.00     0.284 C 
ATOM      9  H3  UNL d   1       1.160  -1.777   0.211  0.00  0.00     0.395 HD
ENDBRANCH   1   7
TORSDOF 1
ENDMDL
