MODEL 1
REMARK minimizedAffinity -2.93769979
REMARK minimizedRMSD -1
REMARK  1 active torsions:
REMARK  status: ('A' for Active; 'I' for Inactive)
REMARK    1  A    between atoms: N_2  and  C1_3 
ROOT
ATOM      1  C1  UNL d   1       0.246  -0.350  -0.095  0.00  0.00     0.143 A 
ATOM      2  C2  UNL d   1      -0.823   0.538  -0.260  0.00  0.00    -0.057 A 
ATOM      3  C3  UNL d   1      -1.051   1.576   0.652  0.00  0.00     0.033 A 
ATOM      4  C4  UNL d   1      -0.229   1.727   1.764  0.00  0.00    -0.042 A 
ATOM      5  C5  UNL d   1       0.824   0.841   1.961  0.00  0.00     0.033 A 
ATOM      6  C6  UNL d   1       1.051  -0.189   1.044  0.00  0.00    -0.057 A 
ENDROOT
BRANCH   1   7
ATOM      7  N   UNL d   1       0.467  -1.461  -0.912  0.00  0.00    -0.732 N 
ATOM      8  C   UNL d   1      -0.412  -2.609  -0.848  0.00  0.00     0.284 C 
ATOM      9  H3  UNL d   1       0.742  -1.201  -1.856  0.00  0.00     0.395 HD
ENDBRANCH   1   7
TORSDOF 1
ENDMDL
