MODEL 1
REMARK minimizedAffinity -2.39556074
REMARK minimizedRMSD -1
REMARK  1 active torsions:
REMARK  status: ('A' for Active; 'I' for Inactive)
REMARK    1  A    between atoms: N_2  and  C1_3 
ROOT
ATOM      1  C1  UNL d   1      -0.168   0.795   0.027  0.00  0.00     0.143 A 
ATOM      2  C2  UNL d   1       0.606   1.106   1.151  0.00  0.00    -0.057 A 
ATOM      3  C3  UNL d   1       0.182   2.062   2.082  0.00  0.00     0.033 A 
ATOM      4  C4  UNL d   1      -1.014   2.747   1.890  0.00  0.00    -0.042 A 
ATOM      5  C5  UNL d   1      -1.787   2.472   0.768  0.00  0.00     0.033 A 
ATOM      6  C6  UNL d   1      -1.361   1.512  -0.155  0.00  0.00    -0.057 A 
ENDROOT
BRANCH   1   7
ATOM      7  N   UNL d   1       0.246  -0.073  -0.986  0.00  0.00    -0.732 N 
ATOM      8  C   UNL d   1       0.335   0.382  -2.357  0.00  0.00     0.284 C 
ATOM      9  H3  UNL d   1       1.017  -0.670  -0.695  0.00  0.00     0.395 HD
ENDBRANCH   1   7
TORSDOF 1
ENDMDL
