MODEL 1
REMARK minimizedAffinity -4.29525423
REMARK minimizedRMSD -1
REMARK  1 active torsions:
REMARK  status: ('A' for Active; 'I' for Inactive)
REMARK    1  A    between atoms: N_2  and  C1_3 
ROOT
ATOM      1  C1  UNL d   1      -0.316   1.229   0.504  0.00  0.00     0.143 A 
ATOM      2  C2  UNL d   1      -0.848   2.181   1.381  0.00  0.00    -0.057 A 
ATOM      3  C3  UNL d   1      -1.356   3.398   0.911  0.00  0.00     0.033 A 
ATOM      4  C4  UNL d   1      -1.314   3.697  -0.447  0.00  0.00    -0.042 A 
ATOM      5  C5  UNL d   1      -0.767   2.777  -1.334  0.00  0.00     0.033 A 
ATOM      6  C6  UNL d   1      -0.267   1.561  -0.859  0.00  0.00    -0.057 A 
ENDROOT
BRANCH   1   7
ATOM      7  N   UNL d   1       0.293   0.043   0.921  0.00  0.00    -0.732 N 
ATOM      8  C   UNL d   1       1.583   0.068   1.578  0.00  0.00     0.284 C 
ATOM      9  H3  UNL d   1      -0.369  -0.611   1.330  0.00  0.00     0.395 HD
ENDBRANCH   1   7
TORSDOF 1
ENDMDL
