MODEL 1
REMARK minimizedAffinity -1.7657001
REMARK minimizedRMSD -1
REMARK  1 active torsions:
REMARK  status: ('A' for Active; 'I' for Inactive)
REMARK    1  A    between atoms: N_2  and  C1_3 
ROOT
ATOM      1  C1  UNL d   1      -0.115   2.792   0.895  0.00  0.00     0.143 A 
ATOM      2  C2  UNL d   1       0.736   1.685   0.811  0.00  0.00    -0.057 A 
ATOM      3  C3  UNL d   1       0.558   0.706  -0.174  0.00  0.00     0.033 A 
ATOM      4  C4  UNL d   1      -0.494   0.803  -1.078  0.00  0.00    -0.042 A 
ATOM      5  C5  UNL d   1      -1.367   1.882  -0.998  0.00  0.00     0.033 A 
ATOM      6  C6  UNL d   1      -1.181   2.860  -0.016  0.00  0.00    -0.057 A 
ENDROOT
BRANCH   1   7
ATOM      7  N   UNL d   1      -0.050   3.748   1.912  0.00  0.00    -0.732 N 
ATOM      8  C   UNL d   1       1.142   4.546   2.099  0.00  0.00     0.284 C 
ATOM      9  H3  UNL d   1      -0.919   4.269   2.011  0.00  0.00     0.395 HD
ENDBRANCH   1   7
TORSDOF 1
ENDMDL
