MODEL 1
REMARK minimizedAffinity -6.16792631
REMARK minimizedRMSD -1
REMARK  1 active torsions:
REMARK  status: ('A' for Active; 'I' for Inactive)
REMARK    1  A    between atoms: C1_2  and  C2_3 
ROOT
ATOM      1  C2  UNL d   1       0.205  -2.282  -1.078  0.00  0.00    -0.081 A 
ATOM      2  C3  UNL d   1      -0.352  -3.115  -0.100  0.00  0.00     0.006 A 
ATOM      3  C4  UNL d   1      -0.778  -2.586   1.121  0.00  0.00     0.002 A 
ATOM      4  C5  UNL d   1      -0.662  -1.217   1.381  0.00  0.00    -0.080 A 
ATOM      5  C6  UNL d   1      -1.143  -0.632   2.676  0.00  0.00     0.076 C 
ATOM      6  C7  UNL d   1      -0.089  -0.387   0.410  0.00  0.00     0.002 A 
ATOM      7  C8  UNL d   1       0.337  -0.915  -0.810  0.00  0.00     0.006 A 
ENDROOT
BRANCH   1   8
ATOM      8  C1  UNL d   1       0.605  -2.838  -2.421  0.00  0.00     0.054 C 
ATOM      9  C   UNL d   1       0.094  -1.964  -3.557  0.00  0.00     0.018 C 
ENDBRANCH   1   8
TORSDOF 1
ENDMDL
