MODEL 1
REMARK minimizedAffinity -5.30253744
REMARK minimizedRMSD -1
REMARK  1 active torsions:
REMARK  status: ('A' for Active; 'I' for Inactive)
REMARK    1  A    between atoms: C1_2  and  C2_3 
ROOT
ATOM      1  C2  UNL d   1       0.751   1.409  -0.077  0.00  0.00    -0.081 A 
ATOM      2  C3  UNL d   1       0.067   0.737  -1.099  0.00  0.00     0.006 A 
ATOM      3  C4  UNL d   1      -0.260  -0.614  -0.962  0.00  0.00     0.002 A 
ATOM      4  C5  UNL d   1       0.082  -1.313   0.200  0.00  0.00    -0.080 A 
ATOM      5  C6  UNL d   1      -0.290  -2.756   0.372  0.00  0.00     0.076 C 
ATOM      6  C7  UNL d   1       0.781  -0.647   1.213  0.00  0.00     0.002 A 
ATOM      7  C8  UNL d   1       1.109   0.704   1.077  0.00  0.00     0.006 A 
ENDROOT
BRANCH   1   8
ATOM      8  C1  UNL d   1       1.049   2.882  -0.194  0.00  0.00     0.054 C 
ATOM      9  C   UNL d   1       2.460   3.200   0.279  0.00  0.00     0.018 C 
ENDBRANCH   1   8
TORSDOF 1
ENDMDL
