MODEL 1
REMARK minimizedAffinity -2.84976745
REMARK minimizedRMSD -1
REMARK  1 active torsions:
REMARK  status: ('A' for Active; 'I' for Inactive)
REMARK    1  A    between atoms: C1_2  and  C2_3 
ROOT
ATOM      1  C2  UNL d   1      -0.082  -1.142  -0.775  0.00  0.00    -0.081 A 
ATOM      2  C3  UNL d   1      -0.681  -2.206  -0.090  0.00  0.00     0.006 A 
ATOM      3  C4  UNL d   1      -1.221  -2.014   1.184  0.00  0.00     0.002 A 
ATOM      4  C5  UNL d   1      -1.179  -0.753   1.790  0.00  0.00    -0.080 A 
ATOM      5  C6  UNL d   1      -1.783  -0.526   3.144  0.00  0.00     0.076 C 
ATOM      6  C7  UNL d   1      -0.565   0.306   1.112  0.00  0.00     0.002 A 
ATOM      7  C8  UNL d   1      -0.024   0.114  -0.161  0.00  0.00     0.006 A 
ENDROOT
BRANCH   1   8
ATOM      8  C1  UNL d   1       0.444  -1.331  -2.175  0.00  0.00     0.054 C 
ATOM      9  C   UNL d   1       0.654   0.005  -2.872  0.00  0.00     0.018 C 
ENDBRANCH   1   8
TORSDOF 1
ENDMDL
