MODEL 1
REMARK minimizedAffinity -5.572052
REMARK minimizedRMSD -1
REMARK  1 active torsions:
REMARK  status: ('A' for Active; 'I' for Inactive)
REMARK    1  A    between atoms: C1_2  and  C2_3 
ROOT
ATOM      1  C2  UNL d   1       0.575   1.457   0.407  0.00  0.00    -0.081 A 
ATOM      2  C3  UNL d   1       0.934   0.792   1.586  0.00  0.00     0.006 A 
ATOM      3  C4  UNL d   1       0.801  -0.595   1.685  0.00  0.00     0.002 A 
ATOM      4  C5  UNL d   1       0.314  -1.340   0.605  0.00  0.00    -0.080 A 
ATOM      5  C6  UNL d   1       0.194  -2.833   0.688  0.00  0.00     0.076 C 
ATOM      6  C7  UNL d   1      -0.062  -0.673  -0.566  0.00  0.00     0.002 A 
ATOM      7  C8  UNL d   1       0.070   0.713  -0.665  0.00  0.00     0.006 A 
ENDROOT
BRANCH   1   8
ATOM      8  C1  UNL d   1       0.778   2.945   0.275  0.00  0.00     0.054 C 
ATOM      9  C   UNL d   1       2.217   3.276  -0.094  0.00  0.00     0.018 C 
ENDBRANCH   1   8
TORSDOF 1
ENDMDL
