MODEL 1
REMARK minimizedAffinity -6.00332451
REMARK minimizedRMSD -1
REMARK  1 active torsions:
REMARK  status: ('A' for Active; 'I' for Inactive)
REMARK    1  A    between atoms: C1_2  and  C2_3 
ROOT
ATOM      1  C2  UNL d   1       1.508   0.693   0.637  0.00  0.00    -0.081 A 
ATOM      2  C3  UNL d   1       1.420  -0.175   1.732  0.00  0.00     0.006 A 
ATOM      3  C4  UNL d   1       0.569  -1.281   1.692  0.00  0.00     0.002 A 
ATOM      4  C5  UNL d   1      -0.203  -1.543   0.555  0.00  0.00    -0.080 A 
ATOM      5  C6  UNL d   1      -1.098  -2.744   0.488  0.00  0.00     0.076 C 
ATOM      6  C7  UNL d   1      -0.128  -0.666  -0.533  0.00  0.00     0.002 A 
ATOM      7  C8  UNL d   1       0.723   0.441  -0.493  0.00  0.00     0.006 A 
ENDROOT
BRANCH   1   8
ATOM      8  C1  UNL d   1       2.474   1.850   0.651  0.00  0.00     0.054 C 
ATOM      9  C   UNL d   1       1.753   3.175   0.449  0.00  0.00     0.018 C 
ENDBRANCH   1   8
TORSDOF 1
ENDMDL
