MODEL 1
REMARK minimizedAffinity -4.81090879
REMARK minimizedRMSD -1
REMARK  1 active torsions:
REMARK  status: ('A' for Active; 'I' for Inactive)
REMARK    1  A    between atoms: C1_2  and  C2_3 
ROOT
ATOM      1  C2  UNL d   1      -0.543  -0.440  -0.258  0.00  0.00    -0.081 A 
ATOM      2  C3  UNL d   1       0.004  -0.761  -1.507  0.00  0.00     0.006 A 
ATOM      3  C4  UNL d   1       0.324  -2.084  -1.821  0.00  0.00     0.002 A 
ATOM      4  C5  UNL d   1       0.095  -3.108  -0.896  0.00  0.00    -0.080 A 
ATOM      5  C6  UNL d   1       0.406  -4.536  -1.231  0.00  0.00     0.076 C 
ATOM      6  C7  UNL d   1      -0.435  -2.785   0.358  0.00  0.00     0.002 A 
ATOM      7  C8  UNL d   1      -0.754  -1.462   0.673  0.00  0.00     0.006 A 
ENDROOT
BRANCH   1   8
ATOM      8  C1  UNL d   1      -0.949   0.977   0.059  0.00  0.00     0.054 C 
ATOM      9  C   UNL d   1      -2.281   1.019   0.794  0.00  0.00     0.018 C 
ENDBRANCH   1   8
TORSDOF 1
ENDMDL
