MODEL 1
REMARK minimizedAffinity -2.76169276
REMARK minimizedRMSD -1
REMARK  1 active torsions:
REMARK  status: ('A' for Active; 'I' for Inactive)
REMARK    1  A    between atoms: C1_2  and  C2_3 
ROOT
ATOM      1  C2  UNL d   1       0.518   1.516   0.127  0.00  0.00    -0.081 A 
ATOM      2  C3  UNL d   1       0.770   0.843   1.329  0.00  0.00     0.006 A 
ATOM      3  C4  UNL d   1       0.630  -0.545   1.406  0.00  0.00     0.002 A 
ATOM      4  C5  UNL d   1       0.244  -1.283   0.282  0.00  0.00    -0.080 A 
ATOM      5  C6  UNL d   1       0.119  -2.776   0.344  0.00  0.00     0.076 C 
ATOM      6  C7  UNL d   1      -0.025  -0.609  -0.914  0.00  0.00     0.002 A 
ATOM      7  C8  UNL d   1       0.114   0.779  -0.991  0.00  0.00     0.006 A 
ENDROOT
BRANCH   1   8
ATOM      8  C1  UNL d   1       0.730   3.005   0.023  0.00  0.00     0.054 C 
ATOM      9  C   UNL d   1       2.163   3.384   0.370  0.00  0.00     0.018 C 
ENDBRANCH   1   8
TORSDOF 1
ENDMDL
