MODEL 1
REMARK minimizedAffinity -2.5309124
REMARK minimizedRMSD -1
REMARK  1 active torsions:
REMARK  status: ('A' for Active; 'I' for Inactive)
REMARK    1  A    between atoms: C1_2  and  C2_3 
ROOT
ATOM      1  C2  UNL d   1       0.402   0.984   0.857  0.00  0.00    -0.081 A 
ATOM      2  C3  UNL d   1       0.821   0.230  -0.246  0.00  0.00     0.006 A 
ATOM      3  C4  UNL d   1       0.465  -1.115  -0.361  0.00  0.00     0.002 A 
ATOM      4  C5  UNL d   1      -0.323  -1.727   0.620  0.00  0.00    -0.080 A 
ATOM      5  C6  UNL d   1      -0.739  -3.163   0.494  0.00  0.00     0.076 C 
ATOM      6  C7  UNL d   1      -0.728  -0.979   1.731  0.00  0.00     0.002 A 
ATOM      7  C8  UNL d   1      -0.371   0.367   1.846  0.00  0.00     0.006 A 
ENDROOT
BRANCH   1   8
ATOM      8  C1  UNL d   1       0.731   2.452   0.951  0.00  0.00     0.054 C 
ATOM      9  C   UNL d   1       2.235   2.684   0.938  0.00  0.00     0.018 C 
ENDBRANCH   1   8
TORSDOF 1
ENDMDL
