MODEL 1
REMARK minimizedAffinity -5.32424498
REMARK minimizedRMSD -1
REMARK  1 active torsions:
REMARK  status: ('A' for Active; 'I' for Inactive)
REMARK    1  A    between atoms: C1_2  and  C2_3 
ROOT
ATOM      1  C2  UNL d   1       0.079   0.889  -0.182  0.00  0.00    -0.081 A 
ATOM      2  C3  UNL d   1      -0.405   0.500   1.073  0.00  0.00     0.006 A 
ATOM      3  C4  UNL d   1      -0.614  -0.850   1.364  0.00  0.00     0.002 A 
ATOM      4  C5  UNL d   1      -0.334  -1.834   0.409  0.00  0.00    -0.080 A 
ATOM      5  C6  UNL d   1      -0.525  -3.289   0.719  0.00  0.00     0.076 C 
ATOM      6  C7  UNL d   1       0.133  -1.444  -0.851  0.00  0.00     0.002 A 
ATOM      7  C8  UNL d   1       0.341  -0.094  -1.143  0.00  0.00     0.006 A 
ENDROOT
BRANCH   1   8
ATOM      8  C1  UNL d   1       0.366   2.339  -0.477  0.00  0.00     0.054 C 
ATOM      9  C   UNL d   1       1.485   2.872   0.406  0.00  0.00     0.018 C 
ENDBRANCH   1   8
TORSDOF 1
ENDMDL
