MODEL 1
REMARK minimizedAffinity -2.49569607
REMARK minimizedRMSD -1
REMARK  1 active torsions:
REMARK  status: ('A' for Active; 'I' for Inactive)
REMARK    1  A    between atoms: C1_2  and  C2_3 
ROOT
ATOM      1  C2  UNL d   1       0.357   0.854   0.381  0.00  0.00    -0.081 A 
ATOM      2  C3  UNL d   1      -0.363   0.193   1.384  0.00  0.00     0.006 A 
ATOM      3  C4  UNL d   1      -0.520  -1.194   1.346  0.00  0.00     0.002 A 
ATOM      4  C5  UNL d   1       0.047  -1.944   0.310  0.00  0.00    -0.080 A 
ATOM      5  C6  UNL d   1      -0.088  -3.438   0.273  0.00  0.00     0.076 C 
ATOM      6  C7  UNL d   1       0.752  -1.282  -0.702  0.00  0.00     0.002 A 
ATOM      7  C8  UNL d   1       0.908   0.105  -0.664  0.00  0.00     0.006 A 
ENDROOT
BRANCH   1   8
ATOM      8  C1  UNL d   1       0.583   2.343   0.454  0.00  0.00     0.054 C 
ATOM      9  C   UNL d   1       1.999   2.666   0.908  0.00  0.00     0.018 C 
ENDBRANCH   1   8
TORSDOF 1
ENDMDL
