MODEL 1
REMARK minimizedAffinity -6.74307299
REMARK minimizedRMSD -1
REMARK  1 active torsions:
REMARK  status: ('A' for Active; 'I' for Inactive)
REMARK    1  A    between atoms: C1_2  and  C2_3 
ROOT
ATOM      1  C2  UNL d   1       0.233   0.890  -0.678  0.00  0.00    -0.081 A 
ATOM      2  C3  UNL d   1      -0.252   0.480   0.570  0.00  0.00     0.006 A 
ATOM      3  C4  UNL d   1      -0.325  -0.878   0.890  0.00  0.00     0.002 A 
ATOM      4  C5  UNL d   1       0.093  -1.847  -0.028  0.00  0.00    -0.080 A 
ATOM      5  C6  UNL d   1       0.048  -3.306   0.314  0.00  0.00     0.076 C 
ATOM      6  C7  UNL d   1       0.561  -1.438  -1.282  0.00  0.00     0.002 A 
ATOM      7  C8  UNL d   1       0.633  -0.080  -1.602  0.00  0.00     0.006 A 
ENDROOT
BRANCH   1   8
ATOM      8  C1  UNL d   1       0.374   2.356  -1.001  0.00  0.00     0.054 C 
ATOM      9  C   UNL d   1       1.165   3.087   0.074  0.00  0.00     0.018 C 
ENDBRANCH   1   8
TORSDOF 1
ENDMDL
