MODEL 1
REMARK minimizedAffinity -3.55818439
REMARK minimizedRMSD -1
REMARK  1 active torsions:
REMARK  status: ('A' for Active; 'I' for Inactive)
REMARK    1  A    between atoms: C1_2  and  C2_3 
ROOT
ATOM      1  C2  UNL d   1       0.271   1.045  -0.017  0.00  0.00    -0.081 A 
ATOM      2  C3  UNL d   1      -0.316   0.560   1.158  0.00  0.00     0.006 A 
ATOM      3  C4  UNL d   1      -0.557  -0.807   1.317  0.00  0.00     0.002 A 
ATOM      4  C5  UNL d   1      -0.208  -1.712   0.308  0.00  0.00    -0.080 A 
ATOM      5  C6  UNL d   1      -0.433  -3.185   0.479  0.00  0.00     0.076 C 
ATOM      6  C7  UNL d   1       0.362  -1.225  -0.873  0.00  0.00     0.002 A 
ATOM      7  C8  UNL d   1       0.603   0.142  -1.033  0.00  0.00     0.006 A 
ENDROOT
BRANCH   1   8
ATOM      8  C1  UNL d   1       0.591   2.510  -0.165  0.00  0.00     0.054 C 
ATOM      9  C   UNL d   1       2.024   2.809   0.253  0.00  0.00     0.018 C 
ENDBRANCH   1   8
TORSDOF 1
ENDMDL
