MODEL 1
REMARK minimizedAffinity -5.09764576
REMARK minimizedRMSD -1
REMARK  1 active torsions:
REMARK  status: ('A' for Active; 'I' for Inactive)
REMARK    1  A    between atoms: C1_2  and  C2_3 
ROOT
ATOM      1  C2  UNL d   1       0.333   0.954   0.436  0.00  0.00    -0.081 A 
ATOM      2  C3  UNL d   1      -0.006   0.429   1.688  0.00  0.00     0.006 A 
ATOM      3  C4  UNL d   1      -0.292  -0.931   1.832  0.00  0.00     0.002 A 
ATOM      4  C5  UNL d   1      -0.237  -1.789   0.728  0.00  0.00    -0.080 A 
ATOM      5  C6  UNL d   1      -0.513  -3.256   0.874  0.00  0.00     0.076 C 
ATOM      6  C7  UNL d   1       0.085  -1.261  -0.527  0.00  0.00     0.002 A 
ATOM      7  C8  UNL d   1       0.371   0.099  -0.671  0.00  0.00     0.006 A 
ENDROOT
BRANCH   1   8
ATOM      8  C1  UNL d   1       0.706   2.407   0.289  0.00  0.00     0.054 C 
ATOM      9  C   UNL d   1       2.216   2.589   0.246  0.00  0.00     0.018 C 
ENDBRANCH   1   8
TORSDOF 1
ENDMDL
