MODEL 1
REMARK minimizedAffinity 8.56071186
REMARK minimizedRMSD -1
REMARK  1 active torsions:
REMARK  status: ('A' for Active; 'I' for Inactive)
REMARK    1  A    between atoms: C1_2  and  C2_3 
ROOT
ATOM      1  C2  UNL d   1      -2.269   2.897  -0.690  0.00  0.00    -0.073 A 
ATOM      2  C3  UNL d   1      -1.309   2.247   0.094  0.00  0.00    -0.002 A 
ATOM      3  C4  UNL d   1       0.050   2.479  -0.120  0.00  0.00     0.004 A 
ATOM      4  C5  UNL d   1       0.463   3.367  -1.114  0.00  0.00    -0.004 A 
ATOM      5  C6  UNL d   1      -0.482   4.035  -1.899  0.00  0.00    -0.075 A 
ATOM      6  C7  UNL d   1      -0.054   4.991  -2.974  0.00  0.00     0.076 C 
ATOM      7  C8  UNL d   1      -1.845   3.794  -1.680  0.00  0.00     0.001 A 
ENDROOT
BRANCH   1   8
ATOM      8  C1  UNL d   1      -3.738   2.654  -0.458  0.00  0.00     0.053 C 
ATOM      9  C   UNL d   1      -3.990   1.354   0.288  0.00  0.00     0.018 C 
ENDBRANCH   1   8
TORSDOF 1
ENDMDL
