MODEL 1
REMARK minimizedAffinity 3.6526053
REMARK minimizedRMSD -1
REMARK  1 active torsions:
REMARK  status: ('A' for Active; 'I' for Inactive)
REMARK    1  A    between atoms: C1_2  and  C2_3 
ROOT
ATOM      1  C2  UNL d   1      -4.678  -4.853   1.930  0.00  0.00    -0.073 A 
ATOM      2  C3  UNL d   1      -4.127  -3.610   1.601  0.00  0.00    -0.002 A 
ATOM      3  C4  UNL d   1      -4.175  -3.143   0.286  0.00  0.00     0.004 A 
ATOM      4  C5  UNL d   1      -4.779  -3.911  -0.709  0.00  0.00    -0.004 A 
ATOM      5  C6  UNL d   1      -5.346  -5.151  -0.398  0.00  0.00    -0.075 A 
ATOM      6  C7  UNL d   1      -5.998  -5.989  -1.457  0.00  0.00     0.076 C 
ATOM      7  C8  UNL d   1      -5.291  -5.614   0.924  0.00  0.00     0.001 A 
ENDROOT
BRANCH   1   8
ATOM      8  C1  UNL d   1      -4.634  -5.358   3.349  0.00  0.00     0.053 C 
ATOM      9  C   UNL d   1      -5.963  -5.956   3.783  0.00  0.00     0.018 C 
ENDBRANCH   1   8
TORSDOF 1
ENDMDL
