MODEL 1
REMARK minimizedAffinity -0.187594727
REMARK minimizedRMSD -1
REMARK  1 active torsions:
REMARK  status: ('A' for Active; 'I' for Inactive)
REMARK    1  A    between atoms: C1_2  and  C2_3 
ROOT
ATOM      1  C2  UNL d   1       0.522  -0.230   0.054  0.00  0.00    -0.073 A 
ATOM      2  C3  UNL d   1       1.759  -0.870  -0.082  0.00  0.00    -0.002 A 
ATOM      3  C4  UNL d   1       1.866  -2.247   0.123  0.00  0.00     0.004 A 
ATOM      4  C5  UNL d   1       0.739  -2.997   0.458  0.00  0.00    -0.004 A 
ATOM      5  C6  UNL d   1      -0.508  -2.376   0.586  0.00  0.00    -0.075 A 
ATOM      6  C7  UNL d   1      -1.731  -3.168   0.948  0.00  0.00     0.076 C 
ATOM      7  C8  UNL d   1      -0.607  -0.993   0.382  0.00  0.00     0.001 A 
ENDROOT
BRANCH   1   8
ATOM      8  C1  UNL d   1       0.400   1.255  -0.172  0.00  0.00     0.053 C 
ATOM      9  C   UNL d   1      -1.027   1.745   0.014  0.00  0.00     0.018 C 
ENDBRANCH   1   8
TORSDOF 1
ENDMDL
