MODEL 1
REMARK minimizedAffinity 15.42453
REMARK minimizedRMSD -1
REMARK  1 active torsions:
REMARK  status: ('A' for Active; 'I' for Inactive)
REMARK    1  A    between atoms: C1_2  and  C2_3 
ROOT
ATOM      1  C2  UNL d   1       0.010   3.751  -1.931  0.00  0.00    -0.073 A 
ATOM      2  C3  UNL d   1       0.465   4.633  -2.917  0.00  0.00    -0.002 A 
ATOM      3  C4  UNL d   1      -0.172   4.691  -4.158  0.00  0.00     0.004 A 
ATOM      4  C5  UNL d   1      -1.271   3.875  -4.422  0.00  0.00    -0.004 A 
ATOM      5  C6  UNL d   1      -1.748   2.995  -3.444  0.00  0.00    -0.075 A 
ATOM      6  C7  UNL d   1      -2.928   2.109  -3.713  0.00  0.00     0.076 C 
ATOM      7  C8  UNL d   1      -1.101   2.941  -2.202  0.00  0.00     0.001 A 
ENDROOT
BRANCH   1   8
ATOM      8  C1  UNL d   1       0.691   3.689  -0.587  0.00  0.00     0.053 C 
ATOM      9  C   UNL d   1       1.714   2.566  -0.518  0.00  0.00     0.018 C 
ENDBRANCH   1   8
TORSDOF 1
ENDMDL
