MODEL 1
REMARK minimizedAffinity 2.93123627
REMARK minimizedRMSD -1
REMARK  1 active torsions:
REMARK  status: ('A' for Active; 'I' for Inactive)
REMARK    1  A    between atoms: C1_2  and  C2_3 
ROOT
ATOM      1  C2  UNL d   1       1.147   1.367  -0.267  0.00  0.00    -0.073 A 
ATOM      2  C3  UNL d   1      -0.092   1.791   0.225  0.00  0.00    -0.002 A 
ATOM      3  C4  UNL d   1      -0.981   0.872   0.784  0.00  0.00     0.004 A 
ATOM      4  C5  UNL d   1      -0.637  -0.477   0.864  0.00  0.00    -0.004 A 
ATOM      5  C6  UNL d   1       0.602  -0.919   0.389  0.00  0.00    -0.075 A 
ATOM      6  C7  UNL d   1       0.986  -2.367   0.465  0.00  0.00     0.076 C 
ATOM      7  C8  UNL d   1       1.488   0.010  -0.174  0.00  0.00     0.001 A 
ENDROOT
BRANCH   1   8
ATOM      8  C1  UNL d   1       2.113   2.357  -0.867  0.00  0.00     0.053 C 
ATOM      9  C   UNL d   1       3.457   1.721  -1.184  0.00  0.00     0.018 C 
ENDBRANCH   1   8
TORSDOF 1
ENDMDL
