MODEL 1
REMARK minimizedAffinity 8.1997366
REMARK minimizedRMSD -1
REMARK  1 active torsions:
REMARK  status: ('A' for Active; 'I' for Inactive)
REMARK    1  A    between atoms: C1_2  and  C2_3 
ROOT
ATOM      1  C2  UNL d   1       5.242  -3.482  -4.608  0.00  0.00    -0.073 A 
ATOM      2  C3  UNL d   1       5.975  -4.640  -4.893  0.00  0.00    -0.002 A 
ATOM      3  C4  UNL d   1       5.360  -5.892  -4.843  0.00  0.00     0.004 A 
ATOM      4  C5  UNL d   1       4.009  -5.999  -4.516  0.00  0.00    -0.004 A 
ATOM      5  C6  UNL d   1       3.257  -4.852  -4.240  0.00  0.00    -0.075 A 
ATOM      6  C7  UNL d   1       1.803  -4.949  -3.884  0.00  0.00     0.076 C 
ATOM      7  C8  UNL d   1       3.882  -3.598  -4.289  0.00  0.00     0.001 A 
ENDROOT
BRANCH   1   8
ATOM      8  C1  UNL d   1       5.900  -2.127  -4.667  0.00  0.00     0.053 C 
ATOM      9  C   UNL d   1       5.635  -1.311  -3.412  0.00  0.00     0.018 C 
ENDBRANCH   1   8
TORSDOF 1
ENDMDL
