MODEL 1
REMARK minimizedAffinity 10.7990713
REMARK minimizedRMSD -1
REMARK  1 active torsions:
REMARK  status: ('A' for Active; 'I' for Inactive)
REMARK    1  A    between atoms: C1_2  and  C2_3 
ROOT
ATOM      1  C2  UNL d   1       4.324   2.353   0.179  0.00  0.00    -0.073 A 
ATOM      2  C3  UNL d   1       5.110   2.071   1.302  0.00  0.00    -0.002 A 
ATOM      3  C4  UNL d   1       5.185   0.771   1.803  0.00  0.00     0.004 A 
ATOM      4  C5  UNL d   1       4.481  -0.261   1.182  0.00  0.00    -0.004 A 
ATOM      5  C6  UNL d   1       3.700  -0.003   0.052  0.00  0.00    -0.075 A 
ATOM      6  C7  UNL d   1       2.935  -1.102  -0.626  0.00  0.00     0.076 C 
ATOM      7  C8  UNL d   1       3.628   1.307  -0.443  0.00  0.00     0.001 A 
ENDROOT
BRANCH   1   8
ATOM      8  C1  UNL d   1       4.246   3.754  -0.369  0.00  0.00     0.053 C 
ATOM      9  C   UNL d   1       5.587   4.234  -0.902  0.00  0.00     0.018 C 
ENDBRANCH   1   8
TORSDOF 1
ENDMDL
