MODEL 1
REMARK minimizedAffinity 5.43124533
REMARK minimizedRMSD -1
REMARK  1 active torsions:
REMARK  status: ('A' for Active; 'I' for Inactive)
REMARK    1  A    between atoms: C1_2  and  C2_3 
ROOT
ATOM      1  C2  UNL d   1      -5.236  -5.347  -1.122  0.00  0.00    -0.073 A 
ATOM      2  C3  UNL d   1      -4.551  -4.144  -0.915  0.00  0.00    -0.002 A 
ATOM      3  C4  UNL d   1      -3.855  -3.540  -1.963  0.00  0.00     0.004 A 
ATOM      4  C5  UNL d   1      -3.842  -4.128  -3.228  0.00  0.00    -0.004 A 
ATOM      5  C6  UNL d   1      -4.530  -5.323  -3.457  0.00  0.00    -0.075 A 
ATOM      6  C7  UNL d   1      -4.524  -5.970  -4.811  0.00  0.00     0.076 C 
ATOM      7  C8  UNL d   1      -5.225  -5.925  -2.399  0.00  0.00     0.001 A 
ENDROOT
BRANCH   1   8
ATOM      8  C1  UNL d   1      -5.995  -5.999   0.005  0.00  0.00     0.053 C 
ATOM      9  C   UNL d   1      -5.213  -5.972   1.309  0.00  0.00     0.018 C 
ENDBRANCH   1   8
TORSDOF 1
ENDMDL
