MODEL 1
REMARK minimizedAffinity -0.857541502
REMARK minimizedRMSD -1
REMARK  1 active torsions:
REMARK  status: ('A' for Active; 'I' for Inactive)
REMARK    1  A    between atoms: C1_2  and  C2_3 
ROOT
ATOM      1  C2  UNL d   1       0.399   0.464  -0.097  0.00  0.00    -0.073 A 
ATOM      2  C3  UNL d   1      -0.263   1.697  -0.071  0.00  0.00    -0.002 A 
ATOM      3  C4  UNL d   1       0.409   2.866  -0.432  0.00  0.00     0.004 A 
ATOM      4  C5  UNL d   1       1.745   2.813  -0.828  0.00  0.00    -0.004 A 
ATOM      5  C6  UNL d   1       2.420   1.589  -0.872  0.00  0.00    -0.075 A 
ATOM      6  C7  UNL d   1       3.858   1.516  -1.295  0.00  0.00     0.076 C 
ATOM      7  C8  UNL d   1       1.740   0.420  -0.506  0.00  0.00     0.001 A 
ENDROOT
BRANCH   1   8
ATOM      8  C1  UNL d   1      -0.324  -0.801   0.286  0.00  0.00     0.053 C 
ATOM      9  C   UNL d   1       0.028  -1.255   1.694  0.00  0.00     0.018 C 
ENDBRANCH   1   8
TORSDOF 1
ENDMDL
