MODEL 1
REMARK minimizedAffinity 10.9820175
REMARK minimizedRMSD -1
REMARK  1 active torsions:
REMARK  status: ('A' for Active; 'I' for Inactive)
REMARK    1  A    between atoms: C1_2  and  C2_3 
ROOT
ATOM      1  C2  UNL d   1       0.096   4.075  -4.153  0.00  0.00    -0.073 A 
ATOM      2  C3  UNL d   1       0.452   4.183  -2.804  0.00  0.00    -0.002 A 
ATOM      3  C4  UNL d   1      -0.422   3.748  -1.807  0.00  0.00     0.004 A 
ATOM      4  C5  UNL d   1      -1.657   3.195  -2.148  0.00  0.00    -0.004 A 
ATOM      5  C6  UNL d   1      -2.025   3.067  -3.491  0.00  0.00    -0.075 A 
ATOM      6  C7  UNL d   1      -3.350   2.476  -3.875  0.00  0.00     0.076 C 
ATOM      7  C8  UNL d   1      -1.143   3.509  -4.486  0.00  0.00     0.001 A 
ENDROOT
BRANCH   1   8
ATOM      8  C1  UNL d   1       1.040   4.537  -5.233  0.00  0.00     0.053 C 
ATOM      9  C   UNL d   1       2.460   4.051  -4.995  0.00  0.00     0.018 C 
ENDBRANCH   1   8
TORSDOF 1
ENDMDL
