MODEL 1
REMARK minimizedAffinity 6.41327763
REMARK minimizedRMSD -1
REMARK  1 active torsions:
REMARK  status: ('A' for Active; 'I' for Inactive)
REMARK    1  A    between atoms: C1_2  and  C2_3 
ROOT
ATOM      1  C2  UNL d   1       0.992   3.532  -1.913  0.00  0.00    -0.073 A 
ATOM      2  C3  UNL d   1       1.225   4.626  -2.754  0.00  0.00    -0.002 A 
ATOM      3  C4  UNL d   1       0.423   4.836  -3.876  0.00  0.00     0.004 A 
ATOM      4  C5  UNL d   1      -0.623   3.960  -4.165  0.00  0.00    -0.004 A 
ATOM      5  C6  UNL d   1      -0.880   2.867  -3.331  0.00  0.00    -0.075 A 
ATOM      6  C7  UNL d   1      -1.999   1.914  -3.629  0.00  0.00     0.076 C 
ATOM      7  C8  UNL d   1      -0.068   2.662  -2.207  0.00  0.00     0.001 A 
ENDROOT
BRANCH   1   8
ATOM      8  C1  UNL d   1       1.851   3.305  -0.697  0.00  0.00     0.053 C 
ATOM      9  C   UNL d   1       3.205   2.714  -1.057  0.00  0.00     0.018 C 
ENDBRANCH   1   8
TORSDOF 1
ENDMDL
