MODEL 1
REMARK minimizedAffinity 6.2606883
REMARK minimizedRMSD -1
REMARK  1 active torsions:
REMARK  status: ('A' for Active; 'I' for Inactive)
REMARK    1  A    between atoms: C1_2  and  C2_3 
ROOT
ATOM      1  C2  UNL d   1       1.572   3.359  -0.958  0.00  0.00    -0.073 A 
ATOM      2  C3  UNL d   1       2.003   4.089   0.156  0.00  0.00    -0.002 A 
ATOM      3  C4  UNL d   1       3.319   3.977   0.606  0.00  0.00     0.004 A 
ATOM      4  C5  UNL d   1       4.218   3.139  -0.054  0.00  0.00    -0.004 A 
ATOM      5  C6  UNL d   1       3.809   2.410  -1.176  0.00  0.00    -0.075 A 
ATOM      6  C7  UNL d   1       4.763   1.503  -1.896  0.00  0.00     0.076 C 
ATOM      7  C8  UNL d   1       2.486   2.527  -1.621  0.00  0.00     0.001 A 
ENDROOT
BRANCH   1   8
ATOM      8  C1  UNL d   1       0.154   3.483  -1.452  0.00  0.00     0.053 C 
ATOM      9  C   UNL d   1       0.016   4.550  -2.526  0.00  0.00     0.018 C 
ENDBRANCH   1   8
TORSDOF 1
ENDMDL
