MODEL 1
REMARK minimizedAffinity -1.18716598
REMARK minimizedRMSD -1
REMARK  0 active torsions:
REMARK  status: ('A' for Active; 'I' for Inactive)
ROOT
ATOM      1  C1  DEN d   1       0.208   1.710  -3.044  0.00  0.00     0.130 A 
ATOM      2  C2  DEN d   1       0.327   3.166  -3.050  0.00  0.00    -0.031 A 
ATOM      3  C3  DEN d   1      -0.048   3.659  -1.709  0.00  0.00     0.027 A 
ATOM      4  C4  DEN d   1      -0.791   2.317   0.365  0.00  0.00     0.027 A 
ATOM      5  C5  DEN d   1      -1.054   1.056   0.850  0.00  0.00    -0.003 A 
ATOM      6  C6  DEN d   1      -0.949  -0.064   0.068  0.00  0.00     0.001 A 
ATOM      7  C7  DEN d   1      -0.527   0.052  -1.230  0.00  0.00     0.017 A 
ATOM      8  C8  DEN d   1      -0.267   1.321  -1.729  0.00  0.00    -0.094 A 
ATOM      9  C9  DEN d   1      -0.367   2.440  -0.919  0.00  0.00    -0.072 A 
ENDROOT
TORSDOF 0
ENDMDL
