MODEL 1
REMARK minimizedAffinity -5.59101248
REMARK minimizedRMSD -1
REMARK  0 active torsions:
REMARK  status: ('A' for Active; 'I' for Inactive)
ROOT
ATOM      1  C1  DEN d   1       1.930   0.163   0.727  0.00  0.00     0.130 A 
ATOM      2  C2  DEN d   1       2.566  -1.144   0.587  0.00  0.00    -0.031 A 
ATOM      3  C3  DEN d   1       1.504  -2.171   0.597  0.00  0.00     0.027 A 
ATOM      4  C4  DEN d   1      -1.048  -1.864   0.809  0.00  0.00     0.027 A 
ATOM      5  C5  DEN d   1      -2.059  -0.941   0.961  0.00  0.00    -0.003 A 
ATOM      6  C6  DEN d   1      -1.811   0.400   1.079  0.00  0.00     0.001 A 
ATOM      7  C7  DEN d   1      -0.523   0.862   1.002  0.00  0.00     0.017 A 
ATOM      8  C8  DEN d   1       0.502  -0.063   0.855  0.00  0.00    -0.094 A 
ATOM      9  C9  DEN d   1       0.230  -1.414   0.725  0.00  0.00    -0.072 A 
ENDROOT
TORSDOF 0
ENDMDL
