MODEL 1
REMARK minimizedAffinity 1.19809473
REMARK minimizedRMSD -1
REMARK  0 active torsions:
REMARK  status: ('A' for Active; 'I' for Inactive)
ROOT
ATOM      1  C1  DEN d   1       0.518   1.028   0.578  0.00  0.00     0.130 A 
ATOM      2  C2  DEN d   1      -0.327  -0.145   0.366  0.00  0.00    -0.031 A 
ATOM      3  C3  DEN d   1       0.506  -1.349   0.559  0.00  0.00     0.027 A 
ATOM      4  C4  DEN d   1       3.008  -1.511   1.164  0.00  0.00     0.027 A 
ATOM      5  C5  DEN d   1       4.147  -0.785   1.432  0.00  0.00    -0.003 A 
ATOM      6  C6  DEN d   1       4.165   0.584   1.401  0.00  0.00     0.001 A 
ATOM      7  C7  DEN d   1       3.010   1.272   1.139  0.00  0.00     0.017 A 
ATOM      8  C8  DEN d   1       1.858   0.547   0.861  0.00  0.00    -0.094 A 
ATOM      9  C9  DEN d   1       1.858  -0.837   0.910  0.00  0.00    -0.072 A 
ENDROOT
TORSDOF 0
ENDMDL
