MODEL 1
REMARK minimizedAffinity -3.23302674
REMARK minimizedRMSD -1
REMARK  0 active torsions:
REMARK  status: ('A' for Active; 'I' for Inactive)
ROOT
ATOM      1  C1  DEN d   1       1.041  -0.773   0.047  0.00  0.00     0.130 A 
ATOM      2  C2  DEN d   1       1.146   0.684   0.035  0.00  0.00    -0.031 A 
ATOM      3  C3  DEN d   1      -0.165   1.239   0.427  0.00  0.00     0.027 A 
ATOM      4  C4  DEN d   1      -2.334  -0.008   1.053  0.00  0.00     0.027 A 
ATOM      5  C5  DEN d   1      -2.914  -1.249   1.196  0.00  0.00    -0.003 A 
ATOM      6  C6  DEN d   1      -2.232  -2.408   0.935  0.00  0.00     0.001 A 
ATOM      7  C7  DEN d   1      -0.916  -2.351   0.561  0.00  0.00     0.017 A 
ATOM      8  C8  DEN d   1      -0.326  -1.103   0.408  0.00  0.00    -0.094 A 
ATOM      9  C9  DEN d   1      -1.028   0.057   0.688  0.00  0.00    -0.072 A 
ENDROOT
TORSDOF 0
ENDMDL
