MODEL 1
REMARK minimizedAffinity -2.64177847
REMARK minimizedRMSD -1
REMARK  0 active torsions:
REMARK  status: ('A' for Active; 'I' for Inactive)
ROOT
ATOM      1  C1  DEN d   1       0.731  -2.043   0.118  0.00  0.00     0.130 A 
ATOM      2  C2  DEN d   1       0.040  -2.891   1.086  0.00  0.00    -0.031 A 
ATOM      3  C3  DEN d   1      -1.010  -2.081   1.735  0.00  0.00     0.027 A 
ATOM      4  C4  DEN d   1      -1.634   0.390   1.333  0.00  0.00     0.027 A 
ATOM      5  C5  DEN d   1      -1.322   1.524   0.617  0.00  0.00    -0.003 A 
ATOM      6  C6  DEN d   1      -0.290   1.558  -0.284  0.00  0.00     0.001 A 
ATOM      7  C7  DEN d   1       0.438   0.423  -0.525  0.00  0.00     0.017 A 
ATOM      8  C8  DEN d   1       0.134  -0.722   0.199  0.00  0.00    -0.094 A 
ATOM      9  C9  DEN d   1      -0.920  -0.740   1.096  0.00  0.00    -0.072 A 
ENDROOT
TORSDOF 0
ENDMDL
