MODEL 1
REMARK minimizedAffinity -4.38846636
REMARK minimizedRMSD -1
REMARK  0 active torsions:
REMARK  status: ('A' for Active; 'I' for Inactive)
ROOT
ATOM      1  C1  DEN d   1      -0.956   1.013   0.932  0.00  0.00     0.130 A 
ATOM      2  C2  DEN d   1      -2.365   0.654   1.062  0.00  0.00    -0.031 A 
ATOM      3  C3  DEN d   1      -2.477  -0.813   0.928  0.00  0.00     0.027 A 
ATOM      4  C4  DEN d   1      -0.613  -2.553   0.540  0.00  0.00     0.027 A 
ATOM      5  C5  DEN d   1       0.741  -2.725   0.352  0.00  0.00    -0.003 A 
ATOM      6  C6  DEN d   1       1.612  -1.669   0.311  0.00  0.00     0.001 A 
ATOM      7  C7  DEN d   1       1.146  -0.395   0.505  0.00  0.00     0.017 A 
ATOM      8  C8  DEN d   1      -0.219  -0.213   0.687  0.00  0.00    -0.094 A 
ATOM      9  C9  DEN d   1      -1.082  -1.295   0.738  0.00  0.00    -0.072 A 
ENDROOT
TORSDOF 0
ENDMDL
