MODEL 1
REMARK minimizedAffinity -0.31523481
REMARK minimizedRMSD -1
REMARK  0 active torsions:
REMARK  status: ('A' for Active; 'I' for Inactive)
ROOT
ATOM      1  C1  DEN d   1      -2.485   0.867   0.959  0.00  0.00     0.130 A 
ATOM      2  C2  DEN d   1      -2.116   1.259  -0.399  0.00  0.00    -0.031 A 
ATOM      3  C3  DEN d   1      -1.158   0.262  -0.917  0.00  0.00     0.027 A 
ATOM      4  C4  DEN d   1      -0.219  -1.842   0.242  0.00  0.00     0.027 A 
ATOM      5  C5  DEN d   1      -0.230  -2.584   1.403  0.00  0.00    -0.003 A 
ATOM      6  C6  DEN d   1      -0.961  -2.212   2.500  0.00  0.00     0.001 A 
ATOM      7  C7  DEN d   1      -1.747  -1.091   2.444  0.00  0.00     0.017 A 
ATOM      8  C8  DEN d   1      -1.736  -0.335   1.279  0.00  0.00    -0.094 A 
ATOM      9  C9  DEN d   1      -0.999  -0.734   0.177  0.00  0.00    -0.072 A 
ENDROOT
TORSDOF 0
ENDMDL
