MODEL 1
REMARK minimizedAffinity -2.50568557
REMARK minimizedRMSD -1
REMARK  0 active torsions:
REMARK  status: ('A' for Active; 'I' for Inactive)
ROOT
ATOM      1  C1  DEN d   1       0.129  -0.019   0.923  0.00  0.00     0.130 A 
ATOM      2  C2  DEN d   1       1.356  -0.434   0.249  0.00  0.00    -0.031 A 
ATOM      3  C3  DEN d   1       1.771  -1.733   0.817  0.00  0.00     0.027 A 
ATOM      4  C4  DEN d   1       0.634  -3.135   2.660  0.00  0.00     0.027 A 
ATOM      5  C5  DEN d   1      -0.425  -3.187   3.538  0.00  0.00    -0.003 A 
ATOM      6  C6  DEN d   1      -1.348  -2.179   3.630  0.00  0.00     0.001 A 
ATOM      7  C7  DEN d   1      -1.254  -1.095   2.797  0.00  0.00     0.017 A 
ATOM      8  C8  DEN d   1      -0.184  -1.033   1.913  0.00  0.00    -0.094 A 
ATOM      9  C9  DEN d   1       0.731  -2.068   1.828  0.00  0.00    -0.072 A 
ENDROOT
TORSDOF 0
ENDMDL
