MODEL 1
REMARK minimizedAffinity 5.5129528
REMARK minimizedRMSD -1
REMARK  0 active torsions:
REMARK  status: ('A' for Active; 'I' for Inactive)
ROOT
ATOM      1  C1  DEN d   1      -0.506  -1.814   4.348  0.00  0.00     0.130 A 
ATOM      2  C2  DEN d   1       0.041  -3.074   4.846  0.00  0.00    -0.031 A 
ATOM      3  C3  DEN d   1       0.724  -3.750   3.725  0.00  0.00     0.027 A 
ATOM      4  C4  DEN d   1       0.992  -2.970   1.281  0.00  0.00     0.027 A 
ATOM      5  C5  DEN d   1       0.688  -1.972   0.381  0.00  0.00    -0.003 A 
ATOM      6  C6  DEN d   1      -0.057  -0.877   0.730  0.00  0.00     0.001 A 
ATOM      7  C7  DEN d   1      -0.487  -0.732   2.022  0.00  0.00     0.017 A 
ATOM      8  C8  DEN d   1      -0.191  -1.737   2.933  0.00  0.00    -0.094 A 
ATOM      9  C9  DEN d   1       0.575  -2.830   2.564  0.00  0.00    -0.072 A 
ENDROOT
TORSDOF 0
ENDMDL
