MODEL 1
REMARK minimizedAffinity -2.92598104
REMARK minimizedRMSD -1
REMARK  0 active torsions:
REMARK  status: ('A' for Active; 'I' for Inactive)
ROOT
ATOM      1  C1  DEN d   1       0.176   0.274   1.541  0.00  0.00     0.130 A 
ATOM      2  C2  DEN d   1       0.875  -0.420   0.462  0.00  0.00    -0.031 A 
ATOM      3  C3  DEN d   1       0.591  -1.863   0.589  0.00  0.00     0.027 A 
ATOM      4  C4  DEN d   1      -0.859  -3.085   2.337  0.00  0.00     0.027 A 
ATOM      5  C5  DEN d   1      -1.644  -2.920   3.457  0.00  0.00    -0.003 A 
ATOM      6  C6  DEN d   1      -1.849  -1.694   4.031  0.00  0.00     0.001 A 
ATOM      7  C7  DEN d   1      -1.297  -0.577   3.462  0.00  0.00     0.017 A 
ATOM      8  C8  DEN d   1      -0.498  -0.736   2.337  0.00  0.00    -0.094 A 
ATOM      9  C9  DEN d   1      -0.313  -1.983   1.764  0.00  0.00    -0.072 A 
ENDROOT
TORSDOF 0
ENDMDL
