MODEL 1
REMARK minimizedAffinity -4.62276363
REMARK minimizedRMSD -1
REMARK  0 active torsions:
REMARK  status: ('A' for Active; 'I' for Inactive)
ROOT
ATOM      1  C1  DEN d   1      -0.161   0.044   0.939  0.00  0.00     0.130 A 
ATOM      2  C2  DEN d   1       0.806  -0.460  -0.032  0.00  0.00    -0.031 A 
ATOM      3  C3  DEN d   1       1.141  -1.850   0.337  0.00  0.00     0.027 A 
ATOM      4  C4  DEN d   1       0.257  -3.265   2.304  0.00  0.00     0.027 A 
ATOM      5  C5  DEN d   1      -0.571  -3.264   3.405  0.00  0.00    -0.003 A 
ATOM      6  C6  DEN d   1      -1.289  -2.159   3.777  0.00  0.00     0.001 A 
ATOM      7  C7  DEN d   1      -1.226  -1.021   3.016  0.00  0.00     0.017 A 
ATOM      8  C8  DEN d   1      -0.388  -1.012   1.910  0.00  0.00    -0.094 A 
ATOM      9  C9  DEN d   1       0.320  -2.144   1.542  0.00  0.00    -0.072 A 
ENDROOT
TORSDOF 0
ENDMDL
