MODEL 1
REMARK minimizedAffinity 6.88339996
REMARK minimizedRMSD -1
REMARK  0 active torsions:
REMARK  status: ('A' for Active; 'I' for Inactive)
ROOT
ATOM      1  C1  DEN d   1       1.508  -1.749   1.291  0.00  0.00     0.130 A 
ATOM      2  C2  DEN d   1       0.439  -0.889   0.793  0.00  0.00    -0.031 A 
ATOM      3  C3  DEN d   1      -0.703  -0.994   1.723  0.00  0.00     0.027 A 
ATOM      4  C4  DEN d   1      -0.916  -2.395   3.878  0.00  0.00     0.027 A 
ATOM      5  C5  DEN d   1      -0.273  -3.293   4.701  0.00  0.00    -0.003 A 
ATOM      6  C6  DEN d   1       0.985  -3.762   4.429  0.00  0.00     0.001 A 
ATOM      7  C7  DEN d   1       1.659  -3.300   3.330  0.00  0.00     0.017 A 
ATOM      8  C8  DEN d   1       1.014  -2.399   2.491  0.00  0.00    -0.094 A 
ATOM      9  C9  DEN d   1      -0.253  -1.928   2.790  0.00  0.00    -0.072 A 
ENDROOT
TORSDOF 0
ENDMDL
