MODEL 1
REMARK minimizedAffinity 7.08985567
REMARK minimizedRMSD -1
REMARK  0 active torsions:
REMARK  status: ('A' for Active; 'I' for Inactive)
ROOT
ATOM      1  C1  DEN d   1       1.014  -3.326   2.987  0.00  0.00     0.130 A 
ATOM      2  C2  DEN d   1       0.097  -2.948   4.059  0.00  0.00    -0.031 A 
ATOM      3  C3  DEN d   1      -0.671  -1.769   3.609  0.00  0.00     0.027 A 
ATOM      4  C4  DEN d   1      -0.533  -0.502   1.367  0.00  0.00     0.027 A 
ATOM      5  C5  DEN d   1       0.106  -0.445   0.148  0.00  0.00    -0.003 A 
ATOM      6  C6  DEN d   1       1.106  -1.315  -0.194  0.00  0.00     0.001 A 
ATOM      7  C7  DEN d   1       1.468  -2.310   0.675  0.00  0.00     0.017 A 
ATOM      8  C8  DEN d   1       0.834  -2.370   1.910  0.00  0.00    -0.094 A 
ATOM      9  C9  DEN d   1      -0.184  -1.488   2.232  0.00  0.00    -0.072 A 
ENDROOT
TORSDOF 0
ENDMDL
