MODEL 1
REMARK minimizedAffinity -3.29286361
REMARK minimizedRMSD -1
REMARK  0 active torsions:
REMARK  status: ('A' for Active; 'I' for Inactive)
ROOT
ATOM      1  C1  DEN d   1      -3.650  -2.006  -5.990  0.00  0.00     0.130 A 
ATOM      2  C2  DEN d   1      -5.092  -2.239  -5.998  0.00  0.00    -0.031 A 
ATOM      3  C3  DEN d   1      -5.319  -3.698  -5.977  0.00  0.00     0.027 A 
ATOM      4  C4  DEN d   1      -3.588  -5.609  -5.929  0.00  0.00     0.027 A 
ATOM      5  C5  DEN d   1      -2.243  -5.905  -5.924  0.00  0.00    -0.003 A 
ATOM      6  C6  DEN d   1      -1.280  -4.932  -5.976  0.00  0.00     0.001 A 
ATOM      7  C7  DEN d   1      -1.649  -3.613  -5.988  0.00  0.00     0.017 A 
ATOM      8  C8  DEN d   1      -3.004  -3.306  -6.000  0.00  0.00    -0.094 A 
ATOM      9  C9  DEN d   1      -3.961  -4.304  -5.935  0.00  0.00    -0.072 A 
ENDROOT
TORSDOF 0
ENDMDL
