MODEL 1
REMARK minimizedAffinity 2.73234129
REMARK minimizedRMSD -1
REMARK  0 active torsions:
REMARK  status: ('A' for Active; 'I' for Inactive)
ROOT
ATOM      1  C1  DEN d   1      -0.955  -0.539   1.116  0.00  0.00     0.130 A 
ATOM      2  C2  DEN d   1      -0.364  -0.750  -0.202  0.00  0.00    -0.031 A 
ATOM      3  C3  DEN d   1       0.620  -1.845  -0.092  0.00  0.00     0.027 A 
ATOM      4  C4  DEN d   1       1.279  -3.232   1.980  0.00  0.00     0.027 A 
ATOM      5  C5  DEN d   1       1.057  -3.411   3.328  0.00  0.00    -0.003 A 
ATOM      6  C6  DEN d   1       0.181  -2.630   4.034  0.00  0.00     0.001 A 
ATOM      7  C7  DEN d   1      -0.540  -1.662   3.386  0.00  0.00     0.017 A 
ATOM      8  C8  DEN d   1      -0.316  -1.470   2.029  0.00  0.00    -0.094 A 
ATOM      9  C9  DEN d   1       0.565  -2.278   1.330  0.00  0.00    -0.072 A 
ENDROOT
TORSDOF 0
ENDMDL
