MODEL 1
REMARK minimizedAffinity 2.69018197
REMARK minimizedRMSD -1
REMARK  0 active torsions:
REMARK  status: ('A' for Active; 'I' for Inactive)
ROOT
ATOM      1  C1  DEN d   1      -0.175  -1.090   0.987  0.00  0.00     0.130 A 
ATOM      2  C2  DEN d   1       0.922  -1.569   0.151  0.00  0.00    -0.031 A 
ATOM      3  C3  DEN d   1       1.697  -2.553   0.934  0.00  0.00     0.027 A 
ATOM      4  C4  DEN d   1       1.304  -3.379   3.346  0.00  0.00     0.027 A 
ATOM      5  C5  DEN d   1       0.503  -3.251   4.459  0.00  0.00    -0.003 A 
ATOM      6  C6  DEN d   1      -0.550  -2.376   4.506  0.00  0.00     0.001 A 
ATOM      7  C7  DEN d   1      -0.859  -1.627   3.401  0.00  0.00     0.017 A 
ATOM      8  C8  DEN d   1      -0.052  -1.745   2.277  0.00  0.00    -0.094 A 
ATOM      9  C9  DEN d   1       1.001  -2.644   2.246  0.00  0.00    -0.072 A 
ENDROOT
TORSDOF 0
ENDMDL
