MODEL 1
REMARK minimizedAffinity 19.0310192
REMARK minimizedRMSD -1
REMARK  0 active torsions:
REMARK  status: ('A' for Active; 'I' for Inactive)
ROOT
ATOM      1  C   UNL d   1       1.694  -5.636  -5.914  0.00  0.00    -0.002 A 
ATOM      2  C1  UNL d   1       2.955  -5.165  -5.577  0.00  0.00     0.010 A 
ATOM      3  C2  UNL d   1       3.162  -3.808  -5.322  0.00  0.00     0.041 A 
ATOM      4  C3  UNL d   1       2.069  -2.924  -5.409  0.00  0.00    -0.075 A 
ATOM      5  S   UNL d   1       2.085  -1.221  -5.138  0.00  0.00     0.015 SA
ATOM      6  C4  UNL d   1       0.418  -1.078  -5.462  0.00  0.00     0.022 A 
ATOM      7  C5  UNL d   1      -0.153  -2.290  -5.771  0.00  0.00     0.026 A 
ATOM      8  C6  UNL d   1       0.789  -3.374  -5.745  0.00  0.00    -0.082 A 
ATOM      9  C7  UNL d   1       0.612  -4.755  -6.000  0.00  0.00     0.045 A 
ENDROOT
TORSDOF 0
ENDMDL
