MODEL 1
REMARK minimizedAffinity 22.1930943
REMARK minimizedRMSD -1
REMARK  0 active torsions:
REMARK  status: ('A' for Active; 'I' for Inactive)
ROOT
ATOM      1  C   UNL d   1       5.999   5.160   4.608  0.00  0.00    -0.002 A 
ATOM      2  C1  UNL d   1       5.610   5.999   3.572  0.00  0.00     0.010 A 
ATOM      3  C2  UNL d   1       4.879   5.500   2.492  0.00  0.00     0.041 A 
ATOM      4  C3  UNL d   1       4.541   4.133   2.470  0.00  0.00    -0.075 A 
ATOM      5  S   UNL d   1       3.650   3.302   1.250  0.00  0.00     0.015 SA
ATOM      6  C4  UNL d   1       3.764   1.815   2.075  0.00  0.00     0.022 A 
ATOM      7  C5  UNL d   1       4.461   1.932   3.254  0.00  0.00     0.026 A 
ATOM      8  C6  UNL d   1       4.920   3.270   3.502  0.00  0.00    -0.082 A 
ATOM      9  C7  UNL d   1       5.661   3.805   4.583  0.00  0.00     0.045 A 
ENDROOT
TORSDOF 0
ENDMDL
