MODEL 1
REMARK minimizedAffinity 10.0232391
REMARK minimizedRMSD -1
REMARK  0 active torsions:
REMARK  status: ('A' for Active; 'I' for Inactive)
ROOT
ATOM      1  C   UNL d   1       1.379  -0.042   3.413  0.00  0.00    -0.002 A 
ATOM      2  C1  UNL d   1       1.237  -1.362   3.818  0.00  0.00     0.010 A 
ATOM      3  C2  UNL d   1       0.005  -2.009   3.712  0.00  0.00     0.041 A 
ATOM      4  C3  UNL d   1      -1.093  -1.302   3.184  0.00  0.00    -0.075 A 
ATOM      5  S   UNL d   1      -2.698  -1.891   2.959  0.00  0.00     0.015 SA
ATOM      6  C4  UNL d   1      -3.233  -0.405   2.319  0.00  0.00     0.022 A 
ATOM      7  C5  UNL d   1      -2.226   0.529   2.271  0.00  0.00     0.026 A 
ATOM      8  C6  UNL d   1      -0.976   0.027   2.768  0.00  0.00    -0.082 A 
ATOM      9  C7  UNL d   1       0.287   0.656   2.890  0.00  0.00     0.045 A 
ENDROOT
TORSDOF 0
ENDMDL
