MODEL 1
REMARK minimizedAffinity 17.248394
REMARK minimizedRMSD -1
REMARK  0 active torsions:
REMARK  status: ('A' for Active; 'I' for Inactive)
ROOT
ATOM      1  C   UNL d   1      -0.221   0.074   2.893  0.00  0.00    -0.002 A 
ATOM      2  C1  UNL d   1      -0.004  -1.167   3.475  0.00  0.00     0.010 A 
ATOM      3  C2  UNL d   1       1.218  -1.463   4.083  0.00  0.00     0.041 A 
ATOM      4  C3  UNL d   1       2.227  -0.481   4.098  0.00  0.00    -0.075 A 
ATOM      5  S   UNL d   1       3.802  -0.619   4.786  0.00  0.00     0.015 SA
ATOM      6  C4  UNL d   1       4.224   0.967   4.324  0.00  0.00     0.022 A 
ATOM      7  C5  UNL d   1       3.200   1.600   3.660  0.00  0.00     0.026 A 
ATOM      8  C6  UNL d   1       2.032   0.777   3.519  0.00  0.00    -0.082 A 
ATOM      9  C7  UNL d   1       0.783   1.046   2.910  0.00  0.00     0.045 A 
ENDROOT
TORSDOF 0
ENDMDL
