MODEL 1
REMARK minimizedAffinity 16.0032539
REMARK minimizedRMSD -1
REMARK  0 active torsions:
REMARK  status: ('A' for Active; 'I' for Inactive)
ROOT
ATOM      1  C   UNL d   1       1.942   0.430  -5.073  0.00  0.00    -0.002 A 
ATOM      2  C1  UNL d   1       0.616   0.042  -5.207  0.00  0.00     0.010 A 
ATOM      3  C2  UNL d   1       0.290  -1.285  -5.493  0.00  0.00     0.041 A 
ATOM      4  C3  UNL d   1       1.328  -2.225  -5.642  0.00  0.00    -0.075 A 
ATOM      5  S   UNL d   1       1.166  -3.906  -5.993  0.00  0.00     0.015 SA
ATOM      6  C4  UNL d   1       2.853  -4.149  -5.973  0.00  0.00     0.022 A 
ATOM      7  C5  UNL d   1       3.538  -2.987  -5.706  0.00  0.00     0.026 A 
ATOM      8  C6  UNL d   1       2.670  -1.859  -5.511  0.00  0.00    -0.082 A 
ATOM      9  C7  UNL d   1       2.969  -0.506  -5.221  0.00  0.00     0.045 A 
ENDROOT
TORSDOF 0
ENDMDL
