MODEL 1
REMARK minimizedAffinity 16.19104
REMARK minimizedRMSD -1
REMARK  0 active torsions:
REMARK  status: ('A' for Active; 'I' for Inactive)
ROOT
ATOM      1  C   UNL d   1      -1.644  -4.748  -5.366  0.00  0.00    -0.002 A 
ATOM      2  C1  UNL d   1      -2.247  -4.173  -4.256  0.00  0.00     0.010 A 
ATOM      3  C2  UNL d   1      -1.790  -2.954  -3.752  0.00  0.00     0.041 A 
ATOM      4  C3  UNL d   1      -0.709  -2.315  -4.390  0.00  0.00    -0.075 A 
ATOM      5  S   UNL d   1       0.019  -0.815  -3.950  0.00  0.00     0.015 SA
ATOM      6  C4  UNL d   1       1.147  -0.902  -5.225  0.00  0.00     0.022 A 
ATOM      7  C5  UNL d   1       0.986  -2.041  -5.978  0.00  0.00     0.026 A 
ATOM      8  C6  UNL d   1      -0.086  -2.874  -5.509  0.00  0.00    -0.082 A 
ATOM      9  C7  UNL d   1      -0.571  -4.112  -5.996  0.00  0.00     0.045 A 
ENDROOT
TORSDOF 0
ENDMDL
