MODEL 1
REMARK minimizedAffinity 14.7155361
REMARK minimizedRMSD -1
REMARK  0 active torsions:
REMARK  status: ('A' for Active; 'I' for Inactive)
ROOT
ATOM      1  C   UNL d   1       2.097  -0.023  -4.871  0.00  0.00    -0.002 A 
ATOM      2  C1  UNL d   1       2.160  -0.986  -5.868  0.00  0.00     0.010 A 
ATOM      3  C2  UNL d   1       1.147  -1.939  -6.000  0.00  0.00     0.041 A 
ATOM      4  C3  UNL d   1       0.059  -1.905  -5.106  0.00  0.00    -0.075 A 
ATOM      5  S   UNL d   1      -1.296  -2.970  -5.078  0.00  0.00     0.015 SA
ATOM      6  C4  UNL d   1      -1.991  -2.170  -3.742  0.00  0.00     0.022 A 
ATOM      7  C5  UNL d   1      -1.221  -1.114  -3.316  0.00  0.00     0.026 A 
ATOM      8  C6  UNL d   1      -0.027  -0.944  -4.095  0.00  0.00    -0.082 A 
ATOM      9  C7  UNL d   1       1.016   0.008  -3.986  0.00  0.00     0.045 A 
ENDROOT
TORSDOF 0
ENDMDL
