MODEL 1
REMARK minimizedAffinity 5.52668524
REMARK minimizedRMSD -1
REMARK  0 active torsions:
REMARK  status: ('A' for Active; 'I' for Inactive)
ROOT
ATOM      1  C   UNL d   1       0.761   1.920   2.203  0.00  0.00    -0.002 A 
ATOM      2  C1  UNL d   1       2.127   1.977   2.441  0.00  0.00     0.010 A 
ATOM      3  C2  UNL d   1       2.768   0.960   3.151  0.00  0.00     0.041 A 
ATOM      4  C3  UNL d   1       2.005  -0.127   3.621  0.00  0.00    -0.075 A 
ATOM      5  S   UNL d   1       2.576  -1.488   4.513  0.00  0.00     0.015 SA
ATOM      6  C4  UNL d   1       1.019  -2.178   4.598  0.00  0.00     0.022 A 
ATOM      7  C5  UNL d   1       0.076  -1.402   3.968  0.00  0.00     0.026 A 
ATOM      8  C6  UNL d   1       0.629  -0.208   3.394  0.00  0.00    -0.082 A 
ATOM      9  C7  UNL d   1       0.008   0.840   2.671  0.00  0.00     0.045 A 
ENDROOT
TORSDOF 0
ENDMDL
