MODEL 1
REMARK minimizedAffinity 12.7511435
REMARK minimizedRMSD -1
REMARK  0 active torsions:
REMARK  status: ('A' for Active; 'I' for Inactive)
ROOT
ATOM      1  C   UNL d   1      -3.796   0.324   2.449  0.00  0.00    -0.002 A 
ATOM      2  C1  UNL d   1      -3.877  -0.898   3.103  0.00  0.00     0.010 A 
ATOM      3  C2  UNL d   1      -2.726  -1.518   3.593  0.00  0.00     0.041 A 
ATOM      4  C3  UNL d   1      -1.481  -0.883   3.416  0.00  0.00    -0.075 A 
ATOM      5  S   UNL d   1       0.061  -1.454   3.934  0.00  0.00     0.015 SA
ATOM      6  C4  UNL d   1       0.863  -0.090   3.301  0.00  0.00     0.022 A 
ATOM      7  C5  UNL d   1      -0.009   0.790   2.706  0.00  0.00     0.026 A 
ATOM      8  C6  UNL d   1      -1.375   0.348   2.762  0.00  0.00    -0.082 A 
ATOM      9  C7  UNL d   1      -2.559   0.951   2.276  0.00  0.00     0.045 A 
ENDROOT
TORSDOF 0
ENDMDL
