MODEL 1
REMARK minimizedAffinity -4.05324459
REMARK minimizedRMSD -1
REMARK  0 active torsions:
REMARK  status: ('A' for Active; 'I' for Inactive)
ROOT
ATOM      1  C4' PXY d   1       0.707  -0.989   2.448  0.00  0.00     0.077 C 
ATOM      2  C1' PXY d   1      -1.474   1.504  -2.289  0.00  0.00     0.077 C 
ATOM      3  C1  PXY d   1      -0.911   0.857  -1.039  0.00  0.00    -0.082 A 
ATOM      4  C2  PXY d   1       0.333   0.405  -1.040  0.00  0.00     0.003 A 
ATOM      5  C3  PXY d   1       0.848  -0.212   0.071  0.00  0.00     0.003 A 
ATOM      6  C4  PXY d   1       0.100  -0.320   1.212  0.00  0.00    -0.082 A 
ATOM      7  C5  PXY d   1      -1.167   0.147   1.225  0.00  0.00     0.003 A 
ATOM      8  C6  PXY d   1      -1.684   0.733   0.073  0.00  0.00     0.003 A 
ENDROOT
TORSDOF 0
ENDMDL
