MODEL 1
REMARK minimizedAffinity 0.725469112
REMARK minimizedRMSD -1
REMARK  0 active torsions:
REMARK  status: ('A' for Active; 'I' for Inactive)
ROOT
ATOM      1  C4' PXY d   1      -1.162   1.651  -1.634  0.00  0.00     0.077 C 
ATOM      2  C1' PXY d   1       2.787  -1.753   0.863  0.00  0.00     0.077 C 
ATOM      3  C1  PXY d   1       1.757  -0.861   0.197  0.00  0.00    -0.082 A 
ATOM      4  C2  PXY d   1       1.069   0.002   0.927  0.00  0.00     0.003 A 
ATOM      5  C3  PXY d   1       0.112   0.793   0.345  0.00  0.00     0.003 A 
ATOM      6  C4  PXY d   1      -0.106   0.737  -1.005  0.00  0.00    -0.082 A 
ATOM      7  C5  PXY d   1       0.599  -0.133  -1.758  0.00  0.00     0.003 A 
ATOM      8  C6  PXY d   1       1.538  -0.957  -1.142  0.00  0.00     0.003 A 
ENDROOT
TORSDOF 0
ENDMDL
