MODEL 1
REMARK minimizedAffinity -2.82972789
REMARK minimizedRMSD -1
REMARK  0 active torsions:
REMARK  status: ('A' for Active; 'I' for Inactive)
ROOT
ATOM      1  C4' PXY d   1      -1.354   0.967  -2.768  0.00  0.00     0.077 C 
ATOM      2  C1' PXY d   1       1.851  -0.679   1.753  0.00  0.00     0.077 C 
ATOM      3  C1  PXY d   1       1.021  -0.249   0.559  0.00  0.00    -0.082 A 
ATOM      4  C2  PXY d   1      -0.053   0.501   0.746  0.00  0.00     0.003 A 
ATOM      5  C3  PXY d   1      -0.833   0.872  -0.319  0.00  0.00     0.003 A 
ATOM      6  C4  PXY d   1      -0.480   0.517  -1.593  0.00  0.00    -0.082 A 
ATOM      7  C5  PXY d   1       0.620  -0.238  -1.793  0.00  0.00     0.003 A 
ATOM      8  C6  PXY d   1       1.376  -0.640  -0.695  0.00  0.00     0.003 A 
ENDROOT
TORSDOF 0
ENDMDL
