MODEL 1
REMARK minimizedAffinity -0.136439383
REMARK minimizedRMSD -1
REMARK  0 active torsions:
REMARK  status: ('A' for Active; 'I' for Inactive)
ROOT
ATOM      1  C4' PXY d   1      -1.864   0.867  -1.812  0.00  0.00     0.077 C 
ATOM      2  C1' PXY d   1       3.233  -0.966   0.207  0.00  0.00     0.077 C 
ATOM      3  C1  PXY d   1       1.891  -0.488  -0.311  0.00  0.00    -0.082 A 
ATOM      4  C2  PXY d   1       1.649  -0.502  -1.612  0.00  0.00     0.003 A 
ATOM      5  C3  PXY d   1       0.452  -0.043  -2.100  0.00  0.00     0.003 A 
ATOM      6  C4  PXY d   1      -0.527   0.385  -1.244  0.00  0.00    -0.082 A 
ATOM      7  C5  PXY d   1      -0.291   0.392   0.086  0.00  0.00     0.003 A 
ATOM      8  C6  PXY d   1       0.945  -0.039   0.558  0.00  0.00     0.003 A 
ENDROOT
TORSDOF 0
ENDMDL
