MODEL 1
REMARK minimizedAffinity -3.25054049
REMARK minimizedRMSD -1
REMARK  0 active torsions:
REMARK  status: ('A' for Active; 'I' for Inactive)
ROOT
ATOM      1  C4' PXY d   1      -0.815   1.316  -2.049  0.00  0.00     0.077 C 
ATOM      2  C1' PXY d   1       0.860  -1.442   2.747  0.00  0.00     0.077 C 
ATOM      3  C1  PXY d   1       0.409  -0.725   1.490  0.00  0.00    -0.082 A 
ATOM      4  C2  PXY d   1       1.313  -0.216   0.668  0.00  0.00     0.003 A 
ATOM      5  C3  PXY d   1       0.922   0.463  -0.458  0.00  0.00     0.003 A 
ATOM      6  C4  PXY d   1      -0.406   0.576  -0.773  0.00  0.00    -0.082 A 
ATOM      7  C5  PXY d   1      -1.333   0.050   0.055  0.00  0.00     0.003 A 
ATOM      8  C6  PXY d   1      -0.917  -0.600   1.214  0.00  0.00     0.003 A 
ENDROOT
TORSDOF 0
ENDMDL
