MODEL 1
REMARK minimizedAffinity -2.40954089
REMARK minimizedRMSD -1
REMARK  0 active torsions:
REMARK  status: ('A' for Active; 'I' for Inactive)
ROOT
ATOM      1  C4' PXY d   1      -1.139   1.802  -2.068  0.00  0.00     0.077 C 
ATOM      2  C1' PXY d   1      -0.274  -1.450   2.632  0.00  0.00     0.077 C 
ATOM      3  C1  PXY d   1      -0.488  -0.596   1.398  0.00  0.00    -0.082 A 
ATOM      4  C2  PXY d   1      -1.602   0.108   1.274  0.00  0.00     0.003 A 
ATOM      5  C3  PXY d   1      -1.826   0.860   0.150  0.00  0.00     0.003 A 
ATOM      6  C4  PXY d   1      -0.877   0.934  -0.834  0.00  0.00    -0.082 A 
ATOM      7  C5  PXY d   1       0.267   0.227  -0.711  0.00  0.00     0.003 A 
ATOM      8  C6  PXY d   1       0.457  -0.562   0.420  0.00  0.00     0.003 A 
ENDROOT
TORSDOF 0
ENDMDL
