MODEL 1
REMARK minimizedAffinity -2.22150326
REMARK minimizedRMSD -1
REMARK  0 active torsions:
REMARK  status: ('A' for Active; 'I' for Inactive)
ROOT
ATOM      1  C4' PXY d   1       1.638  -0.712   1.752  0.00  0.00     0.077 C 
ATOM      2  C1' PXY d   1      -1.195   1.157  -2.928  0.00  0.00     0.077 C 
ATOM      3  C1  PXY d   1      -0.450   0.656  -1.707  0.00  0.00    -0.082 A 
ATOM      4  C2  PXY d   1      -0.726   1.165  -0.517  0.00  0.00     0.003 A 
ATOM      5  C3  PXY d   1      -0.038   0.746   0.593  0.00  0.00     0.003 A 
ATOM      6  C4  PXY d   1       0.904  -0.243   0.493  0.00  0.00    -0.082 A 
ATOM      7  C5  PXY d   1       1.183  -0.775  -0.716  0.00  0.00     0.003 A 
ATOM      8  C6  PXY d   1       0.504  -0.306  -1.837  0.00  0.00     0.003 A 
ENDROOT
TORSDOF 0
ENDMDL
