MODEL 1
REMARK minimizedAffinity -4.93314123
REMARK minimizedRMSD -1
REMARK  0 active torsions:
REMARK  status: ('A' for Active; 'I' for Inactive)
ROOT
ATOM      1  C4' PXY d   1       2.286  -2.487   2.537  0.00  0.00     0.077 C 
ATOM      2  C1' PXY d   1      -0.967   0.681  -1.042  0.00  0.00     0.077 C 
ATOM      3  C1  PXY d   1      -0.118  -0.143  -0.093  0.00  0.00    -0.082 A 
ATOM      4  C2  PXY d   1       0.959  -0.763  -0.549  0.00  0.00     0.003 A 
ATOM      5  C3  PXY d   1       1.719  -1.538   0.288  0.00  0.00     0.003 A 
ATOM      6  C4  PXY d   1       1.405  -1.637   1.617  0.00  0.00    -0.082 A 
ATOM      7  C5  PXY d   1       0.314  -0.999   2.092  0.00  0.00     0.003 A 
ATOM      8  C6  PXY d   1      -0.468  -0.251   1.217  0.00  0.00     0.003 A 
ENDROOT
TORSDOF 0
ENDMDL
