MODEL 1
REMARK minimizedAffinity -2.1537776
REMARK minimizedRMSD -1
REMARK  0 active torsions:
REMARK  status: ('A' for Active; 'I' for Inactive)
ROOT
ATOM      1  C4' PXY d   1      -0.058  -2.108   2.960  0.00  0.00     0.077 C 
ATOM      2  C1' PXY d   1      -0.163   1.217  -1.767  0.00  0.00     0.077 C 
ATOM      3  C1  PXY d   1      -0.124   0.341  -0.531  0.00  0.00    -0.082 A 
ATOM      4  C2  PXY d   1      -1.256  -0.017   0.054  0.00  0.00     0.003 A 
ATOM      5  C3  PXY d   1      -1.237  -0.782   1.191  0.00  0.00     0.003 A 
ATOM      6  C4  PXY d   1      -0.050  -1.231   1.705  0.00  0.00    -0.082 A 
ATOM      7  C5  PXY d   1       1.109  -0.880   1.108  0.00  0.00     0.003 A 
ATOM      8  C6  PXY d   1       1.070  -0.068  -0.022  0.00  0.00     0.003 A 
ENDROOT
TORSDOF 0
ENDMDL
