MODEL 1
REMARK minimizedAffinity 0.983834922
REMARK minimizedRMSD -1
REMARK  0 active torsions:
REMARK  status: ('A' for Active; 'I' for Inactive)
ROOT
ATOM      1  C4' PXY d   1       2.880  -1.335   3.548  0.00  0.00     0.077 C 
ATOM      2  C1' PXY d   1       0.286  -1.070  -1.611  0.00  0.00     0.077 C 
ATOM      3  C1  PXY d   1       0.956  -1.134  -0.253  0.00  0.00    -0.082 A 
ATOM      4  C2  PXY d   1       2.276  -1.109  -0.172  0.00  0.00     0.003 A 
ATOM      5  C3  PXY d   1       2.899  -1.199   1.046  0.00  0.00     0.003 A 
ATOM      6  C4  PXY d   1       2.161  -1.262   2.198  0.00  0.00    -0.082 A 
ATOM      7  C5  PXY d   1       0.813  -1.278   2.125  0.00  0.00     0.003 A 
ATOM      8  C6  PXY d   1       0.201  -1.227   0.876  0.00  0.00     0.003 A 
ENDROOT
TORSDOF 0
ENDMDL
