MODEL 1
REMARK minimizedAffinity -4.99087048
REMARK minimizedRMSD -1
REMARK  0 active torsions:
REMARK  status: ('A' for Active; 'I' for Inactive)
ROOT
ATOM      1  C4' PXY d   1      -1.197   0.835  -1.809  0.00  0.00     0.077 C 
ATOM      2  C1' PXY d   1       1.589  -1.022   2.903  0.00  0.00     0.077 C 
ATOM      3  C1  PXY d   1       0.847  -0.540   1.672  0.00  0.00    -0.082 A 
ATOM      4  C2  PXY d   1       1.507  -0.360   0.539  0.00  0.00     0.003 A 
ATOM      5  C3  PXY d   1       0.858   0.106  -0.575  0.00  0.00     0.003 A 
ATOM      6  C4  PXY d   1      -0.491   0.340  -0.544  0.00  0.00    -0.082 A 
ATOM      7  C5  PXY d   1      -1.173   0.148   0.605  0.00  0.00     0.003 A 
ATOM      8  C6  PXY d   1      -0.488  -0.286   1.736  0.00  0.00     0.003 A 
ENDROOT
TORSDOF 0
ENDMDL
