MODEL 1
REMARK minimizedAffinity -5.60952473
REMARK minimizedRMSD -1
REMARK  2 active torsions:
REMARK  status: ('A' for Active; 'I' for Inactive)
REMARK    1  A    between atoms: C1_2  and  C2_3 
REMARK    2  A    between atoms: C2_3  and  C3_4 
ROOT
ATOM      1  C3  UNL d   1       0.125   0.831   0.134  0.00  0.00    -0.075 A 
ATOM      2  C4  UNL d   1      -0.177   2.065  -0.460  0.00  0.00     0.002 A 
ATOM      3  C5  UNL d   1      -0.769   3.084   0.287  0.00  0.00     0.002 A 
ATOM      4  C6  UNL d   1      -1.076   2.879   1.631  0.00  0.00    -0.004 A 
ATOM      5  C7  UNL d   1      -0.795   1.651   2.226  0.00  0.00     0.002 A 
ATOM      6  C8  UNL d   1      -0.198   0.631   1.482  0.00  0.00     0.002 A 
ENDROOT
BRANCH   1   7
ATOM      7  C2  UNL d   1       0.794  -0.265  -0.662  0.00  0.00     0.056 C 
BRANCH   7   8
ATOM      8  C1  UNL d   1       0.215  -1.661  -0.407  0.00  0.00     0.007 C 
ATOM      9  C   UNL d   1       1.045  -2.777  -1.029  0.00  0.00     0.009 C 
ENDBRANCH   7   8
ENDBRANCH   1   7
TORSDOF 2
ENDMDL
