MODEL 1
REMARK minimizedAffinity -5.20848179
REMARK minimizedRMSD -1
REMARK  2 active torsions:
REMARK  status: ('A' for Active; 'I' for Inactive)
REMARK    1  A    between atoms: C1_2  and  C2_3 
REMARK    2  A    between atoms: C2_3  and  C3_4 
ROOT
ATOM      1  C3  UNL d   1       0.038   0.750  -0.321  0.00  0.00    -0.075 A 
ATOM      2  C4  UNL d   1      -0.684   1.890  -0.705  0.00  0.00     0.002 A 
ATOM      3  C5  UNL d   1      -1.095   2.821   0.249  0.00  0.00     0.002 A 
ATOM      4  C6  UNL d   1      -0.800   2.622   1.595  0.00  0.00    -0.004 A 
ATOM      5  C7  UNL d   1      -0.097   1.485   1.990  0.00  0.00     0.002 A 
ATOM      6  C8  UNL d   1       0.319   0.553   1.037  0.00  0.00     0.002 A 
ENDROOT
BRANCH   1   7
ATOM      7  C2  UNL d   1       0.512  -0.247  -1.351  0.00  0.00     0.056 C 
BRANCH   7   8
ATOM      8  C1  UNL d   1       0.446  -1.705  -0.884  0.00  0.00     0.007 C 
ATOM      9  C   UNL d   1       0.349  -2.700  -2.033  0.00  0.00     0.009 C 
ENDBRANCH   7   8
ENDBRANCH   1   7
TORSDOF 2
ENDMDL
