MODEL 1
REMARK minimizedAffinity -3.21248913
REMARK minimizedRMSD -1
REMARK  2 active torsions:
REMARK  status: ('A' for Active; 'I' for Inactive)
REMARK    1  A    between atoms: C1_2  and  C2_3 
REMARK    2  A    between atoms: C2_3  and  C3_4 
ROOT
ATOM      1  C3  UNL d   1       0.743  -1.099  -0.571  0.00  0.00    -0.075 A 
ATOM      2  C4  UNL d   1       0.609  -0.700   0.767  0.00  0.00     0.002 A 
ATOM      3  C5  UNL d   1       0.063   0.545   1.083  0.00  0.00     0.002 A 
ATOM      4  C6  UNL d   1      -0.345   1.408   0.068  0.00  0.00    -0.004 A 
ATOM      5  C7  UNL d   1      -0.200   1.028  -1.265  0.00  0.00     0.002 A 
ATOM      6  C8  UNL d   1       0.342  -0.218  -1.584  0.00  0.00     0.002 A 
ENDROOT
BRANCH   1   7
ATOM      7  C2  UNL d   1       1.306  -2.457  -0.918  0.00  0.00     0.056 C 
BRANCH   7   8
ATOM      8  C1  UNL d   1       0.277  -3.591  -0.865  0.00  0.00     0.007 C 
ATOM      9  C   UNL d   1       0.728  -4.771  -0.015  0.00  0.00     0.009 C 
ENDBRANCH   7   8
ENDBRANCH   1   7
TORSDOF 2
ENDMDL
