MODEL 1
REMARK minimizedAffinity -3.91718173
REMARK minimizedRMSD -1
REMARK  2 active torsions:
REMARK  status: ('A' for Active; 'I' for Inactive)
REMARK    1  A    between atoms: C1_2  and  C2_3 
REMARK    2  A    between atoms: C2_3  and  C3_4 
ROOT
ATOM      1  C3  UNL d   1      -0.070   0.026   0.045  0.00  0.00    -0.075 A 
ATOM      2  C4  UNL d   1      -1.375   0.476  -0.200  0.00  0.00     0.002 A 
ATOM      3  C5  UNL d   1      -1.912   1.529   0.541  0.00  0.00     0.002 A 
ATOM      4  C6  UNL d   1      -1.157   2.136   1.542  0.00  0.00    -0.004 A 
ATOM      5  C7  UNL d   1       0.135   1.686   1.806  0.00  0.00     0.002 A 
ATOM      6  C8  UNL d   1       0.676   0.636   1.063  0.00  0.00     0.002 A 
ENDROOT
BRANCH   1   7
ATOM      7  C2  UNL d   1       0.528  -1.093  -0.774  0.00  0.00     0.056 C 
BRANCH   7   8
ATOM      8  C1  UNL d   1      -0.459  -2.215  -1.112  0.00  0.00     0.007 C 
ATOM      9  C   UNL d   1       0.185  -3.595  -1.137  0.00  0.00     0.009 C 
ENDBRANCH   7   8
ENDBRANCH   1   7
TORSDOF 2
ENDMDL
