MODEL 1
REMARK minimizedAffinity -3.27547669
REMARK minimizedRMSD -1
REMARK  2 active torsions:
REMARK  status: ('A' for Active; 'I' for Inactive)
REMARK    1  A    between atoms: C1_2  and  C2_3 
REMARK    2  A    between atoms: C2_3  and  C3_4 
ROOT
ATOM      1  C3  UNL d   1       0.134   0.176  -0.265  0.00  0.00    -0.075 A 
ATOM      2  C4  UNL d   1       0.496   0.247   1.088  0.00  0.00     0.002 A 
ATOM      3  C5  UNL d   1       0.073   1.315   1.879  0.00  0.00     0.002 A 
ATOM      4  C6  UNL d   1      -0.707   2.328   1.327  0.00  0.00    -0.004 A 
ATOM      5  C7  UNL d   1      -1.059   2.277  -0.020  0.00  0.00     0.002 A 
ATOM      6  C8  UNL d   1      -0.640   1.207  -0.813  0.00  0.00     0.002 A 
ENDROOT
BRANCH   1   7
ATOM      7  C2  UNL d   1       0.564  -0.993  -1.120  0.00  0.00     0.056 C 
BRANCH   7   8
ATOM      8  C1  UNL d   1      -0.419  -2.168  -1.109  0.00  0.00     0.007 C 
ATOM      9  C   UNL d   1       0.270  -3.527  -1.114  0.00  0.00     0.009 C 
ENDBRANCH   7   8
ENDBRANCH   1   7
TORSDOF 2
ENDMDL
