MODEL 1
REMARK minimizedAffinity -2.65237808
REMARK minimizedRMSD -1
REMARK  2 active torsions:
REMARK  status: ('A' for Active; 'I' for Inactive)
REMARK    1  A    between atoms: C1_2  and  C2_3 
REMARK    2  A    between atoms: C2_3  and  C3_4 
ROOT
ATOM      1  C3  UNL d   1       0.300  -0.791  -0.300  0.00  0.00    -0.075 A 
ATOM      2  C4  UNL d   1      -0.185  -0.051   0.788  0.00  0.00     0.002 A 
ATOM      3  C5  UNL d   1      -0.271   1.340   0.716  0.00  0.00     0.002 A 
ATOM      4  C6  UNL d   1       0.135   2.007  -0.437  0.00  0.00    -0.004 A 
ATOM      5  C7  UNL d   1       0.634   1.284  -1.517  0.00  0.00     0.002 A 
ATOM      6  C8  UNL d   1       0.717  -0.108  -1.450  0.00  0.00     0.002 A 
ENDROOT
BRANCH   1   7
ATOM      7  C2  UNL d   1       0.368  -2.299  -0.240  0.00  0.00     0.056 C 
BRANCH   7   8
ATOM      8  C1  UNL d   1       0.414  -2.976  -1.614  0.00  0.00     0.007 C 
ATOM      9  C   UNL d   1      -0.958  -3.400  -2.121  0.00  0.00     0.009 C 
ENDBRANCH   7   8
ENDBRANCH   1   7
TORSDOF 2
ENDMDL
