MODEL 1
REMARK minimizedAffinity -0.0294344667
REMARK minimizedRMSD -1
REMARK  1 active torsions:
REMARK  status: ('A' for Active; 'I' for Inactive)
REMARK    1  A    between atoms: C1_2  and  C2_3 
ROOT
ATOM      1  C2  UNL d   1       0.704   2.322   1.385  0.00  0.00    -0.081 A 
ATOM      2  C3  UNL d   1       0.701   3.552   0.717  0.00  0.00     0.006 A 
ATOM      3  C4  UNL d   1       1.457   4.623   1.202  0.00  0.00     0.002 A 
ATOM      4  C5  UNL d   1       2.233   4.479   2.357  0.00  0.00    -0.080 A 
ATOM      5  C6  UNL d   1       3.072   5.611   2.870  0.00  0.00     0.076 C 
ATOM      6  C7  UNL d   1       2.222   3.255   3.034  0.00  0.00     0.002 A 
ATOM      7  C8  UNL d   1       1.466   2.184   2.551  0.00  0.00     0.006 A 
ENDROOT
BRANCH   1   8
ATOM      8  C1  UNL d   1      -0.058   1.146   0.830  0.00  0.00     0.054 C 
ATOM      9  C   UNL d   1       0.596  -0.172   1.219  0.00  0.00     0.018 C 
ENDBRANCH   1   8
TORSDOF 1
ENDMDL
