MODEL 1
REMARK minimizedAffinity 2.05431652
REMARK minimizedRMSD -1
REMARK  1 active torsions:
REMARK  status: ('A' for Active; 'I' for Inactive)
REMARK    1  A    between atoms: C1_2  and  C2_3 
ROOT
ATOM      1  C2  UNL d   1       0.590   2.914  -0.092  0.00  0.00    -0.081 A 
ATOM      2  C3  UNL d   1       0.580   1.641  -0.675  0.00  0.00     0.006 A 
ATOM      3  C4  UNL d   1       0.645   0.496   0.123  0.00  0.00     0.002 A 
ATOM      4  C5  UNL d   1       0.712   0.605   1.516  0.00  0.00    -0.080 A 
ATOM      5  C6  UNL d   1       0.751  -0.616   2.386  0.00  0.00     0.076 C 
ATOM      6  C7  UNL d   1       0.739   1.877   2.098  0.00  0.00     0.002 A 
ATOM      7  C8  UNL d   1       0.675   3.022   1.300  0.00  0.00     0.006 A 
ENDROOT
BRANCH   1   8
ATOM      8  C1  UNL d   1       0.455   4.149  -0.946  0.00  0.00     0.054 C 
ATOM      9  C   UNL d   1       0.917   5.392  -0.198  0.00  0.00     0.018 C 
ENDBRANCH   1   8
TORSDOF 1
ENDMDL
