MODEL 1
REMARK minimizedAffinity -4.55543184
REMARK minimizedRMSD -1
REMARK  0 active torsions:
REMARK  status: ('A' for Active; 'I' for Inactive)
ROOT
ATOM      1  C2' OXE d   1      -1.188  -0.177   1.776  0.00  0.00     0.078 C 
ATOM      2  C1' OXE d   1      -0.569  -2.690   0.689  0.00  0.00     0.078 C 
ATOM      3  C1  OXE d   1      -0.312  -1.472  -0.163  0.00  0.00    -0.078 A 
ATOM      4  C2  OXE d   1      -0.661  -0.250   0.359  0.00  0.00    -0.078 A 
ATOM      5  C3  OXE d   1      -0.395   0.910  -0.363  0.00  0.00     0.003 A 
ATOM      6  C4  OXE d   1       0.084   0.833  -1.677  0.00  0.00    -0.002 A 
ATOM      7  C5  OXE d   1       0.409  -0.405  -2.242  0.00  0.00    -0.002 A 
ATOM      8  C6  OXE d   1       0.258  -1.561  -1.485  0.00  0.00     0.003 A 
ENDROOT
TORSDOF 0
ENDMDL
