MODEL 1
REMARK minimizedAffinity -4.57253265
REMARK minimizedRMSD -1
REMARK  0 active torsions:
REMARK  status: ('A' for Active; 'I' for Inactive)
ROOT
ATOM      1  C2' OXE d   1      -2.012   0.452   1.541  0.00  0.00     0.078 C 
ATOM      2  C1' OXE d   1      -0.105   1.721  -0.081  0.00  0.00     0.078 C 
ATOM      3  C1  OXE d   1       0.039   0.237   0.144  0.00  0.00    -0.078 A 
ATOM      4  C2  OXE d   1      -0.871  -0.368   0.977  0.00  0.00    -0.078 A 
ATOM      5  C3  OXE d   1      -0.816  -1.744   1.175  0.00  0.00     0.003 A 
ATOM      6  C4  OXE d   1       0.248  -2.493   0.659  0.00  0.00    -0.002 A 
ATOM      7  C5  OXE d   1       1.209  -1.890  -0.160  0.00  0.00    -0.002 A 
ATOM      8  C6  OXE d   1       1.095  -0.537  -0.461  0.00  0.00     0.003 A 
ENDROOT
TORSDOF 0
ENDMDL
