MODEL 1
REMARK minimizedAffinity -1.10894442
REMARK minimizedRMSD -1
REMARK  0 active torsions:
REMARK  status: ('A' for Active; 'I' for Inactive)
ROOT
ATOM      1  C2' OXE d   1       0.013   0.564   0.360  0.00  0.00     0.078 C 
ATOM      2  C1' OXE d   1       0.835   1.601  -2.116  0.00  0.00     0.078 C 
ATOM      3  C1  OXE d   1       1.304   2.305  -0.867  0.00  0.00    -0.078 A 
ATOM      4  C2  OXE d   1       0.859   1.818   0.338  0.00  0.00    -0.078 A 
ATOM      5  C3  OXE d   1       1.307   2.397   1.523  0.00  0.00     0.003 A 
ATOM      6  C4  OXE d   1       2.081   3.563   1.494  0.00  0.00    -0.002 A 
ATOM      7  C5  OXE d   1       2.513   4.098   0.275  0.00  0.00    -0.002 A 
ATOM      8  C6  OXE d   1       2.169   3.458  -0.910  0.00  0.00     0.003 A 
ENDROOT
TORSDOF 0
ENDMDL
