MODEL 1
REMARK minimizedAffinity 0.669049323
REMARK minimizedRMSD -1
REMARK  0 active torsions:
REMARK  status: ('A' for Active; 'I' for Inactive)
ROOT
ATOM      1  C2' OXE d   1       1.180  -1.369  -2.526  0.00  0.00     0.078 C 
ATOM      2  C1' OXE d   1       0.274  -2.667  -0.208  0.00  0.00     0.078 C 
ATOM      3  C1  OXE d   1       0.209  -1.160  -0.242  0.00  0.00    -0.078 A 
ATOM      4  C2  OXE d   1       0.698  -0.531  -1.362  0.00  0.00    -0.078 A 
ATOM      5  C3  OXE d   1       0.612   0.854  -1.467  0.00  0.00     0.003 A 
ATOM      6  C4  OXE d   1       0.174   1.622  -0.381  0.00  0.00    -0.002 A 
ATOM      7  C5  OXE d   1      -0.291   1.003   0.784  0.00  0.00    -0.002 A 
ATOM      8  C6  OXE d   1      -0.320  -0.386   0.853  0.00  0.00     0.003 A 
ENDROOT
TORSDOF 0
ENDMDL
