MODEL 1
REMARK minimizedAffinity -4.28891373
REMARK minimizedRMSD -1
REMARK  0 active torsions:
REMARK  status: ('A' for Active; 'I' for Inactive)
ROOT
ATOM      1  C2' OXE d   1      -1.467  -0.052   1.543  0.00  0.00     0.078 C 
ATOM      2  C1' OXE d   1      -0.265   1.352  -0.570  0.00  0.00     0.078 C 
ATOM      3  C1  OXE d   1       0.162  -0.077  -0.341  0.00  0.00    -0.078 A 
ATOM      4  C2  OXE d   1      -0.398  -0.741   0.724  0.00  0.00    -0.078 A 
ATOM      5  C3  OXE d   1      -0.080  -2.078   0.947  0.00  0.00     0.003 A 
ATOM      6  C4  OXE d   1       0.918  -2.705   0.190  0.00  0.00    -0.002 A 
ATOM      7  C5  OXE d   1       1.529  -2.034  -0.874  0.00  0.00    -0.002 A 
ATOM      8  C6  OXE d   1       1.132  -0.736  -1.180  0.00  0.00     0.003 A 
ENDROOT
TORSDOF 0
ENDMDL
