MODEL 1
REMARK minimizedAffinity -4.74741936
REMARK minimizedRMSD -1
REMARK  0 active torsions:
REMARK  status: ('A' for Active; 'I' for Inactive)
ROOT
ATOM      1  C2' OXE d   1      -1.478   0.300   1.723  0.00  0.00     0.078 C 
ATOM      2  C1' OXE d   1       0.260   1.091  -0.335  0.00  0.00     0.078 C 
ATOM      3  C1  OXE d   1       0.089  -0.387  -0.087  0.00  0.00    -0.078 A 
ATOM      4  C2  OXE d   1      -0.727  -0.764   0.952  0.00  0.00    -0.078 A 
ATOM      5  C3  OXE d   1      -0.962  -2.115   1.189  0.00  0.00     0.003 A 
ATOM      6  C4  OXE d   1      -0.256  -3.093   0.478  0.00  0.00    -0.002 A 
ATOM      7  C5  OXE d   1       0.610  -2.730  -0.558  0.00  0.00    -0.002 A 
ATOM      8  C6  OXE d   1       0.761  -1.386  -0.881  0.00  0.00     0.003 A 
ENDROOT
TORSDOF 0
ENDMDL
