MODEL 1
REMARK minimizedAffinity -4.00093985
REMARK minimizedRMSD -1
REMARK  0 active torsions:
REMARK  status: ('A' for Active; 'I' for Inactive)
ROOT
ATOM      1  C2' OXE d   1       0.097   0.938  -0.874  0.00  0.00     0.078 C 
ATOM      2  C1' OXE d   1       0.709  -1.219  -2.563  0.00  0.00     0.078 C 
ATOM      3  C1  OXE d   1       0.241  -1.532  -1.164  0.00  0.00    -0.078 A 
ATOM      4  C2  OXE d   1      -0.012  -0.470  -0.329  0.00  0.00    -0.078 A 
ATOM      5  C3  OXE d   1      -0.499  -0.703   0.954  0.00  0.00     0.003 A 
ATOM      6  C4  OXE d   1      -0.586  -2.008   1.454  0.00  0.00    -0.002 A 
ATOM      7  C5  OXE d   1      -0.296  -3.103   0.633  0.00  0.00    -0.002 A 
ATOM      8  C6  OXE d   1       0.078  -2.884  -0.688  0.00  0.00     0.003 A 
ENDROOT
TORSDOF 0
ENDMDL
