MODEL 1
REMARK minimizedAffinity -5.85531044
REMARK minimizedRMSD -1
REMARK  0 active torsions:
REMARK  status: ('A' for Active; 'I' for Inactive)
ROOT
ATOM      1  C2' OXE d   1      -1.745   0.138   1.468  0.00  0.00     0.078 C 
ATOM      2  C1' OXE d   1      -0.128   0.872  -0.707  0.00  0.00     0.078 C 
ATOM      3  C1  OXE d   1       0.008  -0.531  -0.171  0.00  0.00    -0.078 A 
ATOM      4  C2  OXE d   1      -0.753  -0.867   0.923  0.00  0.00    -0.078 A 
ATOM      5  C3  OXE d   1      -0.706  -2.165   1.423  0.00  0.00     0.003 A 
ATOM      6  C4  OXE d   1       0.221  -3.086   0.920  0.00  0.00    -0.002 A 
ATOM      7  C5  OXE d   1       1.034  -2.751  -0.168  0.00  0.00    -0.002 A 
ATOM      8  C6  OXE d   1       0.910  -1.495  -0.751  0.00  0.00     0.003 A 
ENDROOT
TORSDOF 0
ENDMDL
