MODEL 1
REMARK minimizedAffinity -5.1112709
REMARK minimizedRMSD -1
REMARK  0 active torsions:
REMARK  status: ('A' for Active; 'I' for Inactive)
ROOT
ATOM      1  C2' OXE d   1      -2.334   0.104   1.588  0.00  0.00     0.078 C 
ATOM      2  C1' OXE d   1      -0.445   1.265  -0.134  0.00  0.00     0.078 C 
ATOM      3  C1  OXE d   1      -0.392  -0.229   0.064  0.00  0.00    -0.078 A 
ATOM      4  C2  OXE d   1      -1.290  -0.783   0.945  0.00  0.00    -0.078 A 
ATOM      5  C3  OXE d   1      -1.319  -2.163   1.123  0.00  0.00     0.003 A 
ATOM      6  C4  OXE d   1      -0.344  -2.975   0.531  0.00  0.00    -0.002 A 
ATOM      7  C5  OXE d   1       0.605  -2.426  -0.338  0.00  0.00    -0.002 A 
ATOM      8  C6  OXE d   1       0.568  -1.064  -0.615  0.00  0.00     0.003 A 
ENDROOT
TORSDOF 0
ENDMDL
