MODEL 1
REMARK minimizedAffinity -4.49606705
REMARK minimizedRMSD -1
REMARK  0 active torsions:
REMARK  status: ('A' for Active; 'I' for Inactive)
ROOT
ATOM      1  C2' OXE d   1      -1.690   0.376   0.897  0.00  0.00     0.078 C 
ATOM      2  C1' OXE d   1       0.228   0.791  -1.111  0.00  0.00     0.078 C 
ATOM      3  C1  OXE d   1       0.215  -0.548  -0.416  0.00  0.00    -0.078 A 
ATOM      4  C2  OXE d   1      -0.696  -0.726   0.597  0.00  0.00    -0.078 A 
ATOM      5  C3  OXE d   1      -0.787  -1.961   1.233  0.00  0.00     0.003 A 
ATOM      6  C4  OXE d   1       0.143  -2.970   0.957  0.00  0.00    -0.002 A 
ATOM      7  C5  OXE d   1       1.104  -2.796  -0.044  0.00  0.00    -0.002 A 
ATOM      8  C6  OXE d   1       1.127  -1.608  -0.768  0.00  0.00     0.003 A 
ENDROOT
TORSDOF 0
ENDMDL
