MODEL 1
REMARK minimizedAffinity -3.25677371
REMARK minimizedRMSD -1
REMARK  0 active torsions:
REMARK  status: ('A' for Active; 'I' for Inactive)
ROOT
ATOM      1  C2' OXE d   1       0.508   0.963  -0.313  0.00  0.00     0.078 C 
ATOM      2  C1' OXE d   1      -1.401   0.269   1.624  0.00  0.00     0.078 C 
ATOM      3  C1  OXE d   1      -0.645  -0.848   0.950  0.00  0.00    -0.078 A 
ATOM      4  C2  OXE d   1       0.254  -0.502  -0.030  0.00  0.00    -0.078 A 
ATOM      5  C3  OXE d   1       1.018  -1.490  -0.645  0.00  0.00     0.003 A 
ATOM      6  C4  OXE d   1       0.770  -2.843  -0.384  0.00  0.00    -0.002 A 
ATOM      7  C5  OXE d   1      -0.169  -3.219   0.582  0.00  0.00    -0.002 A 
ATOM      8  C6  OXE d   1      -0.853  -2.235   1.287  0.00  0.00     0.003 A 
ENDROOT
TORSDOF 0
ENDMDL
