MODEL 1
REMARK minimizedAffinity -3.60739279
REMARK minimizedRMSD -1
REMARK  0 active torsions:
REMARK  status: ('A' for Active; 'I' for Inactive)
ROOT
ATOM      1  C2' OXE d   1      -0.110   1.346  -0.567  0.00  0.00     0.078 C 
ATOM      2  C1' OXE d   1       0.463  -0.901  -2.149  0.00  0.00     0.078 C 
ATOM      3  C1  OXE d   1       0.008  -1.137  -0.730  0.00  0.00    -0.078 A 
ATOM      4  C2  OXE d   1      -0.225  -0.031   0.051  0.00  0.00    -0.078 A 
ATOM      5  C3  OXE d   1      -0.699  -0.191   1.350  0.00  0.00     0.003 A 
ATOM      6  C4  OXE d   1      -0.794  -1.468   1.917  0.00  0.00    -0.002 A 
ATOM      7  C5  OXE d   1      -0.523  -2.607   1.151  0.00  0.00    -0.002 A 
ATOM      8  C6  OXE d   1      -0.162  -2.461  -0.184  0.00  0.00     0.003 A 
ENDROOT
TORSDOF 0
ENDMDL
