MODEL 1
REMARK minimizedAffinity -1.74446845
REMARK minimizedRMSD -1
REMARK  0 active torsions:
REMARK  status: ('A' for Active; 'I' for Inactive)
ROOT
ATOM      1  C2' OXE d   1       0.436   2.795  -0.180  0.00  0.00     0.078 C 
ATOM      2  C1' OXE d   1      -0.353   1.402  -2.486  0.00  0.00     0.078 C 
ATOM      3  C1  OXE d   1      -0.053   0.597  -1.246  0.00  0.00    -0.078 A 
ATOM      4  C2  OXE d   1       0.377   1.283  -0.136  0.00  0.00    -0.078 A 
ATOM      5  C3  OXE d   1       0.614   0.595   1.051  0.00  0.00     0.003 A 
ATOM      6  C4  OXE d   1       0.567  -0.804   1.080  0.00  0.00    -0.002 A 
ATOM      7  C5  OXE d   1       0.169  -1.525  -0.051  0.00  0.00    -0.002 A 
ATOM      8  C6  OXE d   1      -0.185  -0.838  -1.207  0.00  0.00     0.003 A 
ENDROOT
TORSDOF 0
ENDMDL
