MODEL 1
REMARK minimizedAffinity -3.43314457
REMARK minimizedRMSD -1
REMARK  0 active torsions:
REMARK  status: ('A' for Active; 'I' for Inactive)
ROOT
ATOM      1  C2' OXE d   1      -2.055   0.917   1.506  0.00  0.00     0.078 C 
ATOM      2  C1' OXE d   1      -0.215   2.043  -0.291  0.00  0.00     0.078 C 
ATOM      3  C1  OXE d   1      -0.144   0.555  -0.051  0.00  0.00    -0.078 A 
ATOM      4  C2  OXE d   1      -1.017   0.020   0.865  0.00  0.00    -0.078 A 
ATOM      5  C3  OXE d   1      -1.030  -1.354   1.084  0.00  0.00     0.003 A 
ATOM      6  C4  OXE d   1      -0.060  -2.175   0.495  0.00  0.00    -0.002 A 
ATOM      7  C5  OXE d   1       0.864  -1.644  -0.410  0.00  0.00    -0.002 A 
ATOM      8  C6  OXE d   1       0.809  -0.291  -0.726  0.00  0.00     0.003 A 
ENDROOT
TORSDOF 0
ENDMDL
