MODEL 1
REMARK minimizedAffinity -2.32242036
REMARK minimizedRMSD -1
REMARK  0 active torsions:
REMARK  status: ('A' for Active; 'I' for Inactive)
ROOT
ATOM      1  C2' OXE d   1      -1.770   0.335   1.432  0.00  0.00     0.078 C 
ATOM      2  C1' OXE d   1       0.171   1.338  -0.331  0.00  0.00     0.078 C 
ATOM      3  C1  OXE d   1       0.162  -0.147  -0.066  0.00  0.00    -0.078 A 
ATOM      4  C2  OXE d   1      -0.762  -0.623   0.834  0.00  0.00    -0.078 A 
ATOM      5  C3  OXE d   1      -0.850  -1.991   1.073  0.00  0.00     0.003 A 
ATOM      6  C4  OXE d   1       0.093  -2.869   0.524  0.00  0.00    -0.002 A 
ATOM      7  C5  OXE d   1       1.067  -2.399  -0.364  0.00  0.00    -0.002 A 
ATOM      8  C6  OXE d   1       1.088  -1.051  -0.701  0.00  0.00     0.003 A 
ENDROOT
TORSDOF 0
ENDMDL
