MODEL 1
REMARK minimizedAffinity -3.43522382
REMARK minimizedRMSD -1
REMARK  0 active torsions:
REMARK  status: ('A' for Active; 'I' for Inactive)
ROOT
ATOM      1  C2' OXE d   1       0.686   1.556   0.075  0.00  0.00     0.078 C 
ATOM      2  C1' OXE d   1       0.393  -0.497  -1.817  0.00  0.00     0.078 C 
ATOM      3  C1  OXE d   1      -0.001  -0.793  -0.392  0.00  0.00    -0.078 A 
ATOM      4  C2  OXE d   1       0.190   0.202   0.536  0.00  0.00    -0.078 A 
ATOM      5  C3  OXE d   1      -0.207   0.000   1.855  0.00  0.00     0.003 A 
ATOM      6  C4  OXE d   1      -0.656  -1.258   2.276  0.00  0.00    -0.002 A 
ATOM      7  C5  OXE d   1      -0.820  -2.297   1.354  0.00  0.00    -0.002 A 
ATOM      8  C6  OXE d   1      -0.538  -2.069   0.012  0.00  0.00     0.003 A 
ENDROOT
TORSDOF 0
ENDMDL
