MODEL 1
REMARK minimizedAffinity -2.97894549
REMARK minimizedRMSD -1
REMARK  0 active torsions:
REMARK  status: ('A' for Active; 'I' for Inactive)
ROOT
ATOM      1  C2' OXE d   1       0.837  -1.525  -1.984  0.00  0.00     0.078 C 
ATOM      2  C1' OXE d   1      -0.253  -3.151   0.028  0.00  0.00     0.078 C 
ATOM      3  C1  OXE d   1      -0.243  -1.660   0.257  0.00  0.00    -0.078 A 
ATOM      4  C2  OXE d   1       0.334  -0.876  -0.713  0.00  0.00    -0.078 A 
ATOM      5  C3  OXE d   1       0.321   0.510  -0.577  0.00  0.00     0.003 A 
ATOM      6  C4  OXE d   1      -0.137   1.102   0.606  0.00  0.00    -0.002 A 
ATOM      7  C5  OXE d   1      -0.693   0.318   1.623  0.00  0.00    -0.002 A 
ATOM      8  C6  OXE d   1      -0.792  -1.058   1.446  0.00  0.00     0.003 A 
ENDROOT
TORSDOF 0
ENDMDL
