MODEL 1
REMARK minimizedAffinity -3.87313962
REMARK minimizedRMSD -1
REMARK  0 active torsions:
REMARK  status: ('A' for Active; 'I' for Inactive)
ROOT
ATOM      1  C2' OXE d   1      -0.042   1.373  -0.387  0.00  0.00     0.078 C 
ATOM      2  C1' OXE d   1      -2.104   0.505   1.308  0.00  0.00     0.078 C 
ATOM      3  C1  OXE d   1      -1.085  -0.514   0.860  0.00  0.00    -0.078 A 
ATOM      4  C2  OXE d   1      -0.107  -0.090  -0.006  0.00  0.00    -0.078 A 
ATOM      5  C3  OXE d   1       0.890  -0.976  -0.407  0.00  0.00     0.003 A 
ATOM      6  C4  OXE d   1       0.817  -2.330  -0.058  0.00  0.00    -0.002 A 
ATOM      7  C5  OXE d   1      -0.194  -2.790   0.792  0.00  0.00    -0.002 A 
ATOM      8  C6  OXE d   1      -1.127  -1.889   1.293  0.00  0.00     0.003 A 
ENDROOT
TORSDOF 0
ENDMDL
