MODEL 1
REMARK minimizedAffinity -1.1859901
REMARK minimizedRMSD -1
REMARK  0 active torsions:
REMARK  status: ('A' for Active; 'I' for Inactive)
ROOT
ATOM      1  C2' OXE d   1       0.130   0.985  -2.171  0.00  0.00     0.078 C 
ATOM      2  C1' OXE d   1       0.787   2.534   0.076  0.00  0.00     0.078 C 
ATOM      3  C1  OXE d   1       0.403   1.093   0.302  0.00  0.00    -0.078 A 
ATOM      4  C2  OXE d   1       0.038   0.356  -0.798  0.00  0.00    -0.078 A 
ATOM      5  C3  OXE d   1      -0.272  -0.993  -0.652  0.00  0.00     0.003 A 
ATOM      6  C4  OXE d   1      -0.364  -1.565   0.623  0.00  0.00    -0.002 A 
ATOM      7  C5  OXE d   1      -0.035  -0.821   1.760  0.00  0.00    -0.002 A 
ATOM      8  C6  OXE d   1       0.391   0.495   1.614  0.00  0.00     0.003 A 
ENDROOT
TORSDOF 0
ENDMDL
