MODEL 1
REMARK minimizedAffinity 9.10673428
REMARK minimizedRMSD -1
REMARK  0 active torsions:
REMARK  status: ('A' for Active; 'I' for Inactive)
ROOT
ATOM      1  C   UNL d   1      -5.529   2.998   6.000  0.00  0.00     0.172 C 
ATOM      2  N   UNL d   1      -5.221   2.031   4.972  0.00  0.00    -0.070 N 
ATOM      3  C1  UNL d   1      -4.527   2.286   3.819  0.00  0.00    -0.004 A 
ATOM      4  C2  UNL d   1      -4.445   1.108   3.108  0.00  0.00    -0.047 A 
ATOM      5  C3  UNL d   1      -5.113   0.112   3.859  0.00  0.00    -0.047 A 
ATOM      6  C4  UNL d   1      -5.584   0.711   5.008  0.00  0.00    -0.004 A 
ENDROOT
TORSDOF 0
ENDMDL
