MODEL 1
REMARK minimizedAffinity 3.60197091
REMARK minimizedRMSD -1
REMARK  0 active torsions:
REMARK  status: ('A' for Active; 'I' for Inactive)
ROOT
ATOM      1  C   UNL d   1      -5.641   5.999   0.380  0.00  0.00     0.172 C 
ATOM      2  N   UNL d   1      -4.600   5.998  -0.620  0.00  0.00    -0.070 N 
ATOM      3  C1  UNL d   1      -4.795   5.997  -1.976  0.00  0.00    -0.004 A 
ATOM      4  C2  UNL d   1      -3.556   5.997  -2.580  0.00  0.00    -0.047 A 
ATOM      5  C3  UNL d   1      -2.583   5.995  -1.553  0.00  0.00    -0.047 A 
ATOM      6  C4  UNL d   1      -3.257   5.996  -0.349  0.00  0.00    -0.004 A 
ENDROOT
TORSDOF 0
ENDMDL
