MODEL 1
REMARK minimizedAffinity 4.93325329
REMARK minimizedRMSD -1
REMARK  0 active torsions:
REMARK  status: ('A' for Active; 'I' for Inactive)
ROOT
ATOM      1  C   UNL d   1      -6.000   0.118   5.999  0.00  0.00     0.172 C 
ATOM      2  N   UNL d   1      -5.281   0.738   4.910  0.00  0.00    -0.070 N 
ATOM      3  C1  UNL d   1      -4.907   2.054   4.848  0.00  0.00    -0.004 A 
ATOM      4  C2  UNL d   1      -4.244   2.248   3.655  0.00  0.00    -0.047 A 
ATOM      5  C3  UNL d   1      -4.219   1.006   2.977  0.00  0.00    -0.047 A 
ATOM      6  C4  UNL d   1      -4.868   0.089   3.777  0.00  0.00    -0.004 A 
ENDROOT
TORSDOF 0
ENDMDL
