MODEL 1
REMARK minimizedAffinity 8.56422138
REMARK minimizedRMSD -1
REMARK  0 active torsions:
REMARK  status: ('A' for Active; 'I' for Inactive)
ROOT
ATOM      1  C   UNL d   1      -5.236  -3.663  -3.321  0.00  0.00     0.172 C 
ATOM      2  N   UNL d   1      -3.921  -3.208  -2.936  0.00  0.00    -0.070 N 
ATOM      3  C1  UNL d   1      -2.815  -3.188  -3.744  0.00  0.00    -0.004 A 
ATOM      4  C2  UNL d   1      -1.764  -2.685  -3.009  0.00  0.00    -0.047 A 
ATOM      5  C3  UNL d   1      -2.254  -2.394  -1.713  0.00  0.00    -0.047 A 
ATOM      6  C4  UNL d   1      -3.592  -2.727  -1.696  0.00  0.00    -0.004 A 
ENDROOT
TORSDOF 0
ENDMDL
