MODEL 1
REMARK minimizedAffinity 5.53186893
REMARK minimizedRMSD -1
REMARK  0 active torsions:
REMARK  status: ('A' for Active; 'I' for Inactive)
ROOT
ATOM      1  C   UNL d   1       3.664   1.692  -4.971  0.00  0.00     0.172 C 
ATOM      2  N   UNL d   1       3.082   3.014  -4.971  0.00  0.00    -0.070 N 
ATOM      3  C1  UNL d   1       3.159   3.920  -5.994  0.00  0.00    -0.004 A 
ATOM      4  C2  UNL d   1       2.479   5.054  -5.606  0.00  0.00    -0.047 A 
ATOM      5  C3  UNL d   1       1.977   4.822  -4.303  0.00  0.00    -0.047 A 
ATOM      6  C4  UNL d   1       2.365   3.551  -3.934  0.00  0.00    -0.004 A 
ENDROOT
TORSDOF 0
ENDMDL
