MODEL 1
REMARK minimizedAffinity 4.56165838
REMARK minimizedRMSD -1
REMARK  0 active torsions:
REMARK  status: ('A' for Active; 'I' for Inactive)
ROOT
ATOM      1  C   UNL d   1      -2.243  -5.882   3.062  0.00  0.00     0.172 C 
ATOM      2  N   UNL d   1      -2.505  -5.929   1.642  0.00  0.00    -0.070 N 
ATOM      3  C1  UNL d   1      -1.556  -5.950   0.655  0.00  0.00    -0.004 A 
ATOM      4  C2  UNL d   1      -2.209  -5.995  -0.557  0.00  0.00    -0.047 A 
ATOM      5  C3  UNL d   1      -3.599  -5.999  -0.290  0.00  0.00    -0.047 A 
ATOM      6  C4  UNL d   1      -3.754  -5.957   1.079  0.00  0.00    -0.004 A 
ENDROOT
TORSDOF 0
ENDMDL
