MODEL 1
REMARK minimizedAffinity 6.27843237
REMARK minimizedRMSD -1
REMARK  0 active torsions:
REMARK  status: ('A' for Active; 'I' for Inactive)
ROOT
ATOM      1  C   UNL d   1      -5.857  -2.941  -4.553  0.00  0.00     0.172 C 
ATOM      2  N   UNL d   1      -4.846  -3.585  -3.747  0.00  0.00    -0.070 N 
ATOM      3  C1  UNL d   1      -4.987  -4.782  -3.097  0.00  0.00    -0.004 A 
ATOM      4  C2  UNL d   1      -3.803  -5.048  -2.442  0.00  0.00    -0.047 A 
ATOM      5  C3  UNL d   1      -2.921  -3.973  -2.708  0.00  0.00    -0.047 A 
ATOM      6  C4  UNL d   1      -3.593  -3.082  -3.518  0.00  0.00    -0.004 A 
ENDROOT
TORSDOF 0
ENDMDL
