MODEL 1
REMARK minimizedAffinity 14.4765244
REMARK minimizedRMSD -1
REMARK  0 active torsions:
REMARK  status: ('A' for Active; 'I' for Inactive)
ROOT
ATOM      1  C   UNL d   1      -3.762  -5.966   1.460  0.00  0.00     0.172 C 
ATOM      2  N   UNL d   1      -2.809  -4.881   1.447  0.00  0.00    -0.070 N 
ATOM      3  C1  UNL d   1      -2.821  -3.818   0.584  0.00  0.00    -0.004 A 
ATOM      4  C2  UNL d   1      -1.751  -3.008   0.897  0.00  0.00    -0.047 A 
ATOM      5  C3  UNL d   1      -1.072  -3.605   1.985  0.00  0.00    -0.047 A 
ATOM      6  C4  UNL d   1      -1.748  -4.764   2.306  0.00  0.00    -0.004 A 
ENDROOT
TORSDOF 0
ENDMDL
