MODEL 1
REMARK minimizedAffinity 12.4646273
REMARK minimizedRMSD -1
REMARK  0 active torsions:
REMARK  status: ('A' for Active; 'I' for Inactive)
ROOT
ATOM      1  C   UNL d   1      -6.000  -5.999  -2.370  0.00  0.00     0.172 C 
ATOM      2  N   UNL d   1      -4.988  -5.004  -2.638  0.00  0.00    -0.070 N 
ATOM      3  C1  UNL d   1      -5.166  -3.862  -3.372  0.00  0.00    -0.004 A 
ATOM      4  C2  UNL d   1      -3.967  -3.183  -3.393  0.00  0.00    -0.047 A 
ATOM      5  C3  UNL d   1      -3.036  -3.944  -2.648  0.00  0.00    -0.047 A 
ATOM      6  C4  UNL d   1      -3.694  -5.066  -2.192  0.00  0.00    -0.004 A 
ENDROOT
TORSDOF 0
ENDMDL
