MODEL 1
REMARK minimizedAffinity 10.8524837
REMARK minimizedRMSD -1
REMARK  0 active torsions:
REMARK  status: ('A' for Active; 'I' for Inactive)
ROOT
ATOM      1  C   UNL d   1       4.237   0.872  -5.125  0.00  0.00     0.172 C 
ATOM      2  N   UNL d   1       3.468   1.865  -4.413  0.00  0.00    -0.070 N 
ATOM      3  C1  UNL d   1       3.468   2.055  -3.057  0.00  0.00    -0.004 A 
ATOM      4  C2  UNL d   1       2.608   3.094  -2.775  0.00  0.00    -0.047 A 
ATOM      5  C3  UNL d   1       2.071   3.544  -4.005  0.00  0.00    -0.047 A 
ATOM      6  C4  UNL d   1       2.621   2.766  -5.002  0.00  0.00    -0.004 A 
ENDROOT
TORSDOF 0
ENDMDL
