MODEL 1
REMARK minimizedAffinity 9.08124352
REMARK minimizedRMSD -1
REMARK  0 active torsions:
REMARK  status: ('A' for Active; 'I' for Inactive)
ROOT
ATOM      1  C   UNL d   1       4.124   0.580  -4.499  0.00  0.00     0.172 C 
ATOM      2  N   UNL d   1       3.978  -0.737  -5.072  0.00  0.00    -0.070 N 
ATOM      3  C1  UNL d   1       2.795  -1.406  -5.245  0.00  0.00    -0.004 A 
ATOM      4  C2  UNL d   1       3.080  -2.625  -5.821  0.00  0.00    -0.047 A 
ATOM      5  C3  UNL d   1       4.482  -2.692  -5.999  0.00  0.00    -0.047 A 
ATOM      6  C4  UNL d   1       5.013  -1.511  -5.527  0.00  0.00    -0.004 A 
ENDROOT
TORSDOF 0
ENDMDL
