MODEL 1
REMARK minimizedAffinity 2.51186466
REMARK minimizedRMSD -1
REMARK  0 active torsions:
REMARK  status: ('A' for Active; 'I' for Inactive)
ROOT
ATOM      1  C   UNL d   1       0.768   2.790   2.460  0.00  0.00     0.172 C 
ATOM      2  N   UNL d   1       1.304   1.759   3.317  0.00  0.00    -0.070 N 
ATOM      3  C1  UNL d   1       0.886   1.482   4.591  0.00  0.00    -0.004 A 
ATOM      4  C2  UNL d   1       1.644   0.434   5.067  0.00  0.00    -0.047 A 
ATOM      5  C3  UNL d   1       2.550   0.069   4.043  0.00  0.00    -0.047 A 
ATOM      6  C4  UNL d   1       2.318   0.905   2.971  0.00  0.00    -0.004 A 
ENDROOT
TORSDOF 0
ENDMDL
