MODEL 1
REMARK minimizedAffinity 7.77450085
REMARK minimizedRMSD -1
REMARK  0 active torsions:
REMARK  status: ('A' for Active; 'I' for Inactive)
ROOT
ATOM      1  C   UNL d   1      -1.874  -1.905  -2.525  0.00  0.00     0.172 C 
ATOM      2  N   UNL d   1      -1.655  -2.250  -1.140  0.00  0.00    -0.070 N 
ATOM      3  C1  UNL d   1      -0.458  -2.625  -0.590  0.00  0.00    -0.004 A 
ATOM      4  C2  UNL d   1      -0.667  -2.868   0.750  0.00  0.00    -0.047 A 
ATOM      5  C3  UNL d   1      -2.037  -2.632   1.015  0.00  0.00    -0.047 A 
ATOM      6  C4  UNL d   1      -2.625  -2.250  -0.172  0.00  0.00    -0.004 A 
ENDROOT
TORSDOF 0
ENDMDL
