MODEL 1
REMARK minimizedAffinity 3.34720373
REMARK minimizedRMSD -1
REMARK  0 active torsions:
REMARK  status: ('A' for Active; 'I' for Inactive)
ROOT
ATOM      1  C   UNL d   1      -0.343  -0.533   2.259  0.00  0.00     0.172 C 
ATOM      2  N   UNL d   1      -1.018  -1.575   1.521  0.00  0.00    -0.070 N 
ATOM      3  C1  UNL d   1      -2.147  -1.413   0.763  0.00  0.00    -0.004 A 
ATOM      4  C2  UNL d   1      -2.473  -2.639   0.225  0.00  0.00    -0.047 A 
ATOM      5  C3  UNL d   1      -1.508  -3.570   0.675  0.00  0.00    -0.047 A 
ATOM      6  C4  UNL d   1      -0.619  -2.884   1.476  0.00  0.00    -0.004 A 
ENDROOT
TORSDOF 0
ENDMDL
