MODEL 1
REMARK minimizedAffinity 1.28635871
REMARK minimizedRMSD -1
REMARK  0 active torsions:
REMARK  status: ('A' for Active; 'I' for Inactive)
ROOT
ATOM      1  C   UNL d   1       5.439   6.000  -5.933  0.00  0.00     0.172 C 
ATOM      2  N   UNL d   1       4.172   5.308  -5.956  0.00  0.00    -0.070 N 
ATOM      3  C1  UNL d   1       4.005   3.949  -5.985  0.00  0.00    -0.004 A 
ATOM      4  C2  UNL d   1       2.652   3.690  -5.999  0.00  0.00    -0.047 A 
ATOM      5  C3  UNL d   1       1.982   4.936  -5.978  0.00  0.00    -0.047 A 
ATOM      6  C4  UNL d   1       2.947   5.921  -5.952  0.00  0.00    -0.004 A 
ENDROOT
TORSDOF 0
ENDMDL
