MODEL 1
REMARK minimizedAffinity 8.76134014
REMARK minimizedRMSD -1
REMARK  0 active torsions:
REMARK  status: ('A' for Active; 'I' for Inactive)
ROOT
ATOM      1  C   UNL d   1       0.674   0.690   4.539  0.00  0.00     0.172 C 
ATOM      2  N   UNL d   1       1.109   1.370   3.342  0.00  0.00    -0.070 N 
ATOM      3  C1  UNL d   1       2.186   1.021   2.572  0.00  0.00    -0.004 A 
ATOM      4  C2  UNL d   1       2.264   1.915   1.526  0.00  0.00    -0.047 A 
ATOM      5  C3  UNL d   1       1.198   2.833   1.673  0.00  0.00    -0.047 A 
ATOM      6  C4  UNL d   1       0.499   2.473   2.805  0.00  0.00    -0.004 A 
ENDROOT
TORSDOF 0
ENDMDL
