MODEL 1
REMARK minimizedAffinity 11.696106
REMARK minimizedRMSD -1
REMARK  0 active torsions:
REMARK  status: ('A' for Active; 'I' for Inactive)
ROOT
ATOM      1  C   UNL d   1       2.278   0.372   2.227  0.00  0.00     0.172 C 
ATOM      2  N   UNL d   1       1.450   0.609   3.386  0.00  0.00    -0.070 N 
ATOM      3  C1  UNL d   1       1.217  -0.284   4.397  0.00  0.00    -0.004 A 
ATOM      4  C2  UNL d   1       0.379   0.320   5.309  0.00  0.00    -0.047 A 
ATOM      5  C3  UNL d   1       0.098   1.621   4.829  0.00  0.00    -0.047 A 
ATOM      6  C4  UNL d   1       0.773   1.773   3.636  0.00  0.00    -0.004 A 
ENDROOT
TORSDOF 0
ENDMDL
