MODEL 1
REMARK minimizedAffinity 2.20692778
REMARK minimizedRMSD -1
REMARK  3 active torsions:
REMARK  status: ('A' for Active; 'I' for Inactive)
REMARK    1  A    between atoms: C3'_2  and  C2'_3 
REMARK    2  A    between atoms: C2'_3  and  C1'_4 
REMARK    3  A    between atoms: C1'_4  and  C1_5 
ROOT
ATOM      1  C1  N4B d   1       0.119  -1.065  -1.170  0.00  0.00    -0.075 A 
ATOM      2  C2  N4B d   1      -0.740  -2.103  -1.593  0.00  0.00     0.002 A 
ATOM      3  C3  N4B d   1      -1.837  -2.436  -0.837  0.00  0.00     0.002 A 
ATOM      4  C4  N4B d   1      -2.084  -1.762   0.349  0.00  0.00    -0.004 A 
ATOM      5  C5  N4B d   1      -1.263  -0.744   0.738  0.00  0.00     0.002 A 
ATOM      6  C6  N4B d   1      -0.159  -0.396  -0.014  0.00  0.00     0.002 A 
ENDROOT
BRANCH   1   7
ATOM      7  C1' N4B d   1       1.378  -0.722  -1.918  0.00  0.00     0.057 C 
BRANCH   7   8
ATOM      8  C2' N4B d   1       2.531  -1.558  -1.368  0.00  0.00     0.009 C 
BRANCH   8   9
ATOM      9  C3' N4B d   1       3.513  -1.957  -2.456  0.00  0.00     0.004 C 
ATOM     10  C4' N4B d   1       4.636  -2.806  -1.942  0.00  0.00     0.003 C 
ENDBRANCH   8   9
ENDBRANCH   7   8
ENDBRANCH   1   7
TORSDOF 3
ENDMDL
