MODEL 1
REMARK minimizedAffinity 10.9279604
REMARK minimizedRMSD -1
REMARK  3 active torsions:
REMARK  status: ('A' for Active; 'I' for Inactive)
REMARK    1  A    between atoms: C3'_2  and  C2'_3 
REMARK    2  A    between atoms: C2'_3  and  C1'_4 
REMARK    3  A    between atoms: C1'_4  and  C1_5 
ROOT
ATOM      1  C1  N4B d   1       0.034   0.315  -2.044  0.00  0.00    -0.075 A 
ATOM      2  C2  N4B d   1      -0.019  -1.090  -2.173  0.00  0.00     0.002 A 
ATOM      3  C3  N4B d   1      -0.821  -1.827  -1.337  0.00  0.00     0.002 A 
ATOM      4  C4  N4B d   1      -1.561  -1.185  -0.355  0.00  0.00    -0.004 A 
ATOM      5  C5  N4B d   1      -1.524   0.175  -0.253  0.00  0.00     0.002 A 
ATOM      6  C6  N4B d   1      -0.725   0.929  -1.090  0.00  0.00     0.002 A 
ENDROOT
BRANCH   1   7
ATOM      7  C1' N4B d   1       0.962   1.155  -2.879  0.00  0.00     0.057 C 
BRANCH   7   8
ATOM      8  C2' N4B d   1       2.402   0.890  -2.448  0.00  0.00     0.009 C 
BRANCH   8   9
ATOM      9  C3' N4B d   1       3.255   2.144  -2.516  0.00  0.00     0.004 C 
ATOM     10  C4' N4B d   1       3.924   2.463  -1.212  0.00  0.00     0.003 C 
ENDBRANCH   8   9
ENDBRANCH   7   8
ENDBRANCH   1   7
TORSDOF 3
ENDMDL
