MODEL 1
REMARK minimizedAffinity 2.9043541
REMARK minimizedRMSD -1
REMARK  3 active torsions:
REMARK  status: ('A' for Active; 'I' for Inactive)
REMARK    1  A    between atoms: C3'_2  and  C2'_3 
REMARK    2  A    between atoms: C2'_3  and  C1'_4 
REMARK    3  A    between atoms: C1'_4  and  C1_5 
ROOT
ATOM      1  C1  N4B d   1      -2.189  -3.287  -2.711  0.00  0.00    -0.075 A 
ATOM      2  C2  N4B d   1      -1.529  -2.716  -3.822  0.00  0.00     0.002 A 
ATOM      3  C3  N4B d   1      -1.418  -3.425  -4.993  0.00  0.00     0.002 A 
ATOM      4  C4  N4B d   1      -1.941  -4.707  -5.071  0.00  0.00    -0.004 A 
ATOM      5  C5  N4B d   1      -2.600  -5.241  -4.002  0.00  0.00     0.002 A 
ATOM      6  C6  N4B d   1      -2.722  -4.539  -2.820  0.00  0.00     0.002 A 
ENDROOT
BRANCH   1   7
ATOM      7  C1' N4B d   1      -2.260  -2.585  -1.383  0.00  0.00     0.057 C 
BRANCH   7   8
ATOM      8  C2' N4B d   1      -0.849  -2.212  -0.938  0.00  0.00     0.009 C 
BRANCH   8   9
ATOM      9  C3' N4B d   1      -0.847  -1.031   0.018  0.00  0.00     0.004 C 
ATOM     10  C4' N4B d   1      -0.773   0.289  -0.691  0.00  0.00     0.003 C 
ENDBRANCH   8   9
ENDBRANCH   7   8
ENDBRANCH   1   7
TORSDOF 3
ENDMDL
