MODEL 1
REMARK minimizedAffinity 14.8175373
REMARK minimizedRMSD -1
REMARK  3 active torsions:
REMARK  status: ('A' for Active; 'I' for Inactive)
REMARK    1  A    between atoms: C3'_2  and  C2'_3 
REMARK    2  A    between atoms: C2'_3  and  C1'_4 
REMARK    3  A    between atoms: C1'_4  and  C1_5 
ROOT
ATOM      1  C1  N4B d   1       0.174  -1.267  -0.956  0.00  0.00    -0.075 A 
ATOM      2  C2  N4B d   1      -0.082  -0.501   0.202  0.00  0.00     0.002 A 
ATOM      3  C3  N4B d   1      -1.280  -0.630   0.860  0.00  0.00     0.002 A 
ATOM      4  C4  N4B d   1      -2.241  -1.502   0.370  0.00  0.00    -0.004 A 
ATOM      5  C5  N4B d   1      -1.976  -2.257  -0.735  0.00  0.00     0.002 A 
ATOM      6  C6  N4B d   1      -0.775  -2.140  -1.404  0.00  0.00     0.002 A 
ENDROOT
BRANCH   1   7
ATOM      7  C1' N4B d   1       1.435  -1.097  -1.759  0.00  0.00     0.057 C 
BRANCH   7   8
ATOM      8  C2' N4B d   1       1.201  -0.051  -2.845  0.00  0.00     0.009 C 
BRANCH   8   9
ATOM      9  C3' N4B d   1       2.233   1.062  -2.793  0.00  0.00     0.004 C 
ATOM     10  C4' N4B d   1       2.764   1.424  -4.148  0.00  0.00     0.003 C 
ENDBRANCH   8   9
ENDBRANCH   7   8
ENDBRANCH   1   7
TORSDOF 3
ENDMDL
