MODEL 1
REMARK minimizedAffinity 4.45313978
REMARK minimizedRMSD -1
REMARK  3 active torsions:
REMARK  status: ('A' for Active; 'I' for Inactive)
REMARK    1  A    between atoms: C3'_2  and  C2'_3 
REMARK    2  A    between atoms: C2'_3  and  C1'_4 
REMARK    3  A    between atoms: C1'_4  and  C1_5 
ROOT
ATOM      1  C1  N4B d   1      -2.363  -2.895  -2.217  0.00  0.00    -0.075 A 
ATOM      2  C2  N4B d   1      -1.166  -2.156  -2.337  0.00  0.00     0.002 A 
ATOM      3  C3  N4B d   1      -0.763  -1.330  -1.317  0.00  0.00     0.002 A 
ATOM      4  C4  N4B d   1      -1.548  -1.212  -0.180  0.00  0.00    -0.004 A 
ATOM      5  C5  N4B d   1      -2.690  -1.948  -0.060  0.00  0.00     0.002 A 
ATOM      6  C6  N4B d   1      -3.105  -2.786  -1.076  0.00  0.00     0.002 A 
ENDROOT
BRANCH   1   7
ATOM      7  C1' N4B d   1      -2.888  -3.745  -3.341  0.00  0.00     0.057 C 
BRANCH   7   8
ATOM      8  C2' N4B d   1      -1.772  -4.656  -3.843  0.00  0.00     0.009 C 
BRANCH   8   9
ATOM      9  C3' N4B d   1      -0.988  -4.022  -4.979  0.00  0.00     0.004 C 
ATOM     10  C4' N4B d   1      -1.863  -3.279  -5.944  0.00  0.00     0.003 C 
ENDBRANCH   8   9
ENDBRANCH   7   8
ENDBRANCH   1   7
TORSDOF 3
ENDMDL
