MODEL 1
REMARK minimizedAffinity 8.06742477
REMARK minimizedRMSD -1
REMARK  3 active torsions:
REMARK  status: ('A' for Active; 'I' for Inactive)
REMARK    1  A    between atoms: C3'_2  and  C2'_3 
REMARK    2  A    between atoms: C2'_3  and  C1'_4 
REMARK    3  A    between atoms: C1'_4  and  C1_5 
ROOT
ATOM      1  C1  N4B d   1       1.164  -1.677  -0.697  0.00  0.00    -0.075 A 
ATOM      2  C2  N4B d   1      -0.045  -2.360  -0.950  0.00  0.00     0.002 A 
ATOM      3  C3  N4B d   1      -1.231  -1.667  -0.983  0.00  0.00     0.002 A 
ATOM      4  C4  N4B d   1      -1.234  -0.301  -0.748  0.00  0.00    -0.004 A 
ATOM      5  C5  N4B d   1      -0.058   0.356  -0.529  0.00  0.00     0.002 A 
ATOM      6  C6  N4B d   1       1.142  -0.327  -0.497  0.00  0.00     0.002 A 
ENDROOT
BRANCH   1   7
ATOM      7  C1' N4B d   1       2.475  -2.404  -0.566  0.00  0.00     0.057 C 
BRANCH   7   8
ATOM      8  C2' N4B d   1       3.356  -2.068  -1.765  0.00  0.00     0.009 C 
BRANCH   8   9
ATOM      9  C3' N4B d   1       4.338  -3.183  -2.079  0.00  0.00     0.004 C 
ATOM     10  C4' N4B d   1       5.722  -2.896  -1.579  0.00  0.00     0.003 C 
ENDBRANCH   8   9
ENDBRANCH   7   8
ENDBRANCH   1   7
TORSDOF 3
ENDMDL
