MODEL 1
REMARK minimizedAffinity 5.06106853
REMARK minimizedRMSD -1
REMARK  3 active torsions:
REMARK  status: ('A' for Active; 'I' for Inactive)
REMARK    1  A    between atoms: C3'_2  and  C2'_3 
REMARK    2  A    between atoms: C2'_3  and  C1'_4 
REMARK    3  A    between atoms: C1'_4  and  C1_5 
ROOT
ATOM      1  C1  N4B d   1      -0.422   0.391  -0.599  0.00  0.00    -0.075 A 
ATOM      2  C2  N4B d   1      -1.207  -0.604   0.025  0.00  0.00     0.002 A 
ATOM      3  C3  N4B d   1      -1.237  -1.876  -0.490  0.00  0.00     0.002 A 
ATOM      4  C4  N4B d   1      -0.510  -2.171  -1.634  0.00  0.00    -0.004 A 
ATOM      5  C5  N4B d   1       0.264  -1.211  -2.216  0.00  0.00     0.002 A 
ATOM      6  C6  N4B d   1       0.308   0.071  -1.707  0.00  0.00     0.002 A 
ENDROOT
BRANCH   1   7
ATOM      7  C1' N4B d   1      -0.424   1.818  -0.123  0.00  0.00     0.057 C 
BRANCH   7   8
ATOM      8  C2' N4B d   1       0.558   1.961   1.035  0.00  0.00     0.009 C 
BRANCH   8   9
ATOM      9  C3' N4B d   1       1.270   3.303   1.014  0.00  0.00     0.004 C 
ATOM     10  C4' N4B d   1       2.660   3.215   0.457  0.00  0.00     0.003 C 
ENDBRANCH   8   9
ENDBRANCH   7   8
ENDBRANCH   1   7
TORSDOF 3
ENDMDL
