MODEL 1
REMARK minimizedAffinity 0.748733342
REMARK minimizedRMSD -1
REMARK  3 active torsions:
REMARK  status: ('A' for Active; 'I' for Inactive)
REMARK    1  A    between atoms: C3'_2  and  C2'_3 
REMARK    2  A    between atoms: C2'_3  and  C1'_4 
REMARK    3  A    between atoms: C1'_4  and  C1_5 
ROOT
ATOM      1  C1  N4B d   1       3.818  -2.242  -2.945  0.00  0.00    -0.075 A 
ATOM      2  C2  N4B d   1       4.240  -2.581  -4.249  0.00  0.00     0.002 A 
ATOM      3  C3  N4B d   1       5.317  -3.414  -4.427  0.00  0.00     0.002 A 
ATOM      4  C4  N4B d   1       5.997  -3.902  -3.321  0.00  0.00    -0.004 A 
ATOM      5  C5  N4B d   1       5.568  -3.590  -2.065  0.00  0.00     0.002 A 
ATOM      6  C6  N4B d   1       4.484  -2.757  -1.871  0.00  0.00     0.002 A 
ENDROOT
BRANCH   1   7
ATOM      7  C1' N4B d   1       2.699  -1.267  -2.701  0.00  0.00     0.057 C 
BRANCH   7   8
ATOM      8  C2' N4B d   1       1.666  -1.910  -1.780  0.00  0.00     0.009 C 
BRANCH   8   9
ATOM      9  C3' N4B d   1       0.345  -1.160  -1.796  0.00  0.00     0.004 C 
ATOM     10  C4' N4B d   1      -0.703  -1.810  -0.943  0.00  0.00     0.003 C 
ENDBRANCH   8   9
ENDBRANCH   7   8
ENDBRANCH   1   7
TORSDOF 3
ENDMDL
