MODEL 1
REMARK minimizedAffinity 3.27401161
REMARK minimizedRMSD -1
REMARK  3 active torsions:
REMARK  status: ('A' for Active; 'I' for Inactive)
REMARK    1  A    between atoms: C3'_2  and  C2'_3 
REMARK    2  A    between atoms: C2'_3  and  C1'_4 
REMARK    3  A    between atoms: C1'_4  and  C1_5 
ROOT
ATOM      1  C1  N4B d   1      -2.210  -3.255  -3.331  0.00  0.00    -0.075 A 
ATOM      2  C2  N4B d   1      -2.620  -4.599  -3.471  0.00  0.00     0.002 A 
ATOM      3  C3  N4B d   1      -2.483  -5.236  -4.680  0.00  0.00     0.002 A 
ATOM      4  C4  N4B d   1      -1.958  -4.547  -5.763  0.00  0.00    -0.004 A 
ATOM      5  C5  N4B d   1      -1.541  -3.257  -5.613  0.00  0.00     0.002 A 
ATOM      6  C6  N4B d   1      -1.670  -2.605  -4.403  0.00  0.00     0.002 A 
ENDROOT
BRANCH   1   7
ATOM      7  C1' N4B d   1      -2.420  -2.489  -2.053  0.00  0.00     0.057 C 
BRANCH   7   8
ATOM      8  C2' N4B d   1      -1.113  -1.807  -1.658  0.00  0.00     0.009 C 
BRANCH   8   9
ATOM      9  C3' N4B d   1      -1.337  -0.694  -0.649  0.00  0.00     0.004 C 
ATOM     10  C4' N4B d   1      -0.714   0.604  -1.070  0.00  0.00     0.003 C 
ENDBRANCH   8   9
ENDBRANCH   7   8
ENDBRANCH   1   7
TORSDOF 3
ENDMDL
