MODEL 1
REMARK minimizedAffinity 17.3795719
REMARK minimizedRMSD -1
REMARK  0 active torsions:
REMARK  status: ('A' for Active; 'I' for Inactive)
ROOT
ATOM      1  C2' OXE d   1       1.133   4.013  -2.573  0.00  0.00     0.078 C 
ATOM      2  C1' OXE d   1      -1.471   3.131  -3.137  0.00  0.00     0.078 C 
ATOM      3  C1  OXE d   1      -0.896   2.803  -1.783  0.00  0.00    -0.078 A 
ATOM      4  C2  OXE d   1       0.396   3.198  -1.532  0.00  0.00    -0.078 A 
ATOM      5  C3  OXE d   1       0.957   2.968  -0.279  0.00  0.00     0.003 A 
ATOM      6  C4  OXE d   1       0.272   2.205   0.675  0.00  0.00    -0.002 A 
ATOM      7  C5  OXE d   1      -1.030   1.759   0.425  0.00  0.00    -0.002 A 
ATOM      8  C6  OXE d   1      -1.643   2.085  -0.779  0.00  0.00     0.003 A 
ENDROOT
TORSDOF 0
ENDMDL
