MODEL 1
REMARK minimizedAffinity 14.511838
REMARK minimizedRMSD -1
REMARK  0 active torsions:
REMARK  status: ('A' for Active; 'I' for Inactive)
ROOT
ATOM      1  C2' OXE d   1       1.588   4.406  -2.400  0.00  0.00     0.078 C 
ATOM      2  C1' OXE d   1      -0.818   3.872  -3.744  0.00  0.00     0.078 C 
ATOM      3  C1  OXE d   1      -0.662   3.338  -2.342  0.00  0.00    -0.078 A 
ATOM      4  C2  OXE d   1       0.537   3.563  -1.709  0.00  0.00    -0.078 A 
ATOM      5  C3  OXE d   1       0.714   3.139  -0.395  0.00  0.00     0.003 A 
ATOM      6  C4  OXE d   1      -0.259   2.352   0.232  0.00  0.00    -0.002 A 
ATOM      7  C5  OXE d   1      -1.472   2.077  -0.409  0.00  0.00    -0.002 A 
ATOM      8  C6  OXE d   1      -1.705   2.597  -1.677  0.00  0.00     0.003 A 
ENDROOT
TORSDOF 0
ENDMDL
