MODEL 1
REMARK minimizedAffinity 8.64532661
REMARK minimizedRMSD -1
REMARK  0 active torsions:
REMARK  status: ('A' for Active; 'I' for Inactive)
ROOT
ATOM      1  C2' OXE d   1      -5.645  -4.562   3.784  0.00  0.00     0.078 C 
ATOM      2  C1' OXE d   1      -5.991  -2.873   6.000  0.00  0.00     0.078 C 
ATOM      3  C1  OXE d   1      -4.597  -3.031   5.446  0.00  0.00    -0.078 A 
ATOM      4  C2  OXE d   1      -4.429  -3.896   4.391  0.00  0.00    -0.078 A 
ATOM      5  C3  OXE d   1      -3.173  -4.036   3.807  0.00  0.00     0.003 A 
ATOM      6  C4  OXE d   1      -2.053  -3.424   4.382  0.00  0.00    -0.002 A 
ATOM      7  C5  OXE d   1      -2.195  -2.571   5.481  0.00  0.00    -0.002 A 
ATOM      8  C6  OXE d   1      -3.463  -2.331   5.998  0.00  0.00     0.003 A 
ENDROOT
TORSDOF 0
ENDMDL
