MODEL 1
REMARK minimizedAffinity 17.8043728
REMARK minimizedRMSD -1
REMARK  0 active torsions:
REMARK  status: ('A' for Active; 'I' for Inactive)
ROOT
ATOM      1  C2' OXE d   1      -2.012   4.092  -0.387  0.00  0.00     0.078 C 
ATOM      2  C1' OXE d   1      -3.324   4.443  -2.843  0.00  0.00     0.078 C 
ATOM      3  C1  OXE d   1      -4.012   4.948  -1.600  0.00  0.00    -0.078 A 
ATOM      4  C2  OXE d   1      -3.384   4.730  -0.397  0.00  0.00    -0.078 A 
ATOM      5  C3  OXE d   1      -3.949   5.224   0.775  0.00  0.00     0.003 A 
ATOM      6  C4  OXE d   1      -5.223   5.804   0.758  0.00  0.00    -0.002 A 
ATOM      7  C5  OXE d   1      -5.898   6.000  -0.452  0.00  0.00    -0.002 A 
ATOM      8  C6  OXE d   1      -5.289   5.617  -1.642  0.00  0.00     0.003 A 
ENDROOT
TORSDOF 0
ENDMDL
