MODEL 1
REMARK minimizedAffinity 15.4830599
REMARK minimizedRMSD -1
REMARK  0 active torsions:
REMARK  status: ('A' for Active; 'I' for Inactive)
ROOT
ATOM      1  C2' OXE d   1      -1.842   3.069  -3.211  0.00  0.00     0.078 C 
ATOM      2  C1' OXE d   1      -3.751   5.107  -2.918  0.00  0.00     0.078 C 
ATOM      3  C1  OXE d   1      -4.233   3.750  -3.367  0.00  0.00    -0.078 A 
ATOM      4  C2  OXE d   1      -3.286   2.772  -3.553  0.00  0.00    -0.078 A 
ATOM      5  C3  OXE d   1      -3.684   1.488  -3.914  0.00  0.00     0.003 A 
ATOM      6  C4  OXE d   1      -5.020   1.224  -4.237  0.00  0.00    -0.002 A 
ATOM      7  C5  OXE d   1      -5.995   2.217  -4.093  0.00  0.00    -0.002 A 
ATOM      8  C6  OXE d   1      -5.625   3.471  -3.619  0.00  0.00     0.003 A 
ENDROOT
TORSDOF 0
ENDMDL
