MODEL 1
REMARK minimizedAffinity 11.0201912
REMARK minimizedRMSD -1
REMARK  0 active torsions:
REMARK  status: ('A' for Active; 'I' for Inactive)
ROOT
ATOM      1  C2' OXE d   1      -2.951   1.612  -3.005  0.00  0.00     0.078 C 
ATOM      2  C1' OXE d   1      -0.835   3.092  -4.107  0.00  0.00     0.078 C 
ATOM      3  C1  OXE d   1      -0.807   2.822  -2.623  0.00  0.00    -0.078 A 
ATOM      4  C2  OXE d   1      -1.870   2.137  -2.085  0.00  0.00    -0.078 A 
ATOM      5  C3  OXE d   1      -1.867   1.814  -0.731  0.00  0.00     0.003 A 
ATOM      6  C4  OXE d   1      -0.869   2.312   0.115  0.00  0.00    -0.002 A 
ATOM      7  C5  OXE d   1       0.202   3.045  -0.407  0.00  0.00    -0.002 A 
ATOM      8  C6  OXE d   1       0.270   3.272  -1.777  0.00  0.00     0.003 A 
ENDROOT
TORSDOF 0
ENDMDL
