MODEL 1
REMARK minimizedAffinity 21.1883411
REMARK minimizedRMSD -1
REMARK  0 active torsions:
REMARK  status: ('A' for Active; 'I' for Inactive)
ROOT
ATOM      1  C2' OXE d   1       1.235   3.366  -2.347  0.00  0.00     0.078 C 
ATOM      2  C1' OXE d   1      -1.019   3.333  -4.020  0.00  0.00     0.078 C 
ATOM      3  C1  OXE d   1       0.108   4.269  -4.377  0.00  0.00    -0.078 A 
ATOM      4  C2  OXE d   1       1.186   4.313  -3.527  0.00  0.00    -0.078 A 
ATOM      5  C3  OXE d   1       2.277   5.120  -3.839  0.00  0.00     0.003 A 
ATOM      6  C4  OXE d   1       2.220   6.000  -4.926  0.00  0.00    -0.002 A 
ATOM      7  C5  OXE d   1       1.114   6.000  -5.782  0.00  0.00    -0.002 A 
ATOM      8  C6  OXE d   1       0.070   5.112  -5.546  0.00  0.00     0.003 A 
ENDROOT
TORSDOF 0
ENDMDL
