MODEL 1
REMARK minimizedAffinity 22.3049164
REMARK minimizedRMSD -1
REMARK  0 active torsions:
REMARK  status: ('A' for Active; 'I' for Inactive)
ROOT
ATOM      1  C2' OXE d   1      -1.075   3.063  -3.753  0.00  0.00     0.078 C 
ATOM      2  C1' OXE d   1       1.124   2.711  -2.044  0.00  0.00     0.078 C 
ATOM      3  C1  OXE d   1       1.149   3.886  -2.989  0.00  0.00    -0.078 A 
ATOM      4  C2  OXE d   1       0.091   4.024  -3.854  0.00  0.00    -0.078 A 
ATOM      5  C3  OXE d   1       0.037   5.121  -4.709  0.00  0.00     0.003 A 
ATOM      6  C4  OXE d   1       1.124   6.000  -4.803  0.00  0.00    -0.002 A 
ATOM      7  C5  OXE d   1       2.230   5.854  -3.959  0.00  0.00    -0.002 A 
ATOM      8  C6  OXE d   1       2.239   4.830  -3.019  0.00  0.00     0.003 A 
ENDROOT
TORSDOF 0
ENDMDL
