MODEL 1
REMARK minimizedAffinity 22.4435139
REMARK minimizedRMSD -1
REMARK  0 active torsions:
REMARK  status: ('A' for Active; 'I' for Inactive)
ROOT
ATOM      1  C2' OXE d   1      -1.529   3.175  -3.215  0.00  0.00     0.078 C 
ATOM      2  C1' OXE d   1       0.714   2.919  -1.546  0.00  0.00     0.078 C 
ATOM      3  C1  OXE d   1       0.727   4.019  -2.578  0.00  0.00    -0.078 A 
ATOM      4  C2  OXE d   1      -0.354   4.107  -3.421  0.00  0.00    -0.078 A 
ATOM      5  C3  OXE d   1      -0.418   5.138  -4.355  0.00  0.00     0.003 A 
ATOM      6  C4  OXE d   1       0.677   5.990  -4.546  0.00  0.00    -0.002 A 
ATOM      7  C5  OXE d   1       1.805   5.892  -3.724  0.00  0.00    -0.002 A 
ATOM      8  C6  OXE d   1       1.828   4.941  -2.709  0.00  0.00     0.003 A 
ENDROOT
TORSDOF 0
ENDMDL
