MODEL 1
REMARK minimizedAffinity 16.0675888
REMARK minimizedRMSD -1
REMARK  0 active torsions:
REMARK  status: ('A' for Active; 'I' for Inactive)
ROOT
ATOM      1  C2' OXE d   1      -1.296   3.428  -3.593  0.00  0.00     0.078 C 
ATOM      2  C1' OXE d   1       0.760   3.469  -1.683  0.00  0.00     0.078 C 
ATOM      3  C1  OXE d   1       0.903   4.363  -2.890  0.00  0.00    -0.078 A 
ATOM      4  C2  OXE d   1      -0.086   4.302  -3.842  0.00  0.00    -0.078 A 
ATOM      5  C3  OXE d   1      -0.031   5.145  -4.948  0.00  0.00     0.003 A 
ATOM      6  C4  OXE d   1       1.097   5.943  -5.175  0.00  0.00    -0.002 A 
ATOM      7  C5  OXE d   1       2.134   5.991  -4.237  0.00  0.00    -0.002 A 
ATOM      8  C6  OXE d   1       2.033   5.240  -3.071  0.00  0.00     0.003 A 
ENDROOT
TORSDOF 0
ENDMDL
