MODEL 1
REMARK minimizedAffinity 6.52460861
REMARK minimizedRMSD -1
REMARK  0 active torsions:
REMARK  status: ('A' for Active; 'I' for Inactive)
ROOT
ATOM      1  C2' OXE d   1       4.357  -4.465  -2.992  0.00  0.00     0.078 C 
ATOM      2  C1' OXE d   1       1.593  -4.119  -2.651  0.00  0.00     0.078 C 
ATOM      3  C1  OXE d   1       2.241  -3.468  -3.847  0.00  0.00    -0.078 A 
ATOM      4  C2  OXE d   1       3.602  -3.604  -3.981  0.00  0.00    -0.078 A 
ATOM      5  C3  OXE d   1       4.242  -3.069  -5.095  0.00  0.00     0.003 A 
ATOM      6  C4  OXE d   1       3.537  -2.266  -6.000  0.00  0.00    -0.002 A 
ATOM      7  C5  OXE d   1       2.157  -2.082  -5.861  0.00  0.00    -0.002 A 
ATOM      8  C6  OXE d   1       1.488  -2.710  -4.816  0.00  0.00     0.003 A 
ENDROOT
TORSDOF 0
ENDMDL
