MODEL 1
REMARK minimizedAffinity 14.9522209
REMARK minimizedRMSD -1
REMARK  0 active torsions:
REMARK  status: ('A' for Active; 'I' for Inactive)
ROOT
ATOM      1  C2' OXE d   1       1.211   3.829  -2.056  0.00  0.00     0.078 C 
ATOM      2  C1' OXE d   1      -1.461   3.116  -2.538  0.00  0.00     0.078 C 
ATOM      3  C1  OXE d   1      -0.847   2.700  -1.224  0.00  0.00    -0.078 A 
ATOM      4  C2  OXE d   1       0.475   3.012  -1.017  0.00  0.00    -0.078 A 
ATOM      5  C3  OXE d   1       1.074   2.700   0.200  0.00  0.00     0.003 A 
ATOM      6  C4  OXE d   1       0.389   1.936   1.152  0.00  0.00    -0.002 A 
ATOM      7  C5  OXE d   1      -0.946   1.572   0.944  0.00  0.00    -0.002 A 
ATOM      8  C6  OXE d   1      -1.590   1.982  -0.218  0.00  0.00     0.003 A 
ENDROOT
TORSDOF 0
ENDMDL
