MODEL 1
REMARK minimizedAffinity 16.3055
REMARK minimizedRMSD -1
REMARK  0 active torsions:
REMARK  status: ('A' for Active; 'I' for Inactive)
ROOT
ATOM      1  C2' OXE d   1      -2.271   5.800   0.939  0.00  0.00     0.078 C 
ATOM      2  C1' OXE d   1      -4.744   5.714   2.264  0.00  0.00     0.078 C 
ATOM      3  C1  OXE d   1      -4.754   5.735   0.756  0.00  0.00    -0.078 A 
ATOM      4  C2  OXE d   1      -3.541   5.824   0.117  0.00  0.00    -0.078 A 
ATOM      5  C3  OXE d   1      -3.491   5.792  -1.274  0.00  0.00     0.003 A 
ATOM      6  C4  OXE d   1      -4.671   5.825  -2.027  0.00  0.00    -0.002 A 
ATOM      7  C5  OXE d   1      -5.918   5.775  -1.395  0.00  0.00    -0.002 A 
ATOM      8  C6  OXE d   1      -5.976   5.687  -0.008  0.00  0.00     0.003 A 
ENDROOT
TORSDOF 0
ENDMDL
