MODEL 1
REMARK minimizedAffinity 18.6898689
REMARK minimizedRMSD -1
REMARK  0 active torsions:
REMARK  status: ('A' for Active; 'I' for Inactive)
ROOT
ATOM      1  C2' OXE d   1      -0.413  -2.406  -5.956  0.00  0.00     0.078 C 
ATOM      2  C1' OXE d   1       1.272  -4.651  -5.976  0.00  0.00     0.078 C 
ATOM      3  C1  OXE d   1       1.917  -3.288  -5.960  0.00  0.00    -0.078 A 
ATOM      4  C2  OXE d   1       1.086  -2.195  -5.998  0.00  0.00    -0.078 A 
ATOM      5  C3  OXE d   1       1.627  -0.914  -5.930  0.00  0.00     0.003 A 
ATOM      6  C4  OXE d   1       3.014  -0.727  -5.979  0.00  0.00    -0.002 A 
ATOM      7  C5  OXE d   1       3.879  -1.827  -5.982  0.00  0.00    -0.002 A 
ATOM      8  C6  OXE d   1       3.348  -3.111  -5.930  0.00  0.00     0.003 A 
ENDROOT
TORSDOF 0
ENDMDL
