MODEL 1
REMARK minimizedAffinity 18.3636684
REMARK minimizedRMSD -1
REMARK  0 active torsions:
REMARK  status: ('A' for Active; 'I' for Inactive)
ROOT
ATOM      1  C2' OXE d   1      -4.097   1.716   1.517  0.00  0.00     0.078 C 
ATOM      2  C1' OXE d   1      -2.164   2.806  -0.201  0.00  0.00     0.078 C 
ATOM      3  C1  OXE d   1      -3.118   3.757   0.477  0.00  0.00    -0.078 A 
ATOM      4  C2  OXE d   1      -4.091   3.211   1.280  0.00  0.00    -0.078 A 
ATOM      5  C3  OXE d   1      -4.963   4.046   1.972  0.00  0.00     0.003 A 
ATOM      6  C4  OXE d   1      -4.956   5.427   1.739  0.00  0.00    -0.002 A 
ATOM      7  C5  OXE d   1      -4.000   6.000   0.895  0.00  0.00    -0.002 A 
ATOM      8  C6  OXE d   1      -3.049   5.185   0.290  0.00  0.00     0.003 A 
ENDROOT
TORSDOF 0
ENDMDL
