MODEL 1
REMARK minimizedAffinity 21.8181973
REMARK minimizedRMSD -1
REMARK  0 active torsions:
REMARK  status: ('A' for Active; 'I' for Inactive)
ROOT
ATOM      1  C2' OXE d   1      -5.279   5.924   3.038  0.00  0.00     0.078 C 
ATOM      2  C1' OXE d   1      -2.605   6.000   2.189  0.00  0.00     0.078 C 
ATOM      3  C1  OXE d   1      -3.671   5.803   1.140  0.00  0.00    -0.078 A 
ATOM      4  C2  OXE d   1      -4.973   5.720   1.570  0.00  0.00    -0.078 A 
ATOM      5  C3  OXE d   1      -6.000   5.594   0.639  0.00  0.00     0.003 A 
ATOM      6  C4  OXE d   1      -5.708   5.396  -0.716  0.00  0.00    -0.002 A 
ATOM      7  C5  OXE d   1      -4.385   5.437  -1.170  0.00  0.00    -0.002 A 
ATOM      8  C6  OXE d   1      -3.360   5.682  -0.263  0.00  0.00     0.003 A 
ENDROOT
TORSDOF 0
ENDMDL
