MODEL 1
REMARK minimizedAffinity 16.1444492
REMARK minimizedRMSD -1
REMARK  0 active torsions:
REMARK  status: ('A' for Active; 'I' for Inactive)
ROOT
ATOM      1  C2' OXE d   1       1.019  -4.289  -6.000  0.00  0.00     0.078 C 
ATOM      2  C1' OXE d   1       2.150  -2.172  -4.544  0.00  0.00     0.078 C 
ATOM      3  C1  OXE d   1       1.926  -3.479  -3.826  0.00  0.00    -0.078 A 
ATOM      4  C2  OXE d   1       1.329  -4.495  -4.533  0.00  0.00    -0.078 A 
ATOM      5  C3  OXE d   1       1.149  -5.739  -3.934  0.00  0.00     0.003 A 
ATOM      6  C4  OXE d   1       1.430  -5.918  -2.574  0.00  0.00    -0.002 A 
ATOM      7  C5  OXE d   1       2.001  -4.884  -1.825  0.00  0.00    -0.002 A 
ATOM      8  C6  OXE d   1       2.294  -3.675  -2.445  0.00  0.00     0.003 A 
ENDROOT
TORSDOF 0
ENDMDL
