MODEL 1
REMARK minimizedAffinity 7.19377565
REMARK minimizedRMSD -1
REMARK  0 active torsions:
REMARK  status: ('A' for Active; 'I' for Inactive)
ROOT
ATOM      1  C2' OXE d   1      -1.958   2.117  -2.201  0.00  0.00     0.078 C 
ATOM      2  C1' OXE d   1      -0.555   1.799   0.210  0.00  0.00     0.078 C 
ATOM      3  C1  OXE d   1      -0.399   3.105  -0.529  0.00  0.00    -0.078 A 
ATOM      4  C2  OXE d   1      -1.052   3.234  -1.731  0.00  0.00    -0.078 A 
ATOM      5  C3  OXE d   1      -0.985   4.438  -2.426  0.00  0.00     0.003 A 
ATOM      6  C4  OXE d   1      -0.136   5.463  -1.989  0.00  0.00    -0.002 A 
ATOM      7  C5  OXE d   1       0.569   5.336  -0.788  0.00  0.00    -0.002 A 
ATOM      8  C6  OXE d   1       0.416   4.184  -0.026  0.00  0.00     0.003 A 
ENDROOT
TORSDOF 0
ENDMDL
