MODEL 1
REMARK minimizedAffinity 7.38231039
REMARK minimizedRMSD -1
REMARK  0 active torsions:
REMARK  status: ('A' for Active; 'I' for Inactive)
ROOT
ATOM      1  C2' OXE d   1       0.250   2.766   0.298  0.00  0.00     0.078 C 
ATOM      2  C1' OXE d   1       0.198   5.570   0.182  0.00  0.00     0.078 C 
ATOM      3  C1  OXE d   1      -0.437   4.807  -0.954  0.00  0.00    -0.078 A 
ATOM      4  C2  OXE d   1      -0.366   3.436  -0.912  0.00  0.00    -0.078 A 
ATOM      5  C3  OXE d   1      -0.983   2.682  -1.906  0.00  0.00     0.003 A 
ATOM      6  C4  OXE d   1      -1.542   3.309  -3.026  0.00  0.00    -0.002 A 
ATOM      7  C5  OXE d   1      -1.590   4.705  -3.108  0.00  0.00    -0.002 A 
ATOM      8  C6  OXE d   1      -1.081   5.467  -2.063  0.00  0.00     0.003 A 
ENDROOT
TORSDOF 0
ENDMDL
