MODEL 1
REMARK minimizedAffinity 10.8403492
REMARK minimizedRMSD -1
REMARK  0 active torsions:
REMARK  status: ('A' for Active; 'I' for Inactive)
ROOT
ATOM      1  C2' OXE d   1      -5.195   0.030   0.835  0.00  0.00     0.078 C 
ATOM      2  C1' OXE d   1      -2.953  -0.352  -0.811  0.00  0.00     0.078 C 
ATOM      3  C1  OXE d   1      -2.720   0.166   0.586  0.00  0.00    -0.078 A 
ATOM      4  C2  OXE d   1      -3.827   0.395   1.368  0.00  0.00    -0.078 A 
ATOM      5  C3  OXE d   1      -3.665   0.821   2.684  0.00  0.00     0.003 A 
ATOM      6  C4  OXE d   1      -2.396   1.165   3.166  0.00  0.00    -0.002 A 
ATOM      7  C5  OXE d   1      -1.260   0.978   2.372  0.00  0.00    -0.002 A 
ATOM      8  C6  OXE d   1      -1.400   0.440   1.097  0.00  0.00     0.003 A 
ENDROOT
TORSDOF 0
ENDMDL
