MODEL 1
REMARK minimizedAffinity 5.96382999
REMARK minimizedRMSD -1
REMARK  0 active torsions:
REMARK  status: ('A' for Active; 'I' for Inactive)
ROOT
ATOM      1  O1  BZF d   1       2.231  -5.918  -3.733  0.00  0.00    -0.204 OA
ATOM      2  C2  BZF d   1       1.506  -5.944  -4.909  0.00  0.00     0.174 A 
ATOM      3  C3  BZF d   1       2.327  -5.896  -5.978  0.00  0.00    -0.012 A 
ATOM      4  C3A BZF d   1       3.651  -5.930  -5.437  0.00  0.00    -0.107 A 
ATOM      5  C4  BZF d   1       4.896  -5.923  -6.000  0.00  0.00     0.055 A 
ATOM      6  C5  BZF d   1       5.987  -5.889  -5.190  0.00  0.00    -0.016 A 
ATOM      7  C6  BZF d   1       5.870  -5.855  -3.816  0.00  0.00     0.022 A 
ATOM      8  C7  BZF d   1       4.657  -5.865  -3.211  0.00  0.00     0.029 A 
ATOM      9  C7A BZF d   1       3.553  -5.933  -4.026  0.00  0.00     0.058 A 
ENDROOT
TORSDOF 0
ENDMDL
