MODEL 1
REMARK minimizedAffinity 18.9857159
REMARK minimizedRMSD -1
REMARK  0 active torsions:
REMARK  status: ('A' for Active; 'I' for Inactive)
ROOT
ATOM      1  O1  BZF d   1       2.169  -0.211   3.994  0.00  0.00    -0.204 OA
ATOM      2  C2  BZF d   1       1.718   0.060   2.717  0.00  0.00     0.174 A 
ATOM      3  C3  BZF d   1       1.907  -1.002   1.907  0.00  0.00    -0.012 A 
ATOM      4  C3A BZF d   1       2.429  -2.031   2.752  0.00  0.00    -0.107 A 
ATOM      5  C4  BZF d   1       2.803  -3.326   2.533  0.00  0.00     0.055 A 
ATOM      6  C5  BZF d   1       3.342  -4.041   3.556  0.00  0.00    -0.016 A 
ATOM      7  C6  BZF d   1       3.525  -3.491   4.807  0.00  0.00     0.022 A 
ATOM      8  C7  BZF d   1       3.165  -2.212   5.074  0.00  0.00     0.029 A 
ATOM      9  C7A BZF d   1       2.590  -1.498   4.052  0.00  0.00     0.058 A 
ENDROOT
TORSDOF 0
ENDMDL
