MODEL 1
REMARK minimizedAffinity 7.06312037
REMARK minimizedRMSD -1
REMARK  0 active torsions:
REMARK  status: ('A' for Active; 'I' for Inactive)
ROOT
ATOM      1  O1  BZF d   1       5.847  -4.930  -3.020  0.00  0.00    -0.204 OA
ATOM      2  C2  BZF d   1       5.865  -5.984  -3.913  0.00  0.00     0.174 A 
ATOM      3  C3  BZF d   1       5.848  -5.534  -5.185  0.00  0.00    -0.012 A 
ATOM      4  C3A BZF d   1       5.910  -4.108  -5.080  0.00  0.00    -0.107 A 
ATOM      5  C4  BZF d   1       5.940  -3.099  -6.000  0.00  0.00     0.055 A 
ATOM      6  C5  BZF d   1       5.926  -1.811  -5.568  0.00  0.00    -0.016 A 
ATOM      7  C6  BZF d   1       5.877  -1.495  -4.226  0.00  0.00     0.022 A 
ATOM      8  C7  BZF d   1       5.851  -2.462  -3.276  0.00  0.00     0.029 A 
ATOM      9  C7A BZF d   1       5.898  -3.765  -3.708  0.00  0.00     0.058 A 
ENDROOT
TORSDOF 0
ENDMDL
