MODEL 1
REMARK minimizedAffinity 17.9214878
REMARK minimizedRMSD -1
REMARK  0 active torsions:
REMARK  status: ('A' for Active; 'I' for Inactive)
ROOT
ATOM      1  O1  BZF d   1      -1.903  -3.786  -0.852  0.00  0.00    -0.204 OA
ATOM      2  C2  BZF d   1      -1.795  -5.077  -0.373  0.00  0.00     0.174 A 
ATOM      3  C3  BZF d   1      -0.501  -5.435  -0.248  0.00  0.00    -0.012 A 
ATOM      4  C3A BZF d   1       0.248  -4.264  -0.588  0.00  0.00    -0.107 A 
ATOM      5  C4  BZF d   1       1.584  -3.985  -0.638  0.00  0.00     0.055 A 
ATOM      6  C5  BZF d   1       1.988  -2.765  -1.081  0.00  0.00    -0.016 A 
ATOM      7  C6  BZF d   1       1.085  -1.804  -1.486  0.00  0.00     0.022 A 
ATOM      8  C7  BZF d   1      -0.250  -2.033  -1.450  0.00  0.00     0.029 A 
ATOM      9  C7A BZF d   1      -0.663  -3.253  -0.972  0.00  0.00     0.058 A 
ENDROOT
TORSDOF 0
ENDMDL
