MODEL 1
REMARK minimizedAffinity 1.60219324
REMARK minimizedRMSD -1
REMARK  0 active torsions:
REMARK  status: ('A' for Active; 'I' for Inactive)
ROOT
ATOM      1  O1  BZF d   1       1.713  -0.028   3.475  0.00  0.00    -0.204 OA
ATOM      2  C2  BZF d   1       2.400  -1.224   3.545  0.00  0.00     0.174 A 
ATOM      3  C3  BZF d   1       3.241  -1.356   2.499  0.00  0.00    -0.012 A 
ATOM      4  C3A BZF d   1       3.136  -0.126   1.775  0.00  0.00    -0.107 A 
ATOM      5  C4  BZF d   1       3.738   0.354   0.647  0.00  0.00     0.055 A 
ATOM      6  C5  BZF d   1       3.360   1.565   0.161  0.00  0.00    -0.016 A 
ATOM      7  C6  BZF d   1       2.381   2.320   0.773  0.00  0.00     0.022 A 
ATOM      8  C7  BZF d   1       1.758   1.888   1.897  0.00  0.00     0.029 A 
ATOM      9  C7A BZF d   1       2.162   0.679   2.409  0.00  0.00     0.058 A 
ENDROOT
TORSDOF 0
ENDMDL
