MODEL 1
REMARK minimizedAffinity 5.59393072
REMARK minimizedRMSD -1
REMARK  0 active torsions:
REMARK  status: ('A' for Active; 'I' for Inactive)
ROOT
ATOM      1  O1  BZF d   1       0.920  -4.098   4.825  0.00  0.00    -0.204 OA
ATOM      2  C2  BZF d   1       0.663  -5.246   5.550  0.00  0.00     0.174 A 
ATOM      3  C3  BZF d   1       1.810  -5.796   5.999  0.00  0.00    -0.012 A 
ATOM      4  C3A BZF d   1       2.842  -4.888   5.603  0.00  0.00    -0.107 A 
ATOM      5  C4  BZF d   1       4.197  -4.875   5.773  0.00  0.00     0.055 A 
ATOM      6  C5  BZF d   1       4.925  -3.881   5.201  0.00  0.00    -0.016 A 
ATOM      7  C6  BZF d   1       4.333  -2.888   4.449  0.00  0.00     0.022 A 
ATOM      8  C7  BZF d   1       2.992  -2.855   4.256  0.00  0.00     0.029 A 
ATOM      9  C7A BZF d   1       2.250  -3.840   4.861  0.00  0.00     0.058 A 
ENDROOT
TORSDOF 0
ENDMDL
