MODEL 1
REMARK minimizedAffinity 7.2393384
REMARK minimizedRMSD -1
REMARK  0 active torsions:
REMARK  status: ('A' for Active; 'I' for Inactive)
ROOT
ATOM      1  O1  BZF d   1       3.952   5.258  -0.290  0.00  0.00    -0.204 OA
ATOM      2  C2  BZF d   1       2.597   5.018  -0.415  0.00  0.00     0.174 A 
ATOM      3  C3  BZF d   1       2.205   5.150  -1.698  0.00  0.00    -0.012 A 
ATOM      4  C3A BZF d   1       3.405   5.402  -2.435  0.00  0.00    -0.107 A 
ATOM      5  C4  BZF d   1       3.668   5.606  -3.760  0.00  0.00     0.055 A 
ATOM      6  C5  BZF d   1       4.939   5.898  -4.143  0.00  0.00    -0.016 A 
ATOM      7  C6  BZF d   1       5.968   6.000  -3.230  0.00  0.00     0.022 A 
ATOM      8  C7  BZF d   1       5.756   5.801  -1.906  0.00  0.00     0.029 A 
ATOM      9  C7A BZF d   1       4.480   5.473  -1.519  0.00  0.00     0.058 A 
ENDROOT
TORSDOF 0
ENDMDL
