MODEL 1
REMARK minimizedAffinity 10.8874702
REMARK minimizedRMSD -1
REMARK  0 active torsions:
REMARK  status: ('A' for Active; 'I' for Inactive)
ROOT
ATOM      1  O1  BZF d   1       3.720   5.792  -5.187  0.00  0.00    -0.204 OA
ATOM      2  C2  BZF d   1       4.922   5.797  -5.867  0.00  0.00     0.174 A 
ATOM      3  C3  BZF d   1       5.957   5.917  -5.010  0.00  0.00    -0.012 A 
ATOM      4  C3A BZF d   1       5.369   5.899  -3.706  0.00  0.00    -0.107 A 
ATOM      5  C4  BZF d   1       5.884   5.968  -2.443  0.00  0.00     0.055 A 
ATOM      6  C5  BZF d   1       5.033   6.000  -1.384  0.00  0.00    -0.016 A 
ATOM      7  C6  BZF d   1       3.664   5.969  -1.551  0.00  0.00     0.022 A 
ATOM      8  C7  BZF d   1       3.106   5.895  -2.784  0.00  0.00     0.029 A 
ATOM      9  C7A BZF d   1       3.964   5.830  -3.855  0.00  0.00     0.058 A 
ENDROOT
TORSDOF 0
ENDMDL
