MODEL 1
REMARK minimizedAffinity 1.64838958
REMARK minimizedRMSD -1
REMARK  0 active torsions:
REMARK  status: ('A' for Active; 'I' for Inactive)
ROOT
ATOM      1  O1  BZF d   1       2.921  -5.221   5.998  0.00  0.00    -0.204 OA
ATOM      2  C2  BZF d   1       1.621  -5.689   5.999  0.00  0.00     0.174 A 
ATOM      3  C3  BZF d   1       0.840  -4.930   5.203  0.00  0.00    -0.012 A 
ATOM      4  C3A BZF d   1       1.725  -3.981   4.601  0.00  0.00    -0.107 A 
ATOM      5  C4  BZF d   1       1.545  -2.969   3.702  0.00  0.00     0.055 A 
ATOM      6  C5  BZF d   1       2.603  -2.181   3.374  0.00  0.00    -0.016 A 
ATOM      7  C6  BZF d   1       3.851  -2.373   3.929  0.00  0.00     0.022 A 
ATOM      8  C7  BZF d   1       4.079  -3.368   4.821  0.00  0.00     0.029 A 
ATOM      9  C7A BZF d   1       3.020  -4.186   5.130  0.00  0.00     0.058 A 
ENDROOT
TORSDOF 0
ENDMDL
