MODEL 1
REMARK minimizedAffinity 4.47528696
REMARK minimizedRMSD -1
REMARK  0 active torsions:
REMARK  status: ('A' for Active; 'I' for Inactive)
ROOT
ATOM      1  O1  BZF d   1       3.396   0.563   6.000  0.00  0.00    -0.204 OA
ATOM      2  C2  BZF d   1       2.982   1.865   5.801  0.00  0.00     0.174 A 
ATOM      3  C3  BZF d   1       2.385   1.999   4.599  0.00  0.00    -0.012 A 
ATOM      4  C3A BZF d   1       2.347   0.679   4.048  0.00  0.00    -0.107 A 
ATOM      5  C4  BZF d   1       1.862   0.162   2.881  0.00  0.00     0.055 A 
ATOM      6  C5  BZF d   1       2.048  -1.157   2.615  0.00  0.00    -0.016 A 
ATOM      7  C6  BZF d   1       2.720  -1.986   3.490  0.00  0.00     0.022 A 
ATOM      8  C7  BZF d   1       3.215  -1.520   4.662  0.00  0.00     0.029 A 
ATOM      9  C7A BZF d   1       2.999  -0.195   4.949  0.00  0.00     0.058 A 
ENDROOT
TORSDOF 0
ENDMDL
