MODEL 1
REMARK minimizedAffinity 11.3707409
REMARK minimizedRMSD -1
REMARK  0 active torsions:
REMARK  status: ('A' for Active; 'I' for Inactive)
ROOT
ATOM      1  O1  BZF d   1       2.536   0.599   5.839  0.00  0.00    -0.204 OA
ATOM      2  C2  BZF d   1       2.234   1.823   5.276  0.00  0.00     0.174 A 
ATOM      3  C3  BZF d   1       2.166   1.728   3.932  0.00  0.00    -0.012 A 
ATOM      4  C3A BZF d   1       2.352   0.339   3.643  0.00  0.00    -0.107 A 
ATOM      5  C4  BZF d   1       2.372  -0.384   2.486  0.00  0.00     0.055 A 
ATOM      6  C5  BZF d   1       2.649  -1.713   2.542  0.00  0.00    -0.016 A 
ATOM      7  C6  BZF d   1       2.917  -2.349   3.737  0.00  0.00     0.022 A 
ATOM      8  C7  BZF d   1       2.903  -1.674   4.912  0.00  0.00     0.029 A 
ATOM      9  C7A BZF d   1       2.590  -0.338   4.862  0.00  0.00     0.058 A 
ENDROOT
TORSDOF 0
ENDMDL
