MODEL 1
REMARK minimizedAffinity -5.91722727
REMARK minimizedRMSD -1
REMARK  0 active torsions:
REMARK  status: ('A' for Active; 'I' for Inactive)
ROOT
ATOM      1  N1  IND d   1       0.296  -0.478  -0.961  0.00  0.00    -0.196 N 
ATOM      2  C2  IND d   1      -0.959   0.007  -0.716  0.00  0.00     0.054 A 
ATOM      3  C3  IND d   1      -1.256  -0.104   0.598  0.00  0.00    -0.031 A 
ATOM      4  C4  IND d   1       0.204  -0.955   2.540  0.00  0.00     0.051 A 
ATOM      5  C5  IND d   1       1.412  -1.536   2.805  0.00  0.00    -0.031 A 
ATOM      6  C6  IND d   1       2.330  -1.797   1.808  0.00  0.00     0.015 A 
ATOM      7  C7  IND d   1       2.077  -1.474   0.505  0.00  0.00    -0.016 A 
ATOM      8  C8  IND d   1       0.848  -0.891   0.231  0.00  0.00    -0.047 A 
ATOM      9  C9  IND d   1      -0.105  -0.663   1.233  0.00  0.00    -0.096 A 
ATOM     10  HN1 IND d   1       0.676  -0.518  -1.732  0.00  0.00     0.298 HD
ENDROOT
TORSDOF 0
ENDMDL
