MODEL 1
REMARK minimizedAffinity -4.82608032
REMARK minimizedRMSD -1
REMARK  0 active torsions:
REMARK  status: ('A' for Active; 'I' for Inactive)
ROOT
ATOM      1  N1  IND d   1       0.858  -0.843  -1.213  0.00  0.00    -0.196 N 
ATOM      2  C2  IND d   1      -0.110   0.122  -1.219  0.00  0.00     0.054 A 
ATOM      3  C3  IND d   1      -0.412   0.493   0.045  0.00  0.00    -0.031 A 
ATOM      4  C4  IND d   1       0.630  -0.279   2.269  0.00  0.00     0.051 A 
ATOM      5  C5  IND d   1       1.524  -1.174   2.787  0.00  0.00    -0.031 A 
ATOM      6  C6  IND d   1       2.258  -2.019   1.981  0.00  0.00     0.015 A 
ATOM      7  C7  IND d   1       2.134  -1.993   0.621  0.00  0.00    -0.016 A 
ATOM      8  C8  IND d   1       1.222  -1.091   0.092  0.00  0.00    -0.047 A 
ATOM      9  C9  IND d   1       0.443  -0.260   0.907  0.00  0.00    -0.096 A 
ATOM     10  HN1 IND d   1       1.184  -1.230  -1.908  0.00  0.00     0.298 HD
ENDROOT
TORSDOF 0
ENDMDL
