MODEL 1
REMARK minimizedAffinity -4.4079771
REMARK minimizedRMSD -1
REMARK  0 active torsions:
REMARK  status: ('A' for Active; 'I' for Inactive)
ROOT
ATOM      1  N1  IND d   1       1.254   0.827  -1.093  0.00  0.00    -0.196 N 
ATOM      2  C2  IND d   1       0.102   1.016  -1.805  0.00  0.00     0.054 A 
ATOM      3  C3  IND d   1      -0.958   0.528  -1.123  0.00  0.00    -0.031 A 
ATOM      4  C4  IND d   1      -1.049  -0.529   1.222  0.00  0.00     0.051 A 
ATOM      5  C5  IND d   1      -0.247  -0.947   2.247  0.00  0.00    -0.031 A 
ATOM      6  C6  IND d   1       1.124  -0.789   2.211  0.00  0.00     0.015 A 
ATOM      7  C7  IND d   1       1.745  -0.195   1.150  0.00  0.00    -0.016 A 
ATOM      8  C8  IND d   1       0.934   0.224   0.104  0.00  0.00    -0.047 A 
ATOM      9  C9  IND d   1      -0.453   0.029   0.116  0.00  0.00    -0.096 A 
ATOM     10  HN1 IND d   1       2.044   1.047  -1.349  0.00  0.00     0.298 HD
ENDROOT
TORSDOF 0
ENDMDL
