MODEL 1
REMARK minimizedAffinity -6.55990505
REMARK minimizedRMSD -1
REMARK  0 active torsions:
REMARK  status: ('A' for Active; 'I' for Inactive)
ROOT
ATOM      1  N1  IND d   1       0.121  -0.181  -0.917  0.00  0.00    -0.196 N 
ATOM      2  C2  IND d   1      -0.899   0.576  -0.412  0.00  0.00     0.054 A 
ATOM      3  C3  IND d   1      -0.884   0.544   0.939  0.00  0.00    -0.031 A 
ATOM      4  C4  IND d   1       0.784  -0.602   2.530  0.00  0.00     0.051 A 
ATOM      5  C5  IND d   1       1.863  -1.440   2.537  0.00  0.00    -0.031 A 
ATOM      6  C6  IND d   1       2.431  -1.908   1.370  0.00  0.00     0.015 A 
ATOM      7  C7  IND d   1       1.944  -1.545   0.146  0.00  0.00    -0.016 A 
ATOM      8  C8  IND d   1       0.843  -0.700   0.135  0.00  0.00    -0.047 A 
ATOM      9  C9  IND d   1       0.237  -0.256   1.317  0.00  0.00    -0.096 A 
ATOM     10  HN1 IND d   1       0.284  -0.311  -1.751  0.00  0.00     0.298 HD
ENDROOT
TORSDOF 0
ENDMDL
