MODEL 1
REMARK minimizedAffinity -5.73945045
REMARK minimizedRMSD -1
REMARK  2 active torsions:
REMARK  status: ('A' for Active; 'I' for Inactive)
REMARK    1  A    between atoms: C1_2  and  C2_3 
REMARK    2  A    between atoms: C2_3  and  C3_4 
ROOT
ATOM      1  C3  UNL d   1      -0.572   0.302   0.023  0.00  0.00    -0.075 A 
ATOM      2  C4  UNL d   1      -1.594  -0.100   0.894  0.00  0.00     0.002 A 
ATOM      3  C5  UNL d   1      -1.339  -0.273   2.255  0.00  0.00     0.002 A 
ATOM      4  C6  UNL d   1      -0.058  -0.055   2.759  0.00  0.00    -0.004 A 
ATOM      5  C7  UNL d   1       0.969   0.329   1.900  0.00  0.00     0.002 A 
ATOM      6  C8  UNL d   1       0.715   0.506   0.539  0.00  0.00     0.002 A 
ENDROOT
BRANCH   1   7
ATOM      7  C2  UNL d   1      -0.849   0.519  -1.446  0.00  0.00     0.056 C 
BRANCH   7   8
ATOM      8  C1  UNL d   1       0.409   0.538  -2.321  0.00  0.00     0.007 C 
ATOM      9  C   UNL d   1       0.599  -0.740  -3.127  0.00  0.00     0.009 C 
ENDBRANCH   7   8
ENDBRANCH   1   7
TORSDOF 2
ENDMDL
