MODEL 1
REMARK minimizedAffinity -6.08744621
REMARK minimizedRMSD -1
REMARK  2 active torsions:
REMARK  status: ('A' for Active; 'I' for Inactive)
REMARK    1  A    between atoms: C1_2  and  C2_3 
REMARK    2  A    between atoms: C2_3  and  C3_4 
ROOT
ATOM      1  C3  UNL d   1      -0.409   0.069   0.768  0.00  0.00    -0.075 A 
ATOM      2  C4  UNL d   1      -1.780   0.182   0.496  0.00  0.00     0.002 A 
ATOM      3  C5  UNL d   1      -2.722  -0.038   1.501  0.00  0.00     0.002 A 
ATOM      4  C6  UNL d   1      -2.307  -0.383   2.785  0.00  0.00    -0.004 A 
ATOM      5  C7  UNL d   1      -0.948  -0.514   3.063  0.00  0.00     0.002 A 
ATOM      6  C8  UNL d   1      -0.003  -0.290   2.060  0.00  0.00     0.002 A 
ENDROOT
BRANCH   1   7
ATOM      7  C2  UNL d   1       0.616   0.335  -0.309  0.00  0.00     0.056 C 
BRANCH   7   8
ATOM      8  C1  UNL d   1       0.032   0.402  -1.724  0.00  0.00     0.007 C 
ATOM      9  C   UNL d   1       0.684  -0.578  -2.690  0.00  0.00     0.009 C 
ENDBRANCH   7   8
ENDBRANCH   1   7
TORSDOF 2
ENDMDL
