MODEL 1
REMARK minimizedAffinity -4.39168453
REMARK minimizedRMSD -1
REMARK  2 active torsions:
REMARK  status: ('A' for Active; 'I' for Inactive)
REMARK    1  A    between atoms: C1_2  and  C2_3 
REMARK    2  A    between atoms: C2_3  and  C3_4 
ROOT
ATOM      1  C3  UNL d   1      -0.846   0.521   1.656  0.00  0.00    -0.075 A 
ATOM      2  C4  UNL d   1      -0.482   1.454   0.674  0.00  0.00     0.002 A 
ATOM      3  C5  UNL d   1       0.640   1.237  -0.127  0.00  0.00     0.002 A 
ATOM      4  C6  UNL d   1       1.416   0.093   0.050  0.00  0.00    -0.004 A 
ATOM      5  C7  UNL d   1       1.072  -0.832   1.034  0.00  0.00     0.002 A 
ATOM      6  C8  UNL d   1      -0.052  -0.620   1.834  0.00  0.00     0.002 A 
ENDROOT
BRANCH   1   7
ATOM      7  C2  UNL d   1      -2.076   0.735   2.507  0.00  0.00     0.056 C 
BRANCH   7   8
ATOM      8  C1  UNL d   1      -3.376   0.251   1.856  0.00  0.00     0.007 C 
ATOM      9  C   UNL d   1      -3.970   1.257   0.879  0.00  0.00     0.009 C 
ENDBRANCH   7   8
ENDBRANCH   1   7
TORSDOF 2
ENDMDL
