MODEL 1
REMARK minimizedAffinity -6.51636553
REMARK minimizedRMSD -1
REMARK  2 active torsions:
REMARK  status: ('A' for Active; 'I' for Inactive)
REMARK    1  A    between atoms: C1_2  and  C2_3 
REMARK    2  A    between atoms: C2_3  and  C3_4 
ROOT
ATOM      1  C3  UNL d   1      -1.272   0.269   0.668  0.00  0.00    -0.075 A 
ATOM      2  C4  UNL d   1      -2.423   0.176   1.464  0.00  0.00     0.002 A 
ATOM      3  C5  UNL d   1      -2.322  -0.125   2.822  0.00  0.00     0.002 A 
ATOM      4  C6  UNL d   1      -1.074  -0.345   3.400  0.00  0.00    -0.004 A 
ATOM      5  C7  UNL d   1       0.075  -0.271   2.615  0.00  0.00     0.002 A 
ATOM      6  C8  UNL d   1      -0.022   0.034   1.256  0.00  0.00     0.002 A 
ENDROOT
BRANCH   1   7
ATOM      7  C2  UNL d   1      -1.372   0.623  -0.797  0.00  0.00     0.056 C 
BRANCH   7   8
ATOM      8  C1  UNL d   1      -0.018   0.742  -1.503  0.00  0.00     0.007 C 
ATOM      9  C   UNL d   1       0.269  -0.414  -2.452  0.00  0.00     0.009 C 
ENDBRANCH   7   8
ENDBRANCH   1   7
TORSDOF 2
ENDMDL
