MODEL 1
REMARK minimizedAffinity -4.28872204
REMARK minimizedRMSD -1
REMARK  2 active torsions:
REMARK  status: ('A' for Active; 'I' for Inactive)
REMARK    1  A    between atoms: C1_2  and  C2_3 
REMARK    2  A    between atoms: C2_3  and  C3_4 
ROOT
ATOM      1  C3  UNL d   1       0.104   0.281   0.210  0.00  0.00    -0.075 A 
ATOM      2  C4  UNL d   1      -0.965  -0.127   1.020  0.00  0.00     0.002 A 
ATOM      3  C5  UNL d   1      -0.833  -0.150   2.409  0.00  0.00     0.002 A 
ATOM      4  C6  UNL d   1       0.369   0.225   3.004  0.00  0.00    -0.004 A 
ATOM      5  C7  UNL d   1       1.444   0.617   2.208  0.00  0.00     0.002 A 
ATOM      6  C8  UNL d   1       1.313   0.645   0.818  0.00  0.00     0.002 A 
ENDROOT
BRANCH   1   7
ATOM      7  C2  UNL d   1      -0.042   0.336  -1.292  0.00  0.00     0.056 C 
BRANCH   7   8
ATOM      8  C1  UNL d   1       1.230  -0.045  -2.056  0.00  0.00     0.007 C 
ATOM      9  C   UNL d   1       1.026  -1.206  -3.020  0.00  0.00     0.009 C 
ENDBRANCH   7   8
ENDBRANCH   1   7
TORSDOF 2
ENDMDL
