MODEL 1
REMARK minimizedAffinity -4.6376977
REMARK minimizedRMSD -1
REMARK  2 active torsions:
REMARK  status: ('A' for Active; 'I' for Inactive)
REMARK    1  A    between atoms: C1_2  and  C2_3 
REMARK    2  A    between atoms: C2_3  and  C3_4 
ROOT
ATOM      1  C3  UNL d   1       0.402   0.673   1.168  0.00  0.00    -0.075 A 
ATOM      2  C4  UNL d   1       0.400   0.517   2.562  0.00  0.00     0.002 A 
ATOM      3  C5  UNL d   1      -0.582  -0.251   3.187  0.00  0.00     0.002 A 
ATOM      4  C6  UNL d   1      -1.579  -0.863   2.430  0.00  0.00    -0.004 A 
ATOM      5  C7  UNL d   1      -1.597  -0.701   1.047  0.00  0.00     0.002 A 
ATOM      6  C8  UNL d   1      -0.612   0.064   0.418  0.00  0.00     0.002 A 
ENDROOT
BRANCH   1   7
ATOM      7  C2  UNL d   1       1.480   1.479   0.482  0.00  0.00     0.056 C 
BRANCH   7   8
ATOM      8  C1  UNL d   1       2.846   1.408   1.173  0.00  0.00     0.007 C 
ATOM      9  C   UNL d   1       3.753   2.583   0.830  0.00  0.00     0.009 C 
ENDBRANCH   7   8
ENDBRANCH   1   7
TORSDOF 2
ENDMDL
