MODEL 1
REMARK minimizedAffinity -5.87691355
REMARK minimizedRMSD -1
REMARK  2 active torsions:
REMARK  status: ('A' for Active; 'I' for Inactive)
REMARK    1  A    between atoms: C1_2  and  C2_3 
REMARK    2  A    between atoms: C2_3  and  C3_4 
ROOT
ATOM      1  C3  UNL d   1       0.170   0.382  -0.293  0.00  0.00    -0.075 A 
ATOM      2  C4  UNL d   1      -0.610  -0.383   0.586  0.00  0.00     0.002 A 
ATOM      3  C5  UNL d   1      -0.173  -0.633   1.887  0.00  0.00     0.002 A 
ATOM      4  C6  UNL d   1       1.052  -0.131   2.322  0.00  0.00    -0.004 A 
ATOM      5  C7  UNL d   1       1.843   0.616   1.452  0.00  0.00     0.002 A 
ATOM      6  C8  UNL d   1       1.406   0.871   0.151  0.00  0.00     0.002 A 
ENDROOT
BRANCH   1   7
ATOM      7  C2  UNL d   1      -0.311   0.681  -1.693  0.00  0.00     0.056 C 
BRANCH   7   8
ATOM      8  C1  UNL d   1       0.554   0.061  -2.795  0.00  0.00     0.007 C 
ATOM      9  C   UNL d   1       0.187  -1.384  -3.105  0.00  0.00     0.009 C 
ENDBRANCH   7   8
ENDBRANCH   1   7
TORSDOF 2
ENDMDL
