MODEL 1
REMARK minimizedAffinity -3.68340611
REMARK minimizedRMSD -1
REMARK  2 active torsions:
REMARK  status: ('A' for Active; 'I' for Inactive)
REMARK    1  A    between atoms: C1_2  and  C2_3 
REMARK    2  A    between atoms: C2_3  and  C3_4 
ROOT
ATOM      1  C3  UNL d   1      -0.867  -0.212   0.555  0.00  0.00    -0.075 A 
ATOM      2  C4  UNL d   1      -1.673  -1.130   1.243  0.00  0.00     0.002 A 
ATOM      3  C5  UNL d   1      -1.474  -1.367   2.604  0.00  0.00     0.002 A 
ATOM      4  C6  UNL d   1      -0.463  -0.698   3.290  0.00  0.00    -0.004 A 
ATOM      5  C7  UNL d   1       0.355   0.204   2.613  0.00  0.00     0.002 A 
ATOM      6  C8  UNL d   1       0.156   0.446   1.252  0.00  0.00     0.002 A 
ENDROOT
BRANCH   1   7
ATOM      7  C2  UNL d   1      -1.096   0.071  -0.910  0.00  0.00     0.056 C 
BRANCH   7   8
ATOM      8  C1  UNL d   1       0.175   0.452  -1.678  0.00  0.00     0.007 C 
ATOM      9  C   UNL d   1       0.616  -0.612  -2.675  0.00  0.00     0.009 C 
ENDBRANCH   7   8
ENDBRANCH   1   7
TORSDOF 2
ENDMDL
