MODEL 1
REMARK minimizedAffinity -5.29136038
REMARK minimizedRMSD -1
REMARK  2 active torsions:
REMARK  status: ('A' for Active; 'I' for Inactive)
REMARK    1  A    between atoms: C1_2  and  C2_3 
REMARK    2  A    between atoms: C2_3  and  C3_4 
ROOT
ATOM      1  C3  UNL d   1       0.097   0.610   0.483  0.00  0.00    -0.075 A 
ATOM      2  C4  UNL d   1      -1.208   0.096   0.485  0.00  0.00     0.002 A 
ATOM      3  C5  UNL d   1      -1.781  -0.378   1.666  0.00  0.00     0.002 A 
ATOM      4  C6  UNL d   1      -1.055  -0.353   2.855  0.00  0.00    -0.004 A 
ATOM      5  C7  UNL d   1       0.248   0.140   2.861  0.00  0.00     0.002 A 
ATOM      6  C8  UNL d   1       0.822   0.619   1.682  0.00  0.00     0.002 A 
ENDROOT
BRANCH   1   7
ATOM      7  C2  UNL d   1       0.712   1.152  -0.785  0.00  0.00     0.056 C 
BRANCH   7   8
ATOM      8  C1  UNL d   1      -0.137   0.918  -2.039  0.00  0.00     0.007 C 
ATOM      9  C   UNL d   1       0.618   0.201  -3.150  0.00  0.00     0.009 C 
ENDBRANCH   7   8
ENDBRANCH   1   7
TORSDOF 2
ENDMDL
