MODEL 1
REMARK minimizedAffinity -1.29604459
REMARK minimizedRMSD -1
REMARK  1 active torsions:
REMARK  status: ('A' for Active; 'I' for Inactive)
REMARK    1  A    between atoms: C3_4  and  O_7 
ROOT
ATOM      1  C   UNL d   1       0.536  -0.705  -1.308  0.00  0.00    -0.033 A 
ATOM      2  C1  UNL d   1      -0.824  -0.394  -1.334  0.00  0.00     0.039 A 
ATOM      3  C2  UNL d   1      -1.484  -0.041  -0.155  0.00  0.00    -0.080 A 
ATOM      4  C3  UNL d   1      -0.772  -0.003   1.041  0.00  0.00     0.150 A 
ATOM      5  C4  UNL d   1       0.584  -0.309   1.073  0.00  0.00    -0.007 A 
ATOM      6  C5  UNL d   1       1.241  -0.662  -0.105  0.00  0.00     0.039 A 
ENDROOT
BRANCH   4   7
ATOM      7  O   UNL d   1      -1.374   0.330   2.218  0.00  0.00    -0.526 OA
ATOM      8  H5  UNL d   1      -2.318   0.488   2.048  0.00  0.00     0.418 HD
ENDBRANCH   4   7
TORSDOF 1
ENDMDL
