MODEL 1
REMARK minimizedAffinity -3.12893319
REMARK minimizedRMSD -1
REMARK  1 active torsions:
REMARK  status: ('A' for Active; 'I' for Inactive)
REMARK    1  A    between atoms: C3_4  and  O_7 
ROOT
ATOM      1  C   UNL d   1       0.741  -0.757  -0.535  0.00  0.00    -0.033 A 
ATOM      2  C1  UNL d   1      -0.478  -0.087  -0.661  0.00  0.00     0.039 A 
ATOM      3  C2  UNL d   1      -0.831   0.904   0.256  0.00  0.00    -0.080 A 
ATOM      4  C3  UNL d   1       0.043   1.217   1.294  0.00  0.00     0.150 A 
ATOM      5  C4  UNL d   1       1.261   0.557   1.424  0.00  0.00    -0.007 A 
ATOM      6  C5  UNL d   1       1.611  -0.434   0.507  0.00  0.00     0.039 A 
ENDROOT
BRANCH   4   7
ATOM      7  O   UNL d   1      -0.260   2.174   2.217  0.00  0.00    -0.526 OA
ATOM      8  H5  UNL d   1      -1.144   2.524   2.018  0.00  0.00     0.418 HD
ENDBRANCH   4   7
TORSDOF 1
ENDMDL
