MODEL 1
REMARK minimizedAffinity -2.76479602
REMARK minimizedRMSD -1
REMARK  1 active torsions:
REMARK  status: ('A' for Active; 'I' for Inactive)
REMARK    1  A    between atoms: C3_4  and  O_7 
ROOT
ATOM      1  C   UNL d   1       0.812  -1.058  -0.875  0.00  0.00    -0.033 A 
ATOM      2  C1  UNL d   1       0.121   0.145  -0.720  0.00  0.00     0.039 A 
ATOM      3  C2  UNL d   1       0.057   1.056  -1.777  0.00  0.00    -0.080 A 
ATOM      4  C3  UNL d   1       0.686   0.751  -2.981  0.00  0.00     0.150 A 
ATOM      5  C4  UNL d   1       1.372  -0.448  -3.143  0.00  0.00    -0.007 A 
ATOM      6  C5  UNL d   1       1.436  -1.355  -2.087  0.00  0.00     0.039 A 
ENDROOT
BRANCH   4   7
ATOM      7  O   UNL d   1       0.654   1.611  -4.038  0.00  0.00    -0.526 OA
ATOM      8  H5  UNL d   1       0.170   2.410  -3.772  0.00  0.00     0.418 HD
ENDBRANCH   4   7
TORSDOF 1
ENDMDL
