MODEL 1
REMARK minimizedAffinity -3.46134448
REMARK minimizedRMSD -1
REMARK  1 active torsions:
REMARK  status: ('A' for Active; 'I' for Inactive)
REMARK    1  A    between atoms: C3_4  and  O_7 
ROOT
ATOM      1  C   UNL d   1      -0.961  -0.212  -0.361  0.00  0.00    -0.033 A 
ATOM      2  C1  UNL d   1      -2.170   0.368   0.028  0.00  0.00     0.039 A 
ATOM      3  C2  UNL d   1      -2.217   1.204   1.145  0.00  0.00    -0.080 A 
ATOM      4  C3  UNL d   1      -1.050   1.452   1.863  0.00  0.00     0.150 A 
ATOM      5  C4  UNL d   1       0.158   0.881   1.478  0.00  0.00    -0.007 A 
ATOM      6  C5  UNL d   1       0.203   0.045   0.363  0.00  0.00     0.039 A 
ENDROOT
BRANCH   4   7
ATOM      7  O   UNL d   1      -1.048   2.258   2.963  0.00  0.00    -0.526 OA
ATOM      8  H5  UNL d   1      -1.957   2.558   3.126  0.00  0.00     0.418 HD
ENDBRANCH   4   7
TORSDOF 1
ENDMDL
