MODEL 1
REMARK minimizedAffinity -3.34922814
REMARK minimizedRMSD -1
REMARK  1 active torsions:
REMARK  status: ('A' for Active; 'I' for Inactive)
REMARK    1  A    between atoms: C3_4  and  O_7 
ROOT
ATOM      1  C   UNL d   1       0.296  -0.275  -0.111  0.00  0.00    -0.033 A 
ATOM      2  C1  UNL d   1      -1.074  -0.030  -0.007  0.00  0.00     0.039 A 
ATOM      3  C2  UNL d   1      -1.590   0.582   1.137  0.00  0.00    -0.080 A 
ATOM      4  C3  UNL d   1      -0.727   0.945   2.167  0.00  0.00     0.150 A 
ATOM      5  C4  UNL d   1       0.640   0.708   2.067  0.00  0.00    -0.007 A 
ATOM      6  C5  UNL d   1       1.154   0.095   0.925  0.00  0.00     0.039 A 
ENDROOT
BRANCH   4   7
ATOM      7  O   UNL d   1      -1.184   1.541   3.304  0.00  0.00    -0.526 OA
ATOM      8  H5  UNL d   1      -2.151   1.616   3.244  0.00  0.00     0.418 HD
ENDBRANCH   4   7
TORSDOF 1
ENDMDL
