MODEL 1
REMARK minimizedAffinity -5.33462143
REMARK minimizedRMSD -1
REMARK  1 active torsions:
REMARK  status: ('A' for Active; 'I' for Inactive)
REMARK    1  A    between atoms: C3_4  and  O_7 
ROOT
ATOM      1  C   UNL d   1      -0.115  -0.633  -0.288  0.00  0.00    -0.033 A 
ATOM      2  C1  UNL d   1      -1.442  -0.279  -0.040  0.00  0.00     0.039 A 
ATOM      3  C2  UNL d   1      -1.753   0.575   1.019  0.00  0.00    -0.080 A 
ATOM      4  C3  UNL d   1      -0.729   1.070   1.822  0.00  0.00     0.150 A 
ATOM      5  C4  UNL d   1       0.597   0.725   1.578  0.00  0.00    -0.007 A 
ATOM      6  C5  UNL d   1       0.905  -0.129   0.521  0.00  0.00     0.039 A 
ENDROOT
BRANCH   4   7
ATOM      7  O   UNL d   1      -0.983   1.904   2.870  0.00  0.00    -0.526 OA
ATOM      8  H5  UNL d   1      -1.945   2.031   2.935  0.00  0.00     0.418 HD
ENDBRANCH   4   7
TORSDOF 1
ENDMDL
