MODEL 1
REMARK minimizedAffinity -5.59465837
REMARK minimizedRMSD -1
REMARK  1 active torsions:
REMARK  status: ('A' for Active; 'I' for Inactive)
REMARK    1  A    between atoms: C3_4  and  O_7 
ROOT
ATOM      1  C   UNL d   1       1.513  -0.671   2.032  0.00  0.00    -0.033 A 
ATOM      2  C1  UNL d   1       1.300  -0.143   3.307  0.00  0.00     0.039 A 
ATOM      3  C2  UNL d   1       0.401   0.910   3.487  0.00  0.00    -0.080 A 
ATOM      4  C3  UNL d   1      -0.279   1.424   2.386  0.00  0.00     0.150 A 
ATOM      5  C4  UNL d   1      -0.074   0.900   1.114  0.00  0.00    -0.007 A 
ATOM      6  C5  UNL d   1       0.825  -0.150   0.936  0.00  0.00     0.039 A 
ENDROOT
BRANCH   4   7
ATOM      7  O   UNL d   1      -1.163   2.455   2.511  0.00  0.00    -0.526 OA
ATOM      8  H5  UNL d   1      -1.180   2.733   3.442  0.00  0.00     0.418 HD
ENDBRANCH   4   7
TORSDOF 1
ENDMDL
