MODEL 1
REMARK minimizedAffinity -4.73259878
REMARK minimizedRMSD -1
REMARK  1 active torsions:
REMARK  status: ('A' for Active; 'I' for Inactive)
REMARK    1  A    between atoms: C3_4  and  O_7 
ROOT
ATOM      1  C   UNL d   1      -0.645   0.959   3.229  0.00  0.00    -0.033 A 
ATOM      2  C1  UNL d   1      -1.479   0.802   2.121  0.00  0.00     0.039 A 
ATOM      3  C2  UNL d   1      -0.945   0.410   0.892  0.00  0.00    -0.080 A 
ATOM      4  C3  UNL d   1       0.424   0.178   0.785  0.00  0.00     0.150 A 
ATOM      5  C4  UNL d   1       1.261   0.329   1.885  0.00  0.00    -0.007 A 
ATOM      6  C5  UNL d   1       0.725   0.722   3.111  0.00  0.00     0.039 A 
ENDROOT
BRANCH   4   7
ATOM      7  O   UNL d   1       0.992  -0.201  -0.395  0.00  0.00    -0.526 OA
ATOM      8  H5  UNL d   1       0.297  -0.238  -1.074  0.00  0.00     0.418 HD
ENDBRANCH   4   7
TORSDOF 1
ENDMDL
