MODEL 1
REMARK minimizedAffinity -3.55153465
REMARK minimizedRMSD -1
REMARK  1 active torsions:
REMARK  status: ('A' for Active; 'I' for Inactive)
REMARK    1  A    between atoms: C3_4  and  O_7 
ROOT
ATOM      1  C   UNL d   1      -1.123   1.019   2.438  0.00  0.00    -0.033 A 
ATOM      2  C1  UNL d   1      -2.083   0.470   1.586  0.00  0.00     0.039 A 
ATOM      3  C2  UNL d   1      -1.754   0.167   0.263  0.00  0.00    -0.080 A 
ATOM      4  C3  UNL d   1      -0.463   0.417  -0.194  0.00  0.00     0.150 A 
ATOM      5  C4  UNL d   1       0.499   0.960   0.650  0.00  0.00    -0.007 A 
ATOM      6  C5  UNL d   1       0.169   1.263   1.970  0.00  0.00     0.039 A 
ENDROOT
BRANCH   4   7
ATOM      7  O   UNL d   1      -0.097   0.142  -1.478  0.00  0.00    -0.526 OA
ATOM      8  H5  UNL d   1      -0.872  -0.202  -1.953  0.00  0.00     0.418 HD
ENDBRANCH   4   7
TORSDOF 1
ENDMDL
