MODEL 1
REMARK minimizedAffinity -4.38783312
REMARK minimizedRMSD -1
REMARK  2 active torsions:
REMARK  status: ('A' for Active; 'I' for Inactive)
REMARK    1  A    between atoms: C2'_3  and  C1'_4 
REMARK    2  A    between atoms: C1'_4  and  C1_5 
ROOT
ATOM      1  C1  I4B d   1      -0.407  -0.825   0.269  0.00  0.00    -0.075 A 
ATOM      2  C2  I4B d   1      -1.459  -0.276   0.959  0.00  0.00     0.003 A 
ATOM      3  C3  I4B d   1      -2.206  -1.065   1.867  0.00  0.00     0.002 A 
ATOM      4  C4  I4B d   1      -1.900  -2.403   2.015  0.00  0.00    -0.004 A 
ATOM      5  C5  I4B d   1      -0.819  -2.952   1.332  0.00  0.00     0.002 A 
ATOM      6  C6  I4B d   1      -0.059  -2.155   0.463  0.00  0.00     0.003 A 
ENDROOT
BRANCH   1   7
ATOM      7  C1' I4B d   1       0.340   0.030  -0.706  0.00  0.00     0.060 C 
BRANCH   7   8
ATOM      8  C2' I4B d   1       0.243   1.467  -0.237  0.00  0.00    -0.013 C 
ATOM      9  C4' I4B d   1       1.451   1.861   0.571  0.00  0.00     0.013 C 
ATOM     10  C3' I4B d   1       0.093   2.340  -1.448  0.00  0.00     0.013 C 
ENDBRANCH   7   8
ENDBRANCH   1   7
TORSDOF 2
ENDMDL
