MODEL 1
REMARK minimizedAffinity -4.94327927
REMARK minimizedRMSD -1
REMARK  2 active torsions:
REMARK  status: ('A' for Active; 'I' for Inactive)
REMARK    1  A    between atoms: C2'_3  and  C1'_4 
REMARK    2  A    between atoms: C1'_4  and  C1_5 
ROOT
ATOM      1  C1  I4B d   1      -1.845  -0.193   0.980  0.00  0.00    -0.075 A 
ATOM      2  C2  I4B d   1      -2.045  -0.767   2.211  0.00  0.00     0.003 A 
ATOM      3  C3  I4B d   1      -1.638  -2.101   2.451  0.00  0.00     0.002 A 
ATOM      4  C4  I4B d   1      -1.084  -2.838   1.424  0.00  0.00    -0.004 A 
ATOM      5  C5  I4B d   1      -0.861  -2.248   0.183  0.00  0.00     0.002 A 
ATOM      6  C6  I4B d   1      -1.232  -0.913  -0.037  0.00  0.00     0.003 A 
ENDROOT
BRANCH   1   7
ATOM      7  C1' I4B d   1      -2.317   1.207   0.752  0.00  0.00     0.060 C 
BRANCH   7   8
ATOM      8  C2' I4B d   1      -3.824   1.173   0.599  0.00  0.00    -0.013 C 
ATOM      9  C4' I4B d   1      -4.512   1.525   1.891  0.00  0.00     0.013 C 
ATOM     10  C3' I4B d   1      -4.201   2.129  -0.493  0.00  0.00     0.013 C 
ENDBRANCH   7   8
ENDBRANCH   1   7
TORSDOF 2
ENDMDL
