MODEL 1
REMARK minimizedAffinity -1.59229755
REMARK minimizedRMSD -1
REMARK  2 active torsions:
REMARK  status: ('A' for Active; 'I' for Inactive)
REMARK    1  A    between atoms: C2'_3  and  C1'_4 
REMARK    2  A    between atoms: C1'_4  and  C1_5 
ROOT
ATOM      1  C1  I4B d   1      -2.946   0.190   1.980  0.00  0.00    -0.075 A 
ATOM      2  C2  I4B d   1      -2.908   0.759   0.732  0.00  0.00     0.003 A 
ATOM      3  C3  I4B d   1      -3.867   1.734   0.364  0.00  0.00     0.002 A 
ATOM      4  C4  I4B d   1      -4.869   2.071   1.251  0.00  0.00    -0.004 A 
ATOM      5  C5  I4B d   1      -4.893   1.509   2.524  0.00  0.00     0.002 A 
ATOM      6  C6  I4B d   1      -3.918   0.572   2.896  0.00  0.00     0.003 A 
ENDROOT
BRANCH   1   7
ATOM      7  C1' I4B d   1      -1.938  -0.861   2.324  0.00  0.00     0.060 C 
BRANCH   7   8
ATOM      8  C2' I4B d   1      -1.146  -1.175   1.072  0.00  0.00    -0.013 C 
ATOM      9  C4' I4B d   1       0.322  -0.907   1.274  0.00  0.00     0.013 C 
ATOM     10  C3' I4B d   1      -1.390  -2.611   0.717  0.00  0.00     0.013 C 
ENDBRANCH   7   8
ENDBRANCH   1   7
TORSDOF 2
ENDMDL
