MODEL 1
REMARK minimizedAffinity -3.89194536
REMARK minimizedRMSD -1
REMARK  2 active torsions:
REMARK  status: ('A' for Active; 'I' for Inactive)
REMARK    1  A    between atoms: C2'_3  and  C1'_4 
REMARK    2  A    between atoms: C1'_4  and  C1_5 
ROOT
ATOM      1  C1  I4B d   1       0.734   2.661   0.404  0.00  0.00    -0.075 A 
ATOM      2  C2  I4B d   1       0.525   3.066   1.699  0.00  0.00     0.003 A 
ATOM      3  C3  I4B d   1       1.544   3.750   2.405  0.00  0.00     0.002 A 
ATOM      4  C4  I4B d   1       2.766   3.960   1.800  0.00  0.00    -0.004 A 
ATOM      5  C5  I4B d   1       2.969   3.568   0.479  0.00  0.00     0.002 A 
ATOM      6  C6  I4B d   1       1.942   2.925  -0.227  0.00  0.00     0.003 A 
ENDROOT
BRANCH   1   7
ATOM      7  C1' I4B d   1      -0.353   1.913  -0.301  0.00  0.00     0.060 C 
BRANCH   7   8
ATOM      8  C2' I4B d   1       0.002   0.440  -0.276  0.00  0.00    -0.013 C 
ATOM      9  C4' I4B d   1      -0.917  -0.327   0.637  0.00  0.00     0.013 C 
ATOM     10  C3' I4B d   1      -0.074  -0.078  -1.681  0.00  0.00     0.013 C 
ENDBRANCH   7   8
ENDBRANCH   1   7
TORSDOF 2
ENDMDL
