MODEL 1
REMARK minimizedAffinity -4.14810991
REMARK minimizedRMSD -1
REMARK  2 active torsions:
REMARK  status: ('A' for Active; 'I' for Inactive)
REMARK    1  A    between atoms: C2'_3  and  C1'_4 
REMARK    2  A    between atoms: C1'_4  and  C1_5 
ROOT
ATOM      1  C1  I4B d   1       0.112   0.035  -0.057  0.00  0.00    -0.075 A 
ATOM      2  C2  I4B d   1       0.570  -1.002  -0.831  0.00  0.00     0.003 A 
ATOM      3  C3  I4B d   1       0.258  -2.340  -0.486  0.00  0.00     0.002 A 
ATOM      4  C4  I4B d   1      -0.467  -2.596   0.659  0.00  0.00    -0.004 A 
ATOM      5  C5  I4B d   1      -0.950  -1.542   1.430  0.00  0.00     0.002 A 
ATOM      6  C6  I4B d   1      -0.670  -0.218   1.063  0.00  0.00     0.003 A 
ENDROOT
BRANCH   1   7
ATOM      7  C1' I4B d   1       0.487   1.434  -0.431  0.00  0.00     0.060 C 
BRANCH   7   8
ATOM      8  C2' I4B d   1       1.578   1.893   0.514  0.00  0.00    -0.013 C 
ATOM      9  C4' I4B d   1       2.943   1.529  -0.010  0.00  0.00     0.013 C 
ATOM     10  C3' I4B d   1       1.444   3.376   0.692  0.00  0.00     0.013 C 
ENDBRANCH   7   8
ENDBRANCH   1   7
TORSDOF 2
ENDMDL
