MODEL 1
REMARK minimizedAffinity -5.24505091
REMARK minimizedRMSD -1
REMARK  2 active torsions:
REMARK  status: ('A' for Active; 'I' for Inactive)
REMARK    1  A    between atoms: C2'_3  and  C1'_4 
REMARK    2  A    between atoms: C1'_4  and  C1_5 
ROOT
ATOM      1  C1  I4B d   1       0.367   1.512  -0.085  0.00  0.00    -0.075 A 
ATOM      2  C2  I4B d   1       1.308   1.640   0.907  0.00  0.00     0.003 A 
ATOM      3  C3  I4B d   1       2.285   2.661   0.836  0.00  0.00     0.002 A 
ATOM      4  C4  I4B d   1       2.317   3.496  -0.263  0.00  0.00    -0.004 A 
ATOM      5  C5  I4B d   1       1.350   3.380  -1.256  0.00  0.00     0.002 A 
ATOM      6  C6  I4B d   1       0.361   2.390  -1.161  0.00  0.00     0.003 A 
ENDROOT
BRANCH   1   7
ATOM      7  C1' I4B d   1      -0.630   0.402   0.006  0.00  0.00     0.060 C 
BRANCH   7   8
ATOM      8  C2' I4B d   1       0.121  -0.910  -0.090  0.00  0.00    -0.013 C 
ATOM      9  C4' I4B d   1      -0.640  -2.025   0.578  0.00  0.00     0.013 C 
ATOM     10  C3' I4B d   1       0.352  -1.206  -1.542  0.00  0.00     0.013 C 
ENDBRANCH   7   8
ENDBRANCH   1   7
TORSDOF 2
ENDMDL
