MODEL 1
REMARK minimizedAffinity -4.98962593
REMARK minimizedRMSD -1
REMARK  2 active torsions:
REMARK  status: ('A' for Active; 'I' for Inactive)
REMARK    1  A    between atoms: C2'_3  and  C1'_4 
REMARK    2  A    between atoms: C1'_4  and  C1_5 
ROOT
ATOM      1  C1  I4B d   1      -0.339  -0.722   0.582  0.00  0.00    -0.075 A 
ATOM      2  C2  I4B d   1      -1.395  -1.387   1.153  0.00  0.00     0.003 A 
ATOM      3  C3  I4B d   1      -1.419  -2.803   1.172  0.00  0.00     0.002 A 
ATOM      4  C4  I4B d   1      -0.398  -3.508   0.568  0.00  0.00    -0.004 A 
ATOM      5  C5  I4B d   1       0.683  -2.832   0.010  0.00  0.00     0.002 A 
ATOM      6  C6  I4B d   1       0.719  -1.430   0.028  0.00  0.00     0.003 A 
ENDROOT
BRANCH   1   7
ATOM      7  C1' I4B d   1      -0.361   0.774   0.550  0.00  0.00     0.060 C 
BRANCH   7   8
ATOM      8  C2' I4B d   1       0.676   1.235  -0.454  0.00  0.00    -0.013 C 
ATOM      9  C4' I4B d   1       0.081   1.370  -1.830  0.00  0.00     0.013 C 
ATOM     10  C3' I4B d   1       1.235   2.541   0.026  0.00  0.00     0.013 C 
ENDBRANCH   7   8
ENDBRANCH   1   7
TORSDOF 2
ENDMDL
