MODEL 1
REMARK minimizedAffinity -5.59730148
REMARK minimizedRMSD -1
REMARK  2 active torsions:
REMARK  status: ('A' for Active; 'I' for Inactive)
REMARK    1  A    between atoms: C2'_3  and  C1'_4 
REMARK    2  A    between atoms: C1'_4  and  C1_5 
ROOT
ATOM      1  C1  I4B d   1      -0.224  -0.483   0.549  0.00  0.00    -0.075 A 
ATOM      2  C2  I4B d   1      -1.509  -0.900   0.794  0.00  0.00     0.003 A 
ATOM      3  C3  I4B d   1      -1.800  -2.280   0.911  0.00  0.00     0.002 A 
ATOM      4  C4  I4B d   1      -0.793  -3.205   0.726  0.00  0.00    -0.004 A 
ATOM      5  C5  I4B d   1       0.513  -2.780   0.500  0.00  0.00     0.002 A 
ATOM      6  C6  I4B d   1       0.802  -1.410   0.423  0.00  0.00     0.003 A 
ENDROOT
BRANCH   1   7
ATOM      7  C1' I4B d   1       0.042   0.982   0.399  0.00  0.00     0.060 C 
BRANCH   7   8
ATOM      8  C2' I4B d   1       1.131   1.361   1.382  0.00  0.00    -0.013 C 
ATOM      9  C4' I4B d   1       1.765   2.676   1.012  0.00  0.00     0.013 C 
ATOM     10  C3' I4B d   1       0.519   1.420   2.750  0.00  0.00     0.013 C 
ENDBRANCH   7   8
ENDBRANCH   1   7
TORSDOF 2
ENDMDL
