MODEL 1
REMARK minimizedAffinity -2.36401987
REMARK minimizedRMSD -1
REMARK  2 active torsions:
REMARK  status: ('A' for Active; 'I' for Inactive)
REMARK    1  A    between atoms: C2'_3  and  C1'_4 
REMARK    2  A    between atoms: C1'_4  and  C1_5 
ROOT
ATOM      1  C1  I4B d   1       0.048  -0.090   0.578  0.00  0.00    -0.075 A 
ATOM      2  C2  I4B d   1      -0.240  -0.203   1.915  0.00  0.00     0.003 A 
ATOM      3  C3  I4B d   1       0.123   0.830   2.812  0.00  0.00     0.002 A 
ATOM      4  C4  I4B d   1       0.814   1.928   2.340  0.00  0.00    -0.004 A 
ATOM      5  C5  I4B d   1       1.085   2.051   0.981  0.00  0.00     0.002 A 
ATOM      6  C6  I4B d   1       0.689   1.042   0.091  0.00  0.00     0.003 A 
ENDROOT
BRANCH   1   7
ATOM      7  C1' I4B d   1      -0.321  -1.215  -0.337  0.00  0.00     0.060 C 
BRANCH   7   8
ATOM      8  C2' I4B d   1      -0.675  -2.415   0.519  0.00  0.00    -0.013 C 
ATOM      9  C4' I4B d   1      -2.159  -2.675   0.506  0.00  0.00     0.013 C 
ATOM     10  C3' I4B d   1       0.086  -3.597  -0.004  0.00  0.00     0.013 C 
ENDBRANCH   7   8
ENDBRANCH   1   7
TORSDOF 2
ENDMDL
