MODEL 1
REMARK minimizedAffinity -1.35993934
REMARK minimizedRMSD -1
REMARK  2 active torsions:
REMARK  status: ('A' for Active; 'I' for Inactive)
REMARK    1  A    between atoms: C2'_3  and  C1'_4 
REMARK    2  A    between atoms: C1'_4  and  C1_5 
ROOT
ATOM      1  C1  I4B d   1       0.017   0.644  -0.225  0.00  0.00    -0.075 A 
ATOM      2  C2  I4B d   1      -0.645   0.389   0.950  0.00  0.00     0.003 A 
ATOM      3  C3  I4B d   1      -0.975  -0.940   1.308  0.00  0.00     0.002 A 
ATOM      4  C4  I4B d   1      -0.672  -1.972   0.445  0.00  0.00    -0.004 A 
ATOM      5  C5  I4B d   1       0.020  -1.715  -0.736  0.00  0.00     0.002 A 
ATOM      6  C6  I4B d   1       0.378  -0.400  -1.067  0.00  0.00     0.003 A 
ENDROOT
BRANCH   1   7
ATOM      7  C1' I4B d   1       0.322   2.062  -0.589  0.00  0.00     0.060 C 
BRANCH   7   8
ATOM      8  C2' I4B d   1       1.596   2.464   0.126  0.00  0.00    -0.013 C 
ATOM      9  C4' I4B d   1       2.560   3.136  -0.816  0.00  0.00     0.013 C 
ATOM     10  C3' I4B d   1       1.225   3.372   1.260  0.00  0.00     0.013 C 
ENDBRANCH   7   8
ENDBRANCH   1   7
TORSDOF 2
ENDMDL
