MODEL 1
REMARK minimizedAffinity 11.203125
REMARK minimizedRMSD -1
REMARK  2 active torsions:
REMARK  status: ('A' for Active; 'I' for Inactive)
REMARK    1  A    between atoms: C2'_3  and  C1'_4 
REMARK    2  A    between atoms: C1'_4  and  C1_5 
ROOT
ATOM      1  C1  I4B d   1       0.335   2.098   0.865  0.00  0.00    -0.075 A 
ATOM      2  C2  I4B d   1      -0.599   1.153   1.208  0.00  0.00     0.003 A 
ATOM      3  C3  I4B d   1      -1.208   0.356   0.209  0.00  0.00     0.002 A 
ATOM      4  C4  I4B d   1      -0.892   0.570  -1.117  0.00  0.00    -0.004 A 
ATOM      5  C5  I4B d   1       0.073   1.512  -1.462  0.00  0.00     0.002 A 
ATOM      6  C6  I4B d   1       0.699   2.273  -0.464  0.00  0.00     0.003 A 
ENDROOT
BRANCH   1   7
ATOM      7  C1' I4B d   1       0.934   2.945   1.942  0.00  0.00     0.060 C 
BRANCH   7   8
ATOM      8  C2' I4B d   1       1.076   4.354   1.404  0.00  0.00    -0.013 C 
ATOM      9  C4' I4B d   1       0.621   5.373   2.415  0.00  0.00     0.013 C 
ATOM     10  C3' I4B d   1       2.513   4.565   1.032  0.00  0.00     0.013 C 
ENDBRANCH   7   8
ENDBRANCH   1   7
TORSDOF 2
ENDMDL
