MODEL 1
REMARK minimizedAffinity 1.41875935
REMARK minimizedRMSD -1
REMARK  0 active torsions:
REMARK  status: ('A' for Active; 'I' for Inactive)
ROOT
ATOM      1  C2' OXE d   1       0.992   4.867  -1.533  0.00  0.00     0.078 C 
ATOM      2  C1' OXE d   1      -1.206   3.719  -0.218  0.00  0.00     0.078 C 
ATOM      3  C1  OXE d   1       0.142   3.626   0.452  0.00  0.00    -0.078 A 
ATOM      4  C2  OXE d   1       1.220   4.149  -0.220  0.00  0.00    -0.078 A 
ATOM      5  C3  OXE d   1       2.477   4.138   0.377  0.00  0.00     0.003 A 
ATOM      6  C4  OXE d   1       2.681   3.464   1.587  0.00  0.00    -0.002 A 
ATOM      7  C5  OXE d   1       1.603   2.889   2.270  0.00  0.00    -0.002 A 
ATOM      8  C6  OXE d   1       0.323   2.999   1.738  0.00  0.00     0.003 A 
ENDROOT
TORSDOF 0
ENDMDL
