MODEL 1
REMARK minimizedAffinity 13.3946238
REMARK minimizedRMSD -1
REMARK  0 active torsions:
REMARK  status: ('A' for Active; 'I' for Inactive)
ROOT
ATOM      1  C2' OXE d   1       5.185  -5.617  -0.680  0.00  0.00     0.078 C 
ATOM      2  C1' OXE d   1       4.443  -2.933  -1.035  0.00  0.00     0.078 C 
ATOM      3  C1  OXE d   1       4.471  -3.822  -2.253  0.00  0.00    -0.078 A 
ATOM      4  C2  OXE d   1       4.880  -5.122  -2.077  0.00  0.00    -0.078 A 
ATOM      5  C3  OXE d   1       4.871  -5.999  -3.158  0.00  0.00     0.003 A 
ATOM      6  C4  OXE d   1       4.597  -5.531  -4.448  0.00  0.00    -0.002 A 
ATOM      7  C5  OXE d   1       4.216  -4.201  -4.655  0.00  0.00    -0.002 A 
ATOM      8  C6  OXE d   1       4.107  -3.346  -3.565  0.00  0.00     0.003 A 
ENDROOT
TORSDOF 0
ENDMDL
