MODEL 1
REMARK minimizedAffinity 5.20994282
REMARK minimizedRMSD -1
REMARK  0 active torsions:
REMARK  status: ('A' for Active; 'I' for Inactive)
ROOT
ATOM      1  C2' OXE d   1      -0.091   2.790   2.522  0.00  0.00     0.078 C 
ATOM      2  C1' OXE d   1      -1.700   4.992   1.859  0.00  0.00     0.078 C 
ATOM      3  C1  OXE d   1      -1.129   4.172   0.729  0.00  0.00    -0.078 A 
ATOM      4  C2  OXE d   1      -0.305   3.125   1.062  0.00  0.00    -0.078 A 
ATOM      5  C3  OXE d   1       0.204   2.303   0.060  0.00  0.00     0.003 A 
ATOM      6  C4  OXE d   1       0.009   2.625  -1.288  0.00  0.00    -0.002 A 
ATOM      7  C5  OXE d   1      -0.795   3.712  -1.650  0.00  0.00    -0.002 A 
ATOM      8  C6  OXE d   1      -1.405   4.468  -0.655  0.00  0.00     0.003 A 
ENDROOT
TORSDOF 0
ENDMDL
