MODEL 1
REMARK minimizedAffinity -2.14681387
REMARK minimizedRMSD -1
REMARK  0 active torsions:
REMARK  status: ('A' for Active; 'I' for Inactive)
ROOT
ATOM      1  C2' OXE d   1      -5.998   4.002  -5.963  0.00  0.00     0.078 C 
ATOM      2  C1' OXE d   1      -5.996   1.389  -4.938  0.00  0.00     0.078 C 
ATOM      3  C1  OXE d   1      -5.985   2.531  -3.953  0.00  0.00    -0.078 A 
ATOM      4  C2  OXE d   1      -5.939   3.806  -4.463  0.00  0.00    -0.078 A 
ATOM      5  C3  OXE d   1      -5.982   4.896  -3.599  0.00  0.00     0.003 A 
ATOM      6  C4  OXE d   1      -5.917   4.706  -2.214  0.00  0.00    -0.002 A 
ATOM      7  C5  OXE d   1      -5.923   3.416  -1.673  0.00  0.00    -0.002 A 
ATOM      8  C6  OXE d   1      -6.000   2.320  -2.526  0.00  0.00     0.003 A 
ENDROOT
TORSDOF 0
ENDMDL
