MODEL 1
REMARK minimizedAffinity 2.69321465
REMARK minimizedRMSD -1
REMARK  0 active torsions:
REMARK  status: ('A' for Active; 'I' for Inactive)
ROOT
ATOM      1  C2' OXE d   1      -1.220  -3.669  -2.357  0.00  0.00     0.078 C 
ATOM      2  C1' OXE d   1       0.807  -5.188  -1.148  0.00  0.00     0.078 C 
ATOM      3  C1  OXE d   1       0.784  -3.704  -0.879  0.00  0.00    -0.078 A 
ATOM      4  C2  OXE d   1      -0.183  -2.962  -1.512  0.00  0.00    -0.078 A 
ATOM      5  C3  OXE d   1      -0.283  -1.597  -1.256  0.00  0.00     0.003 A 
ATOM      6  C4  OXE d   1       0.686  -0.949  -0.481  0.00  0.00    -0.002 A 
ATOM      7  C5  OXE d   1       1.704  -1.680   0.141  0.00  0.00    -0.002 A 
ATOM      8  C6  OXE d   1       1.741  -3.062  -0.013  0.00  0.00     0.003 A 
ENDROOT
TORSDOF 0
ENDMDL
