MODEL 1
REMARK minimizedAffinity 14.0015717
REMARK minimizedRMSD -1
REMARK  0 active torsions:
REMARK  status: ('A' for Active; 'I' for Inactive)
ROOT
ATOM      1  C2' OXE d   1      -5.979   0.866  -4.463  0.00  0.00     0.078 C 
ATOM      2  C1' OXE d   1      -5.701   3.659  -4.517  0.00  0.00     0.078 C 
ATOM      3  C1  OXE d   1      -5.783   2.986  -3.169  0.00  0.00    -0.078 A 
ATOM      4  C2  OXE d   1      -5.966   1.625  -3.153  0.00  0.00    -0.078 A 
ATOM      5  C3  OXE d   1      -5.992   0.947  -1.937  0.00  0.00     0.003 A 
ATOM      6  C4  OXE d   1      -5.989   1.657  -0.730  0.00  0.00    -0.002 A 
ATOM      7  C5  OXE d   1      -5.843   3.048  -0.725  0.00  0.00    -0.002 A 
ATOM      8  C6  OXE d   1      -5.696   3.723  -1.932  0.00  0.00     0.003 A 
ENDROOT
TORSDOF 0
ENDMDL
