MODEL 1
REMARK minimizedAffinity 22.6109753
REMARK minimizedRMSD -1
REMARK  0 active torsions:
REMARK  status: ('A' for Active; 'I' for Inactive)
ROOT
ATOM      1  C2' OXE d   1       4.879  -5.221  -0.376  0.00  0.00     0.078 C 
ATOM      2  C1' OXE d   1       5.670  -2.759  -1.467  0.00  0.00     0.078 C 
ATOM      3  C1  OXE d   1       5.124  -3.802  -2.409  0.00  0.00    -0.078 A 
ATOM      4  C2  OXE d   1       4.782  -5.021  -1.873  0.00  0.00    -0.078 A 
ATOM      5  C3  OXE d   1       4.222  -6.000  -2.689  0.00  0.00     0.003 A 
ATOM      6  C4  OXE d   1       4.146  -5.810  -4.074  0.00  0.00    -0.002 A 
ATOM      7  C5  OXE d   1       4.525  -4.591  -4.645  0.00  0.00    -0.002 A 
ATOM      8  C6  OXE d   1       4.975  -3.564  -3.824  0.00  0.00     0.003 A 
ENDROOT
TORSDOF 0
ENDMDL
