MODEL 1
REMARK minimizedAffinity 10.7653399
REMARK minimizedRMSD -1
REMARK  0 active torsions:
REMARK  status: ('A' for Active; 'I' for Inactive)
ROOT
ATOM      1  C2' OXE d   1      -3.964   0.387   3.115  0.00  0.00     0.078 C 
ATOM      2  C1' OXE d   1      -5.949   1.249   4.903  0.00  0.00     0.078 C 
ATOM      3  C1  OXE d   1      -5.481  -0.181   5.008  0.00  0.00    -0.078 A 
ATOM      4  C2  OXE d   1      -4.543  -0.607   4.098  0.00  0.00    -0.078 A 
ATOM      5  C3  OXE d   1      -4.037  -1.901   4.185  0.00  0.00     0.003 A 
ATOM      6  C4  OXE d   1      -4.586  -2.817   5.091  0.00  0.00    -0.002 A 
ATOM      7  C5  OXE d   1      -5.570  -2.415   6.000  0.00  0.00    -0.002 A 
ATOM      8  C6  OXE d   1      -5.997  -1.091   5.999  0.00  0.00     0.003 A 
ENDROOT
TORSDOF 0
ENDMDL
