MODEL 1
REMARK minimizedAffinity 13.4337759
REMARK minimizedRMSD -1
REMARK  0 active torsions:
REMARK  status: ('A' for Active; 'I' for Inactive)
ROOT
ATOM      1  C2' OXE d   1       5.629  -5.050   0.323  0.00  0.00     0.078 C 
ATOM      2  C1' OXE d   1       5.882  -2.582  -0.991  0.00  0.00     0.078 C 
ATOM      3  C1  OXE d   1       5.233  -3.717  -1.744  0.00  0.00    -0.078 A 
ATOM      4  C2  OXE d   1       5.156  -4.934  -1.110  0.00  0.00    -0.078 A 
ATOM      5  C3  OXE d   1       4.517  -5.999  -1.738  0.00  0.00     0.003 A 
ATOM      6  C4  OXE d   1       4.091  -5.886  -3.067  0.00  0.00    -0.002 A 
ATOM      7  C5  OXE d   1       4.196  -4.667  -3.745  0.00  0.00    -0.002 A 
ATOM      8  C6  OXE d   1       4.725  -3.563  -3.085  0.00  0.00     0.003 A 
ENDROOT
TORSDOF 0
ENDMDL
