MODEL 1
REMARK minimizedAffinity 9.633955
REMARK minimizedRMSD -1
REMARK  0 active torsions:
REMARK  status: ('A' for Active; 'I' for Inactive)
ROOT
ATOM      1  C2' OXE d   1      -5.999   1.031   5.975  0.00  0.00     0.078 C 
ATOM      2  C1' OXE d   1      -5.996  -1.777   5.997  0.00  0.00     0.078 C 
ATOM      3  C1  OXE d   1      -5.167  -1.080   4.947  0.00  0.00    -0.078 A 
ATOM      4  C2  OXE d   1      -5.212   0.293   4.914  0.00  0.00    -0.078 A 
ATOM      5  C3  OXE d   1      -4.424   0.986   4.000  0.00  0.00     0.003 A 
ATOM      6  C4  OXE d   1      -3.706   0.296   3.015  0.00  0.00    -0.002 A 
ATOM      7  C5  OXE d   1      -3.679  -1.102   3.006  0.00  0.00    -0.002 A 
ATOM      8  C6  OXE d   1      -4.368  -1.804   3.989  0.00  0.00     0.003 A 
ENDROOT
TORSDOF 0
ENDMDL
