MODEL 1
REMARK minimizedAffinity -5.37916422
REMARK minimizedRMSD -1
REMARK  0 active torsions:
REMARK  status: ('A' for Active; 'I' for Inactive)
ROOT
ATOM      1  C4' PXY d   1      -0.163   1.614  -0.439  0.00  0.00     0.077 C 
ATOM      2  C1' PXY d   1      -2.671  -2.849   2.246  0.00  0.00     0.077 C 
ATOM      3  C1  PXY d   1      -2.025  -1.673   1.542  0.00  0.00    -0.082 A 
ATOM      4  C2  PXY d   1      -0.912  -1.856   0.849  0.00  0.00     0.003 A 
ATOM      5  C3  PXY d   1      -0.297  -0.797   0.232  0.00  0.00     0.003 A 
ATOM      6  C4  PXY d   1      -0.855   0.453   0.281  0.00  0.00    -0.082 A 
ATOM      7  C5  PXY d   1      -1.996   0.646   0.977  0.00  0.00     0.003 A 
ATOM      8  C6  PXY d   1      -2.582  -0.435   1.630  0.00  0.00     0.003 A 
ENDROOT
TORSDOF 0
ENDMDL
