MODEL 1
REMARK minimizedAffinity -3.24790406
REMARK minimizedRMSD -1
REMARK  0 active torsions:
REMARK  status: ('A' for Active; 'I' for Inactive)
ROOT
ATOM      1  C4' PXY d   1      -3.131  -0.823   3.419  0.00  0.00     0.077 C 
ATOM      2  C1' PXY d   1       0.830  -1.074  -0.783  0.00  0.00     0.077 C 
ATOM      3  C1  PXY d   1      -0.207  -1.021   0.321  0.00  0.00    -0.082 A 
ATOM      4  C2  PXY d   1      -1.112  -0.056   0.322  0.00  0.00     0.003 A 
ATOM      5  C3  PXY d   1      -2.038   0.025   1.331  0.00  0.00     0.003 A 
ATOM      6  C4  PXY d   1      -2.070  -0.921   2.319  0.00  0.00    -0.082 A 
ATOM      7  C5  PXY d   1      -1.156  -1.915   2.319  0.00  0.00     0.003 A 
ATOM      8  C6  PXY d   1      -0.200  -1.956   1.309  0.00  0.00     0.003 A 
ENDROOT
TORSDOF 0
ENDMDL
