MODEL 1
REMARK minimizedAffinity -5.33220339
REMARK minimizedRMSD -1
REMARK  0 active torsions:
REMARK  status: ('A' for Active; 'I' for Inactive)
ROOT
ATOM      1  C4' PXY d   1      -3.321  -2.975   1.899  0.00  0.00     0.077 C 
ATOM      2  C1' PXY d   1       0.792   0.821   0.453  0.00  0.00     0.077 C 
ATOM      3  C1  PXY d   1      -0.291  -0.167   0.842  0.00  0.00    -0.082 A 
ATOM      4  C2  PXY d   1      -0.161  -1.442   0.514  0.00  0.00     0.003 A 
ATOM      5  C3  PXY d   1      -1.146  -2.343   0.829  0.00  0.00     0.003 A 
ATOM      6  C4  PXY d   1      -2.249  -1.944   1.535  0.00  0.00    -0.082 A 
ATOM      7  C5  PXY d   1      -2.383  -0.647   1.884  0.00  0.00     0.003 A 
ATOM      8  C6  PXY d   1      -1.392   0.259   1.517  0.00  0.00     0.003 A 
ENDROOT
TORSDOF 0
ENDMDL
