MODEL 1
REMARK minimizedAffinity -5.57416725
REMARK minimizedRMSD -1
REMARK  0 active torsions:
REMARK  status: ('A' for Active; 'I' for Inactive)
ROOT
ATOM      1  C4' PXY d   1       0.680   1.498  -0.217  0.00  0.00     0.077 C 
ATOM      2  C1' PXY d   1      -2.778  -2.693   1.754  0.00  0.00     0.077 C 
ATOM      3  C1  PXY d   1      -1.861  -1.602   1.238  0.00  0.00    -0.082 A 
ATOM      4  C2  PXY d   1      -2.200  -0.333   1.397  0.00  0.00     0.003 A 
ATOM      5  C3  PXY d   1      -1.398   0.666   0.908  0.00  0.00     0.003 A 
ATOM      6  C4  PXY d   1      -0.210   0.364   0.296  0.00  0.00    -0.082 A 
ATOM      7  C5  PXY d   1       0.147  -0.928   0.139  0.00  0.00     0.003 A 
ATOM      8  C6  PXY d   1      -0.701  -1.928   0.606  0.00  0.00     0.003 A 
ENDROOT
TORSDOF 0
ENDMDL
