MODEL 1
REMARK minimizedAffinity -2.92837977
REMARK minimizedRMSD -1
REMARK  0 active torsions:
REMARK  status: ('A' for Active; 'I' for Inactive)
ROOT
ATOM      1  C4' PXY d   1       0.631   1.441  -0.298  0.00  0.00     0.077 C 
ATOM      2  C1' PXY d   1      -2.502  -2.673   2.286  0.00  0.00     0.077 C 
ATOM      3  C1  PXY d   1      -1.670  -1.601   1.610  0.00  0.00    -0.082 A 
ATOM      4  C2  PXY d   1      -2.091  -0.347   1.613  0.00  0.00     0.003 A 
ATOM      5  C3  PXY d   1      -1.366   0.629   0.979  0.00  0.00     0.003 A 
ATOM      6  C4  PXY d   1      -0.172   0.327   0.381  0.00  0.00    -0.082 A 
ATOM      7  C5  PXY d   1       0.269  -0.948   0.382  0.00  0.00     0.003 A 
ATOM      8  C6  PXY d   1      -0.501  -1.932   0.996  0.00  0.00     0.003 A 
ENDROOT
TORSDOF 0
ENDMDL
