MODEL 1
REMARK minimizedAffinity -4.90837812
REMARK minimizedRMSD -1
REMARK  0 active torsions:
REMARK  status: ('A' for Active; 'I' for Inactive)
ROOT
ATOM      1  C4' PXY d   1      -3.323  -0.353   2.698  0.00  0.00     0.077 C 
ATOM      2  C1' PXY d   1       1.425  -1.500  -0.392  0.00  0.00     0.077 C 
ATOM      3  C1  PXY d   1       0.183  -1.187   0.419  0.00  0.00    -0.082 A 
ATOM      4  C2  PXY d   1      -0.369  -2.132   1.161  0.00  0.00     0.003 A 
ATOM      5  C3  PXY d   1      -1.511  -1.875   1.875  0.00  0.00     0.003 A 
ATOM      6  C4  PXY d   1      -2.063  -0.622   1.871  0.00  0.00    -0.082 A 
ATOM      7  C5  PXY d   1      -1.499   0.351   1.125  0.00  0.00     0.003 A 
ATOM      8  C6  PXY d   1      -0.364   0.058   0.375  0.00  0.00     0.003 A 
ENDROOT
TORSDOF 0
ENDMDL
