MODEL 1
REMARK minimizedAffinity -0.61921984
REMARK minimizedRMSD -1
REMARK  0 active torsions:
REMARK  status: ('A' for Active; 'I' for Inactive)
ROOT
ATOM      1  C4' PXY d   1       1.514   1.630  -2.044  0.00  0.00     0.077 C 
ATOM      2  C1' PXY d   1      -0.043  -2.517   1.669  0.00  0.00     0.077 C 
ATOM      3  C1  PXY d   1       0.357  -1.422   0.701  0.00  0.00    -0.082 A 
ATOM      4  C2  PXY d   1       0.916  -1.742  -0.455  0.00  0.00     0.003 A 
ATOM      5  C3  PXY d   1       1.312  -0.762  -1.329  0.00  0.00     0.003 A 
ATOM      6  C4  PXY d   1       1.086   0.557  -1.040  0.00  0.00    -0.082 A 
ATOM      7  C5  PXY d   1       0.506   0.891   0.133  0.00  0.00     0.003 A 
ATOM      8  C6  PXY d   1       0.148  -0.116   1.024  0.00  0.00     0.003 A 
ENDROOT
TORSDOF 0
ENDMDL
