MODEL 1
REMARK minimizedAffinity -4.29945135
REMARK minimizedRMSD -1
REMARK  0 active torsions:
REMARK  status: ('A' for Active; 'I' for Inactive)
ROOT
ATOM      1  C4' PXY d   1       0.614   0.943  -0.211  0.00  0.00     0.077 C 
ATOM      2  C1' PXY d   1      -2.839  -3.084   2.086  0.00  0.00     0.077 C 
ATOM      3  C1  PXY d   1      -1.924  -2.032   1.492  0.00  0.00    -0.082 A 
ATOM      4  C2  PXY d   1      -2.446  -0.976   0.889  0.00  0.00     0.003 A 
ATOM      5  C3  PXY d   1      -1.633  -0.031   0.318  0.00  0.00     0.003 A 
ATOM      6  C4  PXY d   1      -0.271  -0.140   0.412  0.00  0.00    -0.082 A 
ATOM      7  C5  PXY d   1       0.269  -1.209   1.035  0.00  0.00     0.003 A 
ATOM      8  C6  PXY d   1      -0.573  -2.178   1.572  0.00  0.00     0.003 A 
ENDROOT
TORSDOF 0
ENDMDL
