MODEL 1
REMARK minimizedAffinity -3.68583465
REMARK minimizedRMSD -1
REMARK  0 active torsions:
REMARK  status: ('A' for Active; 'I' for Inactive)
ROOT
ATOM      1  C4' PXY d   1       2.734  -2.406   0.490  0.00  0.00     0.077 C 
ATOM      2  C1' PXY d   1      -2.307   0.292   1.340  0.00  0.00     0.077 C 
ATOM      3  C1  PXY d   1      -0.983  -0.408   1.107  0.00  0.00    -0.082 A 
ATOM      4  C2  PXY d   1      -0.808  -1.642   1.550  0.00  0.00     0.003 A 
ATOM      5  C3  PXY d   1       0.394  -2.278   1.376  0.00  0.00     0.003 A 
ATOM      6  C4  PXY d   1       1.410  -1.664   0.694  0.00  0.00    -0.082 A 
ATOM      7  C5  PXY d   1       1.236  -0.409   0.229  0.00  0.00     0.003 A 
ATOM      8  C6  PXY d   1       0.022   0.235   0.452  0.00  0.00     0.003 A 
ENDROOT
TORSDOF 0
ENDMDL
