MODEL 1
REMARK minimizedAffinity -2.73728585
REMARK minimizedRMSD -1
REMARK  0 active torsions:
REMARK  status: ('A' for Active; 'I' for Inactive)
ROOT
ATOM      1  C4' PXY d   1      -3.055  -2.431   1.377  0.00  0.00     0.077 C 
ATOM      2  C1' PXY d   1       2.072   0.074   0.458  0.00  0.00     0.077 C 
ATOM      3  C1  PXY d   1       0.722  -0.573   0.692  0.00  0.00    -0.082 A 
ATOM      4  C2  PXY d   1       0.557  -1.388   1.722  0.00  0.00     0.003 A 
ATOM      5  C3  PXY d   1      -0.649  -2.007   1.930  0.00  0.00     0.003 A 
ATOM      6  C4  PXY d   1      -1.712  -1.748   1.107  0.00  0.00    -0.082 A 
ATOM      7  C5  PXY d   1      -1.555  -0.909   0.061  0.00  0.00     0.003 A 
ATOM      8  C6  PXY d   1      -0.311  -0.323  -0.157  0.00  0.00     0.003 A 
ENDROOT
TORSDOF 0
ENDMDL
