MODEL 1
REMARK minimizedAffinity -2.12076592
REMARK minimizedRMSD -1
REMARK  0 active torsions:
REMARK  status: ('A' for Active; 'I' for Inactive)
ROOT
ATOM      1  C4' PXY d   1       1.132   1.874  -1.499  0.00  0.00     0.077 C 
ATOM      2  C1' PXY d   1      -1.081  -1.821   2.358  0.00  0.00     0.077 C 
ATOM      3  C1  PXY d   1      -0.512  -0.846   1.346  0.00  0.00    -0.082 A 
ATOM      4  C2  PXY d   1       0.522  -1.204   0.602  0.00  0.00     0.003 A 
ATOM      5  C3  PXY d   1       1.069  -0.323  -0.295  0.00  0.00     0.003 A 
ATOM      6  C4  PXY d   1       0.519   0.918  -0.471  0.00  0.00    -0.082 A 
ATOM      7  C5  PXY d   1      -0.543   1.287   0.277  0.00  0.00     0.003 A 
ATOM      8  C6  PXY d   1      -1.058   0.393   1.211  0.00  0.00     0.003 A 
ENDROOT
TORSDOF 0
ENDMDL
