MODEL 1
REMARK minimizedAffinity -5.78765297
REMARK minimizedRMSD -1
REMARK  0 active torsions:
REMARK  status: ('A' for Active; 'I' for Inactive)
ROOT
ATOM      1  C4' PXY d   1      -3.360  -2.058   2.454  0.00  0.00     0.077 C 
ATOM      2  C1' PXY d   1       0.609   0.709  -0.710  0.00  0.00     0.077 C 
ATOM      3  C1  PXY d   1      -0.429  -0.028   0.114  0.00  0.00    -0.082 A 
ATOM      4  C2  PXY d   1      -1.458   0.636   0.616  0.00  0.00     0.003 A 
ATOM      5  C3  PXY d   1      -2.388  -0.008   1.390  0.00  0.00     0.003 A 
ATOM      6  C4  PXY d   1      -2.293  -1.357   1.608  0.00  0.00    -0.082 A 
ATOM      7  C5  PXY d   1      -1.252  -2.043   1.091  0.00  0.00     0.003 A 
ATOM      8  C6  PXY d   1      -0.296  -1.362   0.342  0.00  0.00     0.003 A 
ENDROOT
TORSDOF 0
ENDMDL
