MODEL 1
REMARK minimizedAffinity 6.71299839
REMARK minimizedRMSD -1
REMARK  0 active torsions:
REMARK  status: ('A' for Active; 'I' for Inactive)
ROOT
ATOM      1  C4' PXY d   1       0.127  -2.087   1.906  0.00  0.00     0.077 C 
ATOM      2  C1' PXY d   1       1.569   1.617  -2.291  0.00  0.00     0.077 C 
ATOM      3  C1  PXY d   1       1.196   0.636  -1.197  0.00  0.00    -0.082 A 
ATOM      4  C2  PXY d   1       0.184   0.909  -0.390  0.00  0.00     0.003 A 
ATOM      5  C3  PXY d   1      -0.146   0.048   0.625  0.00  0.00     0.003 A 
ATOM      6  C4  PXY d   1       0.533  -1.130   0.782  0.00  0.00    -0.082 A 
ATOM      7  C5  PXY d   1       1.560  -1.421  -0.044  0.00  0.00     0.003 A 
ATOM      8  C6  PXY d   1       1.906  -0.514  -1.041  0.00  0.00     0.003 A 
ENDROOT
TORSDOF 0
ENDMDL
