MODEL 1
REMARK minimizedAffinity -5.48688412
REMARK minimizedRMSD -1
REMARK  0 active torsions:
REMARK  status: ('A' for Active; 'I' for Inactive)
ROOT
ATOM      1  C4' PXY d   1       0.699   1.255  -0.442  0.00  0.00     0.077 C 
ATOM      2  C1' PXY d   1      -2.612  -2.808   1.996  0.00  0.00     0.077 C 
ATOM      3  C1  PXY d   1      -1.733  -1.749   1.360  0.00  0.00    -0.082 A 
ATOM      4  C2  PXY d   1      -2.223  -0.540   1.139  0.00  0.00     0.003 A 
ATOM      5  C3  PXY d   1      -1.452   0.421   0.536  0.00  0.00     0.003 A 
ATOM      6  C4  PXY d   1      -0.150   0.157   0.205  0.00  0.00    -0.082 A 
ATOM      7  C5  PXY d   1       0.360  -1.071   0.438  0.00  0.00     0.003 A 
ATOM      8  C6  PXY d   1      -0.451  -2.045   1.013  0.00  0.00     0.003 A 
ENDROOT
TORSDOF 0
ENDMDL
