MODEL 1
REMARK minimizedAffinity -5.33017778
REMARK minimizedRMSD -1
REMARK  0 active torsions:
REMARK  status: ('A' for Active; 'I' for Inactive)
ROOT
ATOM      1  C4' PXY d   1       0.708   0.723  -0.021  0.00  0.00     0.077 C 
ATOM      2  C1' PXY d   1      -3.110  -3.061   2.108  0.00  0.00     0.077 C 
ATOM      3  C1  PXY d   1      -2.100  -2.071   1.559  0.00  0.00    -0.082 A 
ATOM      4  C2  PXY d   1      -2.507  -1.094   0.765  0.00  0.00     0.003 A 
ATOM      5  C3  PXY d   1      -1.604  -0.209   0.235  0.00  0.00     0.003 A 
ATOM      6  C4  PXY d   1      -0.277  -0.294   0.563  0.00  0.00    -0.082 A 
ATOM      7  C5  PXY d   1       0.144  -1.281   1.381  0.00  0.00     0.003 A 
ATOM      8  C6  PXY d   1      -0.783  -2.194   1.876  0.00  0.00     0.003 A 
ENDROOT
TORSDOF 0
ENDMDL
