MODEL 1
REMARK minimizedAffinity -1.67610908
REMARK minimizedRMSD -1
REMARK  0 active torsions:
REMARK  status: ('A' for Active; 'I' for Inactive)
ROOT
ATOM      1  C4' PXY d   1      -4.150   0.103   1.770  0.00  0.00     0.077 C 
ATOM      2  C1' PXY d   1       0.721  -2.673   0.362  0.00  0.00     0.077 C 
ATOM      3  C1  PXY d   1      -0.562  -1.957   0.733  0.00  0.00    -0.082 A 
ATOM      4  C2  PXY d   1      -0.769  -0.721   0.305  0.00  0.00     0.003 A 
ATOM      5  C3  PXY d   1      -1.910  -0.047   0.658  0.00  0.00     0.003 A 
ATOM      6  C4  PXY d   1      -2.873  -0.662   1.412  0.00  0.00    -0.082 A 
ATOM      7  C5  PXY d   1      -2.675  -1.926   1.843  0.00  0.00     0.003 A 
ATOM      8  C6  PXY d   1      -1.492  -2.579   1.508  0.00  0.00     0.003 A 
ENDROOT
TORSDOF 0
ENDMDL
