MODEL 1
REMARK minimizedAffinity -0.752357602
REMARK minimizedRMSD -1
REMARK  0 active torsions:
REMARK  status: ('A' for Active; 'I' for Inactive)
ROOT
ATOM      1  C4' PXY d   1       1.792  -2.574   0.725  0.00  0.00     0.077 C 
ATOM      2  C1' PXY d   1      -1.684   2.036   0.990  0.00  0.00     0.077 C 
ATOM      3  C1  PXY d   1      -0.777   0.823   0.933  0.00  0.00    -0.082 A 
ATOM      4  C2  PXY d   1       0.292   0.843   0.153  0.00  0.00     0.003 A 
ATOM      5  C3  PXY d   1       1.106  -0.257   0.064  0.00  0.00     0.003 A 
ATOM      6  C4  PXY d   1       0.853  -1.369   0.822  0.00  0.00    -0.082 A 
ATOM      7  C5  PXY d   1      -0.229  -1.393   1.628  0.00  0.00     0.003 A 
ATOM      8  C6  PXY d   1      -1.066  -0.281   1.673  0.00  0.00     0.003 A 
ENDROOT
TORSDOF 0
ENDMDL
