MODEL 1
REMARK minimizedAffinity -6.43853474
REMARK minimizedRMSD -1
REMARK  0 active torsions:
REMARK  status: ('A' for Active; 'I' for Inactive)
ROOT
ATOM      1  C4' PXY d   1       0.437   1.172   0.041  0.00  0.00     0.077 C 
ATOM      2  C1' PXY d   1      -3.119  -2.858   2.170  0.00  0.00     0.077 C 
ATOM      3  C1  PXY d   1      -2.177  -1.809   1.613  0.00  0.00    -0.082 A 
ATOM      4  C2  PXY d   1      -2.518  -0.532   1.660  0.00  0.00     0.003 A 
ATOM      5  C3  PXY d   1      -1.692   0.427   1.133  0.00  0.00     0.003 A 
ATOM      6  C4  PXY d   1      -0.480   0.080   0.600  0.00  0.00    -0.082 A 
ATOM      7  C5  PXY d   1      -0.119  -1.221   0.557  0.00  0.00     0.003 A 
ATOM      8  C6  PXY d   1      -0.990  -2.182   1.061  0.00  0.00     0.003 A 
ENDROOT
TORSDOF 0
ENDMDL
