MODEL 1
REMARK minimizedAffinity -6.3732481
REMARK minimizedRMSD -1
REMARK  0 active torsions:
REMARK  status: ('A' for Active; 'I' for Inactive)
ROOT
ATOM      1  C4' PXY d   1       0.607   0.890  -0.586  0.00  0.00     0.077 C 
ATOM      2  C1' PXY d   1      -3.135  -2.222   2.534  0.00  0.00     0.077 C 
ATOM      3  C1  PXY d   1      -2.145  -1.415   1.717  0.00  0.00    -0.082 A 
ATOM      4  C2  PXY d   1      -2.265  -0.099   1.657  0.00  0.00     0.003 A 
ATOM      5  C3  PXY d   1      -1.397   0.643   0.897  0.00  0.00     0.003 A 
ATOM      6  C4  PXY d   1      -0.364   0.036   0.234  0.00  0.00    -0.082 A 
ATOM      7  C5  PXY d   1      -0.228  -1.305   0.299  0.00  0.00     0.003 A 
ATOM      8  C6  PXY d   1      -1.144  -2.044   1.043  0.00  0.00     0.003 A 
ENDROOT
TORSDOF 0
ENDMDL
