MODEL 1
REMARK minimizedAffinity -6.18358421
REMARK minimizedRMSD -1
REMARK  2 active torsions:
REMARK  status: ('A' for Active; 'I' for Inactive)
REMARK    1  A    between atoms: C1_2  and  C2_3 
REMARK    2  A    between atoms: C2_3  and  C3_4 
ROOT
ATOM      1  C3  UNL d   1      -0.439  -0.122  -1.003  0.00  0.00    -0.075 A 
ATOM      2  C4  UNL d   1      -1.837  -0.214  -0.939  0.00  0.00     0.002 A 
ATOM      3  C5  UNL d   1      -2.587  -0.411  -2.098  0.00  0.00     0.002 A 
ATOM      4  C6  UNL d   1      -1.953  -0.507  -3.335  0.00  0.00    -0.004 A 
ATOM      5  C7  UNL d   1      -0.566  -0.400  -3.412  0.00  0.00     0.002 A 
ATOM      6  C8  UNL d   1       0.188  -0.208  -2.253  0.00  0.00     0.002 A 
ENDROOT
BRANCH   1   7
ATOM      7  C2  UNL d   1       0.382   0.061   0.252  0.00  0.00     0.056 C 
BRANCH   7   8
ATOM      8  C1  UNL d   1       1.682   0.843   0.038  0.00  0.00     0.007 C 
ATOM      9  C   UNL d   1       2.759   0.509   1.062  0.00  0.00     0.009 C 
ENDBRANCH   7   8
ENDBRANCH   1   7
TORSDOF 2
ENDMDL
