MODEL 1
REMARK minimizedAffinity -6.0670104
REMARK minimizedRMSD -1
REMARK  2 active torsions:
REMARK  status: ('A' for Active; 'I' for Inactive)
REMARK    1  A    between atoms: C1_2  and  C2_3 
REMARK    2  A    between atoms: C2_3  and  C3_4 
ROOT
ATOM      1  C3  UNL d   1       0.892  -0.337   0.624  0.00  0.00    -0.075 A 
ATOM      2  C4  UNL d   1       0.544  -1.562   1.210  0.00  0.00     0.002 A 
ATOM      3  C5  UNL d   1       1.473  -2.274   1.969  0.00  0.00     0.002 A 
ATOM      4  C6  UNL d   1       2.763  -1.776   2.142  0.00  0.00    -0.004 A 
ATOM      5  C7  UNL d   1       3.125  -0.568   1.551  0.00  0.00     0.002 A 
ATOM      6  C8  UNL d   1       2.195   0.149   0.795  0.00  0.00     0.002 A 
ENDROOT
BRANCH   1   7
ATOM      7  C2  UNL d   1      -0.118   0.453  -0.173  0.00  0.00     0.056 C 
BRANCH   7   8
ATOM      8  C1  UNL d   1      -1.544  -0.103  -0.098  0.00  0.00     0.007 C 
ATOM      9  C   UNL d   1      -2.342   0.114  -1.377  0.00  0.00     0.009 C 
ENDBRANCH   7   8
ENDBRANCH   1   7
TORSDOF 2
ENDMDL
