MODEL 1
REMARK minimizedAffinity -1.93482578
REMARK minimizedRMSD -1
REMARK  2 active torsions:
REMARK  status: ('A' for Active; 'I' for Inactive)
REMARK    1  A    between atoms: C1_2  and  C2_3 
REMARK    2  A    between atoms: C2_3  and  C3_4 
ROOT
ATOM      1  C3  UNL d   1       1.572  -0.253   0.252  0.00  0.00    -0.075 A 
ATOM      2  C4  UNL d   1       0.558  -1.215   0.372  0.00  0.00     0.002 A 
ATOM      3  C5  UNL d   1      -0.784  -0.837   0.337  0.00  0.00     0.002 A 
ATOM      4  C6  UNL d   1      -1.130   0.505   0.193  0.00  0.00    -0.004 A 
ATOM      5  C7  UNL d   1      -0.130   1.471   0.090  0.00  0.00     0.002 A 
ATOM      6  C8  UNL d   1       1.214   1.095   0.120  0.00  0.00     0.002 A 
ENDROOT
BRANCH   1   7
ATOM      7  C2  UNL d   1       3.026  -0.660   0.259  0.00  0.00     0.056 C 
BRANCH   7   8
ATOM      8  C1  UNL d   1       3.883   0.105   1.274  0.00  0.00     0.007 C 
ATOM      9  C   UNL d   1       3.059   0.829   2.330  0.00  0.00     0.009 C 
ENDBRANCH   7   8
ENDBRANCH   1   7
TORSDOF 2
ENDMDL
