MODEL 1
REMARK minimizedAffinity -2.7248354
REMARK minimizedRMSD -1
REMARK  2 active torsions:
REMARK  status: ('A' for Active; 'I' for Inactive)
REMARK    1  A    between atoms: C1_2  and  C2_3 
REMARK    2  A    between atoms: C2_3  and  C3_4 
ROOT
ATOM      1  C3  UNL d   1       0.764   0.256   0.647  0.00  0.00    -0.075 A 
ATOM      2  C4  UNL d   1       1.821   1.060   1.098  0.00  0.00     0.002 A 
ATOM      3  C5  UNL d   1       2.861   0.509   1.848  0.00  0.00     0.002 A 
ATOM      4  C6  UNL d   1       2.852  -0.848   2.165  0.00  0.00    -0.004 A 
ATOM      5  C7  UNL d   1       1.798  -1.653   1.737  0.00  0.00     0.002 A 
ATOM      6  C8  UNL d   1       0.759  -1.105   0.982  0.00  0.00     0.002 A 
ENDROOT
BRANCH   1   7
ATOM      7  C2  UNL d   1      -0.348   0.840  -0.190  0.00  0.00     0.056 C 
BRANCH   7   8
ATOM      8  C1  UNL d   1      -0.762  -0.036  -1.377  0.00  0.00     0.007 C 
ATOM      9  C   UNL d   1      -2.120   0.339  -1.955  0.00  0.00     0.009 C 
ENDBRANCH   7   8
ENDBRANCH   1   7
TORSDOF 2
ENDMDL
