MODEL 1
REMARK minimizedAffinity -4.65147257
REMARK minimizedRMSD -1
REMARK  2 active torsions:
REMARK  status: ('A' for Active; 'I' for Inactive)
REMARK    1  A    between atoms: C1_2  and  C2_3 
REMARK    2  A    between atoms: C2_3  and  C3_4 
ROOT
ATOM      1  C3  UNL d   1       0.171   0.035   0.204  0.00  0.00    -0.075 A 
ATOM      2  C4  UNL d   1       0.866   1.250   0.288  0.00  0.00     0.002 A 
ATOM      3  C5  UNL d   1       2.253   1.264   0.436  0.00  0.00     0.002 A 
ATOM      4  C6  UNL d   1       2.961   0.066   0.513  0.00  0.00    -0.004 A 
ATOM      5  C7  UNL d   1       2.279  -1.147   0.447  0.00  0.00     0.002 A 
ATOM      6  C8  UNL d   1       0.891  -1.164   0.294  0.00  0.00     0.002 A 
ENDROOT
BRANCH   1   7
ATOM      7  C2  UNL d   1      -1.327   0.013   0.014  0.00  0.00     0.056 C 
BRANCH   7   8
ATOM      8  C1  UNL d   1      -1.768  -0.276  -1.425  0.00  0.00     0.007 C 
ATOM      9  C   UNL d   1      -2.762   0.745  -1.964  0.00  0.00     0.009 C 
ENDBRANCH   7   8
ENDBRANCH   1   7
TORSDOF 2
ENDMDL
