MODEL 1
REMARK minimizedAffinity -5.71907377
REMARK minimizedRMSD -1
REMARK  2 active torsions:
REMARK  status: ('A' for Active; 'I' for Inactive)
REMARK    1  A    between atoms: C1_2  and  C2_3 
REMARK    2  A    between atoms: C2_3  and  C3_4 
ROOT
ATOM      1  C3  UNL d   1      -0.039  -0.155   0.642  0.00  0.00    -0.075 A 
ATOM      2  C4  UNL d   1       0.586   1.098   0.560  0.00  0.00     0.002 A 
ATOM      3  C5  UNL d   1       1.934   1.241   0.890  0.00  0.00     0.002 A 
ATOM      4  C6  UNL d   1       2.671   0.137   1.314  0.00  0.00    -0.004 A 
ATOM      5  C7  UNL d   1       2.057  -1.109   1.415  0.00  0.00     0.002 A 
ATOM      6  C8  UNL d   1       0.709  -1.256   1.081  0.00  0.00     0.002 A 
ENDROOT
BRANCH   1   7
ATOM      7  C2  UNL d   1      -1.489  -0.322   0.258  0.00  0.00     0.056 C 
BRANCH   7   8
ATOM      8  C1  UNL d   1      -1.751  -0.227  -1.249  0.00  0.00     0.007 C 
ATOM      9  C   UNL d   1      -3.059   0.475  -1.588  0.00  0.00     0.009 C 
ENDBRANCH   7   8
ENDBRANCH   1   7
TORSDOF 2
ENDMDL
