MODEL 1
REMARK minimizedAffinity -5.16118193
REMARK minimizedRMSD -1
REMARK  2 active torsions:
REMARK  status: ('A' for Active; 'I' for Inactive)
REMARK    1  A    between atoms: C1_2  and  C2_3 
REMARK    2  A    between atoms: C2_3  and  C3_4 
ROOT
ATOM      1  C3  UNL d   1      -0.020   0.044   0.066  0.00  0.00    -0.075 A 
ATOM      2  C4  UNL d   1       0.823  -1.047   0.322  0.00  0.00     0.002 A 
ATOM      3  C5  UNL d   1       2.176  -0.848   0.597  0.00  0.00     0.002 A 
ATOM      4  C6  UNL d   1       2.705   0.441   0.611  0.00  0.00    -0.004 A 
ATOM      5  C7  UNL d   1       1.880   1.531   0.342  0.00  0.00     0.002 A 
ATOM      6  C8  UNL d   1       0.525   1.335   0.071  0.00  0.00     0.002 A 
ENDROOT
BRANCH   1   7
ATOM      7  C2  UNL d   1      -1.491  -0.162  -0.204  0.00  0.00     0.056 C 
BRANCH   7   8
ATOM      8  C1  UNL d   1      -2.048   0.714  -1.330  0.00  0.00     0.007 C 
ATOM      9  C   UNL d   1      -2.581  -0.090  -2.509  0.00  0.00     0.009 C 
ENDBRANCH   7   8
ENDBRANCH   1   7
TORSDOF 2
ENDMDL
