MODEL 1
REMARK minimizedAffinity -5.2897563
REMARK minimizedRMSD -1
REMARK  2 active torsions:
REMARK  status: ('A' for Active; 'I' for Inactive)
REMARK    1  A    between atoms: C1_2  and  C2_3 
REMARK    2  A    between atoms: C2_3  and  C3_4 
ROOT
ATOM      1  C3  UNL d   1       0.334   0.181   0.168  0.00  0.00    -0.075 A 
ATOM      2  C4  UNL d   1       1.213   1.264   0.027  0.00  0.00     0.002 A 
ATOM      3  C5  UNL d   1       2.561   1.131   0.358  0.00  0.00     0.002 A 
ATOM      4  C6  UNL d   1       3.046  -0.082   0.843  0.00  0.00    -0.004 A 
ATOM      5  C7  UNL d   1       2.178  -1.160   1.004  0.00  0.00     0.002 A 
ATOM      6  C8  UNL d   1       0.829  -1.031   0.669  0.00  0.00     0.002 A 
ENDROOT
BRANCH   1   7
ATOM      7  C2  UNL d   1      -1.121   0.310  -0.216  0.00  0.00     0.056 C 
BRANCH   7   8
ATOM      8  C1  UNL d   1      -1.408  -0.011  -1.687  0.00  0.00     0.007 C 
ATOM      9  C   UNL d   1      -2.836   0.316  -2.104  0.00  0.00     0.009 C 
ENDBRANCH   7   8
ENDBRANCH   1   7
TORSDOF 2
ENDMDL
