MODEL 1
REMARK minimizedAffinity -3.84291816
REMARK minimizedRMSD -1
REMARK  1 active torsions:
REMARK  status: ('A' for Active; 'I' for Inactive)
REMARK    1  A    between atoms: C1_2  and  C2_3 
ROOT
ATOM      1  C2  UNL d   1      -4.942  -3.499  -3.852  0.00  0.00    -0.077 A 
ATOM      2  C3  UNL d   1      -4.127  -3.723  -4.971  0.00  0.00     0.002 A 
ATOM      3  C4  UNL d   1      -4.066  -2.781  -6.000  0.00  0.00     0.002 A 
ATOM      4  C5  UNL d   1      -4.813  -1.607  -5.918  0.00  0.00    -0.004 A 
ATOM      5  C6  UNL d   1      -5.628  -1.377  -4.810  0.00  0.00     0.002 A 
ATOM      6  C7  UNL d   1      -5.691  -2.318  -3.782  0.00  0.00     0.002 A 
ENDROOT
BRANCH   1   7
ATOM      7  C1  UNL d   1      -4.972  -4.492  -2.719  0.00  0.00     0.055 C 
ATOM      8  C   UNL d   1      -4.143  -4.008  -1.538  0.00  0.00     0.019 C 
ENDBRANCH   1   7
TORSDOF 1
ENDMDL
