MODEL 1
REMARK minimizedAffinity -3.70958519
REMARK minimizedRMSD -1
REMARK  1 active torsions:
REMARK  status: ('A' for Active; 'I' for Inactive)
REMARK    1  A    between atoms: C1_2  and  C2_3 
ROOT
ATOM      1  C2  UNL d   1      -4.863  -3.579  -4.196  0.00  0.00    -0.077 A 
ATOM      2  C3  UNL d   1      -5.148  -4.331  -5.345  0.00  0.00     0.002 A 
ATOM      3  C4  UNL d   1      -4.152  -5.097  -5.952  0.00  0.00     0.002 A 
ATOM      4  C5  UNL d   1      -2.866  -5.121  -5.417  0.00  0.00    -0.004 A 
ATOM      5  C6  UNL d   1      -2.572  -4.374  -4.277  0.00  0.00     0.002 A 
ATOM      6  C7  UNL d   1      -3.566  -3.607  -3.669  0.00  0.00     0.002 A 
ENDROOT
BRANCH   1   7
ATOM      7  C1  UNL d   1      -5.949  -2.791  -3.511  0.00  0.00     0.055 C 
ATOM      8  C   UNL d   1      -5.958  -1.341  -3.974  0.00  0.00     0.019 C 
ENDBRANCH   1   7
TORSDOF 1
ENDMDL
