MODEL 1
REMARK minimizedAffinity -3.43405557
REMARK minimizedRMSD -1
REMARK  1 active torsions:
REMARK  status: ('A' for Active; 'I' for Inactive)
REMARK    1  A    between atoms: C1_2  and  C2_3 
ROOT
ATOM      1  C2  UNL d   1      -4.805  -3.935  -5.264  0.00  0.00    -0.077 A 
ATOM      2  C3  UNL d   1      -4.846  -5.128  -6.000  0.00  0.00     0.002 A 
ATOM      3  C4  UNL d   1      -3.754  -5.999  -5.995  0.00  0.00     0.002 A 
ATOM      4  C5  UNL d   1      -2.616  -5.688  -5.254  0.00  0.00    -0.004 A 
ATOM      5  C6  UNL d   1      -2.565  -4.503  -4.521  0.00  0.00     0.002 A 
ATOM      6  C7  UNL d   1      -3.654  -3.631  -4.525  0.00  0.00     0.002 A 
ENDROOT
BRANCH   1   7
ATOM      7  C1  UNL d   1      -6.000  -3.019  -5.228  0.00  0.00     0.055 C 
ATOM      8  C   UNL d   1      -5.647  -1.673  -4.612  0.00  0.00     0.019 C 
ENDBRANCH   1   7
TORSDOF 1
ENDMDL
