MODEL 1
REMARK minimizedAffinity -2.02732921
REMARK minimizedRMSD -1
REMARK  1 active torsions:
REMARK  status: ('A' for Active; 'I' for Inactive)
REMARK    1  A    between atoms: C1_2  and  C2_3 
ROOT
ATOM      1  C2  UNL d   1      -3.794  -5.071  -5.128  0.00  0.00    -0.077 A 
ATOM      2  C3  UNL d   1      -4.911  -5.389  -5.914  0.00  0.00     0.002 A 
ATOM      3  C4  UNL d   1      -5.989  -4.506  -6.000  0.00  0.00     0.002 A 
ATOM      4  C5  UNL d   1      -5.959  -3.299  -5.305  0.00  0.00    -0.004 A 
ATOM      5  C6  UNL d   1      -4.855  -2.974  -4.519  0.00  0.00     0.002 A 
ATOM      6  C7  UNL d   1      -3.777  -3.856  -4.431  0.00  0.00     0.002 A 
ENDROOT
BRANCH   1   7
ATOM      7  C1  UNL d   1      -2.610  -6.000  -5.074  0.00  0.00     0.055 C 
ATOM      8  C   UNL d   1      -1.491  -5.525  -5.990  0.00  0.00     0.019 C 
ENDBRANCH   1   7
TORSDOF 1
ENDMDL
