MODEL 1
REMARK minimizedAffinity 4.34886742
REMARK minimizedRMSD -1
REMARK  1 active torsions:
REMARK  status: ('A' for Active; 'I' for Inactive)
REMARK    1  A    between atoms: C1_2  and  C2_3 
ROOT
ATOM      1  C2  UNL d   1      -5.273  -3.550  -5.167  0.00  0.00    -0.077 A 
ATOM      2  C3  UNL d   1      -5.760  -3.336  -3.870  0.00  0.00     0.002 A 
ATOM      3  C4  UNL d   1      -5.996  -2.040  -3.408  0.00  0.00     0.002 A 
ATOM      4  C5  UNL d   1      -5.752  -0.948  -4.238  0.00  0.00    -0.004 A 
ATOM      5  C6  UNL d   1      -5.265  -1.150  -5.529  0.00  0.00     0.002 A 
ATOM      6  C7  UNL d   1      -5.027  -2.445  -5.992  0.00  0.00     0.002 A 
ENDROOT
BRANCH   1   7
ATOM      7  C1  UNL d   1      -5.064  -4.949  -5.683  0.00  0.00     0.055 C 
ATOM      8  C   UNL d   1      -3.691  -5.482  -5.300  0.00  0.00     0.019 C 
ENDBRANCH   1   7
TORSDOF 1
ENDMDL
