MODEL 1
REMARK minimizedAffinity -1.08408058
REMARK minimizedRMSD -1
REMARK  1 active torsions:
REMARK  status: ('A' for Active; 'I' for Inactive)
REMARK    1  A    between atoms: C1_2  and  C2_3 
ROOT
ATOM      1  C2  UNL d   1      -3.727  -5.109  -4.771  0.00  0.00    -0.077 A 
ATOM      2  C3  UNL d   1      -2.482  -4.699  -5.269  0.00  0.00     0.002 A 
ATOM      3  C4  UNL d   1      -1.317  -4.934  -4.537  0.00  0.00     0.002 A 
ATOM      4  C5  UNL d   1      -1.384  -5.582  -3.306  0.00  0.00    -0.004 A 
ATOM      5  C6  UNL d   1      -2.617  -5.992  -2.801  0.00  0.00     0.002 A 
ATOM      6  C7  UNL d   1      -3.783  -5.757  -3.530  0.00  0.00     0.002 A 
ENDROOT
BRANCH   1   7
ATOM      7  C1  UNL d   1      -4.980  -4.901  -5.581  0.00  0.00     0.055 C 
ATOM      8  C   UNL d   1      -5.978  -4.022  -4.842  0.00  0.00     0.019 C 
ENDBRANCH   1   7
TORSDOF 1
ENDMDL
