MODEL 1
REMARK minimizedAffinity -3.57432342
REMARK minimizedRMSD -1
REMARK  1 active torsions:
REMARK  status: ('A' for Active; 'I' for Inactive)
REMARK    1  A    between atoms: C1_2  and  C2_3 
ROOT
ATOM      1  C2  UNL d   1      -3.662  -3.131  -5.063  0.00  0.00    -0.077 A 
ATOM      2  C3  UNL d   1      -3.859  -4.147  -4.118  0.00  0.00     0.002 A 
ATOM      3  C4  UNL d   1      -3.035  -5.275  -4.112  0.00  0.00     0.002 A 
ATOM      4  C5  UNL d   1      -2.008  -5.395  -5.045  0.00  0.00    -0.004 A 
ATOM      5  C6  UNL d   1      -1.806  -4.390  -5.991  0.00  0.00     0.002 A 
ATOM      6  C7  UNL d   1      -2.628  -3.263  -5.999  0.00  0.00     0.002 A 
ENDROOT
BRANCH   1   7
ATOM      7  C1  UNL d   1      -4.517  -1.891  -5.041  0.00  0.00     0.055 C 
ATOM      8  C   UNL d   1      -5.989  -2.238  -4.870  0.00  0.00     0.019 C 
ENDBRANCH   1   7
TORSDOF 1
ENDMDL
