MODEL 1
REMARK minimizedAffinity -2.97008824
REMARK minimizedRMSD -1
REMARK  1 active torsions:
REMARK  status: ('A' for Active; 'I' for Inactive)
REMARK    1  A    between atoms: C1_2  and  C2_3 
ROOT
ATOM      1  C2  UNL d   1      -3.549  -5.245  -5.096  0.00  0.00    -0.077 A 
ATOM      2  C3  UNL d   1      -3.764  -4.067  -4.367  0.00  0.00     0.002 A 
ATOM      3  C4  UNL d   1      -4.985  -3.395  -4.456  0.00  0.00     0.002 A 
ATOM      4  C5  UNL d   1      -6.000  -3.894  -5.269  0.00  0.00    -0.004 A 
ATOM      5  C6  UNL d   1      -5.794  -5.064  -6.000  0.00  0.00     0.002 A 
ATOM      6  C7  UNL d   1      -4.575  -5.737  -5.913  0.00  0.00     0.002 A 
ENDROOT
BRANCH   1   7
ATOM      7  C1  UNL d   1      -2.251  -5.998  -4.964  0.00  0.00     0.055 C 
ATOM      8  C   UNL d   1      -1.214  -5.494  -5.958  0.00  0.00     0.019 C 
ENDBRANCH   1   7
TORSDOF 1
ENDMDL
