MODEL 1
REMARK minimizedAffinity -1.65909779
REMARK minimizedRMSD -1
REMARK  1 active torsions:
REMARK  status: ('A' for Active; 'I' for Inactive)
REMARK    1  A    between atoms: C1_2  and  C2_3 
ROOT
ATOM      1  C2  UNL d   1      -3.370  -3.552  -5.138  0.00  0.00    -0.077 A 
ATOM      2  C3  UNL d   1      -3.656  -4.621  -6.000  0.00  0.00     0.002 A 
ATOM      3  C4  UNL d   1      -2.986  -5.838  -5.861  0.00  0.00     0.002 A 
ATOM      4  C5  UNL d   1      -2.030  -6.000  -4.861  0.00  0.00    -0.004 A 
ATOM      5  C6  UNL d   1      -1.737  -4.942  -4.000  0.00  0.00     0.002 A 
ATOM      6  C7  UNL d   1      -2.405  -3.724  -4.138  0.00  0.00     0.002 A 
ENDROOT
BRANCH   1   7
ATOM      7  C1  UNL d   1      -4.126  -2.255  -5.254  0.00  0.00     0.055 C 
ATOM      8  C   UNL d   1      -5.161  -2.116  -4.147  0.00  0.00     0.019 C 
ENDBRANCH   1   7
TORSDOF 1
ENDMDL
