MODEL 1
REMARK minimizedAffinity -3.89034081
REMARK minimizedRMSD -1
REMARK  1 active torsions:
REMARK  status: ('A' for Active; 'I' for Inactive)
REMARK    1  A    between atoms: C1_2  and  C2_3 
ROOT
ATOM      1  C2  UNL d   1      -3.515  -4.104  -5.369  0.00  0.00    -0.077 A 
ATOM      2  C3  UNL d   1      -3.843  -4.650  -4.120  0.00  0.00     0.002 A 
ATOM      3  C4  UNL d   1      -3.002  -5.586  -3.515  0.00  0.00     0.002 A 
ATOM      4  C5  UNL d   1      -1.827  -5.981  -4.150  0.00  0.00    -0.004 A 
ATOM      5  C6  UNL d   1      -1.493  -5.446  -5.393  0.00  0.00     0.002 A 
ATOM      6  C7  UNL d   1      -2.333  -4.511  -6.000  0.00  0.00     0.002 A 
ENDROOT
BRANCH   1   7
ATOM      7  C1  UNL d   1      -4.396  -3.058  -6.000  0.00  0.00     0.055 C 
ATOM      8  C   UNL d   1      -5.728  -2.943  -5.272  0.00  0.00     0.019 C 
ENDBRANCH   1   7
TORSDOF 1
ENDMDL
