MODEL 1
REMARK minimizedAffinity -2.12312341
REMARK minimizedRMSD -1
REMARK  1 active torsions:
REMARK  status: ('A' for Active; 'I' for Inactive)
REMARK    1  A    between atoms: C1_2  and  C2_3 
ROOT
ATOM      1  C2  UNL d   1      -4.059  -4.447  -3.976  0.00  0.00    -0.077 A 
ATOM      2  C3  UNL d   1      -4.119  -5.404  -4.999  0.00  0.00     0.002 A 
ATOM      3  C4  UNL d   1      -5.088  -5.308  -6.000  0.00  0.00     0.002 A 
ATOM      4  C5  UNL d   1      -6.000  -4.255  -5.990  0.00  0.00    -0.004 A 
ATOM      5  C6  UNL d   1      -5.949  -3.299  -4.976  0.00  0.00     0.002 A 
ATOM      6  C7  UNL d   1      -4.983  -3.395  -3.974  0.00  0.00     0.002 A 
ENDROOT
BRANCH   1   7
ATOM      7  C1  UNL d   1      -2.984  -4.522  -2.923  0.00  0.00     0.055 C 
ATOM      8  C   UNL d   1      -2.363  -5.910  -2.863  0.00  0.00     0.019 C 
ENDBRANCH   1   7
TORSDOF 1
ENDMDL
