MODEL 1
REMARK minimizedAffinity -3.58958244
REMARK minimizedRMSD -1
REMARK  1 active torsions:
REMARK  status: ('A' for Active; 'I' for Inactive)
REMARK    1  A    between atoms: C1_2  and  C2_3 
ROOT
ATOM      1  C2  UNL d   1      -3.736  -5.074  -5.138  0.00  0.00    -0.077 A 
ATOM      2  C3  UNL d   1      -4.868  -5.277  -5.940  0.00  0.00     0.002 A 
ATOM      3  C4  UNL d   1      -5.994  -4.465  -5.790  0.00  0.00     0.002 A 
ATOM      4  C5  UNL d   1      -5.997  -3.443  -4.843  0.00  0.00    -0.004 A 
ATOM      5  C6  UNL d   1      -4.877  -3.235  -4.039  0.00  0.00     0.002 A 
ATOM      6  C7  UNL d   1      -3.751  -4.046  -4.187  0.00  0.00     0.002 A 
ENDROOT
BRANCH   1   7
ATOM      7  C1  UNL d   1      -2.503  -5.917  -5.332  0.00  0.00     0.055 C 
ATOM      8  C   UNL d   1      -1.381  -5.117  -5.979  0.00  0.00     0.019 C 
ENDBRANCH   1   7
TORSDOF 1
ENDMDL
