MODEL 1
REMARK minimizedAffinity 3.94299841
REMARK minimizedRMSD -1
REMARK  1 active torsions:
REMARK  status: ('A' for Active; 'I' for Inactive)
REMARK    1  A    between atoms: C1_2  and  C2_3 
ROOT
ATOM      1  C2  UNL d   1      -0.032  -0.409   0.864  0.00  0.00    -0.077 A 
ATOM      2  C3  UNL d   1       0.744  -1.329   1.583  0.00  0.00     0.002 A 
ATOM      3  C4  UNL d   1       0.214  -2.569   1.947  0.00  0.00     0.002 A 
ATOM      4  C5  UNL d   1      -1.092  -2.901   1.593  0.00  0.00    -0.004 A 
ATOM      5  C6  UNL d   1      -1.873  -1.992   0.880  0.00  0.00     0.002 A 
ATOM      6  C7  UNL d   1      -1.345  -0.752   0.516  0.00  0.00     0.002 A 
ENDROOT
BRANCH   1   7
ATOM      7  C1  UNL d   1       0.554   0.908   0.428  0.00  0.00     0.055 C 
ATOM      8  C   UNL d   1       1.945   1.114   1.008  0.00  0.00     0.019 C 
ENDBRANCH   1   7
TORSDOF 1
ENDMDL
