MODEL 1
REMARK minimizedAffinity -1.01160777
REMARK minimizedRMSD -1
REMARK  1 active torsions:
REMARK  status: ('A' for Active; 'I' for Inactive)
REMARK    1  A    between atoms: C1_2  and  C2_3 
ROOT
ATOM      1  C2  UNL d   1      -4.354  -3.737  -5.179  0.00  0.00    -0.077 A 
ATOM      2  C3  UNL d   1      -3.571  -4.561  -6.000  0.00  0.00     0.002 A 
ATOM      3  C4  UNL d   1      -2.503  -5.282  -5.463  0.00  0.00     0.002 A 
ATOM      4  C5  UNL d   1      -2.210  -5.188  -4.104  0.00  0.00    -0.004 A 
ATOM      5  C6  UNL d   1      -2.982  -4.370  -3.280  0.00  0.00     0.002 A 
ATOM      6  C7  UNL d   1      -4.049  -3.648  -3.815  0.00  0.00     0.002 A 
ENDROOT
BRANCH   1   7
ATOM      7  C1  UNL d   1      -5.537  -2.997  -5.747  0.00  0.00     0.055 C 
ATOM      8  C   UNL d   1      -5.999  -1.889  -4.811  0.00  0.00     0.019 C 
ENDBRANCH   1   7
TORSDOF 1
ENDMDL
