MODEL 1
REMARK minimizedAffinity -3.22476411
REMARK minimizedRMSD -1
REMARK  1 active torsions:
REMARK  status: ('A' for Active; 'I' for Inactive)
REMARK    1  A    between atoms: N_2  and  C1_3 
ROOT
ATOM      1  C1  UNL d   1       0.500   0.404  -0.702  0.00  0.00     0.143 A 
ATOM      2  C2  UNL d   1       0.731  -0.975  -0.747  0.00  0.00    -0.057 A 
ATOM      3  C3  UNL d   1       0.140  -1.840   0.183  0.00  0.00     0.033 A 
ATOM      4  C4  UNL d   1      -0.671  -1.336   1.194  0.00  0.00    -0.042 A 
ATOM      5  C5  UNL d   1      -0.894   0.035   1.273  0.00  0.00     0.033 A 
ATOM      6  C6  UNL d   1      -0.307   0.893   0.338  0.00  0.00    -0.057 A 
ENDROOT
BRANCH   1   7
ATOM      7  N   UNL d   1       1.136   1.326  -1.537  0.00  0.00    -0.732 N 
ATOM      8  C   UNL d   1       0.470   1.836  -2.716  0.00  0.00     0.284 C 
ATOM      9  H3  UNL d   1       1.654   2.030  -1.015  0.00  0.00     0.395 HD
ENDBRANCH   1   7
TORSDOF 1
ENDMDL
