MODEL 1
REMARK minimizedAffinity -4.6237545
REMARK minimizedRMSD -1
REMARK  1 active torsions:
REMARK  status: ('A' for Active; 'I' for Inactive)
REMARK    1  A    between atoms: N_2  and  C1_3 
ROOT
ATOM      1  C1  UNL d   1      -0.088   0.036   0.115  0.00  0.00     0.143 A 
ATOM      2  C2  UNL d   1      -1.453  -0.083   0.401  0.00  0.00    -0.057 A 
ATOM      3  C3  UNL d   1      -2.002  -1.298   0.826  0.00  0.00     0.033 A 
ATOM      4  C4  UNL d   1      -1.199  -2.428   0.945  0.00  0.00    -0.042 A 
ATOM      5  C5  UNL d   1       0.155  -2.339   0.642  0.00  0.00     0.033 A 
ATOM      6  C6  UNL d   1       0.699  -1.121   0.224  0.00  0.00    -0.057 A 
ENDROOT
BRANCH   1   7
ATOM      7  N   UNL d   1       0.500   1.191  -0.406  0.00  0.00    -0.732 N 
ATOM      8  C   UNL d   1       0.468   1.458  -1.828  0.00  0.00     0.284 C 
ATOM      9  H3  UNL d   1       0.329   2.010   0.174  0.00  0.00     0.395 HD
ENDBRANCH   1   7
TORSDOF 1
ENDMDL
