MODEL 1
REMARK minimizedAffinity -2.16753507
REMARK minimizedRMSD -1
REMARK  1 active torsions:
REMARK  status: ('A' for Active; 'I' for Inactive)
REMARK    1  A    between atoms: N_2  and  C1_3 
ROOT
ATOM      1  C1  UNL d   1       0.640   0.344  -0.176  0.00  0.00     0.143 A 
ATOM      2  C2  UNL d   1      -0.697   0.247   0.224  0.00  0.00    -0.057 A 
ATOM      3  C3  UNL d   1      -1.179  -0.893   0.877  0.00  0.00     0.033 A 
ATOM      4  C4  UNL d   1      -0.336  -1.974   1.117  0.00  0.00    -0.042 A 
ATOM      5  C5  UNL d   1       0.990  -1.910   0.706  0.00  0.00     0.033 A 
ATOM      6  C6  UNL d   1       1.468  -0.766   0.060  0.00  0.00    -0.057 A 
ENDROOT
BRANCH   1   7
ATOM      7  N   UNL d   1       1.156   1.410  -0.916  0.00  0.00    -0.732 N 
ATOM      8  C   UNL d   1       0.794   1.585  -2.306  0.00  0.00     0.284 C 
ATOM      9  H3  UNL d   1       1.185   2.275  -0.382  0.00  0.00     0.395 HD
ENDBRANCH   1   7
TORSDOF 1
ENDMDL
