MODEL 1
REMARK minimizedAffinity -0.482012957
REMARK minimizedRMSD -1
REMARK  1 active torsions:
REMARK  status: ('A' for Active; 'I' for Inactive)
REMARK    1  A    between atoms: N_2  and  C1_3 
ROOT
ATOM      1  C1  UNL d   1       0.610   0.001  -0.337  0.00  0.00     0.143 A 
ATOM      2  C2  UNL d   1       0.940   1.358  -0.255  0.00  0.00    -0.057 A 
ATOM      3  C3  UNL d   1       0.942   2.175  -1.392  0.00  0.00     0.033 A 
ATOM      4  C4  UNL d   1       0.641   1.640  -2.640  0.00  0.00    -0.042 A 
ATOM      5  C5  UNL d   1       0.334   0.288  -2.749  0.00  0.00     0.033 A 
ATOM      6  C6  UNL d   1       0.328  -0.521  -1.609  0.00  0.00    -0.057 A 
ENDROOT
BRANCH   1   7
ATOM      7  N   UNL d   1       0.687  -0.885   0.741  0.00  0.00    -0.732 N 
ATOM      8  C   UNL d   1       0.759  -2.313   0.518  0.00  0.00     0.284 C 
ATOM      9  H3  UNL d   1       1.301  -0.548   1.478  0.00  0.00     0.395 HD
ENDBRANCH   1   7
TORSDOF 1
ENDMDL
