MODEL 1
REMARK minimizedAffinity -1.477687
REMARK minimizedRMSD -1
REMARK  1 active torsions:
REMARK  status: ('A' for Active; 'I' for Inactive)
REMARK    1  A    between atoms: N_2  and  C1_3 
ROOT
ATOM      1  C1  UNL d   1       0.357   0.166   0.260  0.00  0.00     0.143 A 
ATOM      2  C2  UNL d   1      -0.729  -0.178   1.073  0.00  0.00    -0.057 A 
ATOM      3  C3  UNL d   1      -0.912  -1.492   1.521  0.00  0.00     0.033 A 
ATOM      4  C4  UNL d   1      -0.027  -2.494   1.139  0.00  0.00    -0.042 A 
ATOM      5  C5  UNL d   1       1.045  -2.180   0.311  0.00  0.00     0.033 A 
ATOM      6  C6  UNL d   1       1.227  -0.865  -0.128  0.00  0.00    -0.057 A 
ENDROOT
BRANCH   1   7
ATOM      7  N   UNL d   1       0.539   1.433  -0.299  0.00  0.00    -0.732 N 
ATOM      8  C   UNL d   1       0.954   1.578  -1.677  0.00  0.00     0.284 C 
ATOM      9  H3  UNL d   1      -0.179   2.093  -0.009  0.00  0.00     0.395 HD
ENDBRANCH   1   7
TORSDOF 1
ENDMDL
