MODEL 1
REMARK minimizedAffinity -4.81703091
REMARK minimizedRMSD -1
REMARK  1 active torsions:
REMARK  status: ('A' for Active; 'I' for Inactive)
REMARK    1  A    between atoms: N_2  and  C1_3 
ROOT
ATOM      1  C1  UNL d   1      -0.486  -0.691   0.798  0.00  0.00     0.143 A 
ATOM      2  C2  UNL d   1      -0.778  -1.931   1.376  0.00  0.00    -0.057 A 
ATOM      3  C3  UNL d   1      -1.881  -2.096   2.223  0.00  0.00     0.033 A 
ATOM      4  C4  UNL d   1      -2.696  -1.012   2.531  0.00  0.00    -0.042 A 
ATOM      5  C5  UNL d   1      -2.411   0.236   1.988  0.00  0.00     0.033 A 
ATOM      6  C6  UNL d   1      -1.312   0.392   1.137  0.00  0.00    -0.057 A 
ENDROOT
BRANCH   1   7
ATOM      7  N   UNL d   1       0.651  -0.442   0.026  0.00  0.00    -0.732 N 
ATOM      8  C   UNL d   1       0.825   0.831  -0.640  0.00  0.00     0.284 C 
ATOM      9  H3  UNL d   1       1.499  -0.806   0.455  0.00  0.00     0.395 HD
ENDBRANCH   1   7
TORSDOF 1
ENDMDL
