MODEL 1
REMARK minimizedAffinity 7.64675856
REMARK minimizedRMSD -1
REMARK  1 active torsions:
REMARK  status: ('A' for Active; 'I' for Inactive)
REMARK    1  A    between atoms: N_2  and  C1_3 
ROOT
ATOM      1  C1  UNL d   1      -1.409  -5.346  -4.608  0.00  0.00     0.143 A 
ATOM      2  C2  UNL d   1      -2.461  -5.998  -5.260  0.00  0.00    -0.057 A 
ATOM      3  C3  UNL d   1      -3.440  -5.279  -5.957  0.00  0.00     0.033 A 
ATOM      4  C4  UNL d   1      -3.400  -3.889  -5.988  0.00  0.00    -0.042 A 
ATOM      5  C5  UNL d   1      -2.377  -3.219  -5.326  0.00  0.00     0.033 A 
ATOM      6  C6  UNL d   1      -1.399  -3.943  -4.638  0.00  0.00    -0.057 A 
ENDROOT
BRANCH   1   7
ATOM      7  N   UNL d   1      -0.461  -6.000  -3.817  0.00  0.00    -0.732 N 
ATOM      8  C   UNL d   1       0.945  -5.949  -4.158  0.00  0.00     0.284 C 
ATOM      9  H3  UNL d   1      -0.651  -5.901  -2.822  0.00  0.00     0.395 HD
ENDBRANCH   1   7
TORSDOF 1
ENDMDL
