MODEL 1
REMARK minimizedAffinity -2.55835938
REMARK minimizedRMSD -1
REMARK  1 active torsions:
REMARK  status: ('A' for Active; 'I' for Inactive)
REMARK    1  A    between atoms: N_2  and  C1_3 
ROOT
ATOM      1  C1  UNL d   1       1.027   1.412  -0.761  0.00  0.00     0.143 A 
ATOM      2  C2  UNL d   1       2.323   1.689  -1.211  0.00  0.00    -0.057 A 
ATOM      3  C3  UNL d   1       2.547   2.272  -2.464  0.00  0.00     0.033 A 
ATOM      4  C4  UNL d   1       1.477   2.563  -3.304  0.00  0.00    -0.042 A 
ATOM      5  C5  UNL d   1       0.182   2.273  -2.889  0.00  0.00     0.033 A 
ATOM      6  C6  UNL d   1      -0.035   1.696  -1.633  0.00  0.00    -0.057 A 
ENDROOT
BRANCH   1   7
ATOM      7  N   UNL d   1       0.745   0.743   0.432  0.00  0.00    -0.732 N 
ATOM      8  C   UNL d   1       0.825  -0.700   0.505  0.00  0.00     0.284 C 
ATOM      9  H3  UNL d   1       1.125   1.222   1.245  0.00  0.00     0.395 HD
ENDBRANCH   1   7
TORSDOF 1
ENDMDL
