MODEL 1
REMARK minimizedAffinity -2.99460936
REMARK minimizedRMSD -1
REMARK  1 active torsions:
REMARK  status: ('A' for Active; 'I' for Inactive)
REMARK    1  A    between atoms: N_2  and  C1_3 
ROOT
ATOM      1  C1  UNL d   1       0.338   0.460  -0.071  0.00  0.00     0.143 A 
ATOM      2  C2  UNL d   1      -0.848   0.814   0.581  0.00  0.00    -0.057 A 
ATOM      3  C3  UNL d   1      -1.538  -0.103   1.381  0.00  0.00     0.033 A 
ATOM      4  C4  UNL d   1      -1.069  -1.405   1.521  0.00  0.00    -0.042 A 
ATOM      5  C5  UNL d   1       0.095  -1.787   0.862  0.00  0.00     0.033 A 
ATOM      6  C6  UNL d   1       0.783  -0.864   0.069  0.00  0.00    -0.057 A 
ENDROOT
BRANCH   1   7
ATOM      7  N   UNL d   1       1.017   1.297  -0.960  0.00  0.00    -0.732 N 
ATOM      8  C   UNL d   1       0.619   1.377  -2.349  0.00  0.00     0.284 C 
ATOM      9  H3  UNL d   1       1.254   2.195  -0.543  0.00  0.00     0.395 HD
ENDBRANCH   1   7
TORSDOF 1
ENDMDL
