MODEL 1
REMARK minimizedAffinity -2.04864717
REMARK minimizedRMSD -1
REMARK  1 active torsions:
REMARK  status: ('A' for Active; 'I' for Inactive)
REMARK    1  A    between atoms: N_2  and  C1_3 
ROOT
ATOM      1  C1  UNL d   1       0.779   1.264  -1.216  0.00  0.00     0.143 A 
ATOM      2  C2  UNL d   1       2.079   1.382  -1.719  0.00  0.00    -0.057 A 
ATOM      3  C3  UNL d   1       2.313   1.784  -3.040  0.00  0.00     0.033 A 
ATOM      4  C4  UNL d   1       1.246   2.048  -3.892  0.00  0.00    -0.042 A 
ATOM      5  C5  UNL d   1      -0.055   1.913  -3.421  0.00  0.00     0.033 A 
ATOM      6  C6  UNL d   1      -0.282   1.518  -2.100  0.00  0.00    -0.057 A 
ENDROOT
BRANCH   1   7
ATOM      7  N   UNL d   1       0.479   0.774   0.057  0.00  0.00    -0.732 N 
ATOM      8  C   UNL d   1       0.913  -0.546   0.461  0.00  0.00     0.284 C 
ATOM      9  H3  UNL d   1       0.579   1.484   0.780  0.00  0.00     0.395 HD
ENDBRANCH   1   7
TORSDOF 1
ENDMDL
