MODEL 1
REMARK minimizedAffinity -4.32081413
REMARK minimizedRMSD -1
REMARK  2 active torsions:
REMARK  status: ('A' for Active; 'I' for Inactive)
REMARK    1  A    between atoms: C1_2  and  C2_3 
REMARK    2  A    between atoms: C2_3  and  C3_4 
ROOT
ATOM      1  C3  UNL d   1      -0.476   0.392  -0.281  0.00  0.00    -0.075 A 
ATOM      2  C4  UNL d   1       0.838   0.042  -0.626  0.00  0.00     0.002 A 
ATOM      3  C5  UNL d   1       1.464  -1.046  -0.017  0.00  0.00     0.002 A 
ATOM      4  C6  UNL d   1       0.791  -1.789   0.950  0.00  0.00    -0.004 A 
ATOM      5  C7  UNL d   1      -0.508  -1.440   1.313  0.00  0.00     0.002 A 
ATOM      6  C8  UNL d   1      -1.139  -0.355   0.702  0.00  0.00     0.002 A 
ENDROOT
BRANCH   1   7
ATOM      7  C2  UNL d   1      -1.170   1.550  -0.957  0.00  0.00     0.056 C 
BRANCH   7   8
ATOM      8  C1  UNL d   1      -2.288   1.132  -1.918  0.00  0.00     0.007 C 
ATOM      9  C   UNL d   1      -1.962   1.414  -3.379  0.00  0.00     0.009 C 
ENDBRANCH   7   8
ENDBRANCH   1   7
TORSDOF 2
ENDMDL
