MODEL 1
REMARK minimizedAffinity -4.7621088
REMARK minimizedRMSD -1
REMARK  2 active torsions:
REMARK  status: ('A' for Active; 'I' for Inactive)
REMARK    1  A    between atoms: C1_2  and  C2_3 
REMARK    2  A    between atoms: C2_3  and  C3_4 
ROOT
ATOM      1  C3  UNL d   1       0.378   0.086  -0.082  0.00  0.00    -0.075 A 
ATOM      2  C4  UNL d   1       1.634  -0.391  -0.486  0.00  0.00     0.002 A 
ATOM      3  C5  UNL d   1       2.184  -1.526   0.110  0.00  0.00     0.002 A 
ATOM      4  C6  UNL d   1       1.494  -2.191   1.121  0.00  0.00    -0.004 A 
ATOM      5  C7  UNL d   1       0.253  -1.716   1.541  0.00  0.00     0.002 A 
ATOM      6  C8  UNL d   1      -0.302  -0.583   0.943  0.00  0.00     0.002 A 
ENDROOT
BRANCH   1   7
ATOM      7  C2  UNL d   1      -0.237   1.297  -0.743  0.00  0.00     0.056 C 
BRANCH   7   8
ATOM      8  C1  UNL d   1      -1.564   1.012  -1.456  0.00  0.00     0.007 C 
ATOM      9  C   UNL d   1      -1.787   1.888  -2.681  0.00  0.00     0.009 C 
ENDBRANCH   7   8
ENDBRANCH   1   7
TORSDOF 2
ENDMDL
