MODEL 1
REMARK minimizedAffinity -5.5656743
REMARK minimizedRMSD -1
REMARK  2 active torsions:
REMARK  status: ('A' for Active; 'I' for Inactive)
REMARK    1  A    between atoms: C1_2  and  C2_3 
REMARK    2  A    between atoms: C2_3  and  C3_4 
ROOT
ATOM      1  C3  UNL d   1       0.097   1.131   0.051  0.00  0.00    -0.075 A 
ATOM      2  C4  UNL d   1      -0.943   0.779   0.924  0.00  0.00     0.002 A 
ATOM      3  C5  UNL d   1      -0.987  -0.493   1.495  0.00  0.00     0.002 A 
ATOM      4  C6  UNL d   1      -0.001  -1.430   1.194  0.00  0.00    -0.004 A 
ATOM      5  C7  UNL d   1       1.027  -1.096   0.316  0.00  0.00     0.002 A 
ATOM      6  C8  UNL d   1       1.077   0.177  -0.254  0.00  0.00     0.002 A 
ENDROOT
BRANCH   1   7
ATOM      7  C2  UNL d   1       0.167   2.516  -0.547  0.00  0.00     0.056 C 
BRANCH   7   8
ATOM      8  C1  UNL d   1       0.691   3.586   0.417  0.00  0.00     0.007 C 
ATOM      9  C   UNL d   1       2.211   3.673   0.449  0.00  0.00     0.009 C 
ENDBRANCH   7   8
ENDBRANCH   1   7
TORSDOF 2
ENDMDL
