MODEL 1
REMARK minimizedAffinity -3.91480207
REMARK minimizedRMSD -1
REMARK  2 active torsions:
REMARK  status: ('A' for Active; 'I' for Inactive)
REMARK    1  A    between atoms: C1_2  and  C2_3 
REMARK    2  A    between atoms: C2_3  and  C3_4 
ROOT
ATOM      1  C3  UNL d   1       0.158   2.824  -0.671  0.00  0.00    -0.075 A 
ATOM      2  C4  UNL d   1      -0.398   3.405  -1.821  0.00  0.00     0.002 A 
ATOM      3  C5  UNL d   1      -1.419   2.758  -2.518  0.00  0.00     0.002 A 
ATOM      4  C6  UNL d   1      -1.889   1.522  -2.082  0.00  0.00    -0.004 A 
ATOM      5  C7  UNL d   1      -1.333   0.928  -0.951  0.00  0.00     0.002 A 
ATOM      6  C8  UNL d   1      -0.314   1.574  -0.249  0.00  0.00     0.002 A 
ENDROOT
BRANCH   1   7
ATOM      7  C2  UNL d   1       1.243   3.533   0.105  0.00  0.00     0.056 C 
BRANCH   7   8
ATOM      8  C1  UNL d   1       2.594   2.809   0.090  0.00  0.00     0.007 C 
ATOM      9  C   UNL d   1       3.750   3.705  -0.334  0.00  0.00     0.009 C 
ENDBRANCH   7   8
ENDBRANCH   1   7
TORSDOF 2
ENDMDL
