MODEL 1
REMARK minimizedAffinity -2.30651951
REMARK minimizedRMSD -1
REMARK  2 active torsions:
REMARK  status: ('A' for Active; 'I' for Inactive)
REMARK    1  A    between atoms: C1_2  and  C2_3 
REMARK    2  A    between atoms: C2_3  and  C3_4 
ROOT
ATOM      1  C3  UNL d   1       1.192   0.098  -0.068  0.00  0.00    -0.075 A 
ATOM      2  C4  UNL d   1      -0.098   0.637   0.047  0.00  0.00     0.002 A 
ATOM      3  C5  UNL d   1      -1.160  -0.154   0.485  0.00  0.00     0.002 A 
ATOM      4  C6  UNL d   1      -0.949  -1.494   0.803  0.00  0.00    -0.004 A 
ATOM      5  C7  UNL d   1       0.325  -2.044   0.678  0.00  0.00     0.002 A 
ATOM      6  C8  UNL d   1       1.390  -1.254   0.244  0.00  0.00     0.002 A 
ENDROOT
BRANCH   1   7
ATOM      7  C2  UNL d   1       2.352   0.957  -0.513  0.00  0.00     0.056 C 
BRANCH   7   8
ATOM      8  C1  UNL d   1       2.309   2.391   0.027  0.00  0.00     0.007 C 
ATOM      9  C   UNL d   1       3.576   3.182  -0.272  0.00  0.00     0.009 C 
ENDBRANCH   7   8
ENDBRANCH   1   7
TORSDOF 2
ENDMDL
