MODEL 1
REMARK minimizedAffinity -1.56257915
REMARK minimizedRMSD -1
REMARK  2 active torsions:
REMARK  status: ('A' for Active; 'I' for Inactive)
REMARK    1  A    between atoms: C1_2  and  C2_3 
REMARK    2  A    between atoms: C2_3  and  C3_4 
ROOT
ATOM      1  C3  UNL d   1       0.380  -1.691   0.317  0.00  0.00    -0.075 A 
ATOM      2  C4  UNL d   1      -0.759  -1.566   1.126  0.00  0.00     0.002 A 
ATOM      3  C5  UNL d   1      -1.447  -0.355   1.198  0.00  0.00     0.002 A 
ATOM      4  C6  UNL d   1      -1.000   0.748   0.473  0.00  0.00    -0.004 A 
ATOM      5  C7  UNL d   1       0.139   0.639  -0.321  0.00  0.00     0.002 A 
ATOM      6  C8  UNL d   1       0.827  -0.573  -0.399  0.00  0.00     0.002 A 
ENDROOT
BRANCH   1   7
ATOM      7  C2  UNL d   1       1.112  -3.008   0.211  0.00  0.00     0.056 C 
BRANCH   7   8
ATOM      8  C1  UNL d   1       1.890  -3.392   1.474  0.00  0.00     0.007 C 
ATOM      9  C   UNL d   1       2.677  -2.233   2.071  0.00  0.00     0.009 C 
ENDBRANCH   7   8
ENDBRANCH   1   7
TORSDOF 2
ENDMDL
