MODEL 1
REMARK minimizedAffinity -1.69500363
REMARK minimizedRMSD -1
REMARK  2 active torsions:
REMARK  status: ('A' for Active; 'I' for Inactive)
REMARK    1  A    between atoms: C1_2  and  C2_3 
REMARK    2  A    between atoms: C2_3  and  C3_4 
ROOT
ATOM      1  C3  UNL d   1       1.007   2.392  -0.052  0.00  0.00    -0.075 A 
ATOM      2  C4  UNL d   1       2.384   2.161  -0.177  0.00  0.00     0.002 A 
ATOM      3  C5  UNL d   1       3.304   3.011   0.438  0.00  0.00     0.002 A 
ATOM      4  C6  UNL d   1       2.860   4.106   1.176  0.00  0.00    -0.004 A 
ATOM      5  C7  UNL d   1       1.494   4.355   1.293  0.00  0.00     0.002 A 
ATOM      6  C8  UNL d   1       0.571   3.503   0.682  0.00  0.00     0.002 A 
ENDROOT
BRANCH   1   7
ATOM      7  C2  UNL d   1       0.005   1.459  -0.690  0.00  0.00     0.056 C 
BRANCH   7   8
ATOM      8  C1  UNL d   1      -0.045   0.067  -0.052  0.00  0.00     0.007 C 
ATOM      9  C   UNL d   1      -0.805   0.038   1.267  0.00  0.00     0.009 C 
ENDBRANCH   7   8
ENDBRANCH   1   7
TORSDOF 2
ENDMDL
