MODEL 1
REMARK minimizedAffinity -4.53597593
REMARK minimizedRMSD -1
REMARK  2 active torsions:
REMARK  status: ('A' for Active; 'I' for Inactive)
REMARK    1  A    between atoms: C1_2  and  C2_3 
REMARK    2  A    between atoms: C2_3  and  C3_4 
ROOT
ATOM      1  C3  UNL d   1       0.303  -0.305   0.094  0.00  0.00    -0.075 A 
ATOM      2  C4  UNL d   1       1.691  -0.224   0.271  0.00  0.00     0.002 A 
ATOM      3  C5  UNL d   1       2.413  -1.327   0.728  0.00  0.00     0.002 A 
ATOM      4  C6  UNL d   1       1.755  -2.520   1.023  0.00  0.00    -0.004 A 
ATOM      5  C7  UNL d   1       0.374  -2.606   0.866  0.00  0.00     0.002 A 
ATOM      6  C8  UNL d   1      -0.350  -1.505   0.405  0.00  0.00     0.002 A 
ENDROOT
BRANCH   1   7
ATOM      7  C2  UNL d   1      -0.480   0.877  -0.428  0.00  0.00     0.056 C 
BRANCH   7   8
ATOM      8  C1  UNL d   1      -1.405   0.542  -1.602  0.00  0.00     0.007 C 
ATOM      9  C   UNL d   1      -1.215   1.465  -2.798  0.00  0.00     0.009 C 
ENDBRANCH   7   8
ENDBRANCH   1   7
TORSDOF 2
ENDMDL
