MODEL 1
REMARK minimizedAffinity -1.68683648
REMARK minimizedRMSD -1
REMARK  2 active torsions:
REMARK  status: ('A' for Active; 'I' for Inactive)
REMARK    1  A    between atoms: C1_2  and  C2_3 
REMARK    2  A    between atoms: C2_3  and  C3_4 
ROOT
ATOM      1  C3  UNL d   1      -0.741   0.198  -0.334  0.00  0.00    -0.075 A 
ATOM      2  C4  UNL d   1      -0.369  -1.119  -0.640  0.00  0.00     0.002 A 
ATOM      3  C5  UNL d   1      -0.369  -2.103   0.350  0.00  0.00     0.002 A 
ATOM      4  C6  UNL d   1      -0.731  -1.782   1.656  0.00  0.00    -0.004 A 
ATOM      5  C7  UNL d   1      -1.086  -0.473   1.975  0.00  0.00     0.002 A 
ATOM      6  C8  UNL d   1      -1.091   0.513   0.986  0.00  0.00     0.002 A 
ENDROOT
BRANCH   1   7
ATOM      7  C2  UNL d   1      -0.771   1.261  -1.406  0.00  0.00     0.056 C 
BRANCH   7   8
ATOM      8  C1  UNL d   1      -2.126   1.399  -2.109  0.00  0.00     0.007 C 
ATOM      9  C   UNL d   1      -2.026   1.311  -3.626  0.00  0.00     0.009 C 
ENDBRANCH   7   8
ENDBRANCH   1   7
TORSDOF 2
ENDMDL
