MODEL 1
REMARK minimizedAffinity -5.39416742
REMARK minimizedRMSD -1
REMARK  2 active torsions:
REMARK  status: ('A' for Active; 'I' for Inactive)
REMARK    1  A    between atoms: C1_2  and  C2_3 
REMARK    2  A    between atoms: C2_3  and  C3_4 
ROOT
ATOM      1  C3  UNL d   1       0.470   0.996  -0.005  0.00  0.00    -0.075 A 
ATOM      2  C4  UNL d   1      -0.219   2.185   0.274  0.00  0.00     0.002 A 
ATOM      3  C5  UNL d   1       0.467   3.396   0.370  0.00  0.00     0.002 A 
ATOM      4  C6  UNL d   1       1.849   3.432   0.198  0.00  0.00    -0.004 A 
ATOM      5  C7  UNL d   1       2.546   2.254  -0.064  0.00  0.00     0.002 A 
ATOM      6  C8  UNL d   1       1.862   1.042  -0.164  0.00  0.00     0.002 A 
ENDROOT
BRANCH   1   7
ATOM      7  C2  UNL d   1      -0.270  -0.314  -0.138  0.00  0.00     0.056 C 
BRANCH   7   8
ATOM      8  C1  UNL d   1      -0.074  -1.265   1.047  0.00  0.00     0.007 C 
ATOM      9  C   UNL d   1       0.692  -2.529   0.682  0.00  0.00     0.009 C 
ENDBRANCH   7   8
ENDBRANCH   1   7
TORSDOF 2
ENDMDL
