MODEL 1
REMARK minimizedAffinity -1.9364742
REMARK minimizedRMSD -1
REMARK  2 active torsions:
REMARK  status: ('A' for Active; 'I' for Inactive)
REMARK    1  A    between atoms: C1_2  and  C2_3 
REMARK    2  A    between atoms: C2_3  and  C3_4 
ROOT
ATOM      1  C3  UNL d   1       0.354  -1.275   0.099  0.00  0.00    -0.075 A 
ATOM      2  C4  UNL d   1      -0.898  -0.841   0.557  0.00  0.00     0.002 A 
ATOM      3  C5  UNL d   1      -1.315   0.473   0.340  0.00  0.00     0.002 A 
ATOM      4  C6  UNL d   1      -0.483   1.370  -0.327  0.00  0.00    -0.004 A 
ATOM      5  C7  UNL d   1       0.770   0.954  -0.771  0.00  0.00     0.002 A 
ATOM      6  C8  UNL d   1       1.188  -0.361  -0.560  0.00  0.00     0.002 A 
ENDROOT
BRANCH   1   7
ATOM      7  C2  UNL d   1       0.799  -2.703   0.305  0.00  0.00     0.056 C 
BRANCH   7   8
ATOM      8  C1  UNL d   1       1.636  -2.920   1.570  0.00  0.00     0.007 C 
ATOM      9  C   UNL d   1       2.609  -1.782   1.849  0.00  0.00     0.009 C 
ENDBRANCH   7   8
ENDBRANCH   1   7
TORSDOF 2
ENDMDL
