MODEL 1
REMARK minimizedAffinity -2.2685864
REMARK minimizedRMSD -1
REMARK  2 active torsions:
REMARK  status: ('A' for Active; 'I' for Inactive)
REMARK    1  A    between atoms: C1_2  and  C2_3 
REMARK    2  A    between atoms: C2_3  and  C3_4 
ROOT
ATOM      1  C3  UNL d   1       0.752  -0.069   0.553  0.00  0.00    -0.075 A 
ATOM      2  C4  UNL d   1       1.967  -0.668   0.915  0.00  0.00     0.002 A 
ATOM      3  C5  UNL d   1       2.030  -2.035   1.185  0.00  0.00     0.002 A 
ATOM      4  C6  UNL d   1       0.880  -2.817   1.107  0.00  0.00    -0.004 A 
ATOM      5  C7  UNL d   1      -0.336  -2.230   0.765  0.00  0.00     0.002 A 
ATOM      6  C8  UNL d   1      -0.401  -0.863   0.489  0.00  0.00     0.002 A 
ENDROOT
BRANCH   1   7
ATOM      7  C2  UNL d   1       0.682   1.405   0.230  0.00  0.00     0.056 C 
BRANCH   7   8
ATOM      8  C1  UNL d   1       1.977   2.170   0.526  0.00  0.00     0.007 C 
ATOM      9  C   UNL d   1       1.765   3.669   0.689  0.00  0.00     0.009 C 
ENDBRANCH   7   8
ENDBRANCH   1   7
TORSDOF 2
ENDMDL
