MODEL 1
REMARK minimizedAffinity 9.52956486
REMARK minimizedRMSD -1
REMARK  2 active torsions:
REMARK  status: ('A' for Active; 'I' for Inactive)
REMARK    1  A    between atoms: C1_2  and  C2_3 
REMARK    2  A    between atoms: C2_3  and  C3_4 
ROOT
ATOM      1  C3  UNL d   1       3.061   1.595  -5.272  0.00  0.00    -0.075 A 
ATOM      2  C4  UNL d   1       1.851   1.578  -5.981  0.00  0.00     0.002 A 
ATOM      3  C5  UNL d   1       0.836   0.689  -5.626  0.00  0.00     0.002 A 
ATOM      4  C6  UNL d   1       1.020  -0.198  -4.568  0.00  0.00    -0.004 A 
ATOM      5  C7  UNL d   1       2.224  -0.200  -3.867  0.00  0.00     0.002 A 
ATOM      6  C8  UNL d   1       3.240   0.690  -4.217  0.00  0.00     0.002 A 
ENDROOT
BRANCH   1   7
ATOM      7  C2  UNL d   1       4.153   2.574  -5.632  0.00  0.00     0.056 C 
BRANCH   7   8
ATOM      8  C1  UNL d   1       4.563   3.501  -4.483  0.00  0.00     0.007 C 
ATOM      9  C   UNL d   1       3.635   4.697  -4.315  0.00  0.00     0.009 C 
ENDBRANCH   7   8
ENDBRANCH   1   7
TORSDOF 2
ENDMDL
