MODEL 1
REMARK minimizedAffinity 8.57023811
REMARK minimizedRMSD -1
REMARK  2 active torsions:
REMARK  status: ('A' for Active; 'I' for Inactive)
REMARK    1  A    between atoms: C1_2  and  C2_3 
REMARK    2  A    between atoms: C2_3  and  C3_4 
ROOT
ATOM      1  C3  UNL d   1       1.504   0.153   3.352  0.00  0.00    -0.075 A 
ATOM      2  C4  UNL d   1       0.784  -0.974   3.775  0.00  0.00     0.002 A 
ATOM      3  C5  UNL d   1      -0.611  -0.973   3.748  0.00  0.00     0.002 A 
ATOM      4  C6  UNL d   1      -1.302   0.154   3.309  0.00  0.00    -0.004 A 
ATOM      5  C7  UNL d   1      -0.597   1.285   2.903  0.00  0.00     0.002 A 
ATOM      6  C8  UNL d   1       0.799   1.285   2.924  0.00  0.00     0.002 A 
ENDROOT
BRANCH   1   7
ATOM      7  C2  UNL d   1       3.014   0.148   3.351  0.00  0.00     0.056 C 
BRANCH   7   8
ATOM      8  C1  UNL d   1       3.638   0.477   1.991  0.00  0.00     0.007 C 
ATOM      9  C   UNL d   1       5.153   0.322   1.972  0.00  0.00     0.009 C 
ENDBRANCH   7   8
ENDBRANCH   1   7
TORSDOF 2
ENDMDL
