MODEL 1
REMARK minimizedAffinity 11.1057539
REMARK minimizedRMSD -1
REMARK  2 active torsions:
REMARK  status: ('A' for Active; 'I' for Inactive)
REMARK    1  A    between atoms: C1_2  and  C2_3 
REMARK    2  A    between atoms: C2_3  and  C3_4 
ROOT
ATOM      1  C3  UNL d   1       2.766   1.653  -3.097  0.00  0.00    -0.075 A 
ATOM      2  C4  UNL d   1       1.985   2.087  -2.017  0.00  0.00     0.002 A 
ATOM      3  C5  UNL d   1       1.815   3.449  -1.767  0.00  0.00     0.002 A 
ATOM      4  C6  UNL d   1       2.430   4.392  -2.587  0.00  0.00    -0.004 A 
ATOM      5  C7  UNL d   1       3.222   3.972  -3.654  0.00  0.00     0.002 A 
ATOM      6  C8  UNL d   1       3.390   2.610  -3.908  0.00  0.00     0.002 A 
ENDROOT
BRANCH   1   7
ATOM      7  C2  UNL d   1       2.929   0.180  -3.390  0.00  0.00     0.056 C 
BRANCH   7   8
ATOM      8  C1  UNL d   1       1.606  -0.585  -3.501  0.00  0.00     0.007 C 
ATOM      9  C   UNL d   1       0.541   0.169  -4.286  0.00  0.00     0.009 C 
ENDBRANCH   7   8
ENDBRANCH   1   7
TORSDOF 2
ENDMDL
