MODEL 1
REMARK minimizedAffinity 7.61849689
REMARK minimizedRMSD -1
REMARK  2 active torsions:
REMARK  status: ('A' for Active; 'I' for Inactive)
REMARK    1  A    between atoms: C1_2  and  C2_3 
REMARK    2  A    between atoms: C2_3  and  C3_4 
ROOT
ATOM      1  C3  UNL d   1      -1.114  -3.593  -5.983  0.00  0.00    -0.075 A 
ATOM      2  C4  UNL d   1      -0.821  -4.965  -5.988  0.00  0.00     0.002 A 
ATOM      3  C5  UNL d   1      -1.849  -5.908  -6.000  0.00  0.00     0.002 A 
ATOM      4  C6  UNL d   1      -3.179  -5.493  -5.996  0.00  0.00    -0.004 A 
ATOM      5  C7  UNL d   1      -3.481  -4.133  -5.975  0.00  0.00     0.002 A 
ATOM      6  C8  UNL d   1      -2.455  -3.187  -5.967  0.00  0.00     0.002 A 
ENDROOT
BRANCH   1   7
ATOM      7  C2  UNL d   1      -0.006  -2.567  -6.000  0.00  0.00     0.056 C 
BRANCH   7   8
ATOM      8  C1  UNL d   1      -0.164  -1.461  -4.951  0.00  0.00     0.007 C 
ATOM      9  C   UNL d   1       1.092  -1.238  -4.120  0.00  0.00     0.009 C 
ENDBRANCH   7   8
ENDBRANCH   1   7
TORSDOF 2
ENDMDL
