MODEL 1
REMARK minimizedAffinity 10.295105
REMARK minimizedRMSD -1
REMARK  2 active torsions:
REMARK  status: ('A' for Active; 'I' for Inactive)
REMARK    1  A    between atoms: C1_2  and  C2_3 
REMARK    2  A    between atoms: C2_3  and  C3_4 
ROOT
ATOM      1  C3  UNL d   1      -0.605  -2.811  -5.780  0.00  0.00    -0.075 A 
ATOM      2  C4  UNL d   1      -1.804  -2.084  -5.798  0.00  0.00     0.002 A 
ATOM      3  C5  UNL d   1      -3.030  -2.742  -5.902  0.00  0.00     0.002 A 
ATOM      4  C6  UNL d   1      -3.072  -4.131  -6.000  0.00  0.00    -0.004 A 
ATOM      5  C7  UNL d   1      -1.886  -4.862  -6.000  0.00  0.00     0.002 A 
ATOM      6  C8  UNL d   1      -0.659  -4.207  -5.891  0.00  0.00     0.002 A 
ENDROOT
BRANCH   1   7
ATOM      7  C2  UNL d   1       0.723  -2.107  -5.638  0.00  0.00     0.056 C 
BRANCH   7   8
ATOM      8  C1  UNL d   1       1.014  -1.604  -4.220  0.00  0.00     0.007 C 
ATOM      9  C   UNL d   1       2.103  -0.540  -4.172  0.00  0.00     0.009 C 
ENDBRANCH   7   8
ENDBRANCH   1   7
TORSDOF 2
ENDMDL
