MODEL 1
REMARK minimizedAffinity 9.82460594
REMARK minimizedRMSD -1
REMARK  2 active torsions:
REMARK  status: ('A' for Active; 'I' for Inactive)
REMARK    1  A    between atoms: C1_2  and  C2_3 
REMARK    2  A    between atoms: C2_3  and  C3_4 
ROOT
ATOM      1  C3  UNL d   1       0.555   0.509  -1.564  0.00  0.00    -0.075 A 
ATOM      2  C4  UNL d   1       0.891   1.288  -2.681  0.00  0.00     0.002 A 
ATOM      3  C5  UNL d   1       1.273   0.683  -3.878  0.00  0.00     0.002 A 
ATOM      4  C6  UNL d   1       1.332  -0.706  -3.972  0.00  0.00    -0.004 A 
ATOM      5  C7  UNL d   1       1.016  -1.490  -2.865  0.00  0.00     0.002 A 
ATOM      6  C8  UNL d   1       0.630  -0.887  -1.667  0.00  0.00     0.002 A 
ENDROOT
BRANCH   1   7
ATOM      7  C2  UNL d   1       0.113   1.157  -0.274  0.00  0.00     0.056 C 
BRANCH   7   8
ATOM      8  C1  UNL d   1      -0.770   0.263   0.603  0.00  0.00     0.007 C 
ATOM      9  C   UNL d   1      -1.007   0.833   1.995  0.00  0.00     0.009 C 
ENDBRANCH   7   8
ENDBRANCH   1   7
TORSDOF 2
ENDMDL
