MODEL 1
REMARK minimizedAffinity 5.61986589
REMARK minimizedRMSD -1
REMARK  2 active torsions:
REMARK  status: ('A' for Active; 'I' for Inactive)
REMARK    1  A    between atoms: C1_2  and  C2_3 
REMARK    2  A    between atoms: C2_3  and  C3_4 
ROOT
ATOM      1  C3  UNL d   1      -4.562  -3.060   0.048  0.00  0.00    -0.075 A 
ATOM      2  C4  UNL d   1      -4.023  -4.287   0.461  0.00  0.00     0.002 A 
ATOM      3  C5  UNL d   1      -4.276  -5.452  -0.263  0.00  0.00     0.002 A 
ATOM      4  C6  UNL d   1      -5.076  -5.407  -1.403  0.00  0.00    -0.004 A 
ATOM      5  C7  UNL d   1      -5.631  -4.197  -1.813  0.00  0.00     0.002 A 
ATOM      6  C8  UNL d   1      -5.376  -3.029  -1.093  0.00  0.00     0.002 A 
ENDROOT
BRANCH   1   7
ATOM      7  C2  UNL d   1      -4.269  -1.790   0.811  0.00  0.00     0.056 C 
BRANCH   7   8
ATOM      8  C1  UNL d   1      -2.786  -1.405   0.834  0.00  0.00     0.007 C 
ATOM      9  C   UNL d   1      -2.554   0.074   1.113  0.00  0.00     0.009 C 
ENDBRANCH   7   8
ENDBRANCH   1   7
TORSDOF 2
ENDMDL
