MODEL 1
REMARK minimizedAffinity 17.131279
REMARK minimizedRMSD -1
REMARK  2 active torsions:
REMARK  status: ('A' for Active; 'I' for Inactive)
REMARK    1  A    between atoms: C1_2  and  C2_3 
REMARK    2  A    between atoms: C2_3  and  C3_4 
ROOT
ATOM      1  C3  UNL d   1       3.564   4.795  -4.792  0.00  0.00    -0.075 A 
ATOM      2  C4  UNL d   1       3.355   3.710  -5.655  0.00  0.00     0.002 A 
ATOM      3  C5  UNL d   1       4.408   2.861  -5.994  0.00  0.00     0.002 A 
ATOM      4  C6  UNL d   1       5.684   3.091  -5.484  0.00  0.00    -0.004 A 
ATOM      5  C7  UNL d   1       5.907   4.175  -4.638  0.00  0.00     0.002 A 
ATOM      6  C8  UNL d   1       4.854   5.024  -4.294  0.00  0.00     0.002 A 
ENDROOT
BRANCH   1   7
ATOM      7  C2  UNL d   1       2.421   5.700  -4.397  0.00  0.00     0.056 C 
BRANCH   7   8
ATOM      8  C1  UNL d   1       1.266   5.721  -5.404  0.00  0.00     0.007 C 
ATOM      9  C   UNL d   1      -0.086   5.997  -4.760  0.00  0.00     0.009 C 
ENDBRANCH   7   8
ENDBRANCH   1   7
TORSDOF 2
ENDMDL
