MODEL 1
REMARK minimizedAffinity 10.3943148
REMARK minimizedRMSD -1
REMARK  2 active torsions:
REMARK  status: ('A' for Active; 'I' for Inactive)
REMARK    1  A    between atoms: C1_2  and  C2_3 
REMARK    2  A    between atoms: C2_3  and  C3_4 
ROOT
ATOM      1  C3  UNL d   1       0.918  -1.934  -4.452  0.00  0.00    -0.075 A 
ATOM      2  C4  UNL d   1       2.124  -1.535  -5.046  0.00  0.00     0.002 A 
ATOM      3  C5  UNL d   1       2.792  -0.395  -4.597  0.00  0.00     0.002 A 
ATOM      4  C6  UNL d   1       2.259   0.365  -3.558  0.00  0.00    -0.004 A 
ATOM      5  C7  UNL d   1       1.053  -0.013  -2.972  0.00  0.00     0.002 A 
ATOM      6  C8  UNL d   1       0.385  -1.155  -3.416  0.00  0.00     0.002 A 
ENDROOT
BRANCH   1   7
ATOM      7  C2  UNL d   1       0.206  -3.182  -4.913  0.00  0.00     0.056 C 
BRANCH   7   8
ATOM      8  C1  UNL d   1      -0.874  -2.930  -5.971  0.00  0.00     0.007 C 
ATOM      9  C   UNL d   1      -1.950  -4.007  -6.000  0.00  0.00     0.009 C 
ENDBRANCH   7   8
ENDBRANCH   1   7
TORSDOF 2
ENDMDL
