MODEL 1
REMARK minimizedAffinity 9.44958878
REMARK minimizedRMSD -1
REMARK  2 active torsions:
REMARK  status: ('A' for Active; 'I' for Inactive)
REMARK    1  A    between atoms: C1_2  and  C2_3 
REMARK    2  A    between atoms: C2_3  and  C3_4 
ROOT
ATOM      1  C3  UNL d   1       0.217  -1.199  -4.172  0.00  0.00    -0.075 A 
ATOM      2  C4  UNL d   1       0.344  -0.623  -2.900  0.00  0.00     0.002 A 
ATOM      3  C5  UNL d   1       1.524   0.022  -2.528  0.00  0.00     0.002 A 
ATOM      4  C6  UNL d   1       2.594   0.090  -3.417  0.00  0.00    -0.004 A 
ATOM      5  C7  UNL d   1       2.486  -0.494  -4.678  0.00  0.00     0.002 A 
ATOM      6  C8  UNL d   1       1.304  -1.136  -5.054  0.00  0.00     0.002 A 
ENDROOT
BRANCH   1   7
ATOM      7  C2  UNL d   1      -1.068  -1.872  -4.591  0.00  0.00     0.056 C 
BRANCH   7   8
ATOM      8  C1  UNL d   1      -1.012  -2.512  -5.982  0.00  0.00     0.007 C 
ATOM      9  C   UNL d   1      -1.402  -3.984  -5.982  0.00  0.00     0.009 C 
ENDBRANCH   7   8
ENDBRANCH   1   7
TORSDOF 2
ENDMDL
