MODEL 1
REMARK minimizedAffinity 14.4520092
REMARK minimizedRMSD -1
REMARK  2 active torsions:
REMARK  status: ('A' for Active; 'I' for Inactive)
REMARK    1  A    between atoms: C1_2  and  C2_3 
REMARK    2  A    between atoms: C2_3  and  C3_4 
ROOT
ATOM      1  C3  UNL d   1       1.151   0.013  -2.405  0.00  0.00    -0.075 A 
ATOM      2  C4  UNL d   1       0.878  -1.350  -2.220  0.00  0.00     0.002 A 
ATOM      3  C5  UNL d   1       1.126  -2.267  -3.241  0.00  0.00     0.002 A 
ATOM      4  C6  UNL d   1       1.639  -1.833  -4.462  0.00  0.00    -0.004 A 
ATOM      5  C7  UNL d   1       1.897  -0.479  -4.663  0.00  0.00     0.002 A 
ATOM      6  C8  UNL d   1       1.655   0.441  -3.641  0.00  0.00     0.002 A 
ENDROOT
BRANCH   1   7
ATOM      7  C2  UNL d   1       0.912   1.007  -1.293  0.00  0.00     0.056 C 
BRANCH   7   8
ATOM      8  C1  UNL d   1      -0.566   1.213  -0.947  0.00  0.00     0.007 C 
ATOM      9  C   UNL d   1      -0.913   0.798   0.476  0.00  0.00     0.009 C 
ENDBRANCH   7   8
ENDBRANCH   1   7
TORSDOF 2
ENDMDL
