MODEL 1
REMARK minimizedAffinity 11.444747
REMARK minimizedRMSD -1
REMARK  2 active torsions:
REMARK  status: ('A' for Active; 'I' for Inactive)
REMARK    1  A    between atoms: C1_2  and  C2_3 
REMARK    2  A    between atoms: C2_3  and  C3_4 
ROOT
ATOM      1  C3  UNL d   1      -3.807  -1.366  -4.289  0.00  0.00    -0.075 A 
ATOM      2  C4  UNL d   1      -4.336  -0.270  -3.591  0.00  0.00     0.002 A 
ATOM      3  C5  UNL d   1      -5.422  -0.436  -2.731  0.00  0.00     0.002 A 
ATOM      4  C6  UNL d   1      -5.998  -1.693  -2.566  0.00  0.00    -0.004 A 
ATOM      5  C7  UNL d   1      -5.492  -2.785  -3.268  0.00  0.00     0.002 A 
ATOM      6  C8  UNL d   1      -4.403  -2.624  -4.125  0.00  0.00     0.002 A 
ENDROOT
BRANCH   1   7
ATOM      7  C2  UNL d   1      -2.613  -1.199  -5.199  0.00  0.00     0.056 C 
BRANCH   7   8
ATOM      8  C1  UNL d   1      -1.476  -2.188  -4.923  0.00  0.00     0.007 C 
ATOM      9  C   UNL d   1      -1.335  -3.257  -6.000  0.00  0.00     0.009 C 
ENDBRANCH   7   8
ENDBRANCH   1   7
TORSDOF 2
ENDMDL
