MODEL 1
REMARK minimizedAffinity 11.732687
REMARK minimizedRMSD -1
REMARK  2 active torsions:
REMARK  status: ('A' for Active; 'I' for Inactive)
REMARK    1  A    between atoms: C1_2  and  C2_3 
REMARK    2  A    between atoms: C2_3  and  C3_4 
ROOT
ATOM      1  C3  UNL d   1       2.804   1.163  -5.530  0.00  0.00    -0.075 A 
ATOM      2  C4  UNL d   1       1.813   0.770  -4.619  0.00  0.00     0.002 A 
ATOM      3  C5  UNL d   1       1.747  -0.549  -4.169  0.00  0.00     0.002 A 
ATOM      4  C6  UNL d   1       2.661  -1.493  -4.632  0.00  0.00    -0.004 A 
ATOM      5  C7  UNL d   1       3.640  -1.117  -5.550  0.00  0.00     0.002 A 
ATOM      6  C8  UNL d   1       3.711   0.203  -5.998  0.00  0.00     0.002 A 
ENDROOT
BRANCH   1   7
ATOM      7  C2  UNL d   1       2.900   2.596  -5.997  0.00  0.00     0.056 C 
BRANCH   7   8
ATOM      8  C1  UNL d   1       3.978   3.415  -5.280  0.00  0.00     0.007 C 
ATOM      9  C   UNL d   1       3.412   4.577  -4.475  0.00  0.00     0.009 C 
ENDBRANCH   7   8
ENDBRANCH   1   7
TORSDOF 2
ENDMDL
