MODEL 1
REMARK minimizedAffinity 6.8772192
REMARK minimizedRMSD -1
REMARK  0 active torsions:
REMARK  status: ('A' for Active; 'I' for Inactive)
ROOT
ATOM      1  C1  DEN d   1       2.193   0.694   1.431  0.00  0.00     0.130 A 
ATOM      2  C2  DEN d   1       1.528  -0.598   1.292  0.00  0.00    -0.031 A 
ATOM      3  C3  DEN d   1       0.238  -0.376   0.608  0.00  0.00     0.027 A 
ATOM      4  C4  DEN d   1      -0.786   1.831  -0.248  0.00  0.00     0.027 A 
ATOM      5  C5  DEN d   1      -0.598   3.191  -0.347  0.00  0.00    -0.003 A 
ATOM      6  C6  DEN d   1       0.509   3.815   0.166  0.00  0.00     0.001 A 
ATOM      7  C7  DEN d   1       1.492   3.070   0.762  0.00  0.00     0.017 A 
ATOM      8  C8  DEN d   1       1.306   1.698   0.872  0.00  0.00    -0.094 A 
ATOM      9  C9  DEN d   1       0.186   1.085   0.336  0.00  0.00    -0.072 A 
ENDROOT
TORSDOF 0
ENDMDL
