MODEL 1
REMARK minimizedAffinity 6.59679651
REMARK minimizedRMSD -1
REMARK  0 active torsions:
REMARK  status: ('A' for Active; 'I' for Inactive)
ROOT
ATOM      1  C1  DEN d   1       1.386   2.260   0.235  0.00  0.00     0.130 A 
ATOM      2  C2  DEN d   1       0.102   1.570   0.155  0.00  0.00    -0.031 A 
ATOM      3  C3  DEN d   1      -0.858   2.469  -0.517  0.00  0.00     0.027 A 
ATOM      4  C4  DEN d   1      -0.482   4.848  -1.439  0.00  0.00     0.027 A 
ATOM      5  C5  DEN d   1       0.440   5.860  -1.591  0.00  0.00    -0.003 A 
ATOM      6  C6  DEN d   1       1.722   5.757  -1.120  0.00  0.00     0.001 A 
ATOM      7  C7  DEN d   1       2.131   4.599  -0.512  0.00  0.00     0.017 A 
ATOM      8  C8  DEN d   1       1.205   3.577  -0.348  0.00  0.00    -0.094 A 
ATOM      9  C9  DEN d   1      -0.083   3.696  -0.842  0.00  0.00    -0.072 A 
ENDROOT
TORSDOF 0
ENDMDL
