MODEL 1
REMARK minimizedAffinity -4.73912477
REMARK minimizedRMSD -1
REMARK  0 active torsions:
REMARK  status: ('A' for Active; 'I' for Inactive)
ROOT
ATOM      1  C1  DEN d   1      -5.999   3.960  -5.174  0.00  0.00     0.130 A 
ATOM      2  C2  DEN d   1      -5.095   5.101  -5.063  0.00  0.00    -0.031 A 
ATOM      3  C3  DEN d   1      -3.951   4.696  -4.221  0.00  0.00     0.027 A 
ATOM      4  C4  DEN d   1      -3.494   2.425  -3.088  0.00  0.00     0.027 A 
ATOM      5  C5  DEN d   1      -3.982   1.153  -2.885  0.00  0.00    -0.003 A 
ATOM      6  C6  DEN d   1      -5.183   0.742  -3.399  0.00  0.00     0.001 A 
ATOM      7  C7  DEN d   1      -5.916   1.596  -4.179  0.00  0.00     0.017 A 
ATOM      8  C8  DEN d   1      -5.434   2.883  -4.382  0.00  0.00    -0.094 A 
ATOM      9  C9  DEN d   1      -4.212   3.276  -3.864  0.00  0.00    -0.072 A 
ENDROOT
TORSDOF 0
ENDMDL
