MODEL 1
REMARK minimizedAffinity 0.995044947
REMARK minimizedRMSD -1
REMARK  0 active torsions:
REMARK  status: ('A' for Active; 'I' for Inactive)
ROOT
ATOM      1  C1  DEN d   1      -4.761   1.367  -4.844  0.00  0.00     0.130 A 
ATOM      2  C2  DEN d   1      -3.745   1.282  -3.798  0.00  0.00    -0.031 A 
ATOM      3  C3  DEN d   1      -3.409   2.657  -3.376  0.00  0.00     0.027 A 
ATOM      4  C4  DEN d   1      -4.361   4.896  -4.232  0.00  0.00     0.027 A 
ATOM      5  C5  DEN d   1      -5.237   5.476  -5.122  0.00  0.00    -0.003 A 
ATOM      6  C6  DEN d   1      -5.985   4.735  -5.999  0.00  0.00     0.001 A 
ATOM      7  C7  DEN d   1      -5.904   3.368  -5.973  0.00  0.00     0.017 A 
ATOM      8  C8  DEN d   1      -5.017   2.776  -5.083  0.00  0.00    -0.094 A 
ATOM      9  C9  DEN d   1      -4.279   3.542  -4.197  0.00  0.00    -0.072 A 
ENDROOT
TORSDOF 0
ENDMDL
