MODEL 1
REMARK minimizedAffinity 7.10340834
REMARK minimizedRMSD -1
REMARK  0 active torsions:
REMARK  status: ('A' for Active; 'I' for Inactive)
ROOT
ATOM      1  C1  DEN d   1      -3.642   4.879  -3.750  0.00  0.00     0.130 A 
ATOM      2  C2  DEN d   1      -4.859   5.590  -4.132  0.00  0.00    -0.031 A 
ATOM      3  C3  DEN d   1      -5.999   4.669  -3.957  0.00  0.00     0.027 A 
ATOM      4  C4  DEN d   1      -6.000   2.225  -3.131  0.00  0.00     0.027 A 
ATOM      5  C5  DEN d   1      -5.205   1.186  -2.700  0.00  0.00    -0.003 A 
ATOM      6  C6  DEN d   1      -3.842   1.293  -2.622  0.00  0.00     0.001 A 
ATOM      7  C7  DEN d   1      -3.235   2.480  -2.937  0.00  0.00     0.017 A 
ATOM      8  C8  DEN d   1      -4.029   3.530  -3.379  0.00  0.00    -0.094 A 
ATOM      9  C9  DEN d   1      -5.406   3.406  -3.440  0.00  0.00    -0.072 A 
ENDROOT
TORSDOF 0
ENDMDL
