MODEL 1
REMARK minimizedAffinity -3.10719419
REMARK minimizedRMSD -1
REMARK  0 active torsions:
REMARK  status: ('A' for Active; 'I' for Inactive)
ROOT
ATOM      1  C4' PXY d   1      -2.124   0.387   1.774  0.00  0.00     0.077 C 
ATOM      2  C1' PXY d   1       2.074   0.091  -2.189  0.00  0.00     0.077 C 
ATOM      3  C1  PXY d   1       0.967   0.159  -1.156  0.00  0.00    -0.082 A 
ATOM      4  C2  PXY d   1       0.825   1.250  -0.420  0.00  0.00     0.003 A 
ATOM      5  C3  PXY d   1      -0.151   1.316   0.540  0.00  0.00     0.003 A 
ATOM      6  C4  PXY d   1      -1.025   0.277   0.713  0.00  0.00    -0.082 A 
ATOM      7  C5  PXY d   1      -0.894  -0.835  -0.042  0.00  0.00     0.003 A 
ATOM      8  C6  PXY d   1       0.129  -0.899  -0.983  0.00  0.00     0.003 A 
ENDROOT
TORSDOF 0
ENDMDL
