MODEL 1
REMARK minimizedAffinity -4.54194307
REMARK minimizedRMSD -1
REMARK  0 active torsions:
REMARK  status: ('A' for Active; 'I' for Inactive)
ROOT
ATOM      1  C4' PXY d   1      -0.937   0.071   1.663  0.00  0.00     0.077 C 
ATOM      2  C1' PXY d   1       2.020  -0.021  -3.303  0.00  0.00     0.077 C 
ATOM      3  C1  PXY d   1       1.252   0.013  -1.997  0.00  0.00    -0.082 A 
ATOM      4  C2  PXY d   1       0.639  -1.079  -1.570  0.00  0.00     0.003 A 
ATOM      5  C3  PXY d   1      -0.087  -1.057  -0.407  0.00  0.00     0.003 A 
ATOM      6  C4  PXY d   1      -0.142   0.080   0.354  0.00  0.00    -0.082 A 
ATOM      7  C5  PXY d   1       0.490   1.195  -0.069  0.00  0.00     0.003 A 
ATOM      8  C6  PXY d   1       1.187   1.163  -1.273  0.00  0.00     0.003 A 
ENDROOT
TORSDOF 0
ENDMDL
