MODEL 1
REMARK minimizedAffinity -3.55588245
REMARK minimizedRMSD -1
REMARK  0 active torsions:
REMARK  status: ('A' for Active; 'I' for Inactive)
ROOT
ATOM      1  C4' PXY d   1       1.262   0.373  -3.356  0.00  0.00     0.077 C 
ATOM      2  C1' PXY d   1       0.066  -0.447   2.240  0.00  0.00     0.077 C 
ATOM      3  C1  PXY d   1       0.381  -0.219   0.775  0.00  0.00    -0.082 A 
ATOM      4  C2  PXY d   1      -0.030  -1.096  -0.126  0.00  0.00     0.003 A 
ATOM      5  C3  PXY d   1       0.273  -0.922  -1.452  0.00  0.00     0.003 A 
ATOM      6  C4  PXY d   1       0.959   0.188  -1.866  0.00  0.00    -0.082 A 
ATOM      7  C5  PXY d   1       1.373   1.093  -0.954  0.00  0.00     0.003 A 
ATOM      8  C6  PXY d   1       1.090   0.877   0.392  0.00  0.00     0.003 A 
ENDROOT
TORSDOF 0
ENDMDL
