MODEL 1
REMARK minimizedAffinity -2.68526101
REMARK minimizedRMSD -1
REMARK  0 active torsions:
REMARK  status: ('A' for Active; 'I' for Inactive)
ROOT
ATOM      1  C4' PXY d   1       0.036   0.482   1.458  0.00  0.00     0.077 C 
ATOM      2  C1' PXY d   1       2.613  -0.956  -3.512  0.00  0.00     0.077 C 
ATOM      3  C1  PXY d   1       1.928  -0.588  -2.211  0.00  0.00    -0.082 A 
ATOM      4  C2  PXY d   1       2.106   0.618  -1.696  0.00  0.00     0.003 A 
ATOM      5  C3  PXY d   1       1.520   0.957  -0.504  0.00  0.00     0.003 A 
ATOM      6  C4  PXY d   1       0.700   0.070   0.142  0.00  0.00    -0.082 A 
ATOM      7  C5  PXY d   1       0.505  -1.159  -0.382  0.00  0.00     0.003 A 
ATOM      8  C6  PXY d   1       1.142  -1.497  -1.573  0.00  0.00     0.003 A 
ENDROOT
TORSDOF 0
ENDMDL
