MODEL 1
REMARK minimizedAffinity -5.59906292
REMARK minimizedRMSD -1
REMARK  0 active torsions:
REMARK  status: ('A' for Active; 'I' for Inactive)
ROOT
ATOM      1  C4' PXY d   1      -1.407   0.293   1.566  0.00  0.00     0.077 C 
ATOM      2  C1' PXY d   1       2.196  -1.466  -2.598  0.00  0.00     0.077 C 
ATOM      3  C1  PXY d   1       1.252  -1.016  -1.500  0.00  0.00    -0.082 A 
ATOM      4  C2  PXY d   1       0.385  -0.047  -1.740  0.00  0.00     0.003 A 
ATOM      5  C3  PXY d   1      -0.454   0.394  -0.749  0.00  0.00     0.003 A 
ATOM      6  C4  PXY d   1      -0.442  -0.200   0.485  0.00  0.00    -0.082 A 
ATOM      7  C5  PXY d   1       0.433  -1.197   0.734  0.00  0.00     0.003 A 
ATOM      8  C6  PXY d   1       1.305  -1.602  -0.273  0.00  0.00     0.003 A 
ENDROOT
TORSDOF 0
ENDMDL
