MODEL 1
REMARK minimizedAffinity -4.79125309
REMARK minimizedRMSD -1
REMARK  0 active torsions:
REMARK  status: ('A' for Active; 'I' for Inactive)
ROOT
ATOM      1  C4' PXY d   1       2.291  -0.627  -3.067  0.00  0.00     0.077 C 
ATOM      2  C1' PXY d   1      -0.507  -0.008   1.953  0.00  0.00     0.077 C 
ATOM      3  C1  PXY d   1       0.226  -0.157   0.635  0.00  0.00    -0.082 A 
ATOM      4  C2  PXY d   1       0.141  -1.294  -0.036  0.00  0.00     0.003 A 
ATOM      5  C3  PXY d   1       0.824  -1.458  -1.214  0.00  0.00     0.003 A 
ATOM      6  C4  PXY d   1       1.559  -0.428  -1.737  0.00  0.00    -0.082 A 
ATOM      7  C5  PXY d   1       1.642   0.739  -1.063  0.00  0.00     0.003 A 
ATOM      8  C6  PXY d   1       0.975   0.870   0.151  0.00  0.00     0.003 A 
ENDROOT
TORSDOF 0
ENDMDL
