MODEL 1
REMARK minimizedAffinity -2.89513707
REMARK minimizedRMSD -1
REMARK  0 active torsions:
REMARK  status: ('A' for Active; 'I' for Inactive)
ROOT
ATOM      1  C4' PXY d   1      -4.154   1.029   0.997  0.00  0.00     0.077 C 
ATOM      2  C1' PXY d   1       1.056  -0.203  -1.183  0.00  0.00     0.077 C 
ATOM      3  C1  PXY d   1      -0.309   0.110  -0.604  0.00  0.00    -0.082 A 
ATOM      4  C2  PXY d   1      -1.169   0.828  -1.307  0.00  0.00     0.003 A 
ATOM      5  C3  PXY d   1      -2.397   1.147  -0.785  0.00  0.00     0.003 A 
ATOM      6  C4  PXY d   1      -2.768   0.681   0.448  0.00  0.00    -0.082 A 
ATOM      7  C5  PXY d   1      -1.900  -0.062   1.167  0.00  0.00     0.003 A 
ATOM      8  C6  PXY d   1      -0.644  -0.340   0.636  0.00  0.00     0.003 A 
ENDROOT
TORSDOF 0
ENDMDL
