MODEL 1
REMARK minimizedAffinity -3.25477147
REMARK minimizedRMSD -1
REMARK  0 active torsions:
REMARK  status: ('A' for Active; 'I' for Inactive)
ROOT
ATOM      1  C4' PXY d   1      -2.226   1.057   1.994  0.00  0.00     0.077 C 
ATOM      2  C1' PXY d   1       0.877  -1.161  -2.349  0.00  0.00     0.077 C 
ATOM      3  C1  PXY d   1       0.062  -0.591  -1.205  0.00  0.00    -0.082 A 
ATOM      4  C2  PXY d   1      -0.537   0.580  -1.348  0.00  0.00     0.003 A 
ATOM      5  C3  PXY d   1      -1.252   1.125  -0.313  0.00  0.00     0.003 A 
ATOM      6  C4  PXY d   1      -1.400   0.439   0.863  0.00  0.00    -0.082 A 
ATOM      7  C5  PXY d   1      -0.802  -0.761   1.013  0.00  0.00     0.003 A 
ATOM      8  C6  PXY d   1      -0.046  -1.278  -0.035  0.00  0.00     0.003 A 
ENDROOT
TORSDOF 0
ENDMDL
