MODEL 1
REMARK minimizedAffinity -0.91140002
REMARK minimizedRMSD -1
REMARK  0 active torsions:
REMARK  status: ('A' for Active; 'I' for Inactive)
ROOT
ATOM      1  C4' PXY d   1      -1.822   0.376   1.585  0.00  0.00     0.077 C 
ATOM      2  C1' PXY d   1       2.712  -0.061  -1.974  0.00  0.00     0.077 C 
ATOM      3  C1  PXY d   1       1.519   0.042  -1.045  0.00  0.00    -0.082 A 
ATOM      4  C2  PXY d   1       1.121   1.230  -0.620  0.00  0.00     0.003 A 
ATOM      5  C3  PXY d   1       0.064   1.339   0.246  0.00  0.00     0.003 A 
ATOM      6  C4  PXY d   1      -0.628   0.225   0.639  0.00  0.00    -0.082 A 
ATOM      7  C5  PXY d   1      -0.235  -0.990   0.202  0.00  0.00     0.003 A 
ATOM      8  C6  PXY d   1       0.867  -1.083  -0.644  0.00  0.00     0.003 A 
ENDROOT
TORSDOF 0
ENDMDL
