MODEL 1
REMARK minimizedAffinity -3.7345283
REMARK minimizedRMSD -1
REMARK  0 active torsions:
REMARK  status: ('A' for Active; 'I' for Inactive)
ROOT
ATOM      1  C4' PXY d   1      -4.142  -0.284   1.194  0.00  0.00     0.077 C 
ATOM      2  C1' PXY d   1      -1.850   4.196   4.038  0.00  0.00     0.077 C 
ATOM      3  C1  PXY d   1      -2.439   3.017   3.288  0.00  0.00    -0.082 A 
ATOM      4  C2  PXY d   1      -3.685   3.079   2.847  0.00  0.00     0.003 A 
ATOM      5  C3  PXY d   1      -4.244   2.010   2.195  0.00  0.00     0.003 A 
ATOM      6  C4  PXY d   1      -3.503   0.886   1.947  0.00  0.00    -0.082 A 
ATOM      7  C5  PXY d   1      -2.228   0.819   2.385  0.00  0.00     0.003 A 
ATOM      8  C6  PXY d   1      -1.692   1.899   3.080  0.00  0.00     0.003 A 
ENDROOT
TORSDOF 0
ENDMDL
