MODEL 1
REMARK minimizedAffinity -2.10166001
REMARK minimizedRMSD -1
REMARK  0 active torsions:
REMARK  status: ('A' for Active; 'I' for Inactive)
ROOT
ATOM      1  C4' PXY d   1      -2.651   3.935   3.468  0.00  0.00     0.077 C 
ATOM      2  C1' PXY d   1      -3.829  -0.952   0.614  0.00  0.00     0.077 C 
ATOM      3  C1  PXY d   1      -3.509   0.325   1.367  0.00  0.00    -0.082 A 
ATOM      4  C2  PXY d   1      -4.492   1.121   1.753  0.00  0.00     0.003 A 
ATOM      5  C3  PXY d   1      -4.219   2.295   2.406  0.00  0.00     0.003 A 
ATOM      6  C4  PXY d   1      -2.928   2.632   2.714  0.00  0.00    -0.082 A 
ATOM      7  C5  PXY d   1      -1.919   1.819   2.333  0.00  0.00     0.003 A 
ATOM      8  C6  PXY d   1      -2.216   0.652   1.635  0.00  0.00     0.003 A 
ENDROOT
TORSDOF 0
ENDMDL
