MODEL 1
REMARK minimizedAffinity -5.14930058
REMARK minimizedRMSD -1
REMARK  0 active torsions:
REMARK  status: ('A' for Active; 'I' for Inactive)
ROOT
ATOM      1  C4' PXY d   1      -1.234   0.081   1.735  0.00  0.00     0.077 C 
ATOM      2  C1' PXY d   1       1.989  -0.491  -3.029  0.00  0.00     0.077 C 
ATOM      3  C1  PXY d   1       1.151  -0.331  -1.776  0.00  0.00    -0.082 A 
ATOM      4  C2  PXY d   1       0.483  -1.368  -1.299  0.00  0.00     0.003 A 
ATOM      5  C3  PXY d   1      -0.305  -1.233  -0.185  0.00  0.00     0.003 A 
ATOM      6  C4  PXY d   1      -0.368  -0.037   0.478  0.00  0.00    -0.082 A 
ATOM      7  C5  PXY d   1       0.320   1.024   0.004  0.00  0.00     0.003 A 
ATOM      8  C6  PXY d   1       1.081   0.876  -1.152  0.00  0.00     0.003 A 
ENDROOT
TORSDOF 0
ENDMDL
