MODEL 1
REMARK minimizedAffinity -1.610273
REMARK minimizedRMSD -1
REMARK  0 active torsions:
REMARK  status: ('A' for Active; 'I' for Inactive)
ROOT
ATOM      1  C4' PXY d   1      -1.905   0.730   2.211  0.00  0.00     0.077 C 
ATOM      2  C1' PXY d   1       2.074  -0.094  -1.900  0.00  0.00     0.077 C 
ATOM      3  C1  PXY d   1       1.024   0.111  -0.826  0.00  0.00    -0.082 A 
ATOM      4  C2  PXY d   1       0.841   1.317  -0.312  0.00  0.00     0.003 A 
ATOM      5  C3  PXY d   1      -0.082   1.514   0.682  0.00  0.00     0.003 A 
ATOM      6  C4  PXY d   1      -0.863   0.478   1.118  0.00  0.00    -0.082 A 
ATOM      7  C5  PXY d   1      -0.690  -0.753   0.591  0.00  0.00     0.003 A 
ATOM      8  C6  PXY d   1       0.280  -0.941  -0.389  0.00  0.00     0.003 A 
ENDROOT
TORSDOF 0
ENDMDL
