MODEL 1
REMARK minimizedAffinity -2.83204484
REMARK minimizedRMSD -1
REMARK  0 active torsions:
REMARK  status: ('A' for Active; 'I' for Inactive)
ROOT
ATOM      1  C4' PXY d   1      -1.984   4.018   4.062  0.00  0.00     0.077 C 
ATOM      2  C1' PXY d   1      -3.611  -0.414   0.726  0.00  0.00     0.077 C 
ATOM      3  C1  PXY d   1      -3.190   0.757   1.593  0.00  0.00    -0.082 A 
ATOM      4  C2  PXY d   1      -2.156   0.628   2.408  0.00  0.00     0.003 A 
ATOM      5  C3  PXY d   1      -1.781   1.666   3.222  0.00  0.00     0.003 A 
ATOM      6  C4  PXY d   1      -2.439   2.866   3.162  0.00  0.00    -0.082 A 
ATOM      7  C5  PXY d   1      -3.488   3.008   2.325  0.00  0.00     0.003 A 
ATOM      8  C6  PXY d   1      -3.878   1.929   1.537  0.00  0.00     0.003 A 
ENDROOT
TORSDOF 0
ENDMDL
