MODEL 1
REMARK minimizedAffinity -3.86213803
REMARK minimizedRMSD -1
REMARK  0 active torsions:
REMARK  status: ('A' for Active; 'I' for Inactive)
ROOT
ATOM      1  C4' PXY d   1      -1.064   0.537   1.955  0.00  0.00     0.077 C 
ATOM      2  C1' PXY d   1       2.167   0.255  -2.830  0.00  0.00     0.077 C 
ATOM      3  C1  PXY d   1       1.313   0.318  -1.579  0.00  0.00    -0.082 A 
ATOM      4  C2  PXY d   1       1.165   1.470  -0.946  0.00  0.00     0.003 A 
ATOM      5  C3  PXY d   1       0.423   1.539   0.205  0.00  0.00     0.003 A 
ATOM      6  C4  PXY d   1      -0.218   0.428   0.683  0.00  0.00    -0.082 A 
ATOM      7  C5  PXY d   1      -0.081  -0.749   0.037  0.00  0.00     0.003 A 
ATOM      8  C6  PXY d   1       0.711  -0.807  -1.107  0.00  0.00     0.003 A 
ENDROOT
TORSDOF 0
ENDMDL
