MODEL 1
REMARK minimizedAffinity -5.1069808
REMARK minimizedRMSD -1
REMARK  0 active torsions:
REMARK  status: ('A' for Active; 'I' for Inactive)
ROOT
ATOM      1  C4' PXY d   1      -1.859   0.675   1.903  0.00  0.00     0.077 C 
ATOM      2  C1' PXY d   1       1.214   0.007  -2.947  0.00  0.00     0.077 C 
ATOM      3  C1  PXY d   1       0.413   0.171  -1.671  0.00  0.00    -0.082 A 
ATOM      4  C2  PXY d   1      -0.678   0.920  -1.675  0.00  0.00     0.003 A 
ATOM      5  C3  PXY d   1      -1.396   1.105  -0.522  0.00  0.00     0.003 A 
ATOM      6  C4  PXY d   1      -1.025   0.474   0.635  0.00  0.00    -0.082 A 
ATOM      7  C5  PXY d   1       0.081  -0.301   0.644  0.00  0.00     0.003 A 
ATOM      8  C6  PXY d   1       0.820  -0.443  -0.527  0.00  0.00     0.003 A 
ENDROOT
TORSDOF 0
ENDMDL
