MODEL 1
REMARK minimizedAffinity -4.62856245
REMARK minimizedRMSD -1
REMARK  0 active torsions:
REMARK  status: ('A' for Active; 'I' for Inactive)
ROOT
ATOM      1  C4' PXY d   1      -0.364  -0.335   1.928  0.00  0.00     0.077 C 
ATOM      2  C1' PXY d   1       2.123   0.133  -3.269  0.00  0.00     0.077 C 
ATOM      3  C1  PXY d   1       1.461   0.004  -1.911  0.00  0.00    -0.082 A 
ATOM      4  C2  PXY d   1       1.747   0.876  -0.959  0.00  0.00     0.003 A 
ATOM      5  C3  PXY d   1       1.181   0.756   0.285  0.00  0.00     0.003 A 
ATOM      6  C4  PXY d   1       0.274  -0.237   0.539  0.00  0.00    -0.082 A 
ATOM      7  C5  PXY d   1      -0.031  -1.125  -0.431  0.00  0.00     0.003 A 
ATOM      8  C6  PXY d   1       0.585  -1.009  -1.673  0.00  0.00     0.003 A 
ENDROOT
TORSDOF 0
ENDMDL
