MODEL 1
REMARK minimizedAffinity -0.607298434
REMARK minimizedRMSD -1
REMARK  0 active torsions:
REMARK  status: ('A' for Active; 'I' for Inactive)
ROOT
ATOM      1  C4' PXY d   1       2.163   0.386  -1.273  0.00  0.00     0.077 C 
ATOM      2  C1' PXY d   1      -2.897   0.887   1.476  0.00  0.00     0.077 C 
ATOM      3  C1  PXY d   1      -1.564   0.752   0.767  0.00  0.00    -0.082 A 
ATOM      4  C2  PXY d   1      -1.358   1.402  -0.367  0.00  0.00     0.003 A 
ATOM      5  C3  PXY d   1      -0.171   1.267  -1.039  0.00  0.00     0.003 A 
ATOM      6  C4  PXY d   1       0.836   0.499  -0.517  0.00  0.00    -0.082 A 
ATOM      7  C5  PXY d   1       0.638  -0.159   0.645  0.00  0.00     0.003 A 
ATOM      8  C6  PXY d   1      -0.590  -0.040   1.290  0.00  0.00     0.003 A 
ENDROOT
TORSDOF 0
ENDMDL
