MODEL 1
REMARK minimizedAffinity 16.7349033
REMARK minimizedRMSD -1
REMARK  1 active torsions:
REMARK  status: ('A' for Active; 'I' for Inactive)
REMARK    1  A    between atoms: C1_2  and  C2_3 
ROOT
ATOM      1  C2  UNL d   1       3.240  -3.054   4.814  0.00  0.00    -0.073 A 
ATOM      2  C3  UNL d   1       2.386  -4.154   4.675  0.00  0.00    -0.002 A 
ATOM      3  C4  UNL d   1       1.262  -4.074   3.852  0.00  0.00     0.004 A 
ATOM      4  C5  UNL d   1       0.984  -2.898   3.155  0.00  0.00    -0.004 A 
ATOM      5  C6  UNL d   1       1.832  -1.792   3.272  0.00  0.00    -0.075 A 
ATOM      6  C7  UNL d   1       1.545  -0.519   2.531  0.00  0.00     0.076 C 
ATOM      7  C8  UNL d   1       2.957  -1.879   4.102  0.00  0.00     0.001 A 
ENDROOT
BRANCH   1   8
ATOM      8  C1  UNL d   1       4.459  -3.138   5.696  0.00  0.00     0.053 C 
ATOM      9  C   UNL d   1       5.748  -3.134   4.889  0.00  0.00     0.018 C 
ENDBRANCH   1   8
TORSDOF 1
ENDMDL
