MODEL 1
REMARK minimizedAffinity -0.442087084
REMARK minimizedRMSD -1
REMARK  1 active torsions:
REMARK  status: ('A' for Active; 'I' for Inactive)
REMARK    1  A    between atoms: C1_2  and  C2_3 
ROOT
ATOM      1  C2  UNL d   1       4.368   5.714  -4.112  0.00  0.00    -0.073 A 
ATOM      2  C3  UNL d   1       5.417   6.000  -3.231  0.00  0.00    -0.002 A 
ATOM      3  C4  UNL d   1       5.261   5.795  -1.859  0.00  0.00     0.004 A 
ATOM      4  C5  UNL d   1       4.060   5.296  -1.356  0.00  0.00    -0.004 A 
ATOM      5  C6  UNL d   1       3.004   4.994  -2.221  0.00  0.00    -0.075 A 
ATOM      6  C7  UNL d   1       1.704   4.459  -1.696  0.00  0.00     0.076 C 
ATOM      7  C8  UNL d   1       3.167   5.205  -3.597  0.00  0.00     0.001 A 
ENDROOT
BRANCH   1   8
ATOM      8  C1  UNL d   1       4.534   5.928  -5.594  0.00  0.00     0.053 C 
ATOM      9  C   UNL d   1       5.997   5.999  -6.000  0.00  0.00     0.018 C 
ENDBRANCH   1   8
TORSDOF 1
ENDMDL
