MODEL 1
REMARK minimizedAffinity 12.9076815
REMARK minimizedRMSD -1
REMARK  1 active torsions:
REMARK  status: ('A' for Active; 'I' for Inactive)
REMARK    1  A    between atoms: C1_2  and  C2_3 
ROOT
ATOM      1  C2  UNL d   1       1.831  -1.544   3.003  0.00  0.00    -0.073 A 
ATOM      2  C3  UNL d   1       0.674  -1.985   2.352  0.00  0.00    -0.002 A 
ATOM      3  C4  UNL d   1       0.106  -1.224   1.330  0.00  0.00     0.004 A 
ATOM      4  C5  UNL d   1       0.694  -0.020   0.943  0.00  0.00    -0.004 A 
ATOM      5  C6  UNL d   1       1.857   0.432   1.573  0.00  0.00    -0.075 A 
ATOM      6  C7  UNL d   1       2.500   1.727   1.170  0.00  0.00     0.076 C 
ATOM      7  C8  UNL d   1       2.419  -0.336   2.601  0.00  0.00     0.001 A 
ENDROOT
BRANCH   1   8
ATOM      8  C1  UNL d   1       2.451  -2.366   4.104  0.00  0.00     0.053 C 
ATOM      9  C   UNL d   1       1.629  -2.318   5.382  0.00  0.00     0.018 C 
ENDBRANCH   1   8
TORSDOF 1
ENDMDL
