MODEL 1
REMARK minimizedAffinity 13.8657179
REMARK minimizedRMSD -1
REMARK  1 active torsions:
REMARK  status: ('A' for Active; 'I' for Inactive)
REMARK    1  A    between atoms: C1_2  and  C2_3 
ROOT
ATOM      1  C2  UNL d   1       2.634  -0.523   2.007  0.00  0.00    -0.073 A 
ATOM      2  C3  UNL d   1       3.683  -0.101   1.183  0.00  0.00    -0.002 A 
ATOM      3  C4  UNL d   1       4.012   1.253   1.098  0.00  0.00     0.004 A 
ATOM      4  C5  UNL d   1       3.301   2.196   1.841  0.00  0.00    -0.004 A 
ATOM      5  C6  UNL d   1       2.257   1.792   2.679  0.00  0.00    -0.075 A 
ATOM      6  C7  UNL d   1       1.481   2.794   3.483  0.00  0.00     0.076 C 
ATOM      7  C8  UNL d   1       1.931   0.431   2.757  0.00  0.00     0.001 A 
ENDROOT
BRANCH   1   8
ATOM      8  C1  UNL d   1       2.279  -1.984   2.107  0.00  0.00     0.053 C 
ATOM      9  C   UNL d   1       3.038  -2.825   1.093  0.00  0.00     0.018 C 
ENDBRANCH   1   8
TORSDOF 1
ENDMDL
