MODEL 1
REMARK minimizedAffinity 3.04133463
REMARK minimizedRMSD -1
REMARK  1 active torsions:
REMARK  status: ('A' for Active; 'I' for Inactive)
REMARK    1  A    between atoms: C1_2  and  C2_3 
ROOT
ATOM      1  C2  UNL d   1       5.227  -3.556  -4.383  0.00  0.00    -0.073 A 
ATOM      2  C3  UNL d   1       6.000  -3.142  -5.474  0.00  0.00    -0.002 A 
ATOM      3  C4  UNL d   1       5.847  -1.859  -6.000  0.00  0.00     0.004 A 
ATOM      4  C5  UNL d   1       4.927  -0.974  -5.437  0.00  0.00    -0.004 A 
ATOM      5  C6  UNL d   1       4.154  -1.365  -4.338  0.00  0.00    -0.075 A 
ATOM      6  C7  UNL d   1       3.159  -0.427  -3.722  0.00  0.00     0.076 C 
ATOM      7  C8  UNL d   1       4.311  -2.657  -3.818  0.00  0.00     0.001 A 
ENDROOT
BRANCH   1   8
ATOM      8  C1  UNL d   1       5.393  -4.939  -3.808  0.00  0.00     0.053 C 
ATOM      9  C   UNL d   1       5.990  -5.908  -4.817  0.00  0.00     0.018 C 
ENDBRANCH   1   8
TORSDOF 1
ENDMDL
