MODEL 1
REMARK minimizedAffinity -1.43864632
REMARK minimizedRMSD -1
REMARK  0 active torsions:
REMARK  status: ('A' for Active; 'I' for Inactive)
ROOT
ATOM      1  C4' PXY d   1      -1.993  -0.071  -0.273  0.00  0.00     0.077 C 
ATOM      2  C1' PXY d   1       3.703  -0.086   0.710  0.00  0.00     0.077 C 
ATOM      3  C1  PXY d   1       2.210  -0.095   0.449  0.00  0.00    -0.082 A 
ATOM      4  C2  PXY d   1       1.588   1.040   0.174  0.00  0.00     0.003 A 
ATOM      5  C3  PXY d   1       0.232   1.055  -0.033  0.00  0.00     0.003 A 
ATOM      6  C4  PXY d   1      -0.485  -0.111  -0.012  0.00  0.00    -0.082 A 
ATOM      7  C5  PXY d   1       0.145  -1.274   0.258  0.00  0.00     0.003 A 
ATOM      8  C6  PXY d   1       1.514  -1.262   0.506  0.00  0.00     0.003 A 
ENDROOT
TORSDOF 0
ENDMDL
