MODEL 1
REMARK minimizedAffinity -2.25699306
REMARK minimizedRMSD -1
REMARK  0 active torsions:
REMARK  status: ('A' for Active; 'I' for Inactive)
ROOT
ATOM      1  C4' PXY d   1       1.943  -2.153   2.891  0.00  0.00     0.077 C 
ATOM      2  C1' PXY d   1       0.487   2.203  -0.619  0.00  0.00     0.077 C 
ATOM      3  C1  PXY d   1       0.856   1.057   0.302  0.00  0.00    -0.082 A 
ATOM      4  C2  PXY d   1       1.947   1.141   1.046  0.00  0.00     0.003 A 
ATOM      5  C3  PXY d   1       2.313   0.101   1.861  0.00  0.00     0.003 A 
ATOM      6  C4  PXY d   1       1.526  -1.016   1.954  0.00  0.00    -0.082 A 
ATOM      7  C5  PXY d   1       0.406  -1.105   1.206  0.00  0.00     0.003 A 
ATOM      8  C6  PXY d   1       0.074  -0.055   0.354  0.00  0.00     0.003 A 
ENDROOT
TORSDOF 0
ENDMDL
