MODEL 1
REMARK minimizedAffinity -4.13959551
REMARK minimizedRMSD -1
REMARK  0 active torsions:
REMARK  status: ('A' for Active; 'I' for Inactive)
ROOT
ATOM      1  C4' PXY d   1      -2.435   0.224  -0.772  0.00  0.00     0.077 C 
ATOM      2  C1' PXY d   1       3.003   0.819   1.096  0.00  0.00     0.077 C 
ATOM      3  C1  PXY d   1       1.579   0.651   0.602  0.00  0.00    -0.082 A 
ATOM      4  C2  PXY d   1       0.863   1.721   0.295  0.00  0.00     0.003 A 
ATOM      5  C3  PXY d   1      -0.437   1.588  -0.122  0.00  0.00     0.003 A 
ATOM      6  C4  PXY d   1      -0.991   0.346  -0.278  0.00  0.00    -0.082 A 
ATOM      7  C5  PXY d   1      -0.263  -0.750   0.022  0.00  0.00     0.003 A 
ATOM      8  C6  PXY d   1       1.041  -0.593   0.484  0.00  0.00     0.003 A 
ENDROOT
TORSDOF 0
ENDMDL
