MODEL 1
REMARK minimizedAffinity -5.23256016
REMARK minimizedRMSD -1
REMARK  0 active torsions:
REMARK  status: ('A' for Active; 'I' for Inactive)
ROOT
ATOM      1  C4' PXY d   1       2.566   2.174   3.355  0.00  0.00     0.077 C 
ATOM      2  C1' PXY d   1       0.020  -0.522  -1.080  0.00  0.00     0.077 C 
ATOM      3  C1  PXY d   1       0.693   0.173   0.087  0.00  0.00    -0.082 A 
ATOM      4  C2  PXY d   1       0.223   1.334   0.516  0.00  0.00     0.003 A 
ATOM      5  C3  PXY d   1       0.838   1.992   1.550  0.00  0.00     0.003 A 
ATOM      6  C4  PXY d   1       1.914   1.431   2.186  0.00  0.00    -0.082 A 
ATOM      7  C5  PXY d   1       2.392   0.243   1.761  0.00  0.00     0.003 A 
ATOM      8  C6  PXY d   1       1.779  -0.390   0.683  0.00  0.00     0.003 A 
ENDROOT
TORSDOF 0
ENDMDL
