MODEL 1
REMARK minimizedAffinity -4.17334127
REMARK minimizedRMSD -1
REMARK  0 active torsions:
REMARK  status: ('A' for Active; 'I' for Inactive)
ROOT
ATOM      1  C4' PXY d   1      -1.317   0.306  -0.546  0.00  0.00     0.077 C 
ATOM      2  C1' PXY d   1       3.782  -0.664   1.998  0.00  0.00     0.077 C 
ATOM      3  C1  PXY d   1       2.446  -0.397   1.335  0.00  0.00    -0.082 A 
ATOM      4  C2  PXY d   1       1.599  -1.396   1.143  0.00  0.00     0.003 A 
ATOM      5  C3  PXY d   1       0.400  -1.178   0.516  0.00  0.00     0.003 A 
ATOM      6  C4  PXY d   1       0.040   0.085   0.128  0.00  0.00    -0.082 A 
ATOM      7  C5  PXY d   1       0.893   1.111   0.330  0.00  0.00     0.003 A 
ATOM      8  C6  PXY d   1       2.124   0.862   0.931  0.00  0.00     0.003 A 
ENDROOT
TORSDOF 0
ENDMDL
