MODEL 1
REMARK minimizedAffinity -3.3528223
REMARK minimizedRMSD -1
REMARK  0 active torsions:
REMARK  status: ('A' for Active; 'I' for Inactive)
ROOT
ATOM      1  C4' PXY d   1       0.779  -2.137   2.157  0.00  0.00     0.077 C 
ATOM      2  C1' PXY d   1       1.879   2.995  -0.264  0.00  0.00     0.077 C 
ATOM      3  C1  PXY d   1       1.578   1.652   0.370  0.00  0.00    -0.082 A 
ATOM      4  C2  PXY d   1       2.500   1.055   1.108  0.00  0.00     0.003 A 
ATOM      5  C3  PXY d   1       2.256  -0.175   1.662  0.00  0.00     0.003 A 
ATOM      6  C4  PXY d   1       1.036  -0.776   1.505  0.00  0.00    -0.082 A 
ATOM      7  C5  PXY d   1       0.086  -0.169   0.762  0.00  0.00     0.003 A 
ATOM      8  C6  PXY d   1       0.368   1.061   0.173  0.00  0.00     0.003 A 
ENDROOT
TORSDOF 0
ENDMDL
