MODEL 1
REMARK minimizedAffinity 0.198282838
REMARK minimizedRMSD -1
REMARK  0 active torsions:
REMARK  status: ('A' for Active; 'I' for Inactive)
ROOT
ATOM      1  C4' PXY d   1       2.657   0.047   1.454  0.00  0.00     0.077 C 
ATOM      2  C1' PXY d   1      -2.527   0.185  -1.099  0.00  0.00     0.077 C 
ATOM      3  C1  PXY d   1      -1.171   0.139  -0.423  0.00  0.00    -0.082 A 
ATOM      4  C2  PXY d   1      -0.440   1.238  -0.347  0.00  0.00     0.003 A 
ATOM      5  C3  PXY d   1       0.802   1.207   0.233  0.00  0.00     0.003 A 
ATOM      6  C4  PXY d   1       1.278   0.049   0.789  0.00  0.00    -0.082 A 
ATOM      7  C5  PXY d   1       0.533  -1.075   0.725  0.00  0.00     0.003 A 
ATOM      8  C6  PXY d   1      -0.708  -1.031   0.096  0.00  0.00     0.003 A 
ENDROOT
TORSDOF 0
ENDMDL
