MODEL 1
REMARK minimizedAffinity -1.20851827
REMARK minimizedRMSD -1
REMARK  0 active torsions:
REMARK  status: ('A' for Active; 'I' for Inactive)
ROOT
ATOM      1  C4' PXY d   1      -2.569  -0.290  -2.072  0.00  0.00     0.077 C 
ATOM      2  C1' PXY d   1       1.886   0.343   1.557  0.00  0.00     0.077 C 
ATOM      3  C1  PXY d   1       0.714   0.166   0.612  0.00  0.00    -0.082 A 
ATOM      4  C2  PXY d   1       0.760   0.706  -0.595  0.00  0.00     0.003 A 
ATOM      5  C3  PXY d   1      -0.304   0.583  -1.451  0.00  0.00     0.003 A 
ATOM      6  C4  PXY d   1      -1.405  -0.145  -1.088  0.00  0.00    -0.082 A 
ATOM      7  C5  PXY d   1      -1.455  -0.708   0.138  0.00  0.00     0.003 A 
ATOM      8  C6  PXY d   1      -0.382  -0.537   1.008  0.00  0.00     0.003 A 
ENDROOT
TORSDOF 0
ENDMDL
