MODEL 1
REMARK minimizedAffinity -1.79073417
REMARK minimizedRMSD -1
REMARK  0 active torsions:
REMARK  status: ('A' for Active; 'I' for Inactive)
ROOT
ATOM      1  C4' PXY d   1      -2.211  -1.821  -2.688  0.00  0.00     0.077 C 
ATOM      2  C1' PXY d   1      -3.389   3.834  -2.901  0.00  0.00     0.077 C 
ATOM      3  C1  PXY d   1      -3.075   2.353  -2.834  0.00  0.00    -0.082 A 
ATOM      4  C2  PXY d   1      -2.975   1.654  -3.953  0.00  0.00     0.003 A 
ATOM      5  C3  PXY d   1      -2.723   0.307  -3.909  0.00  0.00     0.003 A 
ATOM      6  C4  PXY d   1      -2.518  -0.321  -2.709  0.00  0.00    -0.082 A 
ATOM      7  C5  PXY d   1      -2.607   0.388  -1.564  0.00  0.00     0.003 A 
ATOM      8  C6  PXY d   1      -2.905   1.746  -1.628  0.00  0.00     0.003 A 
ENDROOT
TORSDOF 0
ENDMDL
