MODEL 1
REMARK minimizedAffinity -0.899430573
REMARK minimizedRMSD -1
REMARK  0 active torsions:
REMARK  status: ('A' for Active; 'I' for Inactive)
ROOT
ATOM      1  C4' PXY d   1       3.642  -3.707  -5.983  0.00  0.00     0.077 C 
ATOM      2  C1' PXY d   1       5.619   1.725  -5.989  0.00  0.00     0.077 C 
ATOM      3  C1  PXY d   1       5.112   0.296  -5.992  0.00  0.00    -0.082 A 
ATOM      4  C2  PXY d   1       3.809   0.065  -5.992  0.00  0.00     0.003 A 
ATOM      5  C3  PXY d   1       3.333  -1.221  -5.963  0.00  0.00     0.003 A 
ATOM      6  C4  PXY d   1       4.200  -2.281  -5.989  0.00  0.00    -0.082 A 
ATOM      7  C5  PXY d   1       5.530  -2.053  -6.000  0.00  0.00     0.003 A 
ATOM      8  C6  PXY d   1       5.993  -0.740  -5.987  0.00  0.00     0.003 A 
ENDROOT
TORSDOF 0
ENDMDL
