MODEL 1
REMARK minimizedAffinity -2.03314161
REMARK minimizedRMSD -1
REMARK  0 active torsions:
REMARK  status: ('A' for Active; 'I' for Inactive)
ROOT
ATOM      1  C4' PXY d   1      -2.246   1.005  -0.499  0.00  0.00     0.077 C 
ATOM      2  C1' PXY d   1       2.786   1.505   2.301  0.00  0.00     0.077 C 
ATOM      3  C1  PXY d   1       1.470   1.363   1.561  0.00  0.00    -0.082 A 
ATOM      4  C2  PXY d   1       0.750   2.440   1.295  0.00  0.00     0.003 A 
ATOM      5  C3  PXY d   1      -0.458   2.326   0.656  0.00  0.00     0.003 A 
ATOM      6  C4  PXY d   1      -0.907   1.102   0.237  0.00  0.00    -0.082 A 
ATOM      7  C5  PXY d   1      -0.173  -0.000   0.495  0.00  0.00     0.003 A 
ATOM      8  C6  PXY d   1       1.030   0.132   1.182  0.00  0.00     0.003 A 
ENDROOT
TORSDOF 0
ENDMDL
