MODEL 1
REMARK minimizedAffinity 2.73351765
REMARK minimizedRMSD -1
REMARK  0 active torsions:
REMARK  status: ('A' for Active; 'I' for Inactive)
ROOT
ATOM      1  C4' PXY d   1       2.699   2.439   3.405  0.00  0.00     0.077 C 
ATOM      2  C1' PXY d   1       0.800  -1.925   0.125  0.00  0.00     0.077 C 
ATOM      3  C1  PXY d   1       1.292  -0.772   0.977  0.00  0.00    -0.082 A 
ATOM      4  C2  PXY d   1       2.368  -0.929   1.731  0.00  0.00     0.003 A 
ATOM      5  C3  PXY d   1       2.809   0.093   2.532  0.00  0.00     0.003 A 
ATOM      6  C4  PXY d   1       2.172   1.305   2.521  0.00  0.00    -0.082 A 
ATOM      7  C5  PXY d   1       1.079   1.476   1.747  0.00  0.00     0.003 A 
ATOM      8  C6  PXY d   1       0.624   0.413   0.972  0.00  0.00     0.003 A 
ENDROOT
TORSDOF 0
ENDMDL
