MODEL 1
REMARK minimizedAffinity -0.742184579
REMARK minimizedRMSD -1
REMARK  0 active torsions:
REMARK  status: ('A' for Active; 'I' for Inactive)
ROOT
ATOM      1  C   UNL d   1      -5.999   2.627  -3.344  0.00  0.00     0.172 C 
ATOM      2  N   UNL d   1      -4.667   3.023  -3.735  0.00  0.00    -0.070 N 
ATOM      3  C1  UNL d   1      -4.351   3.814  -4.807  0.00  0.00    -0.004 A 
ATOM      4  C2  UNL d   1      -2.981   3.958  -4.836  0.00  0.00    -0.047 A 
ATOM      5  C3  UNL d   1      -2.455   3.228  -3.744  0.00  0.00    -0.047 A 
ATOM      6  C4  UNL d   1      -3.520   2.659  -3.079  0.00  0.00    -0.004 A 
ENDROOT
TORSDOF 0
ENDMDL
