MODEL 1
REMARK minimizedAffinity -3.22487879
REMARK minimizedRMSD -1
REMARK  0 active torsions:
REMARK  status: ('A' for Active; 'I' for Inactive)
ROOT
ATOM      1  C   UNL d   1      -1.394   5.359  -2.575  0.00  0.00     0.172 C 
ATOM      2  N   UNL d   1      -2.332   4.274  -2.740  0.00  0.00    -0.070 N 
ATOM      3  C1  UNL d   1      -3.467   4.079  -1.998  0.00  0.00    -0.004 A 
ATOM      4  C2  UNL d   1      -4.086   2.940  -2.465  0.00  0.00    -0.047 A 
ATOM      5  C3  UNL d   1      -3.296   2.432  -3.524  0.00  0.00    -0.047 A 
ATOM      6  C4  UNL d   1      -2.217   3.277  -3.673  0.00  0.00    -0.004 A 
ENDROOT
TORSDOF 0
ENDMDL
