MODEL 1
REMARK minimizedAffinity 1.33358598
REMARK minimizedRMSD -1
REMARK  0 active torsions:
REMARK  status: ('A' for Active; 'I' for Inactive)
ROOT
ATOM      1  C   UNL d   1       2.569  -1.862  -1.814  0.00  0.00     0.172 C 
ATOM      2  N   UNL d   1       1.897  -1.146  -0.755  0.00  0.00    -0.070 N 
ATOM      3  C1  UNL d   1       1.094  -1.706   0.202  0.00  0.00    -0.004 A 
ATOM      4  C2  UNL d   1       0.648  -0.693   1.023  0.00  0.00    -0.047 A 
ATOM      5  C3  UNL d   1       1.201   0.517   0.542  0.00  0.00    -0.047 A 
ATOM      6  C4  UNL d   1       1.971   0.208  -0.560  0.00  0.00    -0.004 A 
ENDROOT
TORSDOF 0
ENDMDL
