MODEL 1
REMARK minimizedAffinity -1.74369705
REMARK minimizedRMSD -1
REMARK  0 active torsions:
REMARK  status: ('A' for Active; 'I' for Inactive)
ROOT
ATOM      1  C   UNL d   1       1.756   2.218  -0.696  0.00  0.00     0.172 C 
ATOM      2  N   UNL d   1       1.679   0.805  -0.410  0.00  0.00    -0.070 N 
ATOM      3  C1  UNL d   1       2.320  -0.186  -1.104  0.00  0.00    -0.004 A 
ATOM      4  C2  UNL d   1       1.991  -1.390  -0.521  0.00  0.00    -0.047 A 
ATOM      5  C3  UNL d   1       1.122  -1.114   0.561  0.00  0.00    -0.047 A 
ATOM      6  C4  UNL d   1       0.945   0.253   0.606  0.00  0.00    -0.004 A 
ENDROOT
TORSDOF 0
ENDMDL
