MODEL 1
REMARK minimizedAffinity -2.01900744
REMARK minimizedRMSD -1
REMARK  0 active torsions:
REMARK  status: ('A' for Active; 'I' for Inactive)
ROOT
ATOM      1  C   UNL d   1       0.924  -0.531   0.886  0.00  0.00     0.172 C 
ATOM      2  N   UNL d   1       1.769  -0.411  -0.278  0.00  0.00    -0.070 N 
ATOM      3  C1  UNL d   1       1.970   0.733  -1.005  0.00  0.00    -0.004 A 
ATOM      4  C2  UNL d   1       2.839   0.433  -2.031  0.00  0.00    -0.047 A 
ATOM      5  C3  UNL d   1       3.171  -0.938  -1.919  0.00  0.00    -0.047 A 
ATOM      6  C4  UNL d   1       2.495  -1.436  -0.825  0.00  0.00    -0.004 A 
ENDROOT
TORSDOF 0
ENDMDL
