MODEL 1
REMARK minimizedAffinity 4.71521425
REMARK minimizedRMSD -1
REMARK  0 active torsions:
REMARK  status: ('A' for Active; 'I' for Inactive)
ROOT
ATOM      1  C   UNL d   1       0.137  -2.548   1.398  0.00  0.00     0.172 C 
ATOM      2  N   UNL d   1      -1.227  -2.103   1.563  0.00  0.00    -0.070 N 
ATOM      3  C1  UNL d   1      -2.346  -2.847   1.301  0.00  0.00    -0.004 A 
ATOM      4  C2  UNL d   1      -3.447  -2.067   1.584  0.00  0.00    -0.047 A 
ATOM      5  C3  UNL d   1      -2.972  -0.811   2.031  0.00  0.00    -0.047 A 
ATOM      6  C4  UNL d   1      -1.594  -0.861   2.008  0.00  0.00    -0.004 A 
ENDROOT
TORSDOF 0
ENDMDL
