MODEL 1
REMARK minimizedAffinity 2.92910552
REMARK minimizedRMSD -1
REMARK  0 active torsions:
REMARK  status: ('A' for Active; 'I' for Inactive)
ROOT
ATOM      1  C   UNL d   1       2.833  -1.715  -0.713  0.00  0.00     0.172 C 
ATOM      2  N   UNL d   1       3.499  -0.613  -1.367  0.00  0.00    -0.070 N 
ATOM      3  C1  UNL d   1       4.565  -0.717  -2.219  0.00  0.00    -0.004 A 
ATOM      4  C2  UNL d   1       4.905   0.555  -2.628  0.00  0.00    -0.047 A 
ATOM      5  C3  UNL d   1       4.011   1.454  -1.999  0.00  0.00    -0.047 A 
ATOM      6  C4  UNL d   1       3.152   0.705  -1.224  0.00  0.00    -0.004 A 
ENDROOT
TORSDOF 0
ENDMDL
