MODEL 1
REMARK minimizedAffinity -1.58390951
REMARK minimizedRMSD -1
REMARK  0 active torsions:
REMARK  status: ('A' for Active; 'I' for Inactive)
ROOT
ATOM      1  C   UNL d   1       3.448  -1.172  -1.563  0.00  0.00     0.172 C 
ATOM      2  N   UNL d   1       2.470  -0.666  -0.629  0.00  0.00    -0.070 N 
ATOM      3  C1  UNL d   1       2.129   0.650  -0.464  0.00  0.00    -0.004 A 
ATOM      4  C2  UNL d   1       1.165   0.716   0.518  0.00  0.00    -0.047 A 
ATOM      5  C3  UNL d   1       0.919  -0.606   0.960  0.00  0.00    -0.047 A 
ATOM      6  C4  UNL d   1       1.741  -1.441   0.234  0.00  0.00    -0.004 A 
ENDROOT
TORSDOF 0
ENDMDL
