MODEL 1
REMARK minimizedAffinity 2.40096045
REMARK minimizedRMSD -1
REMARK  0 active torsions:
REMARK  status: ('A' for Active; 'I' for Inactive)
ROOT
ATOM      1  C   UNL d   1       1.915   1.606  -0.392  0.00  0.00     0.172 C 
ATOM      2  N   UNL d   1       1.845   0.184  -0.153  0.00  0.00    -0.070 N 
ATOM      3  C1  UNL d   1       1.108  -0.426   0.828  0.00  0.00    -0.004 A 
ATOM      4  C2  UNL d   1       1.309  -1.785   0.723  0.00  0.00    -0.047 A 
ATOM      5  C3  UNL d   1       2.198  -2.000  -0.357  0.00  0.00    -0.047 A 
ATOM      6  C4  UNL d   1       2.513  -0.765  -0.881  0.00  0.00    -0.004 A 
ENDROOT
TORSDOF 0
ENDMDL
