MODEL 1
REMARK minimizedAffinity -1.78932524
REMARK minimizedRMSD -1
REMARK  0 active torsions:
REMARK  status: ('A' for Active; 'I' for Inactive)
ROOT
ATOM      1  C   UNL d   1      -0.406  -0.550   1.758  0.00  0.00     0.172 C 
ATOM      2  N   UNL d   1       0.650  -0.298   0.806  0.00  0.00    -0.070 N 
ATOM      3  C1  UNL d   1       1.388   0.852   0.718  0.00  0.00    -0.004 A 
ATOM      4  C2  UNL d   1       2.288   0.698  -0.314  0.00  0.00    -0.047 A 
ATOM      5  C3  UNL d   1       2.084  -0.589  -0.866  0.00  0.00    -0.047 A 
ATOM      6  C4  UNL d   1       1.063  -1.184  -0.154  0.00  0.00    -0.004 A 
ENDROOT
TORSDOF 0
ENDMDL
