MODEL 1
REMARK minimizedAffinity -3.12041831
REMARK minimizedRMSD -1
REMARK  0 active torsions:
REMARK  status: ('A' for Active; 'I' for Inactive)
ROOT
ATOM      1  C   UNL d   1       3.247  -1.348  -1.629  0.00  0.00     0.172 C 
ATOM      2  N   UNL d   1       2.259  -0.642  -0.849  0.00  0.00    -0.070 N 
ATOM      3  C1  UNL d   1       1.488  -1.184   0.144  0.00  0.00    -0.004 A 
ATOM      4  C2  UNL d   1       0.676  -0.188   0.640  0.00  0.00    -0.047 A 
ATOM      5  C3  UNL d   1       0.967   0.994  -0.081  0.00  0.00    -0.047 A 
ATOM      6  C4  UNL d   1       1.951   0.685  -0.996  0.00  0.00    -0.004 A 
ENDROOT
TORSDOF 0
ENDMDL
