MODEL 1
REMARK minimizedAffinity 0.895832419
REMARK minimizedRMSD -1
REMARK  0 active torsions:
REMARK  status: ('A' for Active; 'I' for Inactive)
ROOT
ATOM      1  C   UNL d   1      -0.766   2.273  -3.950  0.00  0.00     0.172 C 
ATOM      2  N   UNL d   1      -0.864   3.526  -3.239  0.00  0.00    -0.070 N 
ATOM      3  C1  UNL d   1       0.190   4.321  -2.874  0.00  0.00    -0.004 A 
ATOM      4  C2  UNL d   1      -0.318   5.421  -2.217  0.00  0.00    -0.047 A 
ATOM      5  C3  UNL d   1      -1.726   5.282  -2.186  0.00  0.00    -0.047 A 
ATOM      6  C4  UNL d   1      -2.037   4.100  -2.825  0.00  0.00    -0.004 A 
ENDROOT
TORSDOF 0
ENDMDL
