MODEL 1
REMARK minimizedAffinity -1.91082227
REMARK minimizedRMSD -1
REMARK  0 active torsions:
REMARK  status: ('A' for Active; 'I' for Inactive)
ROOT
ATOM      1  C   UNL d   1       0.169  -0.669   1.175  0.00  0.00     0.172 C 
ATOM      2  N   UNL d   1       1.226  -0.620   0.192  0.00  0.00    -0.070 N 
ATOM      3  C1  UNL d   1       1.602   0.486  -0.522  0.00  0.00    -0.004 A 
ATOM      4  C2  UNL d   1       2.641   0.121  -1.350  0.00  0.00    -0.047 A 
ATOM      5  C3  UNL d   1       2.898  -1.252  -1.127  0.00  0.00    -0.047 A 
ATOM      6  C4  UNL d   1       2.007  -1.686  -0.168  0.00  0.00    -0.004 A 
ENDROOT
TORSDOF 0
ENDMDL
