MODEL 1
REMARK minimizedAffinity -0.509584069
REMARK minimizedRMSD -1
REMARK  0 active torsions:
REMARK  status: ('A' for Active; 'I' for Inactive)
ROOT
ATOM      1  C   UNL d   1       0.998  -5.784   2.522  0.00  0.00     0.172 C 
ATOM      2  N   UNL d   1       1.225  -5.537   3.927  0.00  0.00    -0.070 N 
ATOM      3  C1  UNL d   1       2.289  -5.995   4.656  0.00  0.00    -0.004 A 
ATOM      4  C2  UNL d   1       2.139  -5.544   5.950  0.00  0.00    -0.047 A 
ATOM      5  C3  UNL d   1       0.943  -4.789   6.000  0.00  0.00    -0.047 A 
ATOM      6  C4  UNL d   1       0.397  -4.801   4.733  0.00  0.00    -0.004 A 
ENDROOT
TORSDOF 0
ENDMDL
