MODEL 1
REMARK minimizedAffinity -2.9249022
REMARK minimizedRMSD -1
REMARK  0 active torsions:
REMARK  status: ('A' for Active; 'I' for Inactive)
ROOT
ATOM      1  C   UNL d   1       3.351  -1.378  -1.276  0.00  0.00     0.172 C 
ATOM      2  N   UNL d   1       2.185  -1.260  -0.433  0.00  0.00    -0.070 N 
ATOM      3  C1  UNL d   1       1.792  -0.129   0.233  0.00  0.00    -0.004 A 
ATOM      4  C2  UNL d   1       0.637  -0.426   0.923  0.00  0.00    -0.047 A 
ATOM      5  C3  UNL d   1       0.325  -1.782   0.665  0.00  0.00    -0.047 A 
ATOM      6  C4  UNL d   1       1.300  -2.274  -0.177  0.00  0.00    -0.004 A 
ENDROOT
TORSDOF 0
ENDMDL
