MODEL 1
REMARK minimizedAffinity -2.31398487
REMARK minimizedRMSD -1
REMARK  0 active torsions:
REMARK  status: ('A' for Active; 'I' for Inactive)
ROOT
ATOM      1  C   UNL d   1      -0.004  -1.097   2.259  0.00  0.00     0.172 C 
ATOM      2  N   UNL d   1       0.830  -0.827   1.111  0.00  0.00    -0.070 N 
ATOM      3  C1  UNL d   1       1.579  -1.751   0.434  0.00  0.00    -0.004 A 
ATOM      4  C2  UNL d   1       2.226  -1.099  -0.594  0.00  0.00    -0.047 A 
ATOM      5  C3  UNL d   1       1.853   0.264  -0.531  0.00  0.00    -0.047 A 
ATOM      6  C4  UNL d   1       0.988   0.405   0.533  0.00  0.00    -0.004 A 
ENDROOT
TORSDOF 0
ENDMDL
