MODEL 1
REMARK minimizedAffinity -2.1624701
REMARK minimizedRMSD -1
REMARK  0 active torsions:
REMARK  status: ('A' for Active; 'I' for Inactive)
ROOT
ATOM      1  C   UNL d   1       0.336  -1.152   1.910  0.00  0.00     0.172 C 
ATOM      2  N   UNL d   1       1.058  -0.767   0.719  0.00  0.00    -0.070 N 
ATOM      3  C1  UNL d   1       0.979   0.450   0.096  0.00  0.00    -0.004 A 
ATOM      4  C2  UNL d   1       1.815   0.418  -0.999  0.00  0.00    -0.047 A 
ATOM      5  C3  UNL d   1       2.417  -0.862  -1.035  0.00  0.00    -0.047 A 
ATOM      6  C4  UNL d   1       1.930  -1.575   0.040  0.00  0.00    -0.004 A 
ENDROOT
TORSDOF 0
ENDMDL
