MODEL 1
REMARK minimizedAffinity -2.46291971
REMARK minimizedRMSD -1
REMARK  0 active torsions:
REMARK  status: ('A' for Active; 'I' for Inactive)
ROOT
ATOM      1  C   UNL d   1       2.450  -1.541  -0.567  0.00  0.00     0.172 C 
ATOM      2  N   UNL d   1       1.432  -1.266   0.419  0.00  0.00    -0.070 N 
ATOM      3  C1  UNL d   1       0.749  -2.205   1.146  0.00  0.00    -0.004 A 
ATOM      4  C2  UNL d   1      -0.130  -1.541   1.973  0.00  0.00    -0.047 A 
ATOM      5  C3  UNL d   1       0.029  -0.155   1.736  0.00  0.00    -0.047 A 
ATOM      6  C4  UNL d   1       1.002  -0.013   0.769  0.00  0.00    -0.004 A 
ENDROOT
TORSDOF 0
ENDMDL
