MODEL 1
REMARK minimizedAffinity -2.0501442
REMARK minimizedRMSD -1
REMARK  0 active torsions:
REMARK  status: ('A' for Active; 'I' for Inactive)
ROOT
ATOM      1  C   UNL d   1       2.830  -1.446  -1.941  0.00  0.00     0.172 C 
ATOM      2  N   UNL d   1       2.214  -0.616  -0.932  0.00  0.00    -0.070 N 
ATOM      3  C1  UNL d   1       2.330   0.746  -0.839  0.00  0.00    -0.004 A 
ATOM      4  C2  UNL d   1       1.597   1.158   0.253  0.00  0.00    -0.047 A 
ATOM      5  C3  UNL d   1       1.022   0.004   0.837  0.00  0.00    -0.047 A 
ATOM      6  C4  UNL d   1       1.420  -1.080   0.083  0.00  0.00    -0.004 A 
ENDROOT
TORSDOF 0
ENDMDL
