MODEL 1
REMARK minimizedAffinity -1.66931081
REMARK minimizedRMSD -1
REMARK  0 active torsions:
REMARK  status: ('A' for Active; 'I' for Inactive)
ROOT
ATOM      1  C   UNL d   1       2.096   2.393   1.159  0.00  0.00     0.172 C 
ATOM      2  N   UNL d   1       1.807   1.132   0.518  0.00  0.00    -0.070 N 
ATOM      3  C1  UNL d   1       2.228   0.755  -0.730  0.00  0.00    -0.004 A 
ATOM      4  C2  UNL d   1       1.746  -0.513  -0.973  0.00  0.00    -0.047 A 
ATOM      5  C3  UNL d   1       1.009  -0.912   0.167  0.00  0.00    -0.047 A 
ATOM      6  C4  UNL d   1       1.064   0.125   1.075  0.00  0.00    -0.004 A 
ENDROOT
TORSDOF 0
ENDMDL
