MODEL 1
REMARK minimizedAffinity 7.26968908
REMARK minimizedRMSD -1
REMARK  0 active torsions:
REMARK  status: ('A' for Active; 'I' for Inactive)
ROOT
ATOM      1  O1  BZF d   1      -4.528  -1.626   1.824  0.00  0.00    -0.204 OA
ATOM      2  C2  BZF d   1      -4.970  -1.004   0.673  0.00  0.00     0.174 A 
ATOM      3  C3  BZF d   1      -4.174   0.037   0.355  0.00  0.00    -0.012 A 
ATOM      4  C3A BZF d   1      -3.118   0.011   1.320  0.00  0.00    -0.107 A 
ATOM      5  C4  BZF d   1      -2.010   0.783   1.521  0.00  0.00     0.055 A 
ATOM      6  C5  BZF d   1      -1.219   0.537   2.598  0.00  0.00    -0.016 A 
ATOM      7  C6  BZF d   1      -1.510  -0.468   3.498  0.00  0.00     0.022 A 
ATOM      8  C7  BZF d   1      -2.595  -1.263   3.338  0.00  0.00     0.029 A 
ATOM      9  C7A BZF d   1      -3.378  -1.039   2.232  0.00  0.00     0.058 A 
ENDROOT
TORSDOF 0
ENDMDL
