MODEL 1
REMARK minimizedAffinity 4.89152241
REMARK minimizedRMSD -1
REMARK  0 active torsions:
REMARK  status: ('A' for Active; 'I' for Inactive)
ROOT
ATOM      1  O1  BZF d   1      -1.247  -5.085   0.306  0.00  0.00    -0.204 OA
ATOM      2  C2  BZF d   1      -1.062  -5.988  -0.724  0.00  0.00     0.174 A 
ATOM      3  C3  BZF d   1      -1.113  -5.367  -1.920  0.00  0.00    -0.012 A 
ATOM      4  C3A BZF d   1      -1.252  -3.976  -1.616  0.00  0.00    -0.107 A 
ATOM      5  C4  BZF d   1      -1.342  -2.851  -2.385  0.00  0.00     0.055 A 
ATOM      6  C5  BZF d   1      -1.544  -1.651  -1.780  0.00  0.00    -0.016 A 
ATOM      7  C6  BZF d   1      -1.667  -1.540  -0.410  0.00  0.00     0.022 A 
ATOM      8  C7  BZF d   1      -1.580  -2.627   0.395  0.00  0.00     0.029 A 
ATOM      9  C7A BZF d   1      -1.343  -3.837  -0.211  0.00  0.00     0.058 A 
ENDROOT
TORSDOF 0
ENDMDL
