MODEL 1
REMARK minimizedAffinity 10.4798594
REMARK minimizedRMSD -1
REMARK  0 active torsions:
REMARK  status: ('A' for Active; 'I' for Inactive)
ROOT
ATOM      1  O1  BZF d   1      -4.680   4.327  -0.036  0.00  0.00    -0.204 OA
ATOM      2  C2  BZF d   1      -5.800   4.566   0.737  0.00  0.00     0.174 A 
ATOM      3  C3  BZF d   1      -5.462   5.175   1.892  0.00  0.00    -0.012 A 
ATOM      4  C3A BZF d   1      -4.054   5.410   1.796  0.00  0.00    -0.107 A 
ATOM      5  C4  BZF d   1      -3.142   5.997   2.626  0.00  0.00     0.055 A 
ATOM      6  C5  BZF d   1      -1.831   6.000   2.268  0.00  0.00    -0.016 A 
ATOM      7  C6  BZF d   1      -1.397   5.421   1.094  0.00  0.00     0.022 A 
ATOM      8  C7  BZF d   1      -2.265   4.832   0.236  0.00  0.00     0.029 A 
ATOM      9  C7A BZF d   1      -3.595   4.856   0.579  0.00  0.00     0.058 A 
ENDROOT
TORSDOF 0
ENDMDL
