MODEL 1
REMARK minimizedAffinity 10.4924641
REMARK minimizedRMSD -1
REMARK  0 active torsions:
REMARK  status: ('A' for Active; 'I' for Inactive)
ROOT
ATOM      1  O1  BZF d   1      -1.467  -3.873  -0.093  0.00  0.00    -0.204 OA
ATOM      2  C2  BZF d   1      -1.349  -4.960   0.751  0.00  0.00     0.174 A 
ATOM      3  C3  BZF d   1      -1.559  -4.597   2.032  0.00  0.00    -0.012 A 
ATOM      4  C3A BZF d   1      -1.917  -3.212   1.977  0.00  0.00    -0.107 A 
ATOM      5  C4  BZF d   1      -2.259  -2.292   2.926  0.00  0.00     0.055 A 
ATOM      6  C5  BZF d   1      -2.480  -1.005   2.549  0.00  0.00    -0.016 A 
ATOM      7  C6  BZF d   1      -2.363  -0.603   1.235  0.00  0.00     0.022 A 
ATOM      8  C7  BZF d   1      -2.031  -1.481   0.257  0.00  0.00     0.029 A 
ATOM      9  C7A BZF d   1      -1.839  -2.789   0.630  0.00  0.00     0.058 A 
ENDROOT
TORSDOF 0
ENDMDL
