MODEL 1
REMARK minimizedAffinity 10.7231417
REMARK minimizedRMSD -1
REMARK  0 active torsions:
REMARK  status: ('A' for Active; 'I' for Inactive)
ROOT
ATOM      1  O1  BZF d   1      -2.636  -0.097   0.357  0.00  0.00    -0.204 OA
ATOM      2  C2  BZF d   1      -3.139  -0.039   1.643  0.00  0.00     0.174 A 
ATOM      3  C3  BZF d   1      -4.475  -0.220   1.643  0.00  0.00    -0.012 A 
ATOM      4  C3A BZF d   1      -4.818  -0.493   0.281  0.00  0.00    -0.107 A 
ATOM      5  C4  BZF d   1      -5.995  -0.773  -0.353  0.00  0.00     0.055 A 
ATOM      6  C5  BZF d   1      -5.999  -0.917  -1.704  0.00  0.00    -0.016 A 
ATOM      7  C6  BZF d   1      -4.848  -0.783  -2.452  0.00  0.00     0.022 A 
ATOM      8  C7  BZF d   1      -3.656  -0.511  -1.868  0.00  0.00     0.029 A 
ATOM      9  C7A BZF d   1      -3.642  -0.398  -0.499  0.00  0.00     0.058 A 
ENDROOT
TORSDOF 0
ENDMDL
