MODEL 1
REMARK minimizedAffinity 8.62591267
REMARK minimizedRMSD -1
REMARK  0 active torsions:
REMARK  status: ('A' for Active; 'I' for Inactive)
ROOT
ATOM      1  O1  BZF d   1      -4.255  -1.682   2.603  0.00  0.00    -0.204 OA
ATOM      2  C2  BZF d   1      -3.019  -1.083   2.745  0.00  0.00     0.174 A 
ATOM      3  C3  BZF d   1      -2.610  -0.547   1.578  0.00  0.00    -0.012 A 
ATOM      4  C3A BZF d   1      -3.697  -0.748   0.669  0.00  0.00    -0.107 A 
ATOM      5  C4  BZF d   1      -3.898  -0.420  -0.641  0.00  0.00     0.055 A 
ATOM      6  C5  BZF d   1      -5.041  -0.826  -1.255  0.00  0.00    -0.016 A 
ATOM      7  C6  BZF d   1      -5.999  -1.564  -0.591  0.00  0.00     0.022 A 
ATOM      8  C7  BZF d   1      -5.846  -1.909   0.710  0.00  0.00     0.029 A 
ATOM      9  C7A BZF d   1      -4.707  -1.472   1.343  0.00  0.00     0.058 A 
ENDROOT
TORSDOF 0
ENDMDL
