MODEL 1
REMARK minimizedAffinity 6.52128124
REMARK minimizedRMSD -1
REMARK  0 active torsions:
REMARK  status: ('A' for Active; 'I' for Inactive)
ROOT
ATOM      1  O1  BZF d   1      -4.209  -1.571   2.617  0.00  0.00    -0.204 OA
ATOM      2  C2  BZF d   1      -4.484  -0.991   1.393  0.00  0.00     0.174 A 
ATOM      3  C3  BZF d   1      -3.647   0.040   1.154  0.00  0.00    -0.012 A 
ATOM      4  C3A BZF d   1      -2.738   0.050   2.258  0.00  0.00    -0.107 A 
ATOM      5  C4  BZF d   1      -1.666   0.832   2.585  0.00  0.00     0.055 A 
ATOM      6  C5  BZF d   1      -1.036   0.626   3.771  0.00  0.00    -0.016 A 
ATOM      7  C6  BZF d   1      -1.453  -0.347   4.655  0.00  0.00     0.022 A 
ATOM      8  C7  BZF d   1      -2.507  -1.150   4.373  0.00  0.00     0.029 A 
ATOM      9  C7A BZF d   1      -3.126  -0.967   3.161  0.00  0.00     0.058 A 
ENDROOT
TORSDOF 0
ENDMDL
