MODEL 1
REMARK minimizedAffinity 9.20252609
REMARK minimizedRMSD -1
REMARK  0 active torsions:
REMARK  status: ('A' for Active; 'I' for Inactive)
ROOT
ATOM      1  O1  BZF d   1      -4.524  -1.138   2.423  0.00  0.00    -0.204 OA
ATOM      2  C2  BZF d   1      -3.209  -0.760   2.614  0.00  0.00     0.174 A 
ATOM      3  C3  BZF d   1      -2.629  -0.435   1.441  0.00  0.00    -0.012 A 
ATOM      4  C3A BZF d   1      -3.672  -0.532   0.466  0.00  0.00    -0.107 A 
ATOM      5  C4  BZF d   1      -3.721  -0.315  -0.882  0.00  0.00     0.055 A 
ATOM      6  C5  BZF d   1      -4.876  -0.570  -1.550  0.00  0.00    -0.016 A 
ATOM      7  C6  BZF d   1      -5.998  -1.048  -0.905  0.00  0.00     0.022 A 
ATOM      8  C7  BZF d   1      -5.999  -1.273   0.431  0.00  0.00     0.029 A 
ATOM      9  C7A BZF d   1      -4.844  -0.985   1.115  0.00  0.00     0.058 A 
ENDROOT
TORSDOF 0
ENDMDL
