MODEL 1
REMARK minimizedAffinity 13.0452566
REMARK minimizedRMSD -1
REMARK  0 active torsions:
REMARK  status: ('A' for Active; 'I' for Inactive)
ROOT
ATOM      1  O1  BZF d   1      -1.863  -5.716   5.988  0.00  0.00    -0.204 OA
ATOM      2  C2  BZF d   1      -3.176  -5.738   5.558  0.00  0.00     0.174 A 
ATOM      3  C3  BZF d   1      -3.238  -5.781   4.212  0.00  0.00    -0.012 A 
ATOM      4  C3A BZF d   1      -1.879  -5.879   3.775  0.00  0.00    -0.107 A 
ATOM      5  C4  BZF d   1      -1.292  -5.972   2.546  0.00  0.00     0.055 A 
ATOM      6  C5  BZF d   1       0.064  -5.978   2.460  0.00  0.00    -0.016 A 
ATOM      7  C6  BZF d   1       0.863  -5.888   3.581  0.00  0.00     0.022 A 
ATOM      8  C7  BZF d   1       0.327  -5.799   4.822  0.00  0.00     0.029 A 
ATOM      9  C7A BZF d   1      -1.043  -5.825   4.915  0.00  0.00     0.058 A 
ENDROOT
TORSDOF 0
ENDMDL
