MODEL 1
REMARK minimizedAffinity 10.6463547
REMARK minimizedRMSD -1
REMARK  0 active torsions:
REMARK  status: ('A' for Active; 'I' for Inactive)
ROOT
ATOM      1  O1  BZF d   1       3.752  -0.419  -2.966  0.00  0.00    -0.204 OA
ATOM      2  C2  BZF d   1       3.068  -1.562  -3.331  0.00  0.00     0.174 A 
ATOM      3  C3  BZF d   1       2.342  -2.036  -2.298  0.00  0.00    -0.012 A 
ATOM      4  C3A BZF d   1       2.515  -1.081  -1.247  0.00  0.00    -0.107 A 
ATOM      5  C4  BZF d   1       2.030  -0.988   0.026  0.00  0.00     0.055 A 
ATOM      6  C5  BZF d   1       2.450   0.032   0.820  0.00  0.00    -0.016 A 
ATOM      7  C6  BZF d   1       3.356   0.973   0.375  0.00  0.00     0.022 A 
ATOM      8  C7  BZF d   1       3.860   0.925  -0.882  0.00  0.00     0.029 A 
ATOM      9  C7A BZF d   1       3.413  -0.085  -1.697  0.00  0.00     0.058 A 
ENDROOT
TORSDOF 0
ENDMDL
