MODEL 1
REMARK minimizedAffinity -4.41761208
REMARK minimizedRMSD -1
REMARK  0 active torsions:
REMARK  status: ('A' for Active; 'I' for Inactive)
ROOT
ATOM      1  O1  BZF d   1      -5.985   5.965   3.894  0.00  0.00    -0.204 OA
ATOM      2  C2  BZF d   1      -5.518   5.969   5.194  0.00  0.00     0.174 A 
ATOM      3  C3  BZF d   1      -4.170   5.926   5.219  0.00  0.00    -0.012 A 
ATOM      4  C3A BZF d   1      -3.767   5.987   3.847  0.00  0.00    -0.107 A 
ATOM      5  C4  BZF d   1      -2.551   5.997   3.225  0.00  0.00     0.055 A 
ATOM      6  C5  BZF d   1      -2.503   5.989   1.867  0.00  0.00    -0.016 A 
ATOM      7  C6  BZF d   1      -3.650   5.964   1.101  0.00  0.00     0.022 A 
ATOM      8  C7  BZF d   1      -4.879   5.958   1.672  0.00  0.00     0.029 A 
ATOM      9  C7A BZF d   1      -4.931   6.000   3.044  0.00  0.00     0.058 A 
ENDROOT
TORSDOF 0
ENDMDL
