MODEL 1
REMARK minimizedAffinity 10.4159822
REMARK minimizedRMSD -1
REMARK  0 active torsions:
REMARK  status: ('A' for Active; 'I' for Inactive)
ROOT
ATOM      1  O1  BZF d   1       1.154   3.512   0.443  0.00  0.00    -0.204 OA
ATOM      2  C2  BZF d   1      -0.130   3.123   0.772  0.00  0.00     0.174 A 
ATOM      3  C3  BZF d   1      -0.242   1.779   0.753  0.00  0.00    -0.012 A 
ATOM      4  C3A BZF d   1       1.076   1.295   0.481  0.00  0.00    -0.107 A 
ATOM      5  C4  BZF d   1       1.610   0.045   0.355  0.00  0.00     0.055 A 
ATOM      6  C5  BZF d   1       2.919  -0.084   0.014  0.00  0.00    -0.016 A 
ATOM      7  C6  BZF d   1       3.721   1.016  -0.213  0.00  0.00     0.022 A 
ATOM      8  C7  BZF d   1       3.238   2.276  -0.094  0.00  0.00     0.029 A 
ATOM      9  C7A BZF d   1       1.924   2.409   0.282  0.00  0.00     0.058 A 
ENDROOT
TORSDOF 0
ENDMDL
