MODEL 1
REMARK minimizedAffinity 0.873010993
REMARK minimizedRMSD -1
REMARK  0 active torsions:
REMARK  status: ('A' for Active; 'I' for Inactive)
ROOT
ATOM      1  C   UNL d   1      -0.901   5.527  -3.636  0.00  0.00     0.124 A 
ATOM      2  C1  UNL d   1      -1.628   5.490  -4.817  0.00  0.00     0.062 A 
ATOM      3  C2  UNL d   1      -3.013   5.623  -4.791  0.00  0.00     0.162 A 
ATOM      4  C3  UNL d   1      -3.681   5.797  -3.578  0.00  0.00    -0.034 A 
ATOM      5  C4  UNL d   1      -2.942   5.833  -2.394  0.00  0.00     0.162 A 
ATOM      6  C5  UNL d   1      -1.558   5.699  -2.426  0.00  0.00     0.062 A 
ATOM      7  F   UNL d   1      -0.857   5.736  -1.283  0.00  0.00    -0.097 F 
ATOM      8  F1  UNL d   1      -3.552   5.999  -1.211  0.00  0.00    -0.096 F 
ATOM      9  I   UNL d   1      -5.752   5.998  -3.535  0.00  0.00    -0.060 I 
ATOM     10  F2  UNL d   1      -3.691   5.583  -5.948  0.00  0.00    -0.096 F 
ATOM     11  F3  UNL d   1      -0.996   5.323  -5.988  0.00  0.00    -0.097 F 
ATOM     12  F4  UNL d   1       0.432   5.397  -3.664  0.00  0.00    -0.092 F 
ENDROOT
TORSDOF 0
ENDMDL
