MODEL 1
REMARK minimizedAffinity 13.969882
REMARK minimizedRMSD -1
REMARK  0 active torsions:
REMARK  status: ('A' for Active; 'I' for Inactive)
ROOT
ATOM      1  C   UNL d   1      -1.997  -0.829   1.812  0.00  0.00     0.124 A 
ATOM      2  C1  UNL d   1      -1.216   0.317   1.843  0.00  0.00     0.062 A 
ATOM      3  C2  UNL d   1       0.169   0.224   1.744  0.00  0.00     0.162 A 
ATOM      4  C3  UNL d   1       0.783  -1.022   1.611  0.00  0.00    -0.034 A 
ATOM      5  C4  UNL d   1      -0.010  -2.171   1.582  0.00  0.00     0.162 A 
ATOM      6  C5  UNL d   1      -1.393  -2.072   1.682  0.00  0.00     0.062 A 
ATOM      7  F   UNL d   1      -2.147  -3.181   1.651  0.00  0.00    -0.097 F 
ATOM      8  F1  UNL d   1       0.548  -3.385   1.456  0.00  0.00    -0.096 F 
ATOM      9  I   UNL d   1       2.854  -1.166   1.463  0.00  0.00    -0.060 I 
ATOM     10  F2  UNL d   1       0.899   1.349   1.777  0.00  0.00    -0.096 F 
ATOM     11  F3  UNL d   1      -1.797   1.519   1.970  0.00  0.00    -0.097 F 
ATOM     12  F4  UNL d   1      -3.330  -0.736   1.909  0.00  0.00    -0.092 F 
ENDROOT
TORSDOF 0
ENDMDL
