MODEL 1
REMARK minimizedAffinity 19.0811844
REMARK minimizedRMSD -1
REMARK  0 active torsions:
REMARK  status: ('A' for Active; 'I' for Inactive)
ROOT
ATOM      1  C   UNL d   1      -0.248  -1.564   3.177  0.00  0.00     0.124 A 
ATOM      2  C1  UNL d   1      -0.589  -2.047   1.921  0.00  0.00     0.062 A 
ATOM      3  C2  UNL d   1      -1.592  -1.428   1.182  0.00  0.00     0.162 A 
ATOM      4  C3  UNL d   1      -2.263  -0.318   1.696  0.00  0.00    -0.034 A 
ATOM      5  C4  UNL d   1      -1.915   0.162   2.960  0.00  0.00     0.162 A 
ATOM      6  C5  UNL d   1      -0.911  -0.460   3.695  0.00  0.00     0.062 A 
ATOM      7  F   UNL d   1      -0.584   0.008   4.909  0.00  0.00    -0.097 F 
ATOM      8  F1  UNL d   1      -2.539   1.227   3.485  0.00  0.00    -0.096 F 
ATOM      9  I   UNL d   1      -3.764   0.610   0.593  0.00  0.00    -0.060 I 
ATOM     10  F2  UNL d   1      -1.901  -1.916  -0.029  0.00  0.00    -0.096 F 
ATOM     11  F3  UNL d   1       0.050  -3.113   1.419  0.00  0.00    -0.097 F 
ATOM     12  F4  UNL d   1       0.717  -2.162   3.887  0.00  0.00    -0.092 F 
ENDROOT
TORSDOF 0
ENDMDL
