MODEL 1
REMARK minimizedAffinity 28.271471
REMARK minimizedRMSD -1
REMARK  0 active torsions:
REMARK  status: ('A' for Active; 'I' for Inactive)
ROOT
ATOM      1  C   UNL d   1      -1.296  -4.954  -4.899  0.00  0.00     0.124 A 
ATOM      2  C1  UNL d   1      -0.807  -3.894  -4.148  0.00  0.00     0.062 A 
ATOM      3  C2  UNL d   1      -1.653  -2.855  -3.771  0.00  0.00     0.162 A 
ATOM      4  C3  UNL d   1      -2.997  -2.871  -4.143  0.00  0.00    -0.034 A 
ATOM      5  C4  UNL d   1      -3.481  -3.940  -4.900  0.00  0.00     0.162 A 
ATOM      6  C5  UNL d   1      -2.632  -4.976  -5.274  0.00  0.00     0.062 A 
ATOM      7  F   UNL d   1      -3.106  -5.999  -6.000  0.00  0.00    -0.097 F 
ATOM      8  F1  UNL d   1      -4.768  -3.987  -5.275  0.00  0.00    -0.096 F 
ATOM      9  I   UNL d   1      -4.265  -1.319  -3.582  0.00  0.00    -0.060 I 
ATOM     10  F2  UNL d   1      -1.154  -1.843  -3.045  0.00  0.00    -0.096 F 
ATOM     11  F3  UNL d   1       0.483  -3.870  -3.785  0.00  0.00    -0.097 F 
ATOM     12  F4  UNL d   1      -0.480  -5.952  -5.261  0.00  0.00    -0.092 F 
ENDROOT
TORSDOF 0
ENDMDL
