MODEL 1
REMARK minimizedAffinity 21.0850143
REMARK minimizedRMSD -1
REMARK  0 active torsions:
REMARK  status: ('A' for Active; 'I' for Inactive)
ROOT
ATOM      1  C   UNL d   1       3.968   1.922   1.964  0.00  0.00     0.124 A 
ATOM      2  C1  UNL d   1       3.336   1.493   0.805  0.00  0.00     0.062 A 
ATOM      3  C2  UNL d   1       3.598   2.121  -0.409  0.00  0.00     0.162 A 
ATOM      4  C3  UNL d   1       4.498   3.185  -0.471  0.00  0.00    -0.034 A 
ATOM      5  C4  UNL d   1       5.129   3.611   0.698  0.00  0.00     0.162 A 
ATOM      6  C5  UNL d   1       4.863   2.980   1.909  0.00  0.00     0.062 A 
ATOM      7  F   UNL d   1       5.475   3.397   3.028  0.00  0.00    -0.097 F 
ATOM      8  F1  UNL d   1       6.000   4.631   0.675  0.00  0.00    -0.096 F 
ATOM      9  I   UNL d   1       4.892   4.126  -2.285  0.00  0.00    -0.060 I 
ATOM     10  F2  UNL d   1       2.973   1.685  -1.513  0.00  0.00    -0.096 F 
ATOM     11  F3  UNL d   1       2.469   0.471   0.855  0.00  0.00    -0.097 F 
ATOM     12  F4  UNL d   1       3.713   1.316   3.131  0.00  0.00    -0.092 F 
ENDROOT
TORSDOF 0
ENDMDL
