MODEL 1
REMARK minimizedAffinity 27.6780128
REMARK minimizedRMSD -1
REMARK  0 active torsions:
REMARK  status: ('A' for Active; 'I' for Inactive)
ROOT
ATOM      1  C   UNL d   1      -1.166  -0.374   3.635  0.00  0.00     0.124 A 
ATOM      2  C1  UNL d   1      -1.027  -0.869   2.346  0.00  0.00     0.062 A 
ATOM      3  C2  UNL d   1      -2.044  -0.689   1.413  0.00  0.00     0.162 A 
ATOM      4  C3  UNL d   1      -3.210  -0.010   1.766  0.00  0.00    -0.034 A 
ATOM      5  C4  UNL d   1      -3.343   0.485   3.065  0.00  0.00     0.162 A 
ATOM      6  C5  UNL d   1      -2.324   0.302   3.993  0.00  0.00     0.062 A 
ATOM      7  F   UNL d   1      -2.460   0.781   5.238  0.00  0.00    -0.097 F 
ATOM      8  F1  UNL d   1      -4.451   1.143   3.437  0.00  0.00    -0.096 F 
ATOM      9  I   UNL d   1      -4.733   0.262   0.374  0.00  0.00    -0.060 I 
ATOM     10  F2  UNL d   1      -1.882  -1.178   0.175  0.00  0.00    -0.096 F 
ATOM     11  F3  UNL d   1       0.090  -1.524   1.998  0.00  0.00    -0.097 F 
ATOM     12  F4  UNL d   1      -0.186  -0.550   4.531  0.00  0.00    -0.092 F 
ENDROOT
TORSDOF 0
ENDMDL
