MODEL 1
REMARK minimizedAffinity 22.5966244
REMARK minimizedRMSD -1
REMARK  0 active torsions:
REMARK  status: ('A' for Active; 'I' for Inactive)
ROOT
ATOM      1  C   UNL d   1      -2.762   0.057   1.504  0.00  0.00     0.124 A 
ATOM      2  C1  UNL d   1      -2.673   0.615   2.772  0.00  0.00     0.062 A 
ATOM      3  C2  UNL d   1      -3.596   1.572   3.181  0.00  0.00     0.162 A 
ATOM      4  C3  UNL d   1      -4.617   1.978   2.322  0.00  0.00    -0.034 A 
ATOM      5  C4  UNL d   1      -4.699   1.414   1.048  0.00  0.00     0.162 A 
ATOM      6  C5  UNL d   1      -3.774   0.457   0.643  0.00  0.00     0.062 A 
ATOM      7  F   UNL d   1      -3.861  -0.081  -0.582  0.00  0.00    -0.097 F 
ATOM      8  F1  UNL d   1      -5.668   1.781   0.196  0.00  0.00    -0.096 F 
ATOM      9  I   UNL d   1      -6.000   3.410   2.930  0.00  0.00    -0.060 I 
ATOM     10  F2  UNL d   1      -3.487   2.094   4.412  0.00  0.00    -0.096 F 
ATOM     11  F3  UNL d   1      -1.695   0.231   3.605  0.00  0.00    -0.097 F 
ATOM     12  F4  UNL d   1      -1.871  -0.864   1.112  0.00  0.00    -0.092 F 
ENDROOT
TORSDOF 0
ENDMDL
