MODEL 1
REMARK minimizedAffinity 22.4193115
REMARK minimizedRMSD -1
REMARK  0 active torsions:
REMARK  status: ('A' for Active; 'I' for Inactive)
ROOT
ATOM      1  C   UNL d   1       4.035   3.351  -4.690  0.00  0.00     0.124 A 
ATOM      2  C1  UNL d   1       3.061   3.150  -3.721  0.00  0.00     0.062 A 
ATOM      3  C2  UNL d   1       3.072   3.905  -2.551  0.00  0.00     0.162 A 
ATOM      4  C3  UNL d   1       4.060   4.868  -2.344  0.00  0.00    -0.034 A 
ATOM      5  C4  UNL d   1       5.036   5.063  -3.323  0.00  0.00     0.162 A 
ATOM      6  C5  UNL d   1       5.021   4.307  -4.490  0.00  0.00     0.062 A 
ATOM      7  F   UNL d   1       5.962   4.502  -5.425  0.00  0.00    -0.097 F 
ATOM      8  F1  UNL d   1       6.000   5.981  -3.156  0.00  0.00    -0.096 F 
ATOM      9  I   UNL d   1       4.080   5.998  -0.596  0.00  0.00    -0.060 I 
ATOM     10  F2  UNL d   1       2.119   3.690  -1.632  0.00  0.00    -0.096 F 
ATOM     11  F3  UNL d   1       2.108   2.227  -3.911  0.00  0.00    -0.097 F 
ATOM     12  F4  UNL d   1       4.022   2.623  -5.814  0.00  0.00    -0.092 F 
ENDROOT
TORSDOF 0
ENDMDL
