MODEL 1
REMARK minimizedAffinity 21.332304
REMARK minimizedRMSD -1
REMARK  0 active torsions:
REMARK  status: ('A' for Active; 'I' for Inactive)
ROOT
ATOM      1  C   UNL d   1      -4.100   5.739  -2.385  0.00  0.00     0.124 A 
ATOM      2  C1  UNL d   1      -2.749   5.605  -2.100  0.00  0.00     0.062 A 
ATOM      3  C2  UNL d   1      -1.812   5.602  -3.130  0.00  0.00     0.162 A 
ATOM      4  C3  UNL d   1      -2.225   5.736  -4.456  0.00  0.00    -0.034 A 
ATOM      5  C4  UNL d   1      -3.586   5.869  -4.735  0.00  0.00     0.162 A 
ATOM      6  C5  UNL d   1      -4.518   5.871  -3.702  0.00  0.00     0.062 A 
ATOM      7  F   UNL d   1      -5.823   6.000  -3.980  0.00  0.00    -0.097 F 
ATOM      8  F1  UNL d   1      -4.017   5.999  -5.999  0.00  0.00    -0.096 F 
ATOM      9  I   UNL d   1      -0.828   5.733  -5.999  0.00  0.00    -0.060 I 
ATOM     10  F2  UNL d   1      -0.513   5.471  -2.825  0.00  0.00    -0.096 F 
ATOM     11  F3  UNL d   1      -2.343   5.476  -0.828  0.00  0.00    -0.097 F 
ATOM     12  F4  UNL d   1      -4.999   5.739  -1.392  0.00  0.00    -0.092 F 
ENDROOT
TORSDOF 0
ENDMDL
