MODEL 1
REMARK minimizedAffinity 9.38978958
REMARK minimizedRMSD -1
REMARK  0 active torsions:
REMARK  status: ('A' for Active; 'I' for Inactive)
ROOT
ATOM      1  C   UNL d   1      -0.742  -1.607   3.199  0.00  0.00     0.124 A 
ATOM      2  C1  UNL d   1      -0.794  -1.994   1.868  0.00  0.00     0.062 A 
ATOM      3  C2  UNL d   1      -1.666  -1.360   0.988  0.00  0.00     0.162 A 
ATOM      4  C3  UNL d   1      -2.493  -0.330   1.436  0.00  0.00    -0.034 A 
ATOM      5  C4  UNL d   1      -2.436   0.054   2.777  0.00  0.00     0.162 A 
ATOM      6  C5  UNL d   1      -1.563  -0.583   3.653  0.00  0.00     0.062 A 
ATOM      7  F   UNL d   1      -1.514  -0.207   4.939  0.00  0.00    -0.097 F 
ATOM      8  F1  UNL d   1      -3.217   1.040   3.241  0.00  0.00    -0.096 F 
ATOM      9  I   UNL d   1      -3.798   0.620   0.123  0.00  0.00    -0.060 I 
ATOM     10  F2  UNL d   1      -1.695  -1.756  -0.294  0.00  0.00    -0.096 F 
ATOM     11  F3  UNL d   1      -0.003  -2.983   1.428  0.00  0.00    -0.097 F 
ATOM     12  F4  UNL d   1       0.097  -2.219   4.045  0.00  0.00    -0.092 F 
ENDROOT
TORSDOF 0
ENDMDL
