MODEL 1
REMARK minimizedAffinity 17.977623
REMARK minimizedRMSD -1
REMARK  0 active torsions:
REMARK  status: ('A' for Active; 'I' for Inactive)
ROOT
ATOM      1  C   UNL d   1      -0.866   5.935  -2.383  0.00  0.00     0.124 A 
ATOM      2  C1  UNL d   1      -0.497   5.947  -3.721  0.00  0.00     0.062 A 
ATOM      3  C2  UNL d   1      -1.471   5.950  -4.715  0.00  0.00     0.162 A 
ATOM      4  C3  UNL d   1      -2.824   5.943  -4.376  0.00  0.00    -0.034 A 
ATOM      5  C4  UNL d   1      -3.187   5.930  -3.028  0.00  0.00     0.162 A 
ATOM      6  C5  UNL d   1      -2.210   5.926  -2.038  0.00  0.00     0.062 A 
ATOM      7  F   UNL d   1      -2.569   5.914  -0.745  0.00  0.00    -0.097 F 
ATOM      8  F1  UNL d   1      -4.479   5.922  -2.666  0.00  0.00    -0.096 F 
ATOM      9  I   UNL d   1      -4.283   5.948  -5.860  0.00  0.00    -0.060 I 
ATOM     10  F2  UNL d   1      -1.085   5.962  -6.000  0.00  0.00    -0.096 F 
ATOM     11  F3  UNL d   1       0.801   5.954  -4.057  0.00  0.00    -0.097 F 
ATOM     12  F4  UNL d   1       0.073   5.930  -1.428  0.00  0.00    -0.092 F 
ENDROOT
TORSDOF 0
ENDMDL
