MODEL 1
REMARK minimizedAffinity 17.6448593
REMARK minimizedRMSD -1
REMARK  0 active torsions:
REMARK  status: ('A' for Active; 'I' for Inactive)
ROOT
ATOM      1  C   UNL d   1      -0.723  -0.807   3.031  0.00  0.00     0.124 A 
ATOM      2  C1  UNL d   1      -1.633   0.150   3.460  0.00  0.00     0.062 A 
ATOM      3  C2  UNL d   1      -2.671   0.553   2.624  0.00  0.00     0.162 A 
ATOM      4  C3  UNL d   1      -2.805  -0.001   1.351  0.00  0.00    -0.034 A 
ATOM      5  C4  UNL d   1      -1.885  -0.962   0.926  0.00  0.00     0.162 A 
ATOM      6  C5  UNL d   1      -0.850  -1.361   1.765  0.00  0.00     0.062 A 
ATOM      7  F   UNL d   1       0.029  -2.285   1.349  0.00  0.00    -0.097 F 
ATOM      8  F1  UNL d   1      -1.984  -1.515  -0.292  0.00  0.00    -0.096 F 
ATOM      9  I   UNL d   1      -4.355   0.599   0.098  0.00  0.00    -0.060 I 
ATOM     10  F2  UNL d   1      -3.536   1.478   3.064  0.00  0.00    -0.096 F 
ATOM     11  F3  UNL d   1      -1.513   0.688   4.682  0.00  0.00    -0.097 F 
ATOM     12  F4  UNL d   1       0.275  -1.192   3.837  0.00  0.00    -0.092 F 
ENDROOT
TORSDOF 0
ENDMDL
