MODEL 1
REMARK minimizedAffinity 25.100029
REMARK minimizedRMSD -1
REMARK  0 active torsions:
REMARK  status: ('A' for Active; 'I' for Inactive)
ROOT
ATOM      1  C   UNL d   1       4.872   4.261  -4.488  0.00  0.00     0.124 A 
ATOM      2  C1  UNL d   1       4.819   5.093  -3.378  0.00  0.00     0.062 A 
ATOM      3  C2  UNL d   1       3.650   5.187  -2.629  0.00  0.00     0.162 A 
ATOM      4  C3  UNL d   1       2.524   4.445  -2.986  0.00  0.00    -0.034 A 
ATOM      5  C4  UNL d   1       2.585   3.611  -4.104  0.00  0.00     0.162 A 
ATOM      6  C5  UNL d   1       3.756   3.521  -4.849  0.00  0.00     0.062 A 
ATOM      7  F   UNL d   1       3.805   2.717  -5.921  0.00  0.00    -0.097 F 
ATOM      8  F1  UNL d   1       1.521   2.884  -4.475  0.00  0.00    -0.096 F 
ATOM      9  I   UNL d   1       0.774   4.582  -1.868  0.00  0.00    -0.060 I 
ATOM     10  F2  UNL d   1       3.627   5.999  -1.561  0.00  0.00    -0.096 F 
ATOM     11  F3  UNL d   1       5.897   5.810  -3.027  0.00  0.00    -0.097 F 
ATOM     12  F4  UNL d   1       5.999   4.174  -5.207  0.00  0.00    -0.092 F 
ENDROOT
TORSDOF 0
ENDMDL
