MODEL 1
REMARK minimizedAffinity 16.7637138
REMARK minimizedRMSD -1
REMARK  0 active torsions:
REMARK  status: ('A' for Active; 'I' for Inactive)
ROOT
ATOM      1  C   UNL d   1       4.891   3.137   1.334  0.00  0.00     0.124 A 
ATOM      2  C1  UNL d   1       5.030   3.815   0.131  0.00  0.00     0.062 A 
ATOM      3  C2  UNL d   1       4.167   3.547  -0.927  0.00  0.00     0.162 A 
ATOM      4  C3  UNL d   1       3.156   2.597  -0.787  0.00  0.00    -0.034 A 
ATOM      5  C4  UNL d   1       3.022   1.919   0.425  0.00  0.00     0.162 A 
ATOM      6  C5  UNL d   1       3.887   2.190   1.480  0.00  0.00     0.062 A 
ATOM      7  F   UNL d   1       3.750   1.534   2.642  0.00  0.00    -0.097 F 
ATOM      8  F1  UNL d   1       2.060   0.999   0.594  0.00  0.00    -0.096 F 
ATOM      9  I   UNL d   1       1.863   2.193  -2.368  0.00  0.00    -0.060 I 
ATOM     10  F2  UNL d   1       4.326   4.217  -2.079  0.00  0.00    -0.096 F 
ATOM     11  F3  UNL d   1       6.000   4.730  -0.013  0.00  0.00    -0.097 F 
ATOM     12  F4  UNL d   1       5.723   3.396   2.351  0.00  0.00    -0.092 F 
ENDROOT
TORSDOF 0
ENDMDL
