MODEL 1
REMARK minimizedAffinity 14.7517757
REMARK minimizedRMSD -1
REMARK  0 active torsions:
REMARK  status: ('A' for Active; 'I' for Inactive)
ROOT
ATOM      1  C   UNL d   1      -1.377  -1.343   2.478  0.00  0.00     0.124 A 
ATOM      2  C1  UNL d   1      -1.607  -0.310   3.375  0.00  0.00     0.062 A 
ATOM      3  C2  UNL d   1      -2.754   0.471   3.266  0.00  0.00     0.162 A 
ATOM      4  C3  UNL d   1      -3.682   0.220   2.255  0.00  0.00    -0.034 A 
ATOM      5  C4  UNL d   1      -3.444  -0.821   1.355  0.00  0.00     0.162 A 
ATOM      6  C5  UNL d   1      -2.295  -1.598   1.469  0.00  0.00     0.062 A 
ATOM      7  F   UNL d   1      -2.075  -2.596   0.601  0.00  0.00    -0.097 F 
ATOM      8  F1  UNL d   1      -4.315  -1.090   0.372  0.00  0.00    -0.096 F 
ATOM      9  I   UNL d   1      -5.399   1.384   2.088  0.00  0.00    -0.060 I 
ATOM     10  F2  UNL d   1      -2.950   1.463   4.147  0.00  0.00    -0.096 F 
ATOM     11  F3  UNL d   1      -0.721  -0.061   4.350  0.00  0.00    -0.097 F 
ATOM     12  F4  UNL d   1      -0.272  -2.092   2.585  0.00  0.00    -0.092 F 
ENDROOT
TORSDOF 0
ENDMDL
