MODEL 1
REMARK minimizedAffinity 0.586224198
REMARK minimizedRMSD -1
REMARK  0 active torsions:
REMARK  status: ('A' for Active; 'I' for Inactive)
ROOT
ATOM      1  C   UNL d   1       2.691   2.550  -1.116  0.00  0.00     0.124 A 
ATOM      2  C1  UNL d   1       2.626   3.234   0.090  0.00  0.00     0.062 A 
ATOM      3  C2  UNL d   1       1.626   4.177   0.307  0.00  0.00     0.162 A 
ATOM      4  C3  UNL d   1       0.680   4.440  -0.684  0.00  0.00    -0.034 A 
ATOM      5  C4  UNL d   1       0.751   3.749  -1.894  0.00  0.00     0.162 A 
ATOM      6  C5  UNL d   1       1.753   2.808  -2.107  0.00  0.00     0.062 A 
ATOM      7  F   UNL d   1       1.814   2.147  -3.272  0.00  0.00    -0.097 F 
ATOM      8  F1  UNL d   1      -0.142   3.978  -2.868  0.00  0.00    -0.096 F 
ATOM      9  I   UNL d   1      -0.818   5.849  -0.362  0.00  0.00    -0.060 I 
ATOM     10  F2  UNL d   1       1.588   4.823   1.482  0.00  0.00    -0.096 F 
ATOM     11  F3  UNL d   1       3.531   2.988   1.048  0.00  0.00    -0.097 F 
ATOM     12  F4  UNL d   1       3.655   1.644  -1.323  0.00  0.00    -0.092 F 
ENDROOT
TORSDOF 0
ENDMDL
