MODEL 1
REMARK minimizedAffinity 1.93671143
REMARK minimizedRMSD -1
REMARK  0 active torsions:
REMARK  status: ('A' for Active; 'I' for Inactive)
ROOT
ATOM      1  C   UNL d   1      -1.233  -2.056   3.574  0.00  0.00     0.020 A 
ATOM      2  C1  UNL d   1      -2.323  -2.418   2.783  0.00  0.00     0.020 A 
ATOM      3  C2  UNL d   1      -2.420  -1.949   1.472  0.00  0.00     0.034 A 
ATOM      4  C3  UNL d   1      -1.426  -1.115   0.947  0.00  0.00     0.017 A 
ATOM      5  C4  UNL d   1      -0.333  -0.751   1.742  0.00  0.00     0.017 A 
ATOM      6  C5  UNL d   1      -0.240  -1.224   3.054  0.00  0.00     0.034 A 
ATOM      7 Cl   UNL d   1       0.932   0.275   1.164  0.00  0.00    -0.070 Cl
ATOM      8 Cl1  UNL d   1      -1.611  -0.572  -0.683  0.00  0.00    -0.070 Cl
ENDROOT
TORSDOF 0
ENDMDL
