MODEL 1
REMARK minimizedAffinity -1.51346159
REMARK minimizedRMSD -1
REMARK  0 active torsions:
REMARK  status: ('A' for Active; 'I' for Inactive)
ROOT
ATOM      1  C   UNL d   1      -1.560  -4.366  -4.803  0.00  0.00     0.020 A 
ATOM      2  C1  UNL d   1      -1.665  -5.497  -5.612  0.00  0.00     0.020 A 
ATOM      3  C2  UNL d   1      -2.924  -5.984  -5.969  0.00  0.00     0.034 A 
ATOM      4  C3  UNL d   1      -4.082  -5.341  -5.518  0.00  0.00     0.017 A 
ATOM      5  C4  UNL d   1      -3.976  -4.206  -4.706  0.00  0.00     0.017 A 
ATOM      6  C5  UNL d   1      -2.713  -3.722  -4.351  0.00  0.00     0.034 A 
ATOM      7 Cl   UNL d   1      -5.359  -3.358  -4.111  0.00  0.00    -0.070 Cl
ATOM      8 Cl1  UNL d   1      -5.606  -5.998  -6.000  0.00  0.00    -0.070 Cl
ENDROOT
TORSDOF 0
ENDMDL
