MODEL 1
REMARK minimizedAffinity -3.81801033
REMARK minimizedRMSD -1
REMARK  0 active torsions:
REMARK  status: ('A' for Active; 'I' for Inactive)
ROOT
ATOM      1  C   UNL d   1      -2.996  -5.999  -4.499  0.00  0.00     0.020 A 
ATOM      2  C1  UNL d   1      -2.232  -5.259  -5.401  0.00  0.00     0.020 A 
ATOM      3  C2  UNL d   1      -2.628  -3.967  -5.754  0.00  0.00     0.034 A 
ATOM      4  C3  UNL d   1      -3.789  -3.412  -5.205  0.00  0.00     0.017 A 
ATOM      5  C4  UNL d   1      -4.555  -4.155  -4.300  0.00  0.00     0.017 A 
ATOM      6  C5  UNL d   1      -4.154  -5.448  -3.950  0.00  0.00     0.034 A 
ATOM      7 Cl   UNL d   1      -6.000  -3.537  -3.581  0.00  0.00    -0.070 Cl
ATOM      8 Cl1  UNL d   1      -4.218  -1.809  -5.687  0.00  0.00    -0.070 Cl
ENDROOT
TORSDOF 0
ENDMDL
