MODEL 1
REMARK minimizedAffinity -1.36519158
REMARK minimizedRMSD -1
REMARK  0 active torsions:
REMARK  status: ('A' for Active; 'I' for Inactive)
ROOT
ATOM      1  C   UNL d   1      -2.793  -5.137  -4.025  0.00  0.00     0.020 A 
ATOM      2  C1  UNL d   1      -2.832  -4.986  -5.411  0.00  0.00     0.020 A 
ATOM      3  C2  UNL d   1      -3.828  -4.204  -6.000  0.00  0.00     0.034 A 
ATOM      4  C3  UNL d   1      -4.789  -3.571  -5.204  0.00  0.00     0.017 A 
ATOM      5  C4  UNL d   1      -4.748  -3.723  -3.813  0.00  0.00     0.017 A 
ATOM      6  C5  UNL d   1      -3.749  -4.506  -3.228  0.00  0.00     0.034 A 
ATOM      7 Cl   UNL d   1      -5.899  -2.971  -2.765  0.00  0.00    -0.070 Cl
ATOM      8 Cl1  UNL d   1      -5.991  -2.619  -6.000  0.00  0.00    -0.070 Cl
ENDROOT
TORSDOF 0
ENDMDL
