MODEL 1
REMARK minimizedAffinity -3.21023917
REMARK minimizedRMSD -1
REMARK  0 active torsions:
REMARK  status: ('A' for Active; 'I' for Inactive)
ROOT
ATOM      1  C   UNL d   1      -2.818  -6.000  -6.000  0.00  0.00     0.020 A 
ATOM      2  C1  UNL d   1      -1.733  -5.197  -5.651  0.00  0.00     0.020 A 
ATOM      3  C2  UNL d   1      -1.906  -4.142  -4.752  0.00  0.00     0.034 A 
ATOM      4  C3  UNL d   1      -3.166  -3.887  -4.199  0.00  0.00     0.017 A 
ATOM      5  C4  UNL d   1      -4.255  -4.694  -4.551  0.00  0.00     0.017 A 
ATOM      6  C5  UNL d   1      -4.076  -5.749  -5.451  0.00  0.00     0.034 A 
ATOM      7 Cl   UNL d   1      -5.840  -4.442  -3.911  0.00  0.00    -0.070 Cl
ATOM      8 Cl1  UNL d   1      -3.308  -2.567  -3.094  0.00  0.00    -0.070 Cl
ENDROOT
TORSDOF 0
ENDMDL
