MODEL 1
REMARK minimizedAffinity -3.43640423
REMARK minimizedRMSD -1
REMARK  0 active torsions:
REMARK  status: ('A' for Active; 'I' for Inactive)
ROOT
ATOM      1  C   UNL d   1      -2.311  -5.819  -5.272  0.00  0.00     0.020 A 
ATOM      2  C1  UNL d   1      -2.044  -4.636  -5.961  0.00  0.00     0.020 A 
ATOM      3  C2  UNL d   1      -3.002  -3.620  -6.000  0.00  0.00     0.034 A 
ATOM      4  C3  UNL d   1      -4.230  -3.785  -5.350  0.00  0.00     0.017 A 
ATOM      5  C4  UNL d   1      -4.497  -4.973  -4.659  0.00  0.00     0.017 A 
ATOM      6  C5  UNL d   1      -3.534  -5.987  -4.623  0.00  0.00     0.034 A 
ATOM      7 Cl   UNL d   1      -5.989  -5.250  -3.833  0.00  0.00    -0.070 Cl
ATOM      8 Cl1  UNL d   1      -5.368  -2.488  -5.439  0.00  0.00    -0.070 Cl
ENDROOT
TORSDOF 0
ENDMDL
