MODEL 1
REMARK minimizedAffinity -2.46047878
REMARK minimizedRMSD -1
REMARK  0 active torsions:
REMARK  status: ('A' for Active; 'I' for Inactive)
ROOT
ATOM      1  C   UNL d   1      -6.000  -3.005  -4.252  0.00  0.00     0.020 A 
ATOM      2  C1  UNL d   1      -5.363  -2.183  -5.181  0.00  0.00     0.020 A 
ATOM      3  C2  UNL d   1      -4.107  -2.534  -5.679  0.00  0.00     0.034 A 
ATOM      4  C3  UNL d   1      -3.482  -3.710  -5.246  0.00  0.00     0.017 A 
ATOM      5  C4  UNL d   1      -4.121  -4.534  -4.313  0.00  0.00     0.017 A 
ATOM      6  C5  UNL d   1      -5.380  -4.177  -3.819  0.00  0.00     0.034 A 
ATOM      7 Cl   UNL d   1      -3.414  -6.000  -3.732  0.00  0.00    -0.070 Cl
ATOM      8 Cl1  UNL d   1      -1.928  -4.082  -5.903  0.00  0.00    -0.070 Cl
ENDROOT
TORSDOF 0
ENDMDL
