MODEL 1
REMARK minimizedAffinity -2.97636747
REMARK minimizedRMSD -1
REMARK  0 active torsions:
REMARK  status: ('A' for Active; 'I' for Inactive)
ROOT
ATOM      1  C   UNL d   1      -5.488  -3.045  -4.395  0.00  0.00     0.020 A 
ATOM      2  C1  UNL d   1      -4.884  -2.480  -5.518  0.00  0.00     0.020 A 
ATOM      3  C2  UNL d   1      -3.679  -2.997  -5.996  0.00  0.00     0.034 A 
ATOM      4  C3  UNL d   1      -3.073  -4.082  -5.353  0.00  0.00     0.017 A 
ATOM      5  C4  UNL d   1      -3.680  -4.649  -4.226  0.00  0.00     0.017 A 
ATOM      6  C5  UNL d   1      -4.887  -4.127  -3.751  0.00  0.00     0.034 A 
ATOM      7 Cl   UNL d   1      -2.993  -5.989  -3.378  0.00  0.00    -0.070 Cl
ATOM      8 Cl1  UNL d   1      -1.583  -4.671  -5.999  0.00  0.00    -0.070 Cl
ENDROOT
TORSDOF 0
ENDMDL
