MODEL 1
REMARK minimizedAffinity -2.87027955
REMARK minimizedRMSD -1
REMARK  0 active torsions:
REMARK  status: ('A' for Active; 'I' for Inactive)
ROOT
ATOM      1  C   UNL d   1      -4.348  -2.736  -3.061  0.00  0.00     0.020 A 
ATOM      2  C1  UNL d   1      -5.676  -3.125  -3.231  0.00  0.00     0.020 A 
ATOM      3  C2  UNL d   1      -5.997  -4.134  -4.142  0.00  0.00     0.034 A 
ATOM      4  C3  UNL d   1      -4.989  -4.757  -4.886  0.00  0.00     0.017 A 
ATOM      5  C4  UNL d   1      -3.656  -4.366  -4.715  0.00  0.00     0.017 A 
ATOM      6  C5  UNL d   1      -3.340  -3.355  -3.802  0.00  0.00     0.034 A 
ATOM      7 Cl   UNL d   1      -2.357  -5.088  -5.597  0.00  0.00    -0.070 Cl
ATOM      8 Cl1  UNL d   1      -5.457  -5.998  -5.994  0.00  0.00    -0.070 Cl
ENDROOT
TORSDOF 0
ENDMDL
