MODEL 1
REMARK minimizedAffinity -2.50230646
REMARK minimizedRMSD -1
REMARK  0 active torsions:
REMARK  status: ('A' for Active; 'I' for Inactive)
ROOT
ATOM      1  C   UNL d   1      -1.956  -4.493  -4.626  0.00  0.00     0.020 A 
ATOM      2  C1  UNL d   1      -2.057  -5.495  -5.590  0.00  0.00     0.020 A 
ATOM      3  C2  UNL d   1      -3.314  -5.945  -6.000  0.00  0.00     0.034 A 
ATOM      4  C3  UNL d   1      -4.474  -5.394  -5.445  0.00  0.00     0.017 A 
ATOM      5  C4  UNL d   1      -4.372  -4.388  -4.477  0.00  0.00     0.017 A 
ATOM      6  C5  UNL d   1      -3.111  -3.941  -4.071  0.00  0.00     0.034 A 
ATOM      7 Cl   UNL d   1      -5.758  -3.660  -3.746  0.00  0.00    -0.070 Cl
ATOM      8 Cl1  UNL d   1      -5.995  -5.999  -5.998  0.00  0.00    -0.070 Cl
ENDROOT
TORSDOF 0
ENDMDL
