MODEL 1
REMARK minimizedAffinity -0.496781707
REMARK minimizedRMSD -1
REMARK  0 active torsions:
REMARK  status: ('A' for Active; 'I' for Inactive)
ROOT
ATOM      1  C   UNL d   1      -3.872  -3.176  -3.142  0.00  0.00     0.020 A 
ATOM      2  C1  UNL d   1      -5.261  -3.161  -3.257  0.00  0.00     0.020 A 
ATOM      3  C2  UNL d   1      -5.898  -4.031  -4.145  0.00  0.00     0.034 A 
ATOM      4  C3  UNL d   1      -5.145  -4.918  -4.922  0.00  0.00     0.017 A 
ATOM      5  C4  UNL d   1      -3.750  -4.932  -4.807  0.00  0.00     0.017 A 
ATOM      6  C5  UNL d   1      -3.118  -4.060  -3.916  0.00  0.00     0.034 A 
ATOM      7 Cl   UNL d   1      -2.754  -5.999  -5.732  0.00  0.00    -0.070 Cl
ATOM      8 Cl1  UNL d   1      -5.998  -5.966  -6.000  0.00  0.00    -0.070 Cl
ENDROOT
TORSDOF 0
ENDMDL
