MODEL 1
REMARK minimizedAffinity -1.62848198
REMARK minimizedRMSD -1
REMARK  0 active torsions:
REMARK  status: ('A' for Active; 'I' for Inactive)
ROOT
ATOM      1  C   UNL d   1      -2.007  -5.563  -5.637  0.00  0.00     0.020 A 
ATOM      2  C1  UNL d   1      -1.853  -4.472  -4.783  0.00  0.00     0.020 A 
ATOM      3  C2  UNL d   1      -2.978  -3.809  -4.288  0.00  0.00     0.034 A 
ATOM      4  C3  UNL d   1      -4.262  -4.235  -4.648  0.00  0.00     0.017 A 
ATOM      5  C4  UNL d   1      -4.415  -5.330  -5.506  0.00  0.00     0.017 A 
ATOM      6  C5  UNL d   1      -3.285  -5.991  -5.998  0.00  0.00     0.034 A 
ATOM      7 Cl   UNL d   1      -5.967  -5.915  -5.994  0.00  0.00    -0.070 Cl
ATOM      8 Cl1  UNL d   1      -5.608  -3.368  -3.999  0.00  0.00    -0.070 Cl
ENDROOT
TORSDOF 0
ENDMDL
