MODEL 1
REMARK minimizedAffinity -2.97879124
REMARK minimizedRMSD -1
REMARK  0 active torsions:
REMARK  status: ('A' for Active; 'I' for Inactive)
ROOT
ATOM      1  C   UNL d   1      -5.129  -1.903  -5.602  0.00  0.00     0.020 A 
ATOM      2  C1  UNL d   1      -5.999  -2.553  -4.727  0.00  0.00     0.020 A 
ATOM      3  C2  UNL d   1      -5.674  -3.817  -4.231  0.00  0.00     0.034 A 
ATOM      4  C3  UNL d   1      -4.476  -4.435  -4.609  0.00  0.00     0.017 A 
ATOM      5  C4  UNL d   1      -3.604  -3.782  -5.487  0.00  0.00     0.017 A 
ATOM      6  C5  UNL d   1      -3.935  -2.516  -5.981  0.00  0.00     0.034 A 
ATOM      7 Cl   UNL d   1      -2.109  -4.481  -6.000  0.00  0.00    -0.070 Cl
ATOM      8 Cl1  UNL d   1      -4.139  -5.999  -3.957  0.00  0.00    -0.070 Cl
ENDROOT
TORSDOF 0
ENDMDL
