MODEL 1
REMARK minimizedAffinity -1.9839009
REMARK minimizedRMSD -1
REMARK  0 active torsions:
REMARK  status: ('A' for Active; 'I' for Inactive)
ROOT
ATOM      1  C   UNL d   1      -2.647  -5.390  -4.742  0.00  0.00     0.020 A 
ATOM      2  C1  UNL d   1      -2.248  -4.499  -5.737  0.00  0.00     0.020 A 
ATOM      3  C2  UNL d   1      -3.010  -3.358  -6.000  0.00  0.00     0.034 A 
ATOM      4  C3  UNL d   1      -4.175  -3.106  -5.267  0.00  0.00     0.017 A 
ATOM      5  C4  UNL d   1      -4.575  -4.002  -4.268  0.00  0.00     0.017 A 
ATOM      6  C5  UNL d   1      -3.808  -5.142  -4.009  0.00  0.00     0.034 A 
ATOM      7 Cl   UNL d   1      -6.000  -3.758  -3.321  0.00  0.00    -0.070 Cl
ATOM      8 Cl1  UNL d   1      -5.068  -1.676  -5.644  0.00  0.00    -0.070 Cl
ENDROOT
TORSDOF 0
ENDMDL
