MODEL 1
REMARK minimizedAffinity -2.15315127
REMARK minimizedRMSD -1
REMARK  0 active torsions:
REMARK  status: ('A' for Active; 'I' for Inactive)
ROOT
ATOM      1  C   UNL d   1      -5.998  -3.080  -4.691  0.00  0.00     0.020 A 
ATOM      2  C1  UNL d   1      -5.312  -2.286  -5.610  0.00  0.00     0.020 A 
ATOM      3  C2  UNL d   1      -4.016  -2.629  -6.000  0.00  0.00     0.034 A 
ATOM      4  C3  UNL d   1      -3.401  -3.770  -5.471  0.00  0.00     0.017 A 
ATOM      5  C4  UNL d   1      -4.089  -4.566  -4.549  0.00  0.00     0.017 A 
ATOM      6  C5  UNL d   1      -5.387  -4.218  -4.162  0.00  0.00     0.034 A 
ATOM      7 Cl   UNL d   1      -3.396  -5.989  -3.853  0.00  0.00    -0.070 Cl
ATOM      8 Cl1  UNL d   1      -1.796  -4.135  -5.998  0.00  0.00    -0.070 Cl
ENDROOT
TORSDOF 0
ENDMDL
