MODEL 1
REMARK minimizedAffinity -2.68980694
REMARK minimizedRMSD -1
REMARK  0 active torsions:
REMARK  status: ('A' for Active; 'I' for Inactive)
ROOT
ATOM      1  C   UNL d   1      -2.068  -5.418  -5.631  0.00  0.00     0.020 A 
ATOM      2  C1  UNL d   1      -1.931  -4.033  -5.536  0.00  0.00     0.020 A 
ATOM      3  C2  UNL d   1      -3.058  -3.231  -5.349  0.00  0.00     0.034 A 
ATOM      4  C3  UNL d   1      -4.328  -3.811  -5.257  0.00  0.00     0.017 A 
ATOM      5  C4  UNL d   1      -4.465  -5.201  -5.353  0.00  0.00     0.017 A 
ATOM      6  C5  UNL d   1      -3.333  -6.000  -5.540  0.00  0.00     0.034 A 
ATOM      7 Cl   UNL d   1      -5.999  -5.990  -5.249  0.00  0.00    -0.070 Cl
ATOM      8 Cl1  UNL d   1      -5.678  -2.758  -5.027  0.00  0.00    -0.070 Cl
ENDROOT
TORSDOF 0
ENDMDL
