MODEL 1
REMARK minimizedAffinity -3.84991145
REMARK minimizedRMSD -1
REMARK  0 active torsions:
REMARK  status: ('A' for Active; 'I' for Inactive)
ROOT
ATOM      1  C   UNL d   1      -5.732  -4.945  -3.896  0.00  0.00     0.020 A 
ATOM      2  C1  UNL d   1      -4.819  -5.998  -3.885  0.00  0.00     0.020 A 
ATOM      3  C2  UNL d   1      -3.578  -5.853  -4.510  0.00  0.00     0.034 A 
ATOM      4  C3  UNL d   1      -3.247  -4.652  -5.148  0.00  0.00     0.017 A 
ATOM      5  C4  UNL d   1      -4.165  -3.595  -5.158  0.00  0.00     0.017 A 
ATOM      6  C5  UNL d   1      -5.405  -3.746  -4.531  0.00  0.00     0.034 A 
ATOM      7 Cl   UNL d   1      -3.828  -2.083  -5.925  0.00  0.00    -0.070 Cl
ATOM      8 Cl1  UNL d   1      -1.696  -4.543  -5.900  0.00  0.00    -0.070 Cl
ENDROOT
TORSDOF 0
ENDMDL
