MODEL 1
REMARK minimizedAffinity -3.51080728
REMARK minimizedRMSD -1
REMARK  0 active torsions:
REMARK  status: ('A' for Active; 'I' for Inactive)
ROOT
ATOM      1  C   UNL d   1      -1.792  -4.913  -5.511  0.00  0.00     0.020 A 
ATOM      2  C1  UNL d   1      -2.389  -5.995  -4.866  0.00  0.00     0.020 A 
ATOM      3  C2  UNL d   1      -3.665  -5.863  -4.315  0.00  0.00     0.034 A 
ATOM      4  C3  UNL d   1      -4.349  -4.646  -4.407  0.00  0.00     0.017 A 
ATOM      5  C4  UNL d   1      -3.750  -3.560  -5.055  0.00  0.00     0.017 A 
ATOM      6  C5  UNL d   1      -2.472  -3.697  -5.606  0.00  0.00     0.034 A 
ATOM      7 Cl   UNL d   1      -4.532  -2.026  -5.209  0.00  0.00    -0.070 Cl
ATOM      8 Cl1  UNL d   1      -5.924  -4.554  -3.703  0.00  0.00    -0.070 Cl
ENDROOT
TORSDOF 0
ENDMDL
