MODEL 1
REMARK minimizedAffinity -3.20702052
REMARK minimizedRMSD -1
REMARK  0 active torsions:
REMARK  status: ('A' for Active; 'I' for Inactive)
ROOT
ATOM      1  C   UNL d   1      -2.174  -3.780  -5.989  0.00  0.00     0.020 A 
ATOM      2  C1  UNL d   1      -2.173  -5.149  -5.723  0.00  0.00     0.020 A 
ATOM      3  C2  UNL d   1      -3.364  -5.795  -5.387  0.00  0.00     0.034 A 
ATOM      4  C3  UNL d   1      -4.562  -5.074  -5.318  0.00  0.00     0.017 A 
ATOM      5  C4  UNL d   1      -4.561  -3.700  -5.586  0.00  0.00     0.017 A 
ATOM      6  C5  UNL d   1      -3.365  -3.058  -5.921  0.00  0.00     0.034 A 
ATOM      7 Cl   UNL d   1      -5.999  -2.742  -5.521  0.00  0.00    -0.070 Cl
ATOM      8 Cl1  UNL d   1      -5.998  -5.938  -4.898  0.00  0.00    -0.070 Cl
ENDROOT
TORSDOF 0
ENDMDL
