MODEL 1
REMARK minimizedAffinity -2.35967755
REMARK minimizedRMSD -1
REMARK  0 active torsions:
REMARK  status: ('A' for Active; 'I' for Inactive)
ROOT
ATOM      1  C   UNL d   1       1.174  -1.021  -4.109  0.00  0.00     0.023 A 
ATOM      2  C1  UNL d   1       0.372  -1.761  -3.239  0.00  0.00     0.003 A 
ATOM      3  C2  UNL d   1       0.174  -1.325  -1.928  0.00  0.00     0.048 A 
ATOM      4  C3  UNL d   1       0.780  -0.147  -1.492  0.00  0.00     0.023 A 
ATOM      5  C4  UNL d   1       1.582   0.597  -2.359  0.00  0.00     0.048 A 
ATOM      6  C5  UNL d   1       1.778   0.156  -3.669  0.00  0.00     0.003 A 
ATOM      7  I   UNL d   1       0.485   0.505   0.459  0.00  0.00    -0.146 I 
ENDROOT
TORSDOF 0
ENDMDL
