MODEL 1
REMARK minimizedAffinity -2.20672822
REMARK minimizedRMSD -1
REMARK  0 active torsions:
REMARK  status: ('A' for Active; 'I' for Inactive)
ROOT
ATOM      1  C   UNL d   1       0.056   1.021  -0.294  0.00  0.00     0.023 A 
ATOM      2  C1  UNL d   1       0.899  -0.055  -0.017  0.00  0.00     0.003 A 
ATOM      3  C2  UNL d   1       1.382  -0.851  -1.058  0.00  0.00     0.048 A 
ATOM      4  C3  UNL d   1       1.019  -0.565  -2.373  0.00  0.00     0.023 A 
ATOM      5  C4  UNL d   1       0.176   0.511  -2.655  0.00  0.00     0.048 A 
ATOM      6  C5  UNL d   1      -0.306   1.304  -1.612  0.00  0.00     0.003 A 
ATOM      7  I   UNL d   1       1.737  -1.748  -3.924  0.00  0.00    -0.146 I 
ENDROOT
TORSDOF 0
ENDMDL
