MODEL 1
REMARK minimizedAffinity -3.68428206
REMARK minimizedRMSD -1
REMARK  0 active torsions:
REMARK  status: ('A' for Active; 'I' for Inactive)
ROOT
ATOM      1  C   UNL d   1       0.540   0.427  -1.207  0.00  0.00     0.023 A 
ATOM      2  C1  UNL d   1      -0.792   0.015  -1.176  0.00  0.00     0.003 A 
ATOM      3  C2  UNL d   1      -1.413  -0.254   0.045  0.00  0.00     0.048 A 
ATOM      4  C3  UNL d   1      -0.696  -0.109   1.233  0.00  0.00     0.023 A 
ATOM      5  C4  UNL d   1       0.637   0.304   1.207  0.00  0.00     0.048 A 
ATOM      6  C5  UNL d   1       1.254   0.572  -0.017  0.00  0.00     0.003 A 
ATOM      7  I   UNL d   1      -1.618  -0.509   3.052  0.00  0.00    -0.146 I 
ENDROOT
TORSDOF 0
ENDMDL
