MODEL 1
REMARK minimizedAffinity -3.22390413
REMARK minimizedRMSD -1
REMARK  0 active torsions:
REMARK  status: ('A' for Active; 'I' for Inactive)
ROOT
ATOM      1  C   UNL d   1       5.355   2.254  -4.862  0.00  0.00     0.023 A 
ATOM      2  C1  UNL d   1       4.110   1.857  -4.373  0.00  0.00     0.003 A 
ATOM      3  C2  UNL d   1       2.966   2.589  -4.695  0.00  0.00     0.048 A 
ATOM      4  C3  UNL d   1       3.073   3.718  -5.507  0.00  0.00     0.023 A 
ATOM      5  C4  UNL d   1       4.316   4.119  -5.999  0.00  0.00     0.048 A 
ATOM      6  C5  UNL d   1       5.458   3.384  -5.674  0.00  0.00     0.003 A 
ATOM      7  I   UNL d   1       1.371   4.809  -5.988  0.00  0.00    -0.146 I 
ENDROOT
TORSDOF 0
ENDMDL
