MODEL 1
REMARK minimizedAffinity -3.50772119
REMARK minimizedRMSD -1
REMARK  0 active torsions:
REMARK  status: ('A' for Active; 'I' for Inactive)
ROOT
ATOM      1  C   UNL d   1      -0.579   0.123   2.687  0.00  0.00     0.023 A 
ATOM      2  C1  UNL d   1      -1.604  -0.056   1.758  0.00  0.00     0.003 A 
ATOM      3  C2  UNL d   1      -1.322  -0.033   0.391  0.00  0.00     0.048 A 
ATOM      4  C3  UNL d   1      -0.011   0.168  -0.041  0.00  0.00     0.023 A 
ATOM      5  C4  UNL d   1       1.018   0.346   0.885  0.00  0.00     0.048 A 
ATOM      6  C5  UNL d   1       0.731   0.324   2.251  0.00  0.00     0.003 A 
ATOM      7  I   UNL d   1       0.412   0.202  -2.075  0.00  0.00    -0.146 I 
ENDROOT
TORSDOF 0
ENDMDL
