MODEL 1
REMARK minimizedAffinity -2.04331088
REMARK minimizedRMSD -1
REMARK  0 active torsions:
REMARK  status: ('A' for Active; 'I' for Inactive)
ROOT
ATOM      1  C   UNL d   1      -0.388   0.188   2.543  0.00  0.00     0.023 A 
ATOM      2  C1  UNL d   1       0.756   0.729   1.956  0.00  0.00     0.003 A 
ATOM      3  C2  UNL d   1       0.975   0.580   0.585  0.00  0.00     0.048 A 
ATOM      4  C3  UNL d   1       0.046  -0.109  -0.193  0.00  0.00     0.023 A 
ATOM      5  C4  UNL d   1      -1.101  -0.651   0.390  0.00  0.00     0.048 A 
ATOM      6  C5  UNL d   1      -1.316  -0.500   1.761  0.00  0.00     0.003 A 
ATOM      7  I   UNL d   1       0.370  -0.331  -2.234  0.00  0.00    -0.146 I 
ENDROOT
TORSDOF 0
ENDMDL
