MODEL 1
REMARK minimizedAffinity -0.449454576
REMARK minimizedRMSD -1
REMARK  0 active torsions:
REMARK  status: ('A' for Active; 'I' for Inactive)
ROOT
ATOM      1  C   UNL d   1      -2.155  -0.685   0.650  0.00  0.00     0.023 A 
ATOM      2  C1  UNL d   1      -1.641   0.011  -0.444  0.00  0.00     0.003 A 
ATOM      3  C2  UNL d   1      -0.344   0.526  -0.400  0.00  0.00     0.048 A 
ATOM      4  C3  UNL d   1       0.435   0.340   0.742  0.00  0.00     0.023 A 
ATOM      5  C4  UNL d   1      -0.074  -0.357   1.839  0.00  0.00     0.048 A 
ATOM      6  C5  UNL d   1      -1.372  -0.869   1.790  0.00  0.00     0.003 A 
ATOM      7  I   UNL d   1       2.366   1.104   0.810  0.00  0.00    -0.146 I 
ENDROOT
TORSDOF 0
ENDMDL
