MODEL 1
REMARK minimizedAffinity -4.03715611
REMARK minimizedRMSD -1
REMARK  0 active torsions:
REMARK  status: ('A' for Active; 'I' for Inactive)
ROOT
ATOM      1  C   UNL d   1      -1.349   0.445   2.174  0.00  0.00     0.023 A 
ATOM      2  C1  UNL d   1       0.037   0.327   2.076  0.00  0.00     0.003 A 
ATOM      3  C2  UNL d   1       0.645   0.234   0.822  0.00  0.00     0.048 A 
ATOM      4  C3  UNL d   1      -0.140   0.260  -0.330  0.00  0.00     0.023 A 
ATOM      5  C4  UNL d   1      -1.528   0.379  -0.237  0.00  0.00     0.048 A 
ATOM      6  C5  UNL d   1      -2.131   0.471   1.019  0.00  0.00     0.003 A 
ATOM      7  I   UNL d   1       0.762   0.121  -2.197  0.00  0.00    -0.146 I 
ENDROOT
TORSDOF 0
ENDMDL
