MODEL 1
REMARK minimizedAffinity -4.18145418
REMARK minimizedRMSD -1
REMARK  0 active torsions:
REMARK  status: ('A' for Active; 'I' for Inactive)
ROOT
ATOM      1  C   UNL d   1       1.499  -0.684   1.954  0.00  0.00     0.023 A 
ATOM      2  C1  UNL d   1       0.979  -0.155   0.773  0.00  0.00     0.003 A 
ATOM      3  C2  UNL d   1      -0.357   0.249   0.716  0.00  0.00     0.048 A 
ATOM      4  C3  UNL d   1      -1.166   0.121   1.844  0.00  0.00     0.023 A 
ATOM      5  C4  UNL d   1      -0.650  -0.407   3.028  0.00  0.00     0.048 A 
ATOM      6  C5  UNL d   1       0.686  -0.811   3.080  0.00  0.00     0.003 A 
ATOM      7  I   UNL d   1      -3.154   0.722   1.761  0.00  0.00    -0.146 I 
ENDROOT
TORSDOF 0
ENDMDL
