MODEL 1
REMARK minimizedAffinity -3.315135
REMARK minimizedRMSD -1
REMARK  0 active torsions:
REMARK  status: ('A' for Active; 'I' for Inactive)
ROOT
ATOM      1  C   UNL d   1      -0.159  -0.159   2.839  0.00  0.00     0.023 A 
ATOM      2  C1  UNL d   1       1.047   0.229   2.254  0.00  0.00     0.003 A 
ATOM      3  C2  UNL d   1       1.210   0.149   0.870  0.00  0.00     0.048 A 
ATOM      4  C3  UNL d   1       0.163  -0.318   0.076  0.00  0.00     0.023 A 
ATOM      5  C4  UNL d   1      -1.046  -0.706   0.657  0.00  0.00     0.048 A 
ATOM      6  C5  UNL d   1      -1.204  -0.625   2.042  0.00  0.00     0.003 A 
ATOM      7  I   UNL d   1       0.403  -0.437  -1.985  0.00  0.00    -0.146 I 
ENDROOT
TORSDOF 0
ENDMDL
