MODEL 1
REMARK minimizedAffinity -4.52246714
REMARK minimizedRMSD -1
REMARK  0 active torsions:
REMARK  status: ('A' for Active; 'I' for Inactive)
ROOT
ATOM      1  C   UNL d   1      -0.826  -0.211   3.252  0.00  0.00     0.023 A 
ATOM      2  C1  UNL d   1      -1.782  -0.394   2.253  0.00  0.00     0.003 A 
ATOM      3  C2  UNL d   1      -1.412  -0.320   0.908  0.00  0.00     0.048 A 
ATOM      4  C3  UNL d   1      -0.083  -0.064   0.570  0.00  0.00     0.023 A 
ATOM      5  C4  UNL d   1       0.877   0.119   1.567  0.00  0.00     0.048 A 
ATOM      6  C5  UNL d   1       0.502   0.046   2.909  0.00  0.00     0.003 A 
ATOM      7  I   UNL d   1       0.470   0.046  -1.430  0.00  0.00    -0.146 I 
ENDROOT
TORSDOF 0
ENDMDL
