MODEL 1
REMARK minimizedAffinity -4.9052906
REMARK minimizedRMSD -1
REMARK  0 active torsions:
REMARK  status: ('A' for Active; 'I' for Inactive)
ROOT
ATOM      1  C   UNL d   1      -2.164  -0.164   3.059  0.00  0.00     0.023 A 
ATOM      2  C1  UNL d   1      -2.828   0.134   1.870  0.00  0.00     0.003 A 
ATOM      3  C2  UNL d   1      -2.118   0.204   0.670  0.00  0.00     0.048 A 
ATOM      4  C3  UNL d   1      -0.742  -0.026   0.666  0.00  0.00     0.023 A 
ATOM      5  C4  UNL d   1      -0.073  -0.325   1.854  0.00  0.00     0.048 A 
ATOM      6  C5  UNL d   1      -0.788  -0.393   3.052  0.00  0.00     0.003 A 
ATOM      7  I   UNL d   1       0.318   0.078  -1.118  0.00  0.00    -0.146 I 
ENDROOT
TORSDOF 0
ENDMDL
