MODEL 1
REMARK minimizedAffinity -2.74003983
REMARK minimizedRMSD -1
REMARK  0 active torsions:
REMARK  status: ('A' for Active; 'I' for Inactive)
ROOT
ATOM      1  C   UNL d   1      -2.144  -0.526   3.280  0.00  0.00     0.023 A 
ATOM      2  C1  UNL d   1      -0.772  -0.777   3.240  0.00  0.00     0.003 A 
ATOM      3  C2  UNL d   1      -0.065  -0.609   2.048  0.00  0.00     0.048 A 
ATOM      4  C3  UNL d   1      -0.736  -0.189   0.899  0.00  0.00     0.023 A 
ATOM      5  C4  UNL d   1      -2.108   0.064   0.935  0.00  0.00     0.048 A 
ATOM      6  C5  UNL d   1      -2.811  -0.106   2.129  0.00  0.00     0.003 A 
ATOM      7  I   UNL d   1       0.315   0.061  -0.877  0.00  0.00    -0.146 I 
ENDROOT
TORSDOF 0
ENDMDL
