MODEL 1
REMARK minimizedAffinity -2.87175488
REMARK minimizedRMSD -1
REMARK  0 active torsions:
REMARK  status: ('A' for Active; 'I' for Inactive)
ROOT
ATOM      1  C   UNL d   1      -2.318   0.046   2.986  0.00  0.00     0.023 A 
ATOM      2  C1  UNL d   1      -2.968   0.397   1.803  0.00  0.00     0.003 A 
ATOM      3  C2  UNL d   1      -2.292   0.321   0.584  0.00  0.00     0.048 A 
ATOM      4  C3  UNL d   1      -0.965  -0.107   0.554  0.00  0.00     0.023 A 
ATOM      5  C4  UNL d   1      -0.310  -0.460   1.735  0.00  0.00     0.048 A 
ATOM      6  C5  UNL d   1      -0.990  -0.382   2.952  0.00  0.00     0.003 A 
ATOM      7  I   UNL d   1       0.043  -0.221  -1.259  0.00  0.00    -0.146 I 
ENDROOT
TORSDOF 0
ENDMDL
