MODEL 1
REMARK minimizedAffinity -3.85321093
REMARK minimizedRMSD -1
REMARK  0 active torsions:
REMARK  status: ('A' for Active; 'I' for Inactive)
ROOT
ATOM      1  C   UNL d   1      -2.024   0.064   3.046  0.00  0.00     0.023 A 
ATOM      2  C1  UNL d   1      -2.684   0.259   1.833  0.00  0.00     0.003 A 
ATOM      3  C2  UNL d   1      -1.976   0.186   0.632  0.00  0.00     0.048 A 
ATOM      4  C3  UNL d   1      -0.609  -0.084   0.651  0.00  0.00     0.023 A 
ATOM      5  C4  UNL d   1       0.056  -0.281   1.862  0.00  0.00     0.048 A 
ATOM      6  C5  UNL d   1      -0.655  -0.206   3.061  0.00  0.00     0.003 A 
ATOM      7  I   UNL d   1       0.447  -0.193  -1.136  0.00  0.00    -0.146 I 
ENDROOT
TORSDOF 0
ENDMDL
