MODEL 1
REMARK minimizedAffinity -2.62520099
REMARK minimizedRMSD -1
REMARK  1 active torsions:
REMARK  status: ('A' for Active; 'I' for Inactive)
REMARK    1  A    between atoms: C1_2  and  C2_3 
ROOT
ATOM      1  C2  UNL d   1       0.194  -0.186  -0.691  0.00  0.00    -0.077 A 
ATOM      2  C3  UNL d   1       1.502  -0.300  -1.182  0.00  0.00     0.002 A 
ATOM      3  C4  UNL d   1       2.463   0.661  -0.862  0.00  0.00     0.002 A 
ATOM      4  C5  UNL d   1       2.128   1.740  -0.048  0.00  0.00    -0.004 A 
ATOM      5  C6  UNL d   1       0.829   1.864   0.444  0.00  0.00     0.002 A 
ATOM      6  C7  UNL d   1      -0.133   0.905   0.125  0.00  0.00     0.002 A 
ENDROOT
BRANCH   1   7
ATOM      7  C1  UNL d   1      -0.831  -1.248  -0.993  0.00  0.00     0.055 C 
ATOM      8  C   UNL d   1      -1.444  -1.048  -2.371  0.00  0.00     0.019 C 
ENDBRANCH   1   7
TORSDOF 1
ENDMDL
