MODEL 1
REMARK minimizedAffinity -3.8797853
REMARK minimizedRMSD -1
REMARK  1 active torsions:
REMARK  status: ('A' for Active; 'I' for Inactive)
REMARK    1  A    between atoms: C1_2  and  C2_3 
ROOT
ATOM      1  C2  UNL d   1      -0.783  -1.514   0.165  0.00  0.00    -0.077 A 
ATOM      2  C3  UNL d   1      -1.029  -0.377   0.948  0.00  0.00     0.002 A 
ATOM      3  C4  UNL d   1      -1.371  -0.507   2.295  0.00  0.00     0.002 A 
ATOM      4  C5  UNL d   1      -1.466  -1.772   2.873  0.00  0.00    -0.004 A 
ATOM      5  C6  UNL d   1      -1.226  -2.909   2.102  0.00  0.00     0.002 A 
ATOM      6  C7  UNL d   1      -0.885  -2.781   0.755  0.00  0.00     0.002 A 
ENDROOT
BRANCH   1   7
ATOM      7  C1  UNL d   1      -0.366  -1.374  -1.275  0.00  0.00     0.055 C 
ATOM      8  C   UNL d   1      -1.518  -1.690  -2.218  0.00  0.00     0.019 C 
ENDBRANCH   1   7
TORSDOF 1
ENDMDL
