MODEL 1
REMARK minimizedAffinity -4.30164003
REMARK minimizedRMSD -1
REMARK  1 active torsions:
REMARK  status: ('A' for Active; 'I' for Inactive)
REMARK    1  A    between atoms: C1_2  and  C2_3 
ROOT
ATOM      1  C2  UNL d   1      -0.098   0.128   0.646  0.00  0.00    -0.077 A 
ATOM      2  C3  UNL d   1       0.962   0.436  -0.219  0.00  0.00     0.002 A 
ATOM      3  C4  UNL d   1       1.582   1.685  -0.158  0.00  0.00     0.002 A 
ATOM      4  C5  UNL d   1       1.154   2.633   0.769  0.00  0.00    -0.004 A 
ATOM      5  C6  UNL d   1       0.100   2.337   1.632  0.00  0.00     0.002 A 
ATOM      6  C7  UNL d   1      -0.522   1.089   1.571  0.00  0.00     0.002 A 
ENDROOT
BRANCH   1   7
ATOM      7  C1  UNL d   1      -0.736  -1.236   0.614  0.00  0.00     0.055 C 
ATOM      8  C   UNL d   1      -1.053  -1.732   2.018  0.00  0.00     0.019 C 
ENDBRANCH   1   7
TORSDOF 1
ENDMDL
