MODEL 1
REMARK minimizedAffinity -2.90236235
REMARK minimizedRMSD -1
REMARK  1 active torsions:
REMARK  status: ('A' for Active; 'I' for Inactive)
REMARK    1  A    between atoms: C1_2  and  C2_3 
ROOT
ATOM      1  C2  UNL d   1       0.752   0.422  -0.363  0.00  0.00    -0.077 A 
ATOM      2  C3  UNL d   1       0.009   0.566   0.817  0.00  0.00     0.002 A 
ATOM      3  C4  UNL d   1       0.139   1.715   1.599  0.00  0.00     0.002 A 
ATOM      4  C5  UNL d   1       1.008   2.731   1.207  0.00  0.00    -0.004 A 
ATOM      5  C6  UNL d   1       1.753   2.597   0.036  0.00  0.00     0.002 A 
ATOM      6  C7  UNL d   1       1.625   1.449  -0.746  0.00  0.00     0.002 A 
ENDROOT
BRANCH   1   7
ATOM      7  C1  UNL d   1       0.576  -0.795  -1.233  0.00  0.00     0.055 C 
ATOM      8  C   UNL d   1      -0.892  -1.175  -1.363  0.00  0.00     0.019 C 
ENDBRANCH   1   7
TORSDOF 1
ENDMDL
