MODEL 1
REMARK minimizedAffinity -4.40697622
REMARK minimizedRMSD -1
REMARK  1 active torsions:
REMARK  status: ('A' for Active; 'I' for Inactive)
REMARK    1  A    between atoms: C1_2  and  C2_3 
ROOT
ATOM      1  C2  UNL d   1       0.294  -0.057   0.027  0.00  0.00    -0.077 A 
ATOM      2  C3  UNL d   1      -0.340   0.560   1.114  0.00  0.00     0.002 A 
ATOM      3  C4  UNL d   1       0.108   1.795   1.586  0.00  0.00     0.002 A 
ATOM      4  C5  UNL d   1       1.190   2.426   0.975  0.00  0.00    -0.004 A 
ATOM      5  C6  UNL d   1       1.829   1.819  -0.106  0.00  0.00     0.002 A 
ATOM      6  C7  UNL d   1       1.383   0.584  -0.578  0.00  0.00     0.002 A 
ENDROOT
BRANCH   1   7
ATOM      7  C1  UNL d   1      -0.219  -1.365  -0.515  0.00  0.00     0.055 C 
ATOM      8  C   UNL d   1      -1.122  -1.149  -1.721  0.00  0.00     0.019 C 
ENDBRANCH   1   7
TORSDOF 1
ENDMDL
