MODEL 1
REMARK minimizedAffinity -4.75562811
REMARK minimizedRMSD -1
REMARK  1 active torsions:
REMARK  status: ('A' for Active; 'I' for Inactive)
REMARK    1  A    between atoms: C1_2  and  C2_3 
ROOT
ATOM      1  C2  UNL d   1       0.415   0.153   0.230  0.00  0.00    -0.077 A 
ATOM      2  C3  UNL d   1       1.553   0.881  -0.144  0.00  0.00     0.002 A 
ATOM      3  C4  UNL d   1       1.842   2.102   0.468  0.00  0.00     0.002 A 
ATOM      4  C5  UNL d   1       1.001   2.603   1.459  0.00  0.00    -0.004 A 
ATOM      5  C6  UNL d   1      -0.134   1.888   1.836  0.00  0.00     0.002 A 
ATOM      6  C7  UNL d   1      -0.426   0.667   1.225  0.00  0.00     0.002 A 
ENDROOT
BRANCH   1   7
ATOM      7  C1  UNL d   1       0.127  -1.188  -0.394  0.00  0.00     0.055 C 
ATOM      8  C   UNL d   1      -0.869  -1.064  -1.538  0.00  0.00     0.019 C 
ENDBRANCH   1   7
TORSDOF 1
ENDMDL
