MODEL 1
REMARK minimizedAffinity -5.15991592
REMARK minimizedRMSD -1
REMARK  1 active torsions:
REMARK  status: ('A' for Active; 'I' for Inactive)
REMARK    1  A    between atoms: C1_2  and  C2_3 
ROOT
ATOM      1  C2  UNL d   1       0.045  -0.215   0.346  0.00  0.00    -0.077 A 
ATOM      2  C3  UNL d   1       1.191   0.313  -0.264  0.00  0.00     0.002 A 
ATOM      3  C4  UNL d   1       1.649   1.588   0.076  0.00  0.00     0.002 A 
ATOM      4  C5  UNL d   1       0.968   2.343   1.029  0.00  0.00    -0.004 A 
ATOM      5  C6  UNL d   1      -0.175   1.828   1.639  0.00  0.00     0.002 A 
ATOM      6  C7  UNL d   1      -0.634   0.554   1.300  0.00  0.00     0.002 A 
ENDROOT
BRANCH   1   7
ATOM      7  C1  UNL d   1      -0.422  -1.609   0.017  0.00  0.00     0.055 C 
ATOM      8  C   UNL d   1      -0.720  -2.405   1.279  0.00  0.00     0.019 C 
ENDBRANCH   1   7
TORSDOF 1
ENDMDL
