MODEL 1
REMARK minimizedAffinity -3.88027048
REMARK minimizedRMSD -1
REMARK  1 active torsions:
REMARK  status: ('A' for Active; 'I' for Inactive)
REMARK    1  A    between atoms: C1_2  and  C2_3 
ROOT
ATOM      1  C2  UNL d   1       0.685   0.093  -0.171  0.00  0.00    -0.077 A 
ATOM      2  C3  UNL d   1      -0.094   0.390   0.956  0.00  0.00     0.002 A 
ATOM      3  C4  UNL d   1      -0.047   1.661   1.532  0.00  0.00     0.002 A 
ATOM      4  C5  UNL d   1       0.773   2.646   0.985  0.00  0.00    -0.004 A 
ATOM      5  C6  UNL d   1       1.553   2.360  -0.134  0.00  0.00     0.002 A 
ATOM      6  C7  UNL d   1       1.508   1.090  -0.711  0.00  0.00     0.002 A 
ENDROOT
BRANCH   1   7
ATOM      7  C1  UNL d   1       0.599  -1.262  -0.823  0.00  0.00     0.055 C 
ATOM      8  C   UNL d   1      -0.485  -1.294  -1.892  0.00  0.00     0.019 C 
ENDBRANCH   1   7
TORSDOF 1
ENDMDL
