MODEL 1
REMARK minimizedAffinity -3.46924281
REMARK minimizedRMSD -1
REMARK  1 active torsions:
REMARK  status: ('A' for Active; 'I' for Inactive)
REMARK    1  A    between atoms: C1_2  and  C2_3 
ROOT
ATOM      1  C2  UNL d   1      -1.224  -2.925  -0.005  0.00  0.00    -0.077 A 
ATOM      2  C3  UNL d   1      -2.267  -3.341  -0.844  0.00  0.00     0.002 A 
ATOM      3  C4  UNL d   1      -2.493  -2.698  -2.063  0.00  0.00     0.002 A 
ATOM      4  C5  UNL d   1      -1.677  -1.639  -2.455  0.00  0.00    -0.004 A 
ATOM      5  C6  UNL d   1      -0.638  -1.216  -1.626  0.00  0.00     0.002 A 
ATOM      6  C7  UNL d   1      -0.412  -1.857  -0.407  0.00  0.00     0.002 A 
ENDROOT
BRANCH   1   7
ATOM      7  C1  UNL d   1      -0.948  -3.649   1.287  0.00  0.00     0.055 C 
ATOM      8  C   UNL d   1      -1.513  -2.890   2.479  0.00  0.00     0.019 C 
ENDBRANCH   1   7
TORSDOF 1
ENDMDL
