MODEL 1
REMARK minimizedAffinity -4.63807678
REMARK minimizedRMSD -1
REMARK  1 active torsions:
REMARK  status: ('A' for Active; 'I' for Inactive)
REMARK    1  A    between atoms: C1_2  and  C2_3 
ROOT
ATOM      1  C2  UNL d   1       0.387   0.551   0.347  0.00  0.00    -0.077 A 
ATOM      2  C3  UNL d   1       0.986   1.413  -0.583  0.00  0.00     0.002 A 
ATOM      3  C4  UNL d   1       1.644   2.567  -0.154  0.00  0.00     0.002 A 
ATOM      4  C5  UNL d   1       1.714   2.867   1.205  0.00  0.00    -0.004 A 
ATOM      5  C6  UNL d   1       1.120   2.018   2.137  0.00  0.00     0.002 A 
ATOM      6  C7  UNL d   1       0.460   0.865   1.710  0.00  0.00     0.002 A 
ENDROOT
BRANCH   1   7
ATOM      7  C1  UNL d   1      -0.282  -0.719  -0.109  0.00  0.00     0.055 C 
ATOM      8  C   UNL d   1      -0.658  -1.602   1.072  0.00  0.00     0.019 C 
ENDBRANCH   1   7
TORSDOF 1
ENDMDL
