MODEL 1
REMARK minimizedAffinity -1.91966784
REMARK minimizedRMSD -1
REMARK  1 active torsions:
REMARK  status: ('A' for Active; 'I' for Inactive)
REMARK    1  A    between atoms: C1_2  and  C2_3 
ROOT
ATOM      1  C2  UNL d   1       0.150   0.259   0.111  0.00  0.00    -0.077 A 
ATOM      2  C3  UNL d   1       0.600   1.355  -0.638  0.00  0.00     0.002 A 
ATOM      3  C4  UNL d   1       0.839   2.583  -0.019  0.00  0.00     0.002 A 
ATOM      4  C5  UNL d   1       0.637   2.726   1.352  0.00  0.00    -0.004 A 
ATOM      5  C6  UNL d   1       0.188   1.642   2.106  0.00  0.00     0.002 A 
ATOM      6  C7  UNL d   1      -0.053   0.414   1.489  0.00  0.00     0.002 A 
ENDROOT
BRANCH   1   7
ATOM      7  C1  UNL d   1      -0.062  -1.080  -0.545  0.00  0.00     0.055 C 
ATOM      8  C   UNL d   1      -1.061  -0.984  -1.689  0.00  0.00     0.019 C 
ENDBRANCH   1   7
TORSDOF 1
ENDMDL
