MODEL 1
REMARK minimizedAffinity -5.30099058
REMARK minimizedRMSD -1
REMARK  1 active torsions:
REMARK  status: ('A' for Active; 'I' for Inactive)
REMARK    1  A    between atoms: C1_2  and  C2_3 
ROOT
ATOM      1  C2  UNL d   1       0.408   0.086   0.082  0.00  0.00    -0.077 A 
ATOM      2  C3  UNL d   1       1.398   0.930  -0.441  0.00  0.00     0.002 A 
ATOM      3  C4  UNL d   1       1.630   2.184   0.127  0.00  0.00     0.002 A 
ATOM      4  C5  UNL d   1       0.879   2.604   1.222  0.00  0.00    -0.004 A 
ATOM      5  C6  UNL d   1      -0.110   1.773   1.749  0.00  0.00     0.002 A 
ATOM      6  C7  UNL d   1      -0.343   0.519   1.182  0.00  0.00     0.002 A 
ENDROOT
BRANCH   1   7
ATOM      7  C1  UNL d   1       0.191  -1.287  -0.498  0.00  0.00     0.055 C 
ATOM      8  C   UNL d   1      -0.732  -1.237  -1.707  0.00  0.00     0.019 C 
ENDBRANCH   1   7
TORSDOF 1
ENDMDL
