MODEL 1
REMARK minimizedAffinity -4.98307514
REMARK minimizedRMSD -1
REMARK  2 active torsions:
REMARK  status: ('A' for Active; 'I' for Inactive)
REMARK    1  A    between atoms: C2'_3  and  C1'_4 
REMARK    2  A    between atoms: C1'_4  and  C1_5 
ROOT
ATOM      1  C1  I4B d   1      -0.092   0.071   0.051  0.00  0.00    -0.075 A 
ATOM      2  C2  I4B d   1      -0.912  -0.977   0.388  0.00  0.00     0.003 A 
ATOM      3  C3  I4B d   1      -0.952  -1.451   1.722  0.00  0.00     0.002 A 
ATOM      4  C4  I4B d   1      -0.123  -0.885   2.669  0.00  0.00    -0.004 A 
ATOM      5  C5  I4B d   1       0.691   0.192   2.331  0.00  0.00     0.002 A 
ATOM      6  C6  I4B d   1       0.698   0.681   1.017  0.00  0.00     0.003 A 
ENDROOT
BRANCH   1   7
ATOM      7  C1' I4B d   1      -0.050   0.525  -1.373  0.00  0.00     0.060 C 
BRANCH   7   8
ATOM      8  C2' I4B d   1       0.885  -0.397  -2.130  0.00  0.00    -0.013 C 
ATOM      9  C4' I4B d   1       0.150  -1.166  -3.195  0.00  0.00     0.013 C 
ATOM     10  C3' I4B d   1       1.979   0.440  -2.724  0.00  0.00     0.013 C 
ENDBRANCH   7   8
ENDBRANCH   1   7
TORSDOF 2
ENDMDL
