MODEL 1
REMARK minimizedAffinity -5.24268293
REMARK minimizedRMSD -1
REMARK  2 active torsions:
REMARK  status: ('A' for Active; 'I' for Inactive)
REMARK    1  A    between atoms: C2'_3  and  C1'_4 
REMARK    2  A    between atoms: C1'_4  and  C1_5 
ROOT
ATOM      1  C1  I4B d   1       0.408   0.054  -0.618  0.00  0.00    -0.075 A 
ATOM      2  C2  I4B d   1      -0.891  -0.351  -0.439  0.00  0.00     0.003 A 
ATOM      3  C3  I4B d   1      -1.403  -0.544   0.867  0.00  0.00     0.002 A 
ATOM      4  C4  I4B d   1      -0.573  -0.372   1.955  0.00  0.00    -0.004 A 
ATOM      5  C5  I4B d   1       0.738   0.061   1.772  0.00  0.00     0.002 A 
ATOM      6  C6  I4B d   1       1.228   0.287   0.478  0.00  0.00     0.003 A 
ENDROOT
BRANCH   1   7
ATOM      7  C1' I4B d   1       0.927   0.217  -2.012  0.00  0.00     0.060 C 
BRANCH   7   8
ATOM      8  C2' I4B d   1       1.477  -1.121  -2.465  0.00  0.00    -0.013 C 
ATOM      9  C4' I4B d   1       0.598  -1.744  -3.517  0.00  0.00     0.013 C 
ATOM     10  C3' I4B d   1       2.867  -0.898  -2.983  0.00  0.00     0.013 C 
ENDBRANCH   7   8
ENDBRANCH   1   7
TORSDOF 2
ENDMDL
