MODEL 1
REMARK minimizedAffinity -5.41543245
REMARK minimizedRMSD -1
REMARK  2 active torsions:
REMARK  status: ('A' for Active; 'I' for Inactive)
REMARK    1  A    between atoms: C2'_3  and  C1'_4 
REMARK    2  A    between atoms: C1'_4  and  C1_5 
ROOT
ATOM      1  C1  I4B d   1      -0.257   0.346   0.068  0.00  0.00    -0.075 A 
ATOM      2  C2  I4B d   1      -1.306  -0.369   0.590  0.00  0.00     0.003 A 
ATOM      3  C3  I4B d   1      -1.295  -0.760   1.951  0.00  0.00     0.002 A 
ATOM      4  C4  I4B d   1      -0.200  -0.462   2.735  0.00  0.00    -0.004 A 
ATOM      5  C5  I4B d   1       0.853   0.283   2.210  0.00  0.00     0.002 A 
ATOM      6  C6  I4B d   1       0.819   0.700   0.871  0.00  0.00     0.003 A 
ENDROOT
BRANCH   1   7
ATOM      7  C1' I4B d   1      -0.287   0.714  -1.382  0.00  0.00     0.060 C 
BRANCH   7   8
ATOM      8  C2' I4B d   1       0.655  -0.216  -2.119  0.00  0.00    -0.013 C 
ATOM      9  C4' I4B d   1      -0.103  -1.177  -2.996  0.00  0.00     0.013 C 
ATOM     10  C3' I4B d   1       1.598   0.626  -2.927  0.00  0.00     0.013 C 
ENDBRANCH   7   8
ENDBRANCH   1   7
TORSDOF 2
ENDMDL
