MODEL 1
REMARK minimizedAffinity -4.64909792
REMARK minimizedRMSD -1
REMARK  2 active torsions:
REMARK  status: ('A' for Active; 'I' for Inactive)
REMARK    1  A    between atoms: C2'_3  and  C1'_4 
REMARK    2  A    between atoms: C1'_4  and  C1_5 
ROOT
ATOM      1  C1  I4B d   1      -0.141   0.181  -0.308  0.00  0.00    -0.075 A 
ATOM      2  C2  I4B d   1       1.024   0.166   0.418  0.00  0.00     0.003 A 
ATOM      3  C3  I4B d   1       0.985   0.020   1.826  0.00  0.00     0.002 A 
ATOM      4  C4  I4B d   1      -0.235  -0.057   2.467  0.00  0.00    -0.004 A 
ATOM      5  C5  I4B d   1      -1.414  -0.065   1.727  0.00  0.00     0.002 A 
ATOM      6  C6  I4B d   1      -1.367   0.042   0.330  0.00  0.00     0.003 A 
ENDROOT
BRANCH   1   7
ATOM      7  C1' I4B d   1      -0.064   0.370  -1.790  0.00  0.00     0.060 C 
BRANCH   7   8
ATOM      8  C2' I4B d   1       0.720  -0.790  -2.369  0.00  0.00    -0.013 C 
ATOM      9  C4' I4B d   1      -0.193  -1.785  -3.037  0.00  0.00     0.013 C 
ATOM     10  C3' I4B d   1       1.720  -0.236  -3.339  0.00  0.00     0.013 C 
ENDBRANCH   7   8
ENDBRANCH   1   7
TORSDOF 2
ENDMDL
