MODEL 1
REMARK minimizedAffinity -3.52532315
REMARK minimizedRMSD -1
REMARK  2 active torsions:
REMARK  status: ('A' for Active; 'I' for Inactive)
REMARK    1  A    between atoms: C2'_3  and  C1'_4 
REMARK    2  A    between atoms: C1'_4  and  C1_5 
ROOT
ATOM      1  C1  I4B d   1      -0.170   0.321   0.173  0.00  0.00    -0.075 A 
ATOM      2  C2  I4B d   1       0.784   0.518   1.139  0.00  0.00     0.003 A 
ATOM      3  C3  I4B d   1       0.559   0.073   2.464  0.00  0.00     0.002 A 
ATOM      4  C4  I4B d   1      -0.646  -0.514   2.789  0.00  0.00    -0.004 A 
ATOM      5  C5  I4B d   1      -1.604  -0.734   1.802  0.00  0.00     0.002 A 
ATOM      6  C6  I4B d   1      -1.360  -0.325   0.483  0.00  0.00     0.003 A 
ENDROOT
BRANCH   1   7
ATOM      7  C1' I4B d   1       0.086   0.833  -1.209  0.00  0.00     0.060 C 
BRANCH   7   8
ATOM      8  C2' I4B d   1       1.142  -0.048  -1.845  0.00  0.00    -0.013 C 
ATOM      9  C4' I4B d   1       0.552  -0.905  -2.935  0.00  0.00     0.013 C 
ATOM     10  C3' I4B d   1       2.225   0.839  -2.381  0.00  0.00     0.013 C 
ENDBRANCH   7   8
ENDBRANCH   1   7
TORSDOF 2
ENDMDL
