MODEL 1
REMARK minimizedAffinity -5.32168579
REMARK minimizedRMSD -1
REMARK  2 active torsions:
REMARK  status: ('A' for Active; 'I' for Inactive)
REMARK    1  A    between atoms: C2'_3  and  C1'_4 
REMARK    2  A    between atoms: C1'_4  and  C1_5 
ROOT
ATOM      1  C1  I4B d   1       0.522   0.211   0.676  0.00  0.00    -0.075 A 
ATOM      2  C2  I4B d   1       0.916   0.943   1.768  0.00  0.00     0.003 A 
ATOM      3  C3  I4B d   1       0.421   0.624   3.056  0.00  0.00     0.002 A 
ATOM      4  C4  I4B d   1      -0.497  -0.396   3.198  0.00  0.00    -0.004 A 
ATOM      5  C5  I4B d   1      -0.878  -1.152   2.093  0.00  0.00     0.002 A 
ATOM      6  C6  I4B d   1      -0.356  -0.855   0.825  0.00  0.00     0.003 A 
ENDROOT
BRANCH   1   7
ATOM      7  C1' I4B d   1       1.038   0.596  -0.674  0.00  0.00     0.060 C 
BRANCH   7   8
ATOM      8  C2' I4B d   1       0.036   0.125  -1.709  0.00  0.00    -0.013 C 
ATOM      9  C4' I4B d   1      -1.048   1.148  -1.923  0.00  0.00     0.013 C 
ATOM     10  C3' I4B d   1       0.780  -0.150  -2.982  0.00  0.00     0.013 C 
ENDBRANCH   7   8
ENDBRANCH   1   7
TORSDOF 2
ENDMDL
