MODEL 1
REMARK minimizedAffinity -5.13697815
REMARK minimizedRMSD -1
REMARK  2 active torsions:
REMARK  status: ('A' for Active; 'I' for Inactive)
REMARK    1  A    between atoms: C2'_3  and  C1'_4 
REMARK    2  A    between atoms: C1'_4  and  C1_5 
ROOT
ATOM      1  C1  I4B d   1       0.070   0.230  -0.178  0.00  0.00    -0.075 A 
ATOM      2  C2  I4B d   1       1.001   0.883   0.592  0.00  0.00     0.003 A 
ATOM      3  C3  I4B d   1       0.979   0.751   2.001  0.00  0.00     0.002 A 
ATOM      4  C4  I4B d   1      -0.014   0.002   2.599  0.00  0.00    -0.004 A 
ATOM      5  C5  I4B d   1      -0.943  -0.678   1.816  0.00  0.00     0.002 A 
ATOM      6  C6  I4B d   1      -0.894  -0.573   0.418  0.00  0.00     0.003 A 
ENDROOT
BRANCH   1   7
ATOM      7  C1' I4B d   1       0.101   0.418  -1.661  0.00  0.00     0.060 C 
BRANCH   7   8
ATOM      8  C2' I4B d   1       0.819  -0.771  -2.267  0.00  0.00    -0.013 C 
ATOM      9  C4' I4B d   1      -0.141  -1.672  -2.999  0.00  0.00     0.013 C 
ATOM     10  C3' I4B d   1       1.881  -0.250  -3.189  0.00  0.00     0.013 C 
ENDBRANCH   7   8
ENDBRANCH   1   7
TORSDOF 2
ENDMDL
