MODEL 1
REMARK minimizedAffinity -5.5259881
REMARK minimizedRMSD -1
REMARK  2 active torsions:
REMARK  status: ('A' for Active; 'I' for Inactive)
REMARK    1  A    between atoms: C2'_3  and  C1'_4 
REMARK    2  A    between atoms: C1'_4  and  C1_5 
ROOT
ATOM      1  C1  I4B d   1       0.430  -0.172  -0.450  0.00  0.00    -0.075 A 
ATOM      2  C2  I4B d   1      -0.869  -0.531  -0.191  0.00  0.00     0.003 A 
ATOM      3  C3  I4B d   1      -1.309  -0.705   1.143  0.00  0.00     0.002 A 
ATOM      4  C4  I4B d   1      -0.409  -0.560   2.180  0.00  0.00    -0.004 A 
ATOM      5  C5  I4B d   1       0.902  -0.172   1.917  0.00  0.00     0.002 A 
ATOM      6  C6  I4B d   1       1.321   0.035   0.595  0.00  0.00     0.003 A 
ENDROOT
BRANCH   1   7
ATOM      7  C1' I4B d   1       0.868  -0.029  -1.873  0.00  0.00     0.060 C 
BRANCH   7   8
ATOM      8  C2' I4B d   1       1.213  -1.408  -2.396  0.00  0.00    -0.013 C 
ATOM      9  C4' I4B d   1       0.250  -1.841  -3.469  0.00  0.00     0.013 C 
ATOM     10  C3' I4B d   1       2.620  -1.369  -2.914  0.00  0.00     0.013 C 
ENDBRANCH   7   8
ENDBRANCH   1   7
TORSDOF 2
ENDMDL
