MODEL 1
REMARK minimizedAffinity -5.17764854
REMARK minimizedRMSD -1
REMARK  2 active torsions:
REMARK  status: ('A' for Active; 'I' for Inactive)
REMARK    1  A    between atoms: C2'_3  and  C1'_4 
REMARK    2  A    between atoms: C1'_4  and  C1_5 
ROOT
ATOM      1  C1  I4B d   1       0.010   0.159  -0.052  0.00  0.00    -0.075 A 
ATOM      2  C2  I4B d   1       1.158   0.500   0.618  0.00  0.00     0.003 A 
ATOM      3  C3  I4B d   1       1.252   0.305   2.017  0.00  0.00     0.002 A 
ATOM      4  C4  I4B d   1       0.163  -0.185   2.709  0.00  0.00    -0.004 A 
ATOM      5  C5  I4B d   1      -0.992  -0.552   2.025  0.00  0.00     0.002 A 
ATOM      6  C6  I4B d   1      -1.065  -0.391   0.634  0.00  0.00     0.003 A 
ENDROOT
BRANCH   1   7
ATOM      7  C1' I4B d   1      -0.066   0.409  -1.525  0.00  0.00     0.060 C 
BRANCH   7   8
ATOM      8  C2' I4B d   1       0.749  -0.660  -2.223  0.00  0.00    -0.013 C 
ATOM      9  C4' I4B d   1      -0.129  -1.556  -3.058  0.00  0.00     0.013 C 
ATOM     10  C3' I4B d   1       1.783   0.023  -3.067  0.00  0.00     0.013 C 
ENDBRANCH   7   8
ENDBRANCH   1   7
TORSDOF 2
ENDMDL
