MODEL 1
REMARK minimizedAffinity -4.55601597
REMARK minimizedRMSD -1
REMARK  2 active torsions:
REMARK  status: ('A' for Active; 'I' for Inactive)
REMARK    1  A    between atoms: C2'_3  and  C1'_4 
REMARK    2  A    between atoms: C1'_4  and  C1_5 
ROOT
ATOM      1  C1  I4B d   1       0.781  -0.234  -1.644  0.00  0.00    -0.075 A 
ATOM      2  C2  I4B d   1      -0.261  -0.226  -2.537  0.00  0.00     0.003 A 
ATOM      3  C3  I4B d   1      -0.097  -0.784  -3.828  0.00  0.00     0.002 A 
ATOM      4  C4  I4B d   1       1.133  -1.291  -4.198  0.00  0.00    -0.004 A 
ATOM      5  C5  I4B d   1       2.181  -1.319  -3.283  0.00  0.00     0.002 A 
ATOM      6  C6  I4B d   1       2.001  -0.799  -1.993  0.00  0.00     0.003 A 
ENDROOT
BRANCH   1   7
ATOM      7  C1' I4B d   1       0.583   0.393  -0.300  0.00  0.00     0.060 C 
BRANCH   7   8
ATOM      8  C2' I4B d   1      -0.097  -0.623   0.594  0.00  0.00    -0.013 C 
ATOM      9  C4' I4B d   1       0.828  -1.095   1.685  0.00  0.00     0.013 C 
ATOM     10  C3' I4B d   1      -1.328   0.014   1.167  0.00  0.00     0.013 C 
ENDBRANCH   7   8
ENDBRANCH   1   7
TORSDOF 2
ENDMDL
