MODEL 1
REMARK minimizedAffinity -4.91483021
REMARK minimizedRMSD -1
REMARK  2 active torsions:
REMARK  status: ('A' for Active; 'I' for Inactive)
REMARK    1  A    between atoms: C2'_3  and  C1'_4 
REMARK    2  A    between atoms: C1'_4  and  C1_5 
ROOT
ATOM      1  C1  I4B d   1      -0.355   0.073  -0.498  0.00  0.00    -0.075 A 
ATOM      2  C2  I4B d   1       0.625  -0.218   0.418  0.00  0.00     0.003 A 
ATOM      3  C3  I4B d   1       0.277  -0.611   1.733  0.00  0.00     0.002 A 
ATOM      4  C4  I4B d   1      -1.052  -0.651   2.101  0.00  0.00    -0.004 A 
ATOM      5  C5  I4B d   1      -2.045  -0.378   1.164  0.00  0.00     0.002 A 
ATOM      6  C6  I4B d   1      -1.695  -0.026  -0.148  0.00  0.00     0.003 A 
ENDROOT
BRANCH   1   7
ATOM      7  C1' I4B d   1       0.049   0.517  -1.869  0.00  0.00     0.060 C 
BRANCH   7   8
ATOM      8  C2' I4B d   1       1.051  -0.483  -2.407  0.00  0.00    -0.013 C 
ATOM      9  C4' I4B d   1       0.405  -1.429  -3.386  0.00  0.00     0.013 C 
ATOM     10  C3' I4B d   1       2.169   0.281  -3.051  0.00  0.00     0.013 C 
ENDBRANCH   7   8
ENDBRANCH   1   7
TORSDOF 2
ENDMDL
