MODEL 1
REMARK minimizedAffinity -5.12413979
REMARK minimizedRMSD -1
REMARK  2 active torsions:
REMARK  status: ('A' for Active; 'I' for Inactive)
REMARK    1  A    between atoms: C2'_3  and  C1'_4 
REMARK    2  A    between atoms: C1'_4  and  C1_5 
ROOT
ATOM      1  C1  I4B d   1      -0.442   0.289  -0.151  0.00  0.00    -0.075 A 
ATOM      2  C2  I4B d   1      -1.695  -0.082   0.269  0.00  0.00     0.003 A 
ATOM      3  C3  I4B d   1      -1.917  -0.437   1.621  0.00  0.00     0.002 A 
ATOM      4  C4  I4B d   1      -0.855  -0.456   2.503  0.00  0.00    -0.004 A 
ATOM      5  C5  I4B d   1       0.410  -0.057   2.080  0.00  0.00     0.002 A 
ATOM      6  C6  I4B d   1       0.616   0.329   0.748  0.00  0.00     0.003 A 
ENDROOT
BRANCH   1   7
ATOM      7  C1' I4B d   1      -0.235   0.626  -1.594  0.00  0.00     0.060 C 
BRANCH   7   8
ATOM      8  C2' I4B d   1       0.936  -0.190  -2.101  0.00  0.00    -0.013 C 
ATOM      9  C4' I4B d   1       0.477  -1.284  -3.029  0.00  0.00     0.013 C 
ATOM     10  C3' I4B d   1       1.886   0.743  -2.792  0.00  0.00     0.013 C 
ENDBRANCH   7   8
ENDBRANCH   1   7
TORSDOF 2
ENDMDL
