MODEL 1
REMARK minimizedAffinity -5.03719187
REMARK minimizedRMSD -1
REMARK  2 active torsions:
REMARK  status: ('A' for Active; 'I' for Inactive)
REMARK    1  A    between atoms: C2'_3  and  C1'_4 
REMARK    2  A    between atoms: C1'_4  and  C1_5 
ROOT
ATOM      1  C1  I4B d   1       0.187   0.096  -0.195  0.00  0.00    -0.075 A 
ATOM      2  C2  I4B d   1      -0.979  -0.516   0.193  0.00  0.00     0.003 A 
ATOM      3  C3  I4B d   1      -1.185  -0.861   1.551  0.00  0.00     0.002 A 
ATOM      4  C4  I4B d   1      -0.184  -0.625   2.471  0.00  0.00    -0.004 A 
ATOM      5  C5  I4B d   1       0.988   0.015   2.080  0.00  0.00     0.002 A 
ATOM      6  C6  I4B d   1       1.170   0.390   0.741  0.00  0.00     0.003 A 
ENDROOT
BRANCH   1   7
ATOM      7  C1' I4B d   1       0.384   0.417  -1.643  0.00  0.00     0.060 C 
BRANCH   7   8
ATOM      8  C2' I4B d   1       1.428  -0.533  -2.194  0.00  0.00    -0.013 C 
ATOM      9  C4' I4B d   1       0.789  -1.655  -2.969  0.00  0.00     0.013 C 
ATOM     10  C3' I4B d   1       2.364   0.258  -3.058  0.00  0.00     0.013 C 
ENDBRANCH   7   8
ENDBRANCH   1   7
TORSDOF 2
ENDMDL
