MODEL 1
REMARK minimizedAffinity 2.2688992
REMARK minimizedRMSD -1
REMARK  0 active torsions:
REMARK  status: ('A' for Active; 'I' for Inactive)
ROOT
ATOM      1  C1  DEN d   1      -0.408  -0.821  -0.516  0.00  0.00     0.130 A 
ATOM      2  C2  DEN d   1      -0.751  -2.224  -0.729  0.00  0.00    -0.031 A 
ATOM      3  C3  DEN d   1       0.488  -2.950  -1.074  0.00  0.00     0.027 A 
ATOM      4  C4  DEN d   1       2.892  -2.043  -1.295  0.00  0.00     0.027 A 
ATOM      5  C5  DEN d   1       3.677  -0.914  -1.219  0.00  0.00    -0.003 A 
ATOM      6  C6  DEN d   1       3.155   0.321  -0.940  0.00  0.00     0.001 A 
ATOM      7  C7  DEN d   1       1.816   0.449  -0.681  0.00  0.00     0.017 A 
ATOM      8  C8  DEN d   1       1.017  -0.684  -0.763  0.00  0.00    -0.094 A 
ATOM      9  C9  DEN d   1       1.566  -1.925  -1.034  0.00  0.00    -0.072 A 
ENDROOT
TORSDOF 0
ENDMDL
