MODEL 1
REMARK minimizedAffinity 7.55201387
REMARK minimizedRMSD -1
REMARK  0 active torsions:
REMARK  status: ('A' for Active; 'I' for Inactive)
ROOT
ATOM      1  C1  DEN d   1       1.112  -2.122   0.055  0.00  0.00     0.130 A 
ATOM      2  C2  DEN d   1       1.967  -2.975  -0.765  0.00  0.00    -0.031 A 
ATOM      3  C3  DEN d   1       3.023  -2.129  -1.357  0.00  0.00     0.027 A 
ATOM      4  C4  DEN d   1       3.417   0.405  -1.082  0.00  0.00     0.027 A 
ATOM      5  C5  DEN d   1       2.944   1.557  -0.493  0.00  0.00    -0.003 A 
ATOM      6  C6  DEN d   1       1.818   1.569   0.286  0.00  0.00     0.001 A 
ATOM      7  C7  DEN d   1       1.151   0.398   0.534  0.00  0.00     0.017 A 
ATOM      8  C8  DEN d   1       1.617  -0.766  -0.062  0.00  0.00    -0.094 A 
ATOM      9  C9  DEN d   1       2.764  -0.760  -0.837  0.00  0.00    -0.072 A 
ENDROOT
TORSDOF 0
ENDMDL
