MODEL 1
REMARK minimizedAffinity -3.72270179
REMARK minimizedRMSD -1
REMARK  0 active torsions:
REMARK  status: ('A' for Active; 'I' for Inactive)
ROOT
ATOM      1  C1  DEN d   1       1.206  -2.072   0.014  0.00  0.00     0.130 A 
ATOM      2  C2  DEN d   1       0.571  -3.302  -0.451  0.00  0.00    -0.031 A 
ATOM      3  C3  DEN d   1      -0.537  -2.932  -1.354  0.00  0.00     0.027 A 
ATOM      4  C4  DEN d   1      -1.324  -0.584  -2.077  0.00  0.00     0.027 A 
ATOM      5  C5  DEN d   1      -1.103   0.768  -1.934  0.00  0.00    -0.003 A 
ATOM      6  C6  DEN d   1      -0.126   1.265  -1.112  0.00  0.00     0.001 A 
ATOM      7  C7  DEN d   1       0.696   0.402  -0.436  0.00  0.00     0.017 A 
ATOM      8  C8  DEN d   1       0.474  -0.962  -0.569  0.00  0.00    -0.094 A 
ATOM      9  C9  DEN d   1      -0.511  -1.445  -1.414  0.00  0.00    -0.072 A 
ENDROOT
TORSDOF 0
ENDMDL
