MODEL 1
REMARK minimizedAffinity 11.7761908
REMARK minimizedRMSD -1
REMARK  0 active torsions:
REMARK  status: ('A' for Active; 'I' for Inactive)
ROOT
ATOM      1  C1  DEN d   1       0.180  -4.470   0.324  0.00  0.00     0.130 A 
ATOM      2  C2  DEN d   1      -1.128  -5.111   0.208  0.00  0.00    -0.031 A 
ATOM      3  C3  DEN d   1      -2.027  -4.185  -0.510  0.00  0.00     0.027 A 
ATOM      4  C4  DEN d   1      -1.524  -1.837  -1.451  0.00  0.00     0.027 A 
ATOM      5  C5  DEN d   1      -0.557  -0.865  -1.585  0.00  0.00    -0.003 A 
ATOM      6  C6  DEN d   1       0.702  -1.011  -1.067  0.00  0.00     0.001 A 
ATOM      7  C7  DEN d   1       1.043  -2.174  -0.429  0.00  0.00     0.017 A 
ATOM      8  C8  DEN d   1       0.072  -3.156  -0.283  0.00  0.00    -0.094 A 
ATOM      9  C9  DEN d   1      -1.192  -2.995  -0.825  0.00  0.00    -0.072 A 
ENDROOT
TORSDOF 0
ENDMDL
