MODEL 1
REMARK minimizedAffinity 5.62495756
REMARK minimizedRMSD -1
REMARK  0 active torsions:
REMARK  status: ('A' for Active; 'I' for Inactive)
ROOT
ATOM      1  C1  DEN d   1       3.859   1.967   2.263  0.00  0.00     0.130 A 
ATOM      2  C2  DEN d   1       4.909   2.949   2.518  0.00  0.00    -0.031 A 
ATOM      3  C3  DEN d   1       5.562   3.264   1.231  0.00  0.00     0.027 A 
ATOM      4  C4  DEN d   1       5.047   2.337  -1.119  0.00  0.00     0.027 A 
ATOM      5  C5  DEN d   1       4.250   1.471  -1.835  0.00  0.00    -0.003 A 
ATOM      6  C6  DEN d   1       3.298   0.690  -1.234  0.00  0.00     0.001 A 
ATOM      7  C7  DEN d   1       3.087   0.794   0.115  0.00  0.00     0.017 A 
ATOM      8  C8  DEN d   1       3.892   1.660   0.844  0.00  0.00    -0.094 A 
ATOM      9  C9  DEN d   1       4.841   2.449   0.217  0.00  0.00    -0.072 A 
ENDROOT
TORSDOF 0
ENDMDL
