MODEL 1
REMARK minimizedAffinity -1.82306516
REMARK minimizedRMSD -1
REMARK  0 active torsions:
REMARK  status: ('A' for Active; 'I' for Inactive)
ROOT
ATOM      1  C1  BNZ d   1       1.653   1.058   0.790  0.00  0.00     0.000 A 
ATOM      2  C2  BNZ d   1       0.911   0.986  -0.358  0.00  0.00     0.000 A 
ATOM      3  C3  BNZ d   1       0.076   2.007  -0.718  0.00  0.00     0.000 A 
ATOM      4  C4  BNZ d   1      -0.046   3.080   0.091  0.00  0.00     0.000 A 
ATOM      5  C5  BNZ d   1       0.689   3.163   1.257  0.00  0.00     0.000 A 
ATOM      6  C6  BNZ d   1       1.557   2.151   1.596  0.00  0.00     0.000 A 
ENDROOT
TORSDOF 0
ENDMDL
