MODEL 1
REMARK minimizedAffinity 1.82276332
REMARK minimizedRMSD -1
REMARK  0 active torsions:
REMARK  status: ('A' for Active; 'I' for Inactive)
ROOT
ATOM      1  C1  BNZ d   1       4.430   4.516   3.705  0.00  0.00     0.000 A 
ATOM      2  C2  BNZ d   1       5.263   5.603   3.719  0.00  0.00     0.000 A 
ATOM      3  C3  BNZ d   1       5.922   5.966   4.861  0.00  0.00     0.000 A 
ATOM      4  C4  BNZ d   1       5.716   5.266   5.995  0.00  0.00     0.000 A 
ATOM      5  C5  BNZ d   1       4.872   4.174   6.000  0.00  0.00     0.000 A 
ATOM      6  C6  BNZ d   1       4.241   3.788   4.840  0.00  0.00     0.000 A 
ENDROOT
TORSDOF 0
ENDMDL
