MODEL 1
REMARK minimizedAffinity 5.04656792
REMARK minimizedRMSD -1
REMARK  0 active torsions:
REMARK  status: ('A' for Active; 'I' for Inactive)
ROOT
ATOM      1  C1  BNZ d   1       2.601   2.668   3.163  0.00  0.00     0.000 A 
ATOM      2  C2  BNZ d   1       2.014   1.952   4.172  0.00  0.00     0.000 A 
ATOM      3  C3  BNZ d   1       0.779   2.294   4.647  0.00  0.00     0.000 A 
ATOM      4  C4  BNZ d   1       0.150   3.374   4.139  0.00  0.00     0.000 A 
ATOM      5  C5  BNZ d   1       0.732   4.111   3.128  0.00  0.00     0.000 A 
ATOM      6  C6  BNZ d   1       1.959   3.741   2.626  0.00  0.00     0.000 A 
ENDROOT
TORSDOF 0
ENDMDL
