MODEL 1
REMARK minimizedAffinity 2.89661407
REMARK minimizedRMSD -1
REMARK  0 active torsions:
REMARK  status: ('A' for Active; 'I' for Inactive)
ROOT
ATOM      1  C1  BNZ d   1       2.473   0.779  -0.721  0.00  0.00     0.000 A 
ATOM      2  C2  BNZ d   1       1.240   1.311  -0.987  0.00  0.00     0.000 A 
ATOM      3  C3  BNZ d   1       0.694   2.256  -0.164  0.00  0.00     0.000 A 
ATOM      4  C4  BNZ d   1       1.362   2.638   0.943  0.00  0.00     0.000 A 
ATOM      5  C5  BNZ d   1       2.603   2.103   1.230  0.00  0.00     0.000 A 
ATOM      6  C6  BNZ d   1       3.167   1.181   0.379  0.00  0.00     0.000 A 
ENDROOT
TORSDOF 0
ENDMDL
