MODEL 1
REMARK minimizedAffinity 0.665364265
REMARK minimizedRMSD -1
REMARK  0 active torsions:
REMARK  status: ('A' for Active; 'I' for Inactive)
ROOT
ATOM      1  C1  BNZ d   1       4.909   1.118  -0.148  0.00  0.00     0.000 A 
ATOM      2  C2  BNZ d   1       3.801   0.340  -0.350  0.00  0.00     0.000 A 
ATOM      3  C3  BNZ d   1       3.296   0.153  -1.606  0.00  0.00     0.000 A 
ATOM      4  C4  BNZ d   1       3.876   0.776  -2.653  0.00  0.00     0.000 A 
ATOM      5  C5  BNZ d   1       4.988   1.571  -2.464  0.00  0.00     0.000 A 
ATOM      6  C6  BNZ d   1       5.517   1.725  -1.203  0.00  0.00     0.000 A 
ENDROOT
TORSDOF 0
ENDMDL
