MODEL 1
REMARK minimizedAffinity 0.752453029
REMARK minimizedRMSD -1
REMARK  0 active torsions:
REMARK  status: ('A' for Active; 'I' for Inactive)
ROOT
ATOM      1  C1  BNZ d   1      -3.761  -0.592  -1.420  0.00  0.00     0.000 A 
ATOM      2  C2  BNZ d   1      -3.554  -1.712  -2.180  0.00  0.00     0.000 A 
ATOM      3  C3  BNZ d   1      -4.105  -1.825  -3.426  0.00  0.00     0.000 A 
ATOM      4  C4  BNZ d   1      -4.895  -0.837  -3.893  0.00  0.00     0.000 A 
ATOM      5  C5  BNZ d   1      -5.121   0.294  -3.136  0.00  0.00     0.000 A 
ATOM      6  C6  BNZ d   1      -4.533   0.422  -1.898  0.00  0.00     0.000 A 
ENDROOT
TORSDOF 0
ENDMDL
