MODEL 1
REMARK minimizedAffinity 3.89530039
REMARK minimizedRMSD -1
REMARK  0 active torsions:
REMARK  status: ('A' for Active; 'I' for Inactive)
ROOT
ATOM      1  C1  BNZ d   1       0.587  -2.288   1.871  0.00  0.00     0.000 A 
ATOM      2  C2  BNZ d   1      -0.768  -2.130   1.992  0.00  0.00     0.000 A 
ATOM      3  C3  BNZ d   1      -1.294  -1.312   2.953  0.00  0.00     0.000 A 
ATOM      4  C4  BNZ d   1      -0.467  -0.684   3.814  0.00  0.00     0.000 A 
ATOM      5  C5  BNZ d   1       0.900  -0.840   3.710  0.00  0.00     0.000 A 
ATOM      6  C6  BNZ d   1       1.428  -1.634   2.718  0.00  0.00     0.000 A 
ENDROOT
TORSDOF 0
ENDMDL
