MODEL 1
REMARK minimizedAffinity 1.26138723
REMARK minimizedRMSD -1
REMARK  0 active torsions:
REMARK  status: ('A' for Active; 'I' for Inactive)
ROOT
ATOM      1  C1  BNZ d   1       3.735  -3.946   3.741  0.00  0.00     0.000 A 
ATOM      2  C2  BNZ d   1       3.768  -5.315   3.755  0.00  0.00     0.000 A 
ATOM      3  C3  BNZ d   1       4.110  -5.995   4.890  0.00  0.00     0.000 A 
ATOM      4  C4  BNZ d   1       4.456  -5.306   5.997  0.00  0.00     0.000 A 
ATOM      5  C5  BNZ d   1       4.437  -3.926   5.996  0.00  0.00     0.000 A 
ATOM      6  C6  BNZ d   1       4.055  -3.245   4.863  0.00  0.00     0.000 A 
ENDROOT
TORSDOF 0
ENDMDL
