MODEL 1
REMARK minimizedAffinity 7.31798077
REMARK minimizedRMSD -1
REMARK  0 active torsions:
REMARK  status: ('A' for Active; 'I' for Inactive)
ROOT
ATOM      1  C1  BNZ d   1      -3.750  -2.145  -2.916  0.00  0.00     0.000 A 
ATOM      2  C2  BNZ d   1      -4.774  -2.038  -3.819  0.00  0.00     0.000 A 
ATOM      3  C3  BNZ d   1      -5.466  -0.867  -3.957  0.00  0.00     0.000 A 
ATOM      4  C4  BNZ d   1      -5.161   0.181  -3.164  0.00  0.00     0.000 A 
ATOM      5  C5  BNZ d   1      -4.138   0.085  -2.242  0.00  0.00     0.000 A 
ATOM      6  C6  BNZ d   1      -3.417  -1.082  -2.134  0.00  0.00     0.000 A 
ENDROOT
TORSDOF 0
ENDMDL
