MODEL 1
REMARK minimizedAffinity 5.34013748
REMARK minimizedRMSD -1
REMARK  0 active torsions:
REMARK  status: ('A' for Active; 'I' for Inactive)
ROOT
ATOM      1  C1  BNZ d   1       3.675  -4.779  -0.004  0.00  0.00     0.000 A 
ATOM      2  C2  BNZ d   1       3.416  -4.073   1.141  0.00  0.00     0.000 A 
ATOM      3  C3  BNZ d   1       4.434  -3.659   1.953  0.00  0.00     0.000 A 
ATOM      4  C4  BNZ d   1       5.705  -3.986   1.643  0.00  0.00     0.000 A 
ATOM      5  C5  BNZ d   1       5.982  -4.706   0.498  0.00  0.00     0.000 A 
ATOM      6  C6  BNZ d   1       4.958  -5.087  -0.339  0.00  0.00     0.000 A 
ENDROOT
TORSDOF 0
ENDMDL
