MODEL 1
REMARK minimizedAffinity 6.97530413
REMARK minimizedRMSD -1
REMARK  0 active torsions:
REMARK  status: ('A' for Active; 'I' for Inactive)
ROOT
ATOM      1  C1  BNZ d   1      -5.129  -0.314  -3.000  0.00  0.00     0.000 A 
ATOM      2  C2  BNZ d   1      -5.337  -1.349  -3.873  0.00  0.00     0.000 A 
ATOM      3  C3  BNZ d   1      -4.836  -2.594  -3.615  0.00  0.00     0.000 A 
ATOM      4  C4  BNZ d   1      -4.095  -2.793  -2.506  0.00  0.00     0.000 A 
ATOM      5  C5  BNZ d   1      -3.868  -1.758  -1.621  0.00  0.00     0.000 A 
ATOM      6  C6  BNZ d   1      -4.407  -0.516  -1.865  0.00  0.00     0.000 A 
ENDROOT
TORSDOF 0
ENDMDL
