MODEL 1
REMARK minimizedAffinity -0.641756356
REMARK minimizedRMSD -1
REMARK  0 active torsions:
REMARK  status: ('A' for Active; 'I' for Inactive)
ROOT
ATOM      1  C1  BNZ d   1       2.416  -4.562   1.903  0.00  0.00     0.000 A 
ATOM      2  C2  BNZ d   1       3.075  -5.747   2.092  0.00  0.00     0.000 A 
ATOM      3  C3  BNZ d   1       3.745  -5.998   3.257  0.00  0.00     0.000 A 
ATOM      4  C4  BNZ d   1       3.788  -5.050   4.214  0.00  0.00     0.000 A 
ATOM      5  C5  BNZ d   1       3.136  -3.846   4.036  0.00  0.00     0.000 A 
ATOM      6  C6  BNZ d   1       2.431  -3.612   2.877  0.00  0.00     0.000 A 
ENDROOT
TORSDOF 0
ENDMDL
