MODEL 1
REMARK minimizedAffinity 7.64595556
REMARK minimizedRMSD -1
REMARK  0 active torsions:
REMARK  status: ('A' for Active; 'I' for Inactive)
ROOT
ATOM      1  C1  BNZ d   1      -1.682   0.019   3.733  0.00  0.00     0.000 A 
ATOM      2  C2  BNZ d   1      -2.697   0.937   3.762  0.00  0.00     0.000 A 
ATOM      3  C3  BNZ d   1      -3.831   0.749   3.022  0.00  0.00     0.000 A 
ATOM      4  C4  BNZ d   1      -3.931  -0.334   2.225  0.00  0.00     0.000 A 
ATOM      5  C5  BNZ d   1      -2.912  -1.264   2.178  0.00  0.00     0.000 A 
ATOM      6  C6  BNZ d   1      -1.788  -1.091   2.954  0.00  0.00     0.000 A 
ENDROOT
TORSDOF 0
ENDMDL
