MODEL 1
REMARK minimizedAffinity 10.2436771
REMARK minimizedRMSD -1
REMARK  1 active torsions:
REMARK  status: ('A' for Active; 'I' for Inactive)
REMARK    1  A    between atoms: C1_2  and  C2_3 
ROOT
ATOM      1  C2  UNL d   1      -1.213  -2.817  -3.933  0.00  0.00    -0.076 A 
ATOM      2  C3  UNL d   1      -1.892  -1.744  -3.330  0.00  0.00     0.004 A 
ATOM      3  C4  UNL d   1      -2.728  -1.950  -2.234  0.00  0.00    -0.003 A 
ATOM      4  C5  UNL d   1      -2.899  -3.232  -1.723  0.00  0.00     0.000 A 
ATOM      5  C6  UNL d   1      -2.219  -4.305  -2.298  0.00  0.00     0.000 A 
ATOM      6  C7  UNL d   1      -1.359  -4.113  -3.393  0.00  0.00    -0.073 A 
ATOM      7  C8  UNL d   1      -0.656  -5.307  -3.977  0.00  0.00     0.078 C 
ENDROOT
BRANCH   1   8
ATOM      8  C1  UNL d   1      -0.340  -2.537  -5.136  0.00  0.00     0.053 C 
ATOM      9  C   UNL d   1      -0.883  -1.409  -6.000  0.00  0.00     0.018 C 
ENDBRANCH   1   8
TORSDOF 1
ENDMDL
