MODEL 1
REMARK minimizedAffinity 6.56008434
REMARK minimizedRMSD -1
REMARK  1 active torsions:
REMARK  status: ('A' for Active; 'I' for Inactive)
REMARK    1  A    between atoms: C1_2  and  C2_3 
ROOT
ATOM      1  C2  UNL d   1       2.982   3.750  -4.895  0.00  0.00    -0.076 A 
ATOM      2  C3  UNL d   1       3.361   2.417  -5.134  0.00  0.00     0.004 A 
ATOM      3  C4  UNL d   1       4.031   1.677  -4.162  0.00  0.00    -0.003 A 
ATOM      4  C5  UNL d   1       4.333   2.257  -2.934  0.00  0.00     0.000 A 
ATOM      5  C6  UNL d   1       3.948   3.572  -2.674  0.00  0.00     0.000 A 
ATOM      6  C7  UNL d   1       3.257   4.327  -3.638  0.00  0.00    -0.073 A 
ATOM      7  C8  UNL d   1       2.872   5.743  -3.306  0.00  0.00     0.078 C 
ENDROOT
BRANCH   1   8
ATOM      8  C1  UNL d   1       2.281   4.511  -5.998  0.00  0.00     0.053 C 
ATOM      9  C   UNL d   1       2.628   5.992  -5.994  0.00  0.00     0.018 C 
ENDBRANCH   1   8
TORSDOF 1
ENDMDL
