MODEL 1
REMARK minimizedAffinity 9.39592266
REMARK minimizedRMSD -1
REMARK  1 active torsions:
REMARK  status: ('A' for Active; 'I' for Inactive)
REMARK    1  A    between atoms: C1_2  and  C2_3 
ROOT
ATOM      1  C2  UNL d   1       3.954   1.821  -4.739  0.00  0.00    -0.076 A 
ATOM      2  C3  UNL d   1       3.342   2.599  -5.738  0.00  0.00     0.004 A 
ATOM      3  C4  UNL d   1       2.727   3.810  -5.427  0.00  0.00    -0.003 A 
ATOM      4  C5  UNL d   1       2.713   4.264  -4.113  0.00  0.00     0.000 A 
ATOM      5  C6  UNL d   1       3.331   3.514  -3.112  0.00  0.00     0.000 A 
ATOM      6  C7  UNL d   1       3.970   2.299  -3.411  0.00  0.00    -0.073 A 
ATOM      7  C8  UNL d   1       4.615   1.528  -2.292  0.00  0.00     0.078 C 
ENDROOT
BRANCH   1   8
ATOM      8  C1  UNL d   1       4.583   0.503  -5.131  0.00  0.00     0.053 C 
ATOM      9  C   UNL d   1       3.564  -0.492  -5.665  0.00  0.00     0.018 C 
ENDBRANCH   1   8
TORSDOF 1
ENDMDL
