MODEL 1
REMARK minimizedAffinity 15.8893223
REMARK minimizedRMSD -1
REMARK  1 active torsions:
REMARK  status: ('A' for Active; 'I' for Inactive)
REMARK    1  A    between atoms: C1_2  and  C2_3 
ROOT
ATOM      1  C2  UNL d   1      -4.059  -4.936  -1.608  0.00  0.00    -0.076 A 
ATOM      2  C3  UNL d   1      -5.325  -5.210  -2.154  0.00  0.00     0.004 A 
ATOM      3  C4  UNL d   1      -6.000  -4.258  -2.916  0.00  0.00    -0.003 A 
ATOM      4  C5  UNL d   1      -5.419  -3.015  -3.144  0.00  0.00     0.000 A 
ATOM      5  C6  UNL d   1      -4.157  -2.732  -2.624  0.00  0.00     0.000 A 
ATOM      6  C7  UNL d   1      -3.456  -3.687  -1.868  0.00  0.00    -0.073 A 
ATOM      7  C8  UNL d   1      -2.100  -3.326  -1.327  0.00  0.00     0.078 C 
ENDROOT
BRANCH   1   8
ATOM      8  C1  UNL d   1      -3.387  -5.998  -0.768  0.00  0.00     0.053 C 
ATOM      9  C   UNL d   1      -3.879  -6.000   0.671  0.00  0.00     0.018 C 
ENDBRANCH   1   8
TORSDOF 1
ENDMDL
