MODEL 1
REMARK minimizedAffinity 11.871541
REMARK minimizedRMSD -1
REMARK  1 active torsions:
REMARK  status: ('A' for Active; 'I' for Inactive)
REMARK    1  A    between atoms: C1_2  and  C2_3 
ROOT
ATOM      1  C2  UNL d   1      -3.461  -3.694  -2.719  0.00  0.00    -0.076 A 
ATOM      2  C3  UNL d   1      -4.590  -2.968  -3.138  0.00  0.00     0.004 A 
ATOM      3  C4  UNL d   1      -5.845  -3.571  -3.206  0.00  0.00    -0.003 A 
ATOM      4  C5  UNL d   1      -5.992  -4.908  -2.857  0.00  0.00     0.000 A 
ATOM      5  C6  UNL d   1      -4.886  -5.639  -2.423  0.00  0.00     0.000 A 
ATOM      6  C7  UNL d   1      -3.617  -5.042  -2.332  0.00  0.00    -0.073 A 
ATOM      7  C8  UNL d   1      -2.458  -5.878  -1.863  0.00  0.00     0.078 C 
ENDROOT
BRANCH   1   8
ATOM      8  C1  UNL d   1      -2.121  -2.995  -2.690  0.00  0.00     0.053 C 
ATOM      9  C   UNL d   1      -1.979  -2.054  -1.504  0.00  0.00     0.018 C 
ENDBRANCH   1   8
TORSDOF 1
ENDMDL
