MODEL 1
REMARK minimizedAffinity 9.6490612
REMARK minimizedRMSD -1
REMARK  1 active torsions:
REMARK  status: ('A' for Active; 'I' for Inactive)
REMARK    1  A    between atoms: C1_2  and  C2_3 
ROOT
ATOM      1  C2  UNL d   1      -3.360  -5.966  -0.139  0.00  0.00    -0.076 A 
ATOM      2  C3  UNL d   1      -1.995  -5.984  -0.473  0.00  0.00     0.004 A 
ATOM      3  C4  UNL d   1      -1.014  -6.000   0.517  0.00  0.00    -0.003 A 
ATOM      4  C5  UNL d   1      -1.383  -5.999   1.858  0.00  0.00     0.000 A 
ATOM      5  C6  UNL d   1      -2.732  -5.999   2.208  0.00  0.00     0.000 A 
ATOM      6  C7  UNL d   1      -3.734  -6.000   1.222  0.00  0.00    -0.073 A 
ATOM      7  C8  UNL d   1      -5.174  -5.994   1.656  0.00  0.00     0.078 C 
ENDROOT
BRANCH   1   8
ATOM      8  C1  UNL d   1      -4.379  -5.922  -1.255  0.00  0.00     0.053 C 
ATOM      9  C   UNL d   1      -4.171  -4.738  -2.187  0.00  0.00     0.018 C 
ENDBRANCH   1   8
TORSDOF 1
ENDMDL
