MODEL 1
REMARK minimizedAffinity 14.092948
REMARK minimizedRMSD -1
REMARK  1 active torsions:
REMARK  status: ('A' for Active; 'I' for Inactive)
REMARK    1  A    between atoms: C1_2  and  C2_3 
ROOT
ATOM      1  C2  UNL d   1      -2.998  -3.661  -3.044  0.00  0.00    -0.076 A 
ATOM      2  C3  UNL d   1      -2.965  -3.329  -1.678  0.00  0.00     0.004 A 
ATOM      3  C4  UNL d   1      -1.894  -2.617  -1.139  0.00  0.00    -0.003 A 
ATOM      4  C5  UNL d   1      -0.840  -2.226  -1.957  0.00  0.00     0.000 A 
ATOM      5  C6  UNL d   1      -0.865  -2.532  -3.317  0.00  0.00     0.000 A 
ATOM      6  C7  UNL d   1      -1.945  -3.235  -3.880  0.00  0.00    -0.073 A 
ATOM      7  C8  UNL d   1      -1.917  -3.543  -5.352  0.00  0.00     0.078 C 
ENDROOT
BRANCH   1   8
ATOM      8  C1  UNL d   1      -4.172  -4.458  -3.566  0.00  0.00     0.053 C 
ATOM      9  C   UNL d   1      -4.600  -5.561  -2.611  0.00  0.00     0.018 C 
ENDBRANCH   1   8
TORSDOF 1
ENDMDL
