MODEL 1
REMARK minimizedAffinity 10.8539486
REMARK minimizedRMSD -1
REMARK  1 active torsions:
REMARK  status: ('A' for Active; 'I' for Inactive)
REMARK    1  A    between atoms: C1_2  and  C2_3 
ROOT
ATOM      1  C2  UNL d   1      -2.420  -3.640  -3.090  0.00  0.00    -0.076 A 
ATOM      2  C3  UNL d   1      -3.718  -3.562  -2.555  0.00  0.00     0.004 A 
ATOM      3  C4  UNL d   1      -4.339  -4.686  -2.014  0.00  0.00    -0.003 A 
ATOM      4  C5  UNL d   1      -3.673  -5.906  -1.998  0.00  0.00     0.000 A 
ATOM      5  C6  UNL d   1      -2.378  -5.998  -2.508  0.00  0.00     0.000 A 
ATOM      6  C7  UNL d   1      -1.731  -4.871  -3.042  0.00  0.00    -0.073 A 
ATOM      7  C8  UNL d   1      -0.336  -5.028  -3.584  0.00  0.00     0.078 C 
ENDROOT
BRANCH   1   8
ATOM      8  C1  UNL d   1      -1.807  -2.394  -3.688  0.00  0.00     0.053 C 
ATOM      9  C   UNL d   1      -1.631  -2.497  -5.195  0.00  0.00     0.018 C 
ENDBRANCH   1   8
TORSDOF 1
ENDMDL
