MODEL 1
REMARK minimizedAffinity 5.13941526
REMARK minimizedRMSD -1
REMARK  1 active torsions:
REMARK  status: ('A' for Active; 'I' for Inactive)
REMARK    1  A    between atoms: C1_2  and  C2_3 
ROOT
ATOM      1  C2  UNL d   1      -1.706  -3.908  -2.452  0.00  0.00    -0.076 A 
ATOM      2  C3  UNL d   1      -0.344  -3.956  -2.798  0.00  0.00     0.004 A 
ATOM      3  C4  UNL d   1       0.160  -4.991  -3.584  0.00  0.00    -0.003 A 
ATOM      4  C5  UNL d   1      -0.690  -5.994  -4.038  0.00  0.00     0.000 A 
ATOM      5  C6  UNL d   1      -2.047  -5.952  -3.719  0.00  0.00     0.000 A 
ATOM      6  C7  UNL d   1      -2.574  -4.907  -2.941  0.00  0.00    -0.073 A 
ATOM      7  C8  UNL d   1      -4.044  -4.915  -2.623  0.00  0.00     0.078 C 
ENDROOT
BRANCH   1   8
ATOM      8  C1  UNL d   1      -2.190  -2.776  -1.575  0.00  0.00     0.053 C 
ATOM      9  C   UNL d   1      -1.392  -2.655  -0.286  0.00  0.00     0.018 C 
ENDBRANCH   1   8
TORSDOF 1
ENDMDL
