MODEL 1
REMARK minimizedAffinity 10.0568066
REMARK minimizedRMSD -1
REMARK  1 active torsions:
REMARK  status: ('A' for Active; 'I' for Inactive)
REMARK    1  A    between atoms: C1_2  and  C2_3 
ROOT
ATOM      1  C2  UNL d   1      -1.828  -2.710  -0.701  0.00  0.00    -0.076 A 
ATOM      2  C3  UNL d   1      -0.716  -1.875  -0.909  0.00  0.00     0.004 A 
ATOM      3  C4  UNL d   1       0.114  -1.509   0.149  0.00  0.00    -0.003 A 
ATOM      4  C5  UNL d   1      -0.153  -1.973   1.432  0.00  0.00     0.000 A 
ATOM      5  C6  UNL d   1      -1.241  -2.816   1.654  0.00  0.00     0.000 A 
ATOM      6  C7  UNL d   1      -2.079  -3.208   0.596  0.00  0.00    -0.073 A 
ATOM      7  C8  UNL d   1      -3.241  -4.115   0.893  0.00  0.00     0.078 C 
ENDROOT
BRANCH   1   8
ATOM      8  C1  UNL d   1      -2.708  -3.051  -1.882  0.00  0.00     0.053 C 
ATOM      9  C   UNL d   1      -1.917  -3.218  -3.170  0.00  0.00     0.018 C 
ENDBRANCH   1   8
TORSDOF 1
ENDMDL
