MODEL 1
REMARK minimizedAffinity 22.2080917
REMARK minimizedRMSD -1
REMARK  1 active torsions:
REMARK  status: ('A' for Active; 'I' for Inactive)
REMARK    1  A    between atoms: C1_2  and  C2_3 
ROOT
ATOM      1  C2  UNL d   1      -1.164  -4.719  -3.399  0.00  0.00    -0.076 A 
ATOM      2  C3  UNL d   1      -0.513  -3.498  -3.646  0.00  0.00     0.004 A 
ATOM      3  C4  UNL d   1      -1.028  -2.299  -3.157  0.00  0.00    -0.003 A 
ATOM      4  C5  UNL d   1      -2.203  -2.301  -2.413  0.00  0.00     0.000 A 
ATOM      5  C6  UNL d   1      -2.853  -3.505  -2.144  0.00  0.00     0.000 A 
ATOM      6  C7  UNL d   1      -2.338  -4.725  -2.616  0.00  0.00    -0.073 A 
ATOM      7  C8  UNL d   1      -3.083  -5.993  -2.301  0.00  0.00     0.078 C 
ENDROOT
BRANCH   1   8
ATOM      8  C1  UNL d   1      -0.573  -5.985  -3.978  0.00  0.00     0.053 C 
ATOM      9  C   UNL d   1       0.946  -5.999  -3.917  0.00  0.00     0.018 C 
ENDBRANCH   1   8
TORSDOF 1
ENDMDL
