MODEL 1
REMARK minimizedAffinity 16.7879944
REMARK minimizedRMSD -1
REMARK  1 active torsions:
REMARK  status: ('A' for Active; 'I' for Inactive)
REMARK    1  A    between atoms: C1_2  and  C2_3 
ROOT
ATOM      1  C2  UNL d   1      -2.415  -3.596   1.269  0.00  0.00    -0.076 A 
ATOM      2  C3  UNL d   1      -3.026  -4.806   0.893  0.00  0.00     0.004 A 
ATOM      3  C4  UNL d   1      -2.728  -5.996   1.555  0.00  0.00    -0.003 A 
ATOM      4  C5  UNL d   1      -1.816  -5.995   2.605  0.00  0.00     0.000 A 
ATOM      5  C6  UNL d   1      -1.215  -4.802   3.002  0.00  0.00     0.000 A 
ATOM      6  C7  UNL d   1      -1.515  -3.591   2.356  0.00  0.00    -0.073 A 
ATOM      7  C8  UNL d   1      -0.833  -2.334   2.822  0.00  0.00     0.078 C 
ENDROOT
BRANCH   1   8
ATOM      8  C1  UNL d   1      -2.756  -2.342   0.496  0.00  0.00     0.053 C 
ATOM      9  C   UNL d   1      -1.937  -2.202  -0.778  0.00  0.00     0.018 C 
ENDBRANCH   1   8
TORSDOF 1
ENDMDL
