MODEL 1
REMARK minimizedAffinity 8.71419621
REMARK minimizedRMSD -1
REMARK  1 active torsions:
REMARK  status: ('A' for Active; 'I' for Inactive)
REMARK    1  A    between atoms: C1_2  and  C2_3 
ROOT
ATOM      1  C2  UNL d   1      -3.937  -3.836  -1.520  0.00  0.00    -0.076 A 
ATOM      2  C3  UNL d   1      -3.475  -4.747  -0.555  0.00  0.00     0.004 A 
ATOM      3  C4  UNL d   1      -4.265  -5.820  -0.144  0.00  0.00    -0.003 A 
ATOM      4  C5  UNL d   1      -5.530  -6.000  -0.693  0.00  0.00     0.000 A 
ATOM      5  C6  UNL d   1      -5.997  -5.116  -1.665  0.00  0.00     0.000 A 
ATOM      6  C7  UNL d   1      -5.207  -4.039  -2.102  0.00  0.00    -0.073 A 
ATOM      7  C8  UNL d   1      -5.764  -3.113  -3.149  0.00  0.00     0.078 C 
ENDROOT
BRANCH   1   8
ATOM      8  C1  UNL d   1      -3.047  -2.677  -1.906  0.00  0.00     0.053 C 
ATOM      9  C   UNL d   1      -1.764  -3.128  -2.587  0.00  0.00     0.018 C 
ENDBRANCH   1   8
TORSDOF 1
ENDMDL
