MODEL 1
REMARK minimizedAffinity 5.98800373
REMARK minimizedRMSD -1
REMARK  0 active torsions:
REMARK  status: ('A' for Active; 'I' for Inactive)
ROOT
ATOM      1  C   UNL d   1      -0.148  -4.370  -0.731  0.00  0.00     0.023 A 
ATOM      2  C1  UNL d   1       0.990  -3.654  -1.103  0.00  0.00     0.003 A 
ATOM      3  C2  UNL d   1       2.255  -4.102  -0.719  0.00  0.00     0.048 A 
ATOM      4  C3  UNL d   1       2.376  -5.268   0.035  0.00  0.00     0.023 A 
ATOM      5  C4  UNL d   1       1.241  -5.989   0.409  0.00  0.00     0.048 A 
ATOM      6  C5  UNL d   1      -0.022  -5.537   0.023  0.00  0.00     0.003 A 
ATOM      7  I   UNL d   1       4.259  -5.937   0.607  0.00  0.00    -0.146 I 
ENDROOT
TORSDOF 0
ENDMDL
