MODEL 1
REMARK minimizedAffinity -2.2276752
REMARK minimizedRMSD -1
REMARK  0 active torsions:
REMARK  status: ('A' for Active; 'I' for Inactive)
ROOT
ATOM      1  C   UNL d   1       0.416   0.656  -0.286  0.00  0.00     0.023 A 
ATOM      2  C1  UNL d   1       0.763  -0.303   0.665  0.00  0.00     0.003 A 
ATOM      3  C2  UNL d   1       0.536  -1.657   0.408  0.00  0.00     0.048 A 
ATOM      4  C3  UNL d   1      -0.036  -2.044  -0.803  0.00  0.00     0.023 A 
ATOM      5  C4  UNL d   1      -0.385  -1.088  -1.758  0.00  0.00     0.048 A 
ATOM      6  C5  UNL d   1      -0.157   0.264  -1.496  0.00  0.00     0.003 A 
ATOM      7  I   UNL d   1      -0.374  -4.059  -1.188  0.00  0.00    -0.146 I 
ENDROOT
TORSDOF 0
ENDMDL
