MODEL 1
REMARK minimizedAffinity -1.44701862
REMARK minimizedRMSD -1
REMARK  0 active torsions:
REMARK  status: ('A' for Active; 'I' for Inactive)
ROOT
ATOM      1  C   UNL d   1      -1.111  -4.754  -1.874  0.00  0.00     0.023 A 
ATOM      2  C1  UNL d   1      -1.807  -3.596  -2.223  0.00  0.00     0.003 A 
ATOM      3  C2  UNL d   1      -1.348  -2.348  -1.796  0.00  0.00     0.048 A 
ATOM      4  C3  UNL d   1      -0.191  -2.265  -1.022  0.00  0.00     0.023 A 
ATOM      5  C4  UNL d   1       0.509  -3.420  -0.671  0.00  0.00     0.048 A 
ATOM      6  C5  UNL d   1       0.046  -4.666  -1.100  0.00  0.00     0.003 A 
ATOM      7  I   UNL d   1       0.494  -0.409  -0.385  0.00  0.00    -0.146 I 
ENDROOT
TORSDOF 0
ENDMDL
