MODEL 1
REMARK minimizedAffinity -4.2117362
REMARK minimizedRMSD -1
REMARK  0 active torsions:
REMARK  status: ('A' for Active; 'I' for Inactive)
ROOT
ATOM      1  C   UNL d   1      -0.663   3.454   1.194  0.00  0.00     0.023 A 
ATOM      2  C1  UNL d   1      -0.205   2.458   2.057  0.00  0.00     0.003 A 
ATOM      3  C2  UNL d   1      -0.112   1.137   1.612  0.00  0.00     0.048 A 
ATOM      4  C3  UNL d   1      -0.477   0.820   0.304  0.00  0.00     0.023 A 
ATOM      5  C4  UNL d   1      -0.935   1.815  -0.562  0.00  0.00     0.048 A 
ATOM      6  C5  UNL d   1      -1.027   3.133  -0.113  0.00  0.00     0.003 A 
ATOM      7  I   UNL d   1      -0.339  -1.144  -0.359  0.00  0.00    -0.146 I 
ENDROOT
TORSDOF 0
ENDMDL
