MODEL 1
REMARK minimizedAffinity -5.39677525
REMARK minimizedRMSD -1
REMARK  0 active torsions:
REMARK  status: ('A' for Active; 'I' for Inactive)
ROOT
ATOM      1  C   UNL d   1      -0.374   0.392   2.092  0.00  0.00     0.023 A 
ATOM      2  C1  UNL d   1       0.016   0.048   0.798  0.00  0.00     0.003 A 
ATOM      3  C2  UNL d   1       0.020   1.014  -0.211  0.00  0.00     0.048 A 
ATOM      4  C3  UNL d   1      -0.365   2.322   0.082  0.00  0.00     0.023 A 
ATOM      5  C4  UNL d   1      -0.755   2.670   1.377  0.00  0.00     0.048 A 
ATOM      6  C5  UNL d   1      -0.758   1.701   2.382  0.00  0.00     0.003 A 
ATOM      7  I   UNL d   1      -0.360   3.761  -1.417  0.00  0.00    -0.146 I 
ENDROOT
TORSDOF 0
ENDMDL
