MODEL 1
REMARK minimizedAffinity -2.19668555
REMARK minimizedRMSD -1
REMARK  0 active torsions:
REMARK  status: ('A' for Active; 'I' for Inactive)
ROOT
ATOM      1  C   UNL d   1      -0.872   3.350   1.727  0.00  0.00     0.023 A 
ATOM      2  C1  UNL d   1      -0.615   2.131   2.354  0.00  0.00     0.003 A 
ATOM      3  C2  UNL d   1      -0.284   1.009   1.592  0.00  0.00     0.048 A 
ATOM      4  C3  UNL d   1      -0.211   1.113   0.203  0.00  0.00     0.023 A 
ATOM      5  C4  UNL d   1      -0.467   2.331  -0.428  0.00  0.00     0.048 A 
ATOM      6  C5  UNL d   1      -0.798   3.450   0.338  0.00  0.00     0.003 A 
ATOM      7  I   UNL d   1       0.281  -0.556  -0.933  0.00  0.00    -0.146 I 
ENDROOT
TORSDOF 0
ENDMDL
