MODEL 1
REMARK minimizedAffinity 12.676342
REMARK minimizedRMSD -1
REMARK  1 active torsions:
REMARK  status: ('A' for Active; 'I' for Inactive)
REMARK    1  A    between atoms: C1_2  and  C2_3 
ROOT
ATOM      1  C2  UNL d   1      -1.802  -2.890   0.540  0.00  0.00    -0.081 A 
ATOM      2  C3  UNL d   1      -1.904  -2.725   1.926  0.00  0.00     0.006 A 
ATOM      3  C4  UNL d   1      -1.475  -3.734   2.793  0.00  0.00     0.002 A 
ATOM      4  C5  UNL d   1      -0.931  -4.919   2.288  0.00  0.00    -0.080 A 
ATOM      5  C6  UNL d   1      -0.440  -5.998   3.207  0.00  0.00     0.076 C 
ATOM      6  C7  UNL d   1      -0.846  -5.091   0.902  0.00  0.00     0.002 A 
ATOM      7  C8  UNL d   1      -1.275  -4.083   0.035  0.00  0.00     0.006 A 
ENDROOT
BRANCH   1   8
ATOM      8  C1  UNL d   1      -2.203  -1.778  -0.396  0.00  0.00     0.054 C 
ATOM      9  C   UNL d   1      -1.497  -1.902  -1.738  0.00  0.00     0.018 C 
ENDBRANCH   1   8
TORSDOF 1
ENDMDL
