MODEL 1
REMARK minimizedAffinity 2.80770397
REMARK minimizedRMSD -1
REMARK  1 active torsions:
REMARK  status: ('A' for Active; 'I' for Inactive)
REMARK    1  A    between atoms: C1_2  and  C2_3 
ROOT
ATOM      1  C2  UNL d   1      -1.629  -2.906   2.698  0.00  0.00    -0.081 A 
ATOM      2  C3  UNL d   1      -1.551  -2.501   1.360  0.00  0.00     0.006 A 
ATOM      3  C4  UNL d   1      -1.125  -3.394   0.374  0.00  0.00     0.002 A 
ATOM      4  C5  UNL d   1      -0.776  -4.707   0.708  0.00  0.00    -0.080 A 
ATOM      5  C6  UNL d   1      -0.345  -5.684  -0.345  0.00  0.00     0.076 C 
ATOM      6  C7  UNL d   1      -0.836  -5.106   2.047  0.00  0.00     0.002 A 
ATOM      7  C8  UNL d   1      -1.262  -4.213   3.034  0.00  0.00     0.006 A 
ENDROOT
BRANCH   1   8
ATOM      8  C1  UNL d   1      -2.150  -1.965   3.754  0.00  0.00     0.054 C 
ATOM      9  C   UNL d   1      -1.306  -2.030   5.019  0.00  0.00     0.018 C 
ENDBRANCH   1   8
TORSDOF 1
ENDMDL
