MODEL 1
REMARK minimizedAffinity 13.548892
REMARK minimizedRMSD -1
REMARK  1 active torsions:
REMARK  status: ('A' for Active; 'I' for Inactive)
REMARK    1  A    between atoms: C1_2  and  C2_3 
ROOT
ATOM      1  C2  UNL d   1      -0.955  -4.240   0.741  0.00  0.00    -0.081 A 
ATOM      2  C3  UNL d   1      -1.780  -3.690   1.730  0.00  0.00     0.006 A 
ATOM      3  C4  UNL d   1      -2.307  -2.405   1.578  0.00  0.00     0.002 A 
ATOM      4  C5  UNL d   1      -2.024  -1.652   0.433  0.00  0.00    -0.080 A 
ATOM      5  C6  UNL d   1      -2.607  -0.284   0.245  0.00  0.00     0.076 C 
ATOM      6  C7  UNL d   1      -1.185  -2.195  -0.546  0.00  0.00     0.002 A 
ATOM      7  C8  UNL d   1      -0.658  -3.479  -0.395  0.00  0.00     0.006 A 
ENDROOT
BRANCH   1   8
ATOM      8  C1  UNL d   1      -0.438  -5.650   0.871  0.00  0.00     0.054 C 
ATOM      9  C   UNL d   1      -0.145  -6.000   2.323  0.00  0.00     0.018 C 
ENDBRANCH   1   8
TORSDOF 1
ENDMDL
