MODEL 1
REMARK minimizedAffinity 12.0865974
REMARK minimizedRMSD -1
REMARK  1 active torsions:
REMARK  status: ('A' for Active; 'I' for Inactive)
REMARK    1  A    between atoms: C1_2  and  C2_3 
ROOT
ATOM      1  C2  UNL d   1      -1.463   1.498  -4.552  0.00  0.00    -0.081 A 
ATOM      2  C3  UNL d   1      -2.761   1.373  -4.040  0.00  0.00     0.006 A 
ATOM      3  C4  UNL d   1      -3.062   0.375  -3.110  0.00  0.00     0.002 A 
ATOM      4  C5  UNL d   1      -2.070  -0.508  -2.670  0.00  0.00    -0.080 A 
ATOM      5  C6  UNL d   1      -2.373  -1.564  -1.649  0.00  0.00     0.076 C 
ATOM      6  C7  UNL d   1      -0.778  -0.394  -3.194  0.00  0.00     0.002 A 
ATOM      7  C8  UNL d   1      -0.476   0.603  -4.125  0.00  0.00     0.006 A 
ENDROOT
BRANCH   1   8
ATOM      8  C1  UNL d   1      -1.120   2.613  -5.506  0.00  0.00     0.054 C 
ATOM      9  C   UNL d   1      -2.372   3.324  -5.999  0.00  0.00     0.018 C 
ENDBRANCH   1   8
TORSDOF 1
ENDMDL
