MODEL 1
REMARK minimizedAffinity 9.86871433
REMARK minimizedRMSD -1
REMARK  1 active torsions:
REMARK  status: ('A' for Active; 'I' for Inactive)
REMARK    1  A    between atoms: C1_2  and  C2_3 
ROOT
ATOM      1  C2  UNL d   1      -0.417  -2.680  -1.377  0.00  0.00    -0.081 A 
ATOM      2  C3  UNL d   1      -0.087  -4.000  -1.707  0.00  0.00     0.006 A 
ATOM      3  C4  UNL d   1      -0.152  -5.009  -0.742  0.00  0.00     0.002 A 
ATOM      4  C5  UNL d   1      -0.556  -4.715   0.565  0.00  0.00    -0.080 A 
ATOM      5  C6  UNL d   1      -0.660  -5.794   1.602  0.00  0.00     0.076 C 
ATOM      6  C7  UNL d   1      -0.869  -3.393   0.899  0.00  0.00     0.002 A 
ATOM      7  C8  UNL d   1      -0.803  -2.385  -0.065  0.00  0.00     0.006 A 
ENDROOT
BRANCH   1   8
ATOM      8  C1  UNL d   1      -0.409  -1.602  -2.431  0.00  0.00     0.054 C 
ATOM      9  C   UNL d   1      -0.832  -2.151  -3.786  0.00  0.00     0.018 C 
ENDBRANCH   1   8
TORSDOF 1
ENDMDL
