MODEL 1
REMARK minimizedAffinity 7.18962479
REMARK minimizedRMSD -1
REMARK  1 active torsions:
REMARK  status: ('A' for Active; 'I' for Inactive)
REMARK    1  A    between atoms: C1_2  and  C2_3 
ROOT
ATOM      1  C2  UNL d   1      -1.910  -2.268  -0.866  0.00  0.00    -0.081 A 
ATOM      2  C3  UNL d   1      -1.572  -3.579  -1.225  0.00  0.00     0.006 A 
ATOM      3  C4  UNL d   1      -1.140  -4.489  -0.257  0.00  0.00     0.002 A 
ATOM      4  C5  UNL d   1      -1.047  -4.106   1.086  0.00  0.00    -0.080 A 
ATOM      5  C6  UNL d   1      -0.614  -5.082   2.139  0.00  0.00     0.076 C 
ATOM      6  C7  UNL d   1      -1.368  -2.792   1.441  0.00  0.00     0.002 A 
ATOM      7  C8  UNL d   1      -1.799  -1.881   0.474  0.00  0.00     0.006 A 
ENDROOT
BRANCH   1   8
ATOM      8  C1  UNL d   1      -2.438  -1.303  -1.897  0.00  0.00     0.054 C 
ATOM      9  C   UNL d   1      -1.966  -1.675  -3.296  0.00  0.00     0.018 C 
ENDBRANCH   1   8
TORSDOF 1
ENDMDL
