MODEL 1
REMARK minimizedAffinity 16.7192879
REMARK minimizedRMSD -1
REMARK  1 active torsions:
REMARK  status: ('A' for Active; 'I' for Inactive)
REMARK    1  A    between atoms: C1_2  and  C2_3 
ROOT
ATOM      1  C2  UNL d   1       1.681  -0.081  -2.242  0.00  0.00    -0.081 A 
ATOM      2  C3  UNL d   1       1.030   0.547  -1.174  0.00  0.00     0.006 A 
ATOM      3  C4  UNL d   1       1.700   1.491  -0.392  0.00  0.00     0.002 A 
ATOM      4  C5  UNL d   1       3.029   1.828  -0.670  0.00  0.00    -0.080 A 
ATOM      5  C6  UNL d   1       3.751   2.861   0.142  0.00  0.00     0.076 C 
ATOM      6  C7  UNL d   1       3.685   1.187  -1.727  0.00  0.00     0.002 A 
ATOM      7  C8  UNL d   1       3.016   0.243  -2.508  0.00  0.00     0.006 A 
ENDROOT
BRANCH   1   8
ATOM      8  C1  UNL d   1       0.941  -1.052  -3.127  0.00  0.00     0.054 C 
ATOM      9  C   UNL d   1      -0.443  -1.360  -2.574  0.00  0.00     0.018 C 
ENDBRANCH   1   8
TORSDOF 1
ENDMDL
