MODEL 1
REMARK minimizedAffinity 14.8166513
REMARK minimizedRMSD -1
REMARK  1 active torsions:
REMARK  status: ('A' for Active; 'I' for Inactive)
REMARK    1  A    between atoms: C1_2  and  C2_3 
ROOT
ATOM      1  C2  UNL d   1      -0.107  -1.892  -2.337  0.00  0.00    -0.081 A 
ATOM      2  C3  UNL d   1      -0.170  -2.367  -1.021  0.00  0.00     0.006 A 
ATOM      3  C4  UNL d   1      -0.528  -3.692  -0.763  0.00  0.00     0.002 A 
ATOM      4  C5  UNL d   1      -0.820  -4.567  -1.815  0.00  0.00    -0.080 A 
ATOM      5  C6  UNL d   1      -1.176  -6.000  -1.552  0.00  0.00     0.076 C 
ATOM      6  C7  UNL d   1      -0.773  -4.088  -3.129  0.00  0.00     0.002 A 
ATOM      7  C8  UNL d   1      -0.416  -2.763  -3.388  0.00  0.00     0.006 A 
ENDROOT
BRANCH   1   8
ATOM      8  C1  UNL d   1       0.342  -0.482  -2.623  0.00  0.00     0.054 C 
ATOM      9  C   UNL d   1       1.771  -0.250  -2.154  0.00  0.00     0.018 C 
ENDBRANCH   1   8
TORSDOF 1
ENDMDL
