MODEL 1
REMARK minimizedAffinity 15.4908638
REMARK minimizedRMSD -1
REMARK  1 active torsions:
REMARK  status: ('A' for Active; 'I' for Inactive)
REMARK    1  A    between atoms: C1_2  and  C2_3 
ROOT
ATOM      1  C2  UNL d   1      -4.186  -0.557   5.776  0.00  0.00    -0.081 A 
ATOM      2  C3  UNL d   1      -2.874  -0.632   5.294  0.00  0.00     0.006 A 
ATOM      3  C4  UNL d   1      -2.285  -1.871   5.031  0.00  0.00     0.002 A 
ATOM      4  C5  UNL d   1      -3.001  -3.055   5.237  0.00  0.00    -0.080 A 
ATOM      5  C6  UNL d   1      -2.391  -4.390   4.930  0.00  0.00     0.076 C 
ATOM      6  C7  UNL d   1      -4.306  -2.982   5.735  0.00  0.00     0.002 A 
ATOM      7  C8  UNL d   1      -4.895  -1.743   6.000  0.00  0.00     0.006 A 
ENDROOT
BRANCH   1   8
ATOM      8  C1  UNL d   1      -4.846   0.779   6.000  0.00  0.00     0.054 C 
ATOM      9  C   UNL d   1      -3.895   1.925   5.685  0.00  0.00     0.018 C 
ENDBRANCH   1   8
TORSDOF 1
ENDMDL
