MODEL 1
REMARK minimizedAffinity 10.3492393
REMARK minimizedRMSD -1
REMARK  1 active torsions:
REMARK  status: ('A' for Active; 'I' for Inactive)
REMARK    1  A    between atoms: C1_2  and  C2_3 
ROOT
ATOM      1  C2  UNL d   1      -1.149  -2.475  -1.717  0.00  0.00    -0.081 A 
ATOM      2  C3  UNL d   1      -1.288  -1.957  -0.423  0.00  0.00     0.006 A 
ATOM      3  C4  UNL d   1      -1.033  -2.760   0.692  0.00  0.00     0.002 A 
ATOM      4  C5  UNL d   1      -0.628  -4.089   0.532  0.00  0.00    -0.080 A 
ATOM      5  C6  UNL d   1      -0.322  -4.952   1.719  0.00  0.00     0.076 C 
ATOM      6  C7  UNL d   1      -0.506  -4.611  -0.761  0.00  0.00     0.002 A 
ATOM      7  C8  UNL d   1      -0.761  -3.810  -1.875  0.00  0.00     0.006 A 
ENDROOT
BRANCH   1   8
ATOM      8  C1  UNL d   1      -1.361  -1.593  -2.921  0.00  0.00     0.054 C 
ATOM      9  C   UNL d   1      -1.821  -2.403  -4.125  0.00  0.00     0.018 C 
ENDBRANCH   1   8
TORSDOF 1
ENDMDL
