MODEL 1
REMARK minimizedAffinity 18.1641464
REMARK minimizedRMSD -1
REMARK  1 active torsions:
REMARK  status: ('A' for Active; 'I' for Inactive)
REMARK    1  A    between atoms: C1_2  and  C2_3 
ROOT
ATOM      1  C2  UNL d   1      -1.482  -1.304   2.414  0.00  0.00    -0.081 A 
ATOM      2  C3  UNL d   1      -2.423  -0.889   1.464  0.00  0.00     0.006 A 
ATOM      3  C4  UNL d   1      -2.203  -1.116   0.103  0.00  0.00     0.002 A 
ATOM      4  C5  UNL d   1      -1.044  -1.768  -0.329  0.00  0.00    -0.080 A 
ATOM      5  C6  UNL d   1      -0.810  -2.045  -1.785  0.00  0.00     0.076 C 
ATOM      6  C7  UNL d   1      -0.095  -2.167   0.618  0.00  0.00     0.002 A 
ATOM      7  C8  UNL d   1      -0.314  -1.940   1.979  0.00  0.00     0.006 A 
ENDROOT
BRANCH   1   8
ATOM      8  C1  UNL d   1      -1.746  -1.118   3.886  0.00  0.00     0.054 C 
ATOM      9  C   UNL d   1      -1.498  -2.406   4.660  0.00  0.00     0.018 C 
ENDBRANCH   1   8
TORSDOF 1
ENDMDL
