MODEL 1
REMARK minimizedAffinity 19.0217133
REMARK minimizedRMSD -1
REMARK  1 active torsions:
REMARK  status: ('A' for Active; 'I' for Inactive)
REMARK    1  A    between atoms: C1_2  and  C2_3 
ROOT
ATOM      1  C2  UNL d   1       5.093   1.609  -3.919  0.00  0.00    -0.081 A 
ATOM      2  C3  UNL d   1       5.507   0.272  -3.884  0.00  0.00     0.006 A 
ATOM      3  C4  UNL d   1       4.643  -0.725  -3.424  0.00  0.00     0.002 A 
ATOM      4  C5  UNL d   1       3.350  -0.403  -3.000  0.00  0.00    -0.080 A 
ATOM      5  C6  UNL d   1       2.402  -1.467  -2.533  0.00  0.00     0.076 C 
ATOM      6  C7  UNL d   1       2.942   0.935  -3.019  0.00  0.00     0.002 A 
ATOM      7  C8  UNL d   1       3.805   1.933  -3.478  0.00  0.00     0.006 A 
ENDROOT
BRANCH   1   8
ATOM      8  C1  UNL d   1       5.999   2.678  -4.475  0.00  0.00     0.054 C 
ATOM      9  C   UNL d   1       5.977   2.685  -5.997  0.00  0.00     0.018 C 
ENDBRANCH   1   8
TORSDOF 1
ENDMDL
