MODEL 1
REMARK minimizedAffinity 8.9603138
REMARK minimizedRMSD -1
REMARK  1 active torsions:
REMARK  status: ('A' for Active; 'I' for Inactive)
REMARK    1  A    between atoms: C1_2  and  C2_3 
ROOT
ATOM      1  C2  UNL d   1      -3.066  -0.001   5.751  0.00  0.00    -0.081 A 
ATOM      2  C3  UNL d   1      -4.083  -0.937   5.976  0.00  0.00     0.006 A 
ATOM      3  C4  UNL d   1      -3.839  -2.302   5.806  0.00  0.00     0.002 A 
ATOM      4  C5  UNL d   1      -2.574  -2.754   5.418  0.00  0.00    -0.080 A 
ATOM      5  C6  UNL d   1      -2.290  -4.219   5.262  0.00  0.00     0.076 C 
ATOM      6  C7  UNL d   1      -1.562  -1.818   5.176  0.00  0.00     0.002 A 
ATOM      7  C8  UNL d   1      -1.806  -0.453   5.345  0.00  0.00     0.006 A 
ENDROOT
BRANCH   1   8
ATOM      8  C1  UNL d   1      -3.308   1.467   5.996  0.00  0.00     0.054 C 
ATOM      9  C   UNL d   1      -4.795   1.792   5.986  0.00  0.00     0.018 C 
ENDBRANCH   1   8
TORSDOF 1
ENDMDL
