MODEL 1
REMARK minimizedAffinity 10.1023579
REMARK minimizedRMSD -1
REMARK  1 active torsions:
REMARK  status: ('A' for Active; 'I' for Inactive)
REMARK    1  A    between atoms: C1_2  and  C2_3 
ROOT
ATOM      1  C2  UNL d   1      -4.686   5.408  -1.547  0.00  0.00    -0.081 A 
ATOM      2  C3  UNL d   1      -4.019   4.272  -1.072  0.00  0.00     0.006 A 
ATOM      3  C4  UNL d   1      -4.343   3.730   0.174  0.00  0.00     0.002 A 
ATOM      4  C5  UNL d   1      -5.344   4.310   0.961  0.00  0.00    -0.080 A 
ATOM      5  C6  UNL d   1      -5.722   3.721   2.288  0.00  0.00     0.076 C 
ATOM      6  C7  UNL d   1      -5.997   5.455   0.495  0.00  0.00     0.002 A 
ATOM      7  C8  UNL d   1      -5.673   5.998  -0.751  0.00  0.00     0.006 A 
ENDROOT
BRANCH   1   8
ATOM      8  C1  UNL d   1      -4.384   5.957  -2.919  0.00  0.00     0.054 C 
ATOM      9  C   UNL d   1      -5.634   5.998  -3.786  0.00  0.00     0.018 C 
ENDBRANCH   1   8
TORSDOF 1
ENDMDL
