MODEL 1
REMARK minimizedAffinity -6.20964193
REMARK minimizedRMSD -1
REMARK  1 active torsions:
REMARK  status: ('A' for Active; 'I' for Inactive)
REMARK    1  A    between atoms: C1_2  and  C2_3 
ROOT
ATOM      1  C2  UNL d   1       0.929  -3.140   2.647  0.00  0.00    -0.076 A 
ATOM      2  C3  UNL d   1       0.104  -4.254   2.879  0.00  0.00     0.004 A 
ATOM      3  C4  UNL d   1       0.227  -5.008   4.044  0.00  0.00    -0.003 A 
ATOM      4  C5  UNL d   1       1.178  -4.661   4.997  0.00  0.00     0.000 A 
ATOM      5  C6  UNL d   1       1.994  -3.549   4.792  0.00  0.00     0.000 A 
ATOM      6  C7  UNL d   1       1.871  -2.767   3.631  0.00  0.00    -0.073 A 
ATOM      7  C8  UNL d   1       2.781  -1.582   3.458  0.00  0.00     0.078 C 
ENDROOT
BRANCH   1   8
ATOM      8  C1  UNL d   1       0.768  -2.375   1.353  0.00  0.00     0.053 C 
ATOM      9  C   UNL d   1       0.115  -3.209   0.261  0.00  0.00     0.018 C 
ENDBRANCH   1   8
TORSDOF 1
ENDMDL
