MODEL 1
REMARK minimizedAffinity -5.70738173
REMARK minimizedRMSD -1
REMARK  1 active torsions:
REMARK  status: ('A' for Active; 'I' for Inactive)
REMARK    1  A    between atoms: C1_2  and  C2_3 
ROOT
ATOM      1  C2  UNL d   1       1.179  -3.570   4.023  0.00  0.00    -0.076 A 
ATOM      2  C3  UNL d   1       1.710  -2.305   3.717  0.00  0.00     0.004 A 
ATOM      3  C4  UNL d   1       1.573  -1.758   2.443  0.00  0.00    -0.003 A 
ATOM      4  C5  UNL d   1       0.900  -2.467   1.453  0.00  0.00     0.000 A 
ATOM      5  C6  UNL d   1       0.351  -3.715   1.744  0.00  0.00     0.000 A 
ATOM      6  C7  UNL d   1       0.467  -4.274   3.029  0.00  0.00    -0.073 A 
ATOM      7  C8  UNL d   1      -0.140  -5.626   3.285  0.00  0.00     0.078 C 
ENDROOT
BRANCH   1   8
ATOM      8  C1  UNL d   1       1.383  -4.124   5.415  0.00  0.00     0.053 C 
ATOM      9  C   UNL d   1       2.673  -4.919   5.543  0.00  0.00     0.018 C 
ENDBRANCH   1   8
TORSDOF 1
ENDMDL
