MODEL 1
REMARK minimizedAffinity -2.85844851
REMARK minimizedRMSD -1
REMARK  1 active torsions:
REMARK  status: ('A' for Active; 'I' for Inactive)
REMARK    1  A    between atoms: C1_2  and  C2_3 
ROOT
ATOM      1  C2  UNL d   1      -0.143  -5.750  -3.603  0.00  0.00    -0.076 A 
ATOM      2  C3  UNL d   1      -0.661  -5.694  -4.909  0.00  0.00     0.004 A 
ATOM      3  C4  UNL d   1       0.169  -5.442  -6.000  0.00  0.00    -0.003 A 
ATOM      4  C5  UNL d   1       1.531  -5.244  -5.803  0.00  0.00     0.000 A 
ATOM      5  C6  UNL d   1       2.065  -5.314  -4.517  0.00  0.00     0.000 A 
ATOM      6  C7  UNL d   1       1.245  -5.583  -3.408  0.00  0.00    -0.073 A 
ATOM      7  C8  UNL d   1       1.873  -5.641  -2.042  0.00  0.00     0.078 C 
ENDROOT
BRANCH   1   8
ATOM      8  C1  UNL d   1      -1.096  -6.000  -2.456  0.00  0.00     0.053 C 
ATOM      9  C   UNL d   1      -2.554  -5.914  -2.881  0.00  0.00     0.018 C 
ENDBRANCH   1   8
TORSDOF 1
ENDMDL
