MODEL 1
REMARK minimizedAffinity -2.67754436
REMARK minimizedRMSD -1
REMARK  1 active torsions:
REMARK  status: ('A' for Active; 'I' for Inactive)
REMARK    1  A    between atoms: C1_2  and  C2_3 
ROOT
ATOM      1  C2  UNL d   1      -2.381  -5.982  -3.214  0.00  0.00    -0.076 A 
ATOM      2  C3  UNL d   1      -3.777  -5.988  -3.050  0.00  0.00     0.004 A 
ATOM      3  C4  UNL d   1      -4.349  -5.998  -1.779  0.00  0.00    -0.003 A 
ATOM      4  C5  UNL d   1      -3.535  -6.000  -0.652  0.00  0.00     0.000 A 
ATOM      5  C6  UNL d   1      -2.148  -5.976  -0.796  0.00  0.00     0.000 A 
ATOM      6  C7  UNL d   1      -1.555  -5.950  -2.070  0.00  0.00    -0.073 A 
ATOM      7  C8  UNL d   1      -0.054  -5.931  -2.168  0.00  0.00     0.078 C 
ENDROOT
BRANCH   1   8
ATOM      8  C1  UNL d   1      -1.817  -6.000  -4.617  0.00  0.00     0.053 C 
ATOM      9  C   UNL d   1      -0.528  -5.202  -4.737  0.00  0.00     0.018 C 
ENDBRANCH   1   8
TORSDOF 1
ENDMDL
