MODEL 1
REMARK minimizedAffinity -3.92900515
REMARK minimizedRMSD -1
REMARK  1 active torsions:
REMARK  status: ('A' for Active; 'I' for Inactive)
REMARK    1  A    between atoms: C1_2  and  C2_3 
ROOT
ATOM      1  C2  UNL d   1      -0.725  -5.988  -3.761  0.00  0.00    -0.076 A 
ATOM      2  C3  UNL d   1      -0.761  -5.995  -2.355  0.00  0.00     0.004 A 
ATOM      3  C4  UNL d   1      -1.974  -5.971  -1.669  0.00  0.00    -0.003 A 
ATOM      4  C5  UNL d   1      -3.170  -5.940  -2.377  0.00  0.00     0.000 A 
ATOM      5  C6  UNL d   1      -3.153  -5.950  -3.771  0.00  0.00     0.000 A 
ATOM      6  C7  UNL d   1      -1.940  -5.991  -4.479  0.00  0.00    -0.073 A 
ATOM      7  C8  UNL d   1      -1.980  -5.995  -5.982  0.00  0.00     0.078 C 
ENDROOT
BRANCH   1   8
ATOM      8  C1  UNL d   1       0.621  -5.988  -4.450  0.00  0.00     0.053 C 
ATOM      9  C   UNL d   1       0.948  -4.647  -5.089  0.00  0.00     0.018 C 
ENDBRANCH   1   8
TORSDOF 1
ENDMDL
