MODEL 1
REMARK minimizedAffinity -2.13195086
REMARK minimizedRMSD -1
REMARK  1 active torsions:
REMARK  status: ('A' for Active; 'I' for Inactive)
REMARK    1  A    between atoms: C1_2  and  C2_3 
ROOT
ATOM      1  C2  UNL d   1      -1.330  -5.902  -3.083  0.00  0.00    -0.076 A 
ATOM      2  C3  UNL d   1      -1.902  -6.000  -4.363  0.00  0.00     0.004 A 
ATOM      3  C4  UNL d   1      -1.117  -5.892  -5.510  0.00  0.00    -0.003 A 
ATOM      4  C5  UNL d   1       0.253  -5.685  -5.395  0.00  0.00     0.000 A 
ATOM      5  C6  UNL d   1       0.840  -5.603  -4.133  0.00  0.00     0.000 A 
ATOM      6  C7  UNL d   1       0.066  -5.726  -2.967  0.00  0.00    -0.073 A 
ATOM      7  C8  UNL d   1       0.750  -5.624  -1.631  0.00  0.00     0.078 C 
ENDROOT
BRANCH   1   8
ATOM      8  C1  UNL d   1      -2.235  -6.000  -1.876  0.00  0.00     0.053 C 
ATOM      9  C   UNL d   1      -3.709  -5.968  -2.249  0.00  0.00     0.018 C 
ENDBRANCH   1   8
TORSDOF 1
ENDMDL
