MODEL 1
REMARK minimizedAffinity -3.79060364
REMARK minimizedRMSD -1
REMARK  1 active torsions:
REMARK  status: ('A' for Active; 'I' for Inactive)
REMARK    1  A    between atoms: C1_2  and  C2_3 
ROOT
ATOM      1  C2  UNL d   1      -1.714  -5.550  -3.455  0.00  0.00    -0.076 A 
ATOM      2  C3  UNL d   1      -3.033  -5.948  -3.736  0.00  0.00     0.004 A 
ATOM      3  C4  UNL d   1      -3.997  -5.995  -2.730  0.00  0.00    -0.003 A 
ATOM      4  C5  UNL d   1      -3.659  -5.643  -1.428  0.00  0.00     0.000 A 
ATOM      5  C6  UNL d   1      -2.360  -5.228  -1.136  0.00  0.00     0.000 A 
ATOM      6  C7  UNL d   1      -1.380  -5.161  -2.141  0.00  0.00    -0.073 A 
ATOM      7  C8  UNL d   1       0.007  -4.713  -1.768  0.00  0.00     0.078 C 
ENDROOT
BRANCH   1   8
ATOM      8  C1  UNL d   1      -0.705  -5.546  -4.581  0.00  0.00     0.053 C 
ATOM      9  C   UNL d   1      -1.356  -5.399  -5.947  0.00  0.00     0.018 C 
ENDBRANCH   1   8
TORSDOF 1
ENDMDL
