MODEL 1
REMARK minimizedAffinity -1.29554546
REMARK minimizedRMSD -1
REMARK  1 active torsions:
REMARK  status: ('A' for Active; 'I' for Inactive)
REMARK    1  A    between atoms: C1_2  and  C2_3 
ROOT
ATOM      1  C2  UNL d   1      -1.684  -5.981  -2.912  0.00  0.00    -0.076 A 
ATOM      2  C3  UNL d   1      -0.515  -5.958  -3.693  0.00  0.00     0.004 A 
ATOM      3  C4  UNL d   1      -0.582  -5.965  -5.085  0.00  0.00    -0.003 A 
ATOM      4  C5  UNL d   1      -1.819  -5.994  -5.719  0.00  0.00     0.000 A 
ATOM      5  C6  UNL d   1      -2.989  -6.000  -4.961  0.00  0.00     0.000 A 
ATOM      6  C7  UNL d   1      -2.940  -5.977  -3.556  0.00  0.00    -0.073 A 
ATOM      7  C8  UNL d   1      -4.233  -5.990  -2.788  0.00  0.00     0.078 C 
ENDROOT
BRANCH   1   8
ATOM      8  C1  UNL d   1      -1.549  -6.000  -1.406  0.00  0.00     0.053 C 
ATOM      9  C   UNL d   1      -0.340  -5.215  -0.920  0.00  0.00     0.018 C 
ENDBRANCH   1   8
TORSDOF 1
ENDMDL
