MODEL 1
REMARK minimizedAffinity 4.86431646
REMARK minimizedRMSD -1
REMARK  1 active torsions:
REMARK  status: ('A' for Active; 'I' for Inactive)
REMARK    1  A    between atoms: C1_2  and  C2_3 
ROOT
ATOM      1  C2  UNL d   1       0.082  -1.868  -0.132  0.00  0.00    -0.076 A 
ATOM      2  C3  UNL d   1       0.669  -2.180   1.107  0.00  0.00     0.004 A 
ATOM      3  C4  UNL d   1       1.516  -1.276   1.747  0.00  0.00    -0.003 A 
ATOM      4  C5  UNL d   1       1.789  -0.046   1.158  0.00  0.00     0.000 A 
ATOM      5  C6  UNL d   1       1.202   0.287  -0.061  0.00  0.00     0.000 A 
ATOM      6  C7  UNL d   1       0.332  -0.606  -0.712  0.00  0.00    -0.073 A 
ATOM      7  C8  UNL d   1      -0.269  -0.198  -2.029  0.00  0.00     0.078 C 
ENDROOT
BRANCH   1   8
ATOM      8  C1  UNL d   1      -0.807  -2.898  -0.791  0.00  0.00     0.053 C 
ATOM      9  C   UNL d   1      -1.991  -3.289   0.079  0.00  0.00     0.018 C 
ENDBRANCH   1   8
TORSDOF 1
ENDMDL
