MODEL 1
REMARK minimizedAffinity -3.51178026
REMARK minimizedRMSD -1
REMARK  1 active torsions:
REMARK  status: ('A' for Active; 'I' for Inactive)
REMARK    1  A    between atoms: C1_2  and  C2_3 
ROOT
ATOM      1  C2  UNL d   1       2.230  -3.794   4.801  0.00  0.00    -0.076 A 
ATOM      2  C3  UNL d   1       2.918  -2.650   4.360  0.00  0.00     0.004 A 
ATOM      3  C4  UNL d   1       2.482  -1.936   3.246  0.00  0.00    -0.003 A 
ATOM      4  C5  UNL d   1       1.350  -2.353   2.555  0.00  0.00     0.000 A 
ATOM      5  C6  UNL d   1       0.644  -3.474   2.989  0.00  0.00     0.000 A 
ATOM      6  C7  UNL d   1       1.061  -4.197   4.120  0.00  0.00    -0.073 A 
ATOM      7  C8  UNL d   1       0.266  -5.402   4.541  0.00  0.00     0.078 C 
ENDROOT
BRANCH   1   8
ATOM      8  C1  UNL d   1       2.766  -4.544   6.000  0.00  0.00     0.053 C 
ATOM      9  C   UNL d   1       3.508  -5.813   5.609  0.00  0.00     0.018 C 
ENDBRANCH   1   8
TORSDOF 1
ENDMDL
