MODEL 1
REMARK minimizedAffinity -2.80959511
REMARK minimizedRMSD -1
REMARK  1 active torsions:
REMARK  status: ('A' for Active; 'I' for Inactive)
REMARK    1  A    between atoms: C1_2  and  C2_3 
ROOT
ATOM      1  C2  UNL d   1       1.798  -3.589   3.613  0.00  0.00    -0.076 A 
ATOM      2  C3  UNL d   1       2.382  -4.653   2.905  0.00  0.00     0.004 A 
ATOM      3  C4  UNL d   1       2.707  -5.848   3.544  0.00  0.00    -0.003 A 
ATOM      4  C5  UNL d   1       2.452  -5.999   4.903  0.00  0.00     0.000 A 
ATOM      5  C6  UNL d   1       1.856  -4.961   5.617  0.00  0.00     0.000 A 
ATOM      6  C7  UNL d   1       1.507  -3.755   4.984  0.00  0.00    -0.073 A 
ATOM      7  C8  UNL d   1       0.872  -2.666   5.805  0.00  0.00     0.078 C 
ENDROOT
BRANCH   1   8
ATOM      8  C1  UNL d   1       1.492  -2.307   2.873  0.00  0.00     0.053 C 
ATOM      9  C   UNL d   1       2.608  -1.281   2.999  0.00  0.00     0.018 C 
ENDBRANCH   1   8
TORSDOF 1
ENDMDL
