MODEL 1
REMARK minimizedAffinity 11.8910685
REMARK minimizedRMSD -1
REMARK  1 active torsions:
REMARK  status: ('A' for Active; 'I' for Inactive)
REMARK    1  A    between atoms: C1_2  and  C2_3 
ROOT
ATOM      1  C2  UNL d   1      -4.078  -0.778  -0.773  0.00  0.00    -0.076 A 
ATOM      2  C3  UNL d   1      -3.733  -0.443  -2.094  0.00  0.00     0.004 A 
ATOM      3  C4  UNL d   1      -4.510   0.446  -2.835  0.00  0.00    -0.003 A 
ATOM      4  C5  UNL d   1      -5.645   1.014  -2.267  0.00  0.00     0.000 A 
ATOM      5  C6  UNL d   1      -5.992   0.707  -0.952  0.00  0.00     0.000 A 
ATOM      6  C7  UNL d   1      -5.211  -0.175  -0.186  0.00  0.00    -0.073 A 
ATOM      7  C8  UNL d   1      -5.636  -0.476   1.226  0.00  0.00     0.078 C 
ENDROOT
BRANCH   1   8
ATOM      8  C1  UNL d   1      -3.213  -1.769  -0.028  0.00  0.00     0.053 C 
ATOM      9  C   UNL d   1      -1.750  -1.357   0.004  0.00  0.00     0.018 C 
ENDBRANCH   1   8
TORSDOF 1
ENDMDL
