MODEL 1
REMARK minimizedAffinity 0.749252081
REMARK minimizedRMSD -1
REMARK  1 active torsions:
REMARK  status: ('A' for Active; 'I' for Inactive)
REMARK    1  A    between atoms: C1_2  and  C2_3 
ROOT
ATOM      1  C2  UNL d   1      -4.182   0.503  -2.101  0.00  0.00    -0.076 A 
ATOM      2  C3  UNL d   1      -4.311   1.338  -0.977  0.00  0.00     0.004 A 
ATOM      3  C4  UNL d   1      -4.728   0.828   0.251  0.00  0.00    -0.003 A 
ATOM      4  C5  UNL d   1      -5.024  -0.525   0.376  0.00  0.00     0.000 A 
ATOM      5  C6  UNL d   1      -4.884  -1.371  -0.724  0.00  0.00     0.000 A 
ATOM      6  C7  UNL d   1      -4.449  -0.876  -1.965  0.00  0.00    -0.073 A 
ATOM      7  C8  UNL d   1      -4.322  -1.833  -3.119  0.00  0.00     0.078 C 
ENDROOT
BRANCH   1   8
ATOM      8  C1  UNL d   1      -3.751   1.117  -3.413  0.00  0.00     0.053 C 
ATOM      9  C   UNL d   1      -2.399   1.807  -3.318  0.00  0.00     0.018 C 
ENDBRANCH   1   8
TORSDOF 1
ENDMDL
