MODEL 1
REMARK minimizedAffinity 5.62323999
REMARK minimizedRMSD -1
REMARK  1 active torsions:
REMARK  status: ('A' for Active; 'I' for Inactive)
REMARK    1  A    between atoms: C1_2  and  C2_3 
ROOT
ATOM      1  C2  UNL d   1       0.885  -4.794  -3.838  0.00  0.00    -0.076 A 
ATOM      2  C3  UNL d   1      -0.513  -4.919  -3.774  0.00  0.00     0.004 A 
ATOM      3  C4  UNL d   1      -1.229  -5.516  -4.810  0.00  0.00    -0.003 A 
ATOM      4  C5  UNL d   1      -0.557  -6.000  -5.927  0.00  0.00     0.000 A 
ATOM      5  C6  UNL d   1       0.832  -5.900  -6.000  0.00  0.00     0.000 A 
ATOM      6  C7  UNL d   1       1.570  -5.315  -4.957  0.00  0.00    -0.073 A 
ATOM      7  C8  UNL d   1       3.066  -5.229  -5.091  0.00  0.00     0.078 C 
ENDROOT
BRANCH   1   8
ATOM      8  C1  UNL d   1       1.605  -4.112  -2.697  0.00  0.00     0.053 C 
ATOM      9  C   UNL d   1       0.652  -3.399  -1.750  0.00  0.00     0.018 C 
ENDBRANCH   1   8
TORSDOF 1
ENDMDL
