MODEL 1
REMARK minimizedAffinity 1.49745345
REMARK minimizedRMSD -1
REMARK  1 active torsions:
REMARK  status: ('A' for Active; 'I' for Inactive)
REMARK    1  A    between atoms: N_2  and  C1_3 
ROOT
ATOM      1  C1  UNL d   1      -1.231  -1.974   1.051  0.00  0.00     0.143 A 
ATOM      2  C2  UNL d   1      -0.225  -1.177   0.493  0.00  0.00    -0.057 A 
ATOM      3  C3  UNL d   1       0.196  -1.360  -0.830  0.00  0.00     0.033 A 
ATOM      4  C4  UNL d   1      -0.363  -2.365  -1.611  0.00  0.00    -0.042 A 
ATOM      5  C5  UNL d   1      -1.346  -3.186  -1.070  0.00  0.00     0.033 A 
ATOM      6  C6  UNL d   1      -1.767  -2.994   0.249  0.00  0.00    -0.057 A 
ENDROOT
BRANCH   1   7
ATOM      7  N   UNL d   1      -1.624  -1.907   2.390  0.00  0.00    -0.732 N 
ATOM      8  C   UNL d   1      -1.974  -3.108   3.117  0.00  0.00     0.284 C 
ATOM      9  H3  UNL d   1      -1.067  -1.244   2.925  0.00  0.00     0.395 HD
ENDBRANCH   1   7
TORSDOF 1
ENDMDL
