MODEL 1
REMARK minimizedAffinity 12.8492451
REMARK minimizedRMSD -1
REMARK  1 active torsions:
REMARK  status: ('A' for Active; 'I' for Inactive)
REMARK    1  A    between atoms: N_2  and  C1_3 
ROOT
ATOM      1  C1  UNL d   1      -2.035  -3.943  -1.752  0.00  0.00     0.143 A 
ATOM      2  C2  UNL d   1      -0.979  -3.152  -2.216  0.00  0.00    -0.057 A 
ATOM      3  C3  UNL d   1      -0.167  -2.433  -1.331  0.00  0.00     0.033 A 
ATOM      4  C4  UNL d   1      -0.416  -2.470   0.037  0.00  0.00    -0.042 A 
ATOM      5  C5  UNL d   1      -1.476  -3.229   0.519  0.00  0.00     0.033 A 
ATOM      6  C6  UNL d   1      -2.279  -3.951  -0.370  0.00  0.00    -0.057 A 
ENDROOT
BRANCH   1   7
ATOM      7  N   UNL d   1      -2.939  -4.603  -2.589  0.00  0.00    -0.732 N 
ATOM      8  C   UNL d   1      -3.511  -5.873  -2.200  0.00  0.00     0.284 C 
ATOM      9  H3  UNL d   1      -3.600  -3.965  -3.026  0.00  0.00     0.395 HD
ENDBRANCH   1   7
TORSDOF 1
ENDMDL
