MODEL 1
REMARK minimizedAffinity 7.51311207
REMARK minimizedRMSD -1
REMARK  1 active torsions:
REMARK  status: ('A' for Active; 'I' for Inactive)
REMARK    1  A    between atoms: N_2  and  C1_3 
ROOT
ATOM      1  C1  UNL d   1       3.193   2.595   0.543  0.00  0.00     0.143 A 
ATOM      2  C2  UNL d   1       3.247   1.495   1.406  0.00  0.00    -0.057 A 
ATOM      3  C3  UNL d   1       2.151   0.637   1.557  0.00  0.00     0.033 A 
ATOM      4  C4  UNL d   1       0.968   0.882   0.867  0.00  0.00    -0.042 A 
ATOM      5  C5  UNL d   1       0.883   1.984   0.024  0.00  0.00     0.033 A 
ATOM      6  C6  UNL d   1       1.984   2.833  -0.128  0.00  0.00    -0.057 A 
ENDROOT
BRANCH   1   7
ATOM      7  N   UNL d   1       4.215   3.541   0.425  0.00  0.00    -0.732 N 
ATOM      8  C   UNL d   1       4.748   4.200   1.598  0.00  0.00     0.284 C 
ATOM      9  H3  UNL d   1       4.920   3.267  -0.255  0.00  0.00     0.395 HD
ENDBRANCH   1   7
TORSDOF 1
ENDMDL
