MODEL 1
REMARK minimizedAffinity 3.0939424
REMARK minimizedRMSD -1
REMARK  1 active torsions:
REMARK  status: ('A' for Active; 'I' for Inactive)
REMARK    1  A    between atoms: N_2  and  C1_3 
ROOT
ATOM      1  C1  UNL d   1       5.009   1.699  -5.893  0.00  0.00     0.143 A 
ATOM      2  C2  UNL d   1       3.674   2.119  -5.920  0.00  0.00    -0.057 A 
ATOM      3  C3  UNL d   1       3.342   3.477  -5.988  0.00  0.00     0.033 A 
ATOM      4  C4  UNL d   1       4.342   4.444  -6.000  0.00  0.00    -0.042 A 
ATOM      5  C5  UNL d   1       5.674   4.051  -5.948  0.00  0.00     0.033 A 
ATOM      6  C6  UNL d   1       6.000   2.693  -5.887  0.00  0.00    -0.057 A 
ENDROOT
BRANCH   1   7
ATOM      7  N   UNL d   1       5.402   0.369  -5.727  0.00  0.00    -0.732 N 
ATOM      8  C   UNL d   1       5.201  -0.307  -4.463  0.00  0.00     0.284 C 
ATOM      9  H3  UNL d   1       5.193  -0.203  -6.542  0.00  0.00     0.395 HD
ENDBRANCH   1   7
TORSDOF 1
ENDMDL
