MODEL 1
REMARK minimizedAffinity 12.8593893
REMARK minimizedRMSD -1
REMARK  1 active torsions:
REMARK  status: ('A' for Active; 'I' for Inactive)
REMARK    1  A    between atoms: N_2  and  C1_3 
ROOT
ATOM      1  C1  UNL d   1      -0.894  -2.555   0.009  0.00  0.00     0.143 A 
ATOM      2  C2  UNL d   1      -0.259  -2.444  -1.233  0.00  0.00    -0.057 A 
ATOM      3  C3  UNL d   1      -0.659  -3.222  -2.326  0.00  0.00     0.033 A 
ATOM      4  C4  UNL d   1      -1.687  -4.149  -2.188  0.00  0.00    -0.042 A 
ATOM      5  C5  UNL d   1      -2.317  -4.294  -0.956  0.00  0.00     0.033 A 
ATOM      6  C6  UNL d   1      -1.917  -3.509   0.129  0.00  0.00    -0.057 A 
ENDROOT
BRANCH   1   7
ATOM      7  N   UNL d   1      -0.477  -1.880   1.159  0.00  0.00    -0.732 N 
ATOM      8  C   UNL d   1       0.731  -1.084   1.149  0.00  0.00     0.284 C 
ATOM      9  H3  UNL d   1      -1.252  -1.454   1.661  0.00  0.00     0.395 HD
ENDBRANCH   1   7
TORSDOF 1
ENDMDL
