MODEL 1
REMARK minimizedAffinity 7.33164597
REMARK minimizedRMSD -1
REMARK  1 active torsions:
REMARK  status: ('A' for Active; 'I' for Inactive)
REMARK    1  A    between atoms: N_2  and  C1_3 
ROOT
ATOM      1  C1  UNL d   1       0.567   2.417   1.156  0.00  0.00     0.143 A 
ATOM      2  C2  UNL d   1       1.203   3.037   0.076  0.00  0.00    -0.057 A 
ATOM      3  C3  UNL d   1       0.499   3.873  -0.799  0.00  0.00     0.033 A 
ATOM      4  C4  UNL d   1      -0.866   4.080  -0.626  0.00  0.00    -0.042 A 
ATOM      5  C5  UNL d   1      -1.524   3.453   0.426  0.00  0.00     0.033 A 
ATOM      6  C6  UNL d   1      -0.814   2.625   1.301  0.00  0.00    -0.057 A 
ENDROOT
BRANCH   1   7
ATOM      7  N   UNL d   1       1.191   1.497   2.003  0.00  0.00    -0.732 N 
ATOM      8  C   UNL d   1       2.609   1.232   1.886  0.00  0.00     0.284 C 
ATOM      9  H3  UNL d   1       0.858   1.565   2.962  0.00  0.00     0.395 HD
ENDBRANCH   1   7
TORSDOF 1
ENDMDL
