MODEL 1
REMARK minimizedAffinity 7.89021587
REMARK minimizedRMSD -1
REMARK  1 active torsions:
REMARK  status: ('A' for Active; 'I' for Inactive)
REMARK    1  A    between atoms: N_2  and  C1_3 
ROOT
ATOM      1  C1  UNL d   1      -0.448  -0.203   1.421  0.00  0.00     0.143 A 
ATOM      2  C2  UNL d   1       0.484   0.436   0.596  0.00  0.00    -0.057 A 
ATOM      3  C3  UNL d   1       0.659   1.825   0.638  0.00  0.00     0.033 A 
ATOM      4  C4  UNL d   1      -0.118   2.604   1.488  0.00  0.00    -0.042 A 
ATOM      5  C5  UNL d   1      -1.068   1.993   2.299  0.00  0.00     0.033 A 
ATOM      6  C6  UNL d   1      -1.233   0.606   2.257  0.00  0.00    -0.057 A 
ENDROOT
BRANCH   1   7
ATOM      7  N   UNL d   1      -0.738  -1.568   1.355  0.00  0.00    -0.732 N 
ATOM      8  C   UNL d   1      -1.387  -2.238   2.461  0.00  0.00     0.284 C 
ATOM      9  H3  UNL d   1      -1.083  -1.848   0.439  0.00  0.00     0.395 HD
ENDBRANCH   1   7
TORSDOF 1
ENDMDL
