MODEL 1
REMARK minimizedAffinity 9.91647816
REMARK minimizedRMSD -1
REMARK  1 active torsions:
REMARK  status: ('A' for Active; 'I' for Inactive)
REMARK    1  A    between atoms: N_2  and  C1_3 
ROOT
ATOM      1  C1  UNL d   1       1.278   1.000   1.485  0.00  0.00     0.143 A 
ATOM      2  C2  UNL d   1       1.913   1.662   2.541  0.00  0.00    -0.057 A 
ATOM      3  C3  UNL d   1       2.451   2.944   2.376  0.00  0.00     0.033 A 
ATOM      4  C4  UNL d   1       2.391   3.576   1.138  0.00  0.00    -0.042 A 
ATOM      5  C5  UNL d   1       1.787   2.926   0.067  0.00  0.00     0.033 A 
ATOM      6  C6  UNL d   1       1.245   1.649   0.241  0.00  0.00    -0.057 A 
ENDROOT
BRANCH   1   7
ATOM      7  N   UNL d   1       0.811  -0.315   1.560  0.00  0.00    -0.732 N 
ATOM      8  C   UNL d   1       1.736  -1.427   1.569  0.00  0.00     0.284 C 
ATOM      9  H3  UNL d   1       0.034  -0.414   2.210  0.00  0.00     0.395 HD
ENDBRANCH   1   7
TORSDOF 1
ENDMDL
