MODEL 1
REMARK minimizedAffinity 7.42560339
REMARK minimizedRMSD -1
REMARK  1 active torsions:
REMARK  status: ('A' for Active; 'I' for Inactive)
REMARK    1  A    between atoms: N_2  and  C1_3 
ROOT
ATOM      1  C1  UNL d   1      -0.635   0.568   1.309  0.00  0.00     0.143 A 
ATOM      2  C2  UNL d   1      -1.758   0.237   2.075  0.00  0.00    -0.057 A 
ATOM      3  C3  UNL d   1      -2.410  -0.991   1.915  0.00  0.00     0.033 A 
ATOM      4  C4  UNL d   1      -1.967  -1.902   0.961  0.00  0.00    -0.042 A 
ATOM      5  C5  UNL d   1      -0.868  -1.584   0.171  0.00  0.00     0.033 A 
ATOM      6  C6  UNL d   1      -0.217  -0.358   0.341  0.00  0.00    -0.057 A 
ENDROOT
BRANCH   1   7
ATOM      7  N   UNL d   1      -0.003   1.813   1.353  0.00  0.00    -0.732 N 
ATOM      8  C   UNL d   1       1.324   1.947   1.916  0.00  0.00     0.284 C 
ATOM      9  H3  UNL d   1      -0.151   2.354   0.504  0.00  0.00     0.395 HD
ENDBRANCH   1   7
TORSDOF 1
ENDMDL
