MODEL 1
REMARK minimizedAffinity 2.1170032
REMARK minimizedRMSD -1
REMARK  1 active torsions:
REMARK  status: ('A' for Active; 'I' for Inactive)
REMARK    1  A    between atoms: N_2  and  C1_3 
ROOT
ATOM      1  C1  UNL d   1       3.022   1.861   2.111  0.00  0.00     0.143 A 
ATOM      2  C2  UNL d   1       3.274   2.631   0.970  0.00  0.00    -0.057 A 
ATOM      3  C3  UNL d   1       4.275   3.610   0.961  0.00  0.00     0.033 A 
ATOM      4  C4  UNL d   1       5.025   3.857   2.107  0.00  0.00    -0.042 A 
ATOM      5  C5  UNL d   1       4.775   3.121   3.260  0.00  0.00     0.033 A 
ATOM      6  C6  UNL d   1       3.778   2.140   3.260  0.00  0.00    -0.057 A 
ENDROOT
BRANCH   1   7
ATOM      7  N   UNL d   1       1.976   0.941   2.213  0.00  0.00    -0.732 N 
ATOM      8  C   UNL d   1       0.632   1.306   1.818  0.00  0.00     0.284 C 
ATOM      9  H3  UNL d   1       2.253   0.004   1.929  0.00  0.00     0.395 HD
ENDBRANCH   1   7
TORSDOF 1
ENDMDL
