MODEL 1
REMARK minimizedAffinity 12.1637106
REMARK minimizedRMSD -1
REMARK  0 active torsions:
REMARK  status: ('A' for Active; 'I' for Inactive)
ROOT
ATOM      1  C   UNL d   1       3.324   2.025   1.741  0.00  0.00     0.124 A 
ATOM      2  C1  UNL d   1       2.624   2.240   2.920  0.00  0.00     0.062 A 
ATOM      3  C2  UNL d   1       2.041   1.169   3.592  0.00  0.00     0.162 A 
ATOM      4  C3  UNL d   1       2.156  -0.126   3.088  0.00  0.00    -0.034 A 
ATOM      5  C4  UNL d   1       2.862  -0.333   1.901  0.00  0.00     0.162 A 
ATOM      6  C5  UNL d   1       3.442   0.740   1.233  0.00  0.00     0.062 A 
ATOM      7  F   UNL d   1       4.119   0.531   0.093  0.00  0.00    -0.097 F 
ATOM      8  F1  UNL d   1       2.992  -1.566   1.388  0.00  0.00    -0.096 F 
ATOM      9  I   UNL d   1       1.286  -1.729   4.090  0.00  0.00    -0.060 I 
ATOM     10  F2  UNL d   1       1.370   1.406   4.729  0.00  0.00    -0.096 F 
ATOM     11  F3  UNL d   1       2.507   3.481   3.413  0.00  0.00    -0.097 F 
ATOM     12  F4  UNL d   1       3.883   3.057   1.096  0.00  0.00    -0.092 F 
ENDROOT
TORSDOF 0
ENDMDL
