MODEL 1
REMARK minimizedAffinity 1.3462615
REMARK minimizedRMSD -1
REMARK  0 active torsions:
REMARK  status: ('A' for Active; 'I' for Inactive)
ROOT
ATOM      1  C   UNL d   1       1.446  -2.047   3.732  0.00  0.00     0.124 A 
ATOM      2  C1  UNL d   1       0.723  -2.201   2.557  0.00  0.00     0.062 A 
ATOM      3  C2  UNL d   1       0.613  -1.143   1.659  0.00  0.00     0.162 A 
ATOM      4  C3  UNL d   1       1.230   0.078   1.932  0.00  0.00    -0.034 A 
ATOM      5  C4  UNL d   1       1.954   0.226   3.116  0.00  0.00     0.162 A 
ATOM      6  C5  UNL d   1       2.061  -0.835   4.010  0.00  0.00     0.062 A 
ATOM      7  F   UNL d   1       2.760  -0.685   5.145  0.00  0.00    -0.097 F 
ATOM      8  F1  UNL d   1       2.560   1.386   3.409  0.00  0.00    -0.096 F 
ATOM      9  I   UNL d   1       1.069   1.663   0.592  0.00  0.00    -0.060 I 
ATOM     10  F2  UNL d   1      -0.092  -1.319   0.532  0.00  0.00    -0.096 F 
ATOM     11  F3  UNL d   1       0.126  -3.371   2.286  0.00  0.00    -0.097 F 
ATOM     12  F4  UNL d   1       1.548  -3.066   4.595  0.00  0.00    -0.092 F 
ENDROOT
TORSDOF 0
ENDMDL
