MODEL 1
REMARK minimizedAffinity 1.18970394
REMARK minimizedRMSD -1
REMARK  0 active torsions:
REMARK  status: ('A' for Active; 'I' for Inactive)
ROOT
ATOM      1  C   UNL d   1       2.059  -0.532   3.295  0.00  0.00     0.124 A 
ATOM      2  C1  UNL d   1       1.178  -1.253   2.501  0.00  0.00     0.062 A 
ATOM      3  C2  UNL d   1       0.755  -0.737   1.279  0.00  0.00     0.162 A 
ATOM      4  C3  UNL d   1       1.213   0.506   0.843  0.00  0.00    -0.034 A 
ATOM      5  C4  UNL d   1       2.097   1.226   1.649  0.00  0.00     0.162 A 
ATOM      6  C5  UNL d   1       2.517   0.707   2.869  0.00  0.00     0.062 A 
ATOM      7  F   UNL d   1       3.368   1.405   3.635  0.00  0.00    -0.097 F 
ATOM      8  F1  UNL d   1       2.557   2.425   1.260  0.00  0.00    -0.096 F 
ATOM      9  I   UNL d   1       0.582   1.280  -0.983  0.00  0.00    -0.060 I 
ATOM     10  F2  UNL d   1      -0.096  -1.456   0.532  0.00  0.00    -0.096 F 
ATOM     11  F3  UNL d   1       0.733  -2.449   2.911  0.00  0.00    -0.097 F 
ATOM     12  F4  UNL d   1       2.463  -1.029   4.471  0.00  0.00    -0.092 F 
ENDROOT
TORSDOF 0
ENDMDL
