MODEL 1
REMARK minimizedAffinity 6.02653933
REMARK minimizedRMSD -1
REMARK  0 active torsions:
REMARK  status: ('A' for Active; 'I' for Inactive)
ROOT
ATOM      1  C   UNL d   1       0.307  -3.930  -0.670  0.00  0.00     0.124 A 
ATOM      2  C1  UNL d   1       0.915  -4.738   0.280  0.00  0.00     0.062 A 
ATOM      3  C2  UNL d   1       1.184  -4.242   1.553  0.00  0.00     0.162 A 
ATOM      4  C3  UNL d   1       0.843  -2.930   1.883  0.00  0.00    -0.034 A 
ATOM      5  C4  UNL d   1       0.232  -2.123   0.922  0.00  0.00     0.162 A 
ATOM      6  C5  UNL d   1      -0.034  -2.623  -0.349  0.00  0.00     0.062 A 
ATOM      7  F   UNL d   1      -0.622  -1.841  -1.266  0.00  0.00    -0.097 F 
ATOM      8  F1  UNL d   1      -0.109  -0.857   1.206  0.00  0.00    -0.096 F 
ATOM      9  I   UNL d   1       1.243  -2.185   3.785  0.00  0.00    -0.060 I 
ATOM     10  F2  UNL d   1       1.773  -5.045   2.451  0.00  0.00    -0.096 F 
ATOM     11  F3  UNL d   1       1.247  -6.000  -0.028  0.00  0.00    -0.097 F 
ATOM     12  F4  UNL d   1       0.051  -4.409  -1.894  0.00  0.00    -0.092 F 
ENDROOT
TORSDOF 0
ENDMDL
