MODEL 1
REMARK minimizedAffinity 7.92582893
REMARK minimizedRMSD -1
REMARK  0 active torsions:
REMARK  status: ('A' for Active; 'I' for Inactive)
ROOT
ATOM      1  C   UNL d   1       1.209  -1.179   2.431  0.00  0.00     0.124 A 
ATOM      2  C1  UNL d   1       1.494  -0.784   3.731  0.00  0.00     0.062 A 
ATOM      3  C2  UNL d   1       1.563  -1.729   4.750  0.00  0.00     0.162 A 
ATOM      4  C3  UNL d   1       1.346  -3.079   4.474  0.00  0.00    -0.034 A 
ATOM      5  C4  UNL d   1       1.058  -3.468   3.165  0.00  0.00     0.162 A 
ATOM      6  C5  UNL d   1       0.991  -2.520   2.149  0.00  0.00     0.062 A 
ATOM      7  F   UNL d   1       0.715  -2.903   0.894  0.00  0.00    -0.097 F 
ATOM      8  F1  UNL d   1       0.844  -4.758   2.864  0.00  0.00    -0.096 F 
ATOM      9  I   UNL d   1       1.447  -4.495   5.996  0.00  0.00    -0.060 I 
ATOM     10  F2  UNL d   1       1.840  -1.319   5.997  0.00  0.00    -0.096 F 
ATOM     11  F3  UNL d   1       1.704   0.511   4.006  0.00  0.00    -0.097 F 
ATOM     12  F4  UNL d   1       1.143  -0.267   1.452  0.00  0.00    -0.092 F 
ENDROOT
TORSDOF 0
ENDMDL
