MODEL 1
REMARK minimizedAffinity 9.04045486
REMARK minimizedRMSD -1
REMARK  0 active torsions:
REMARK  status: ('A' for Active; 'I' for Inactive)
ROOT
ATOM      1  C   UNL d   1       0.584  -4.027  -0.360  0.00  0.00     0.124 A 
ATOM      2  C1  UNL d   1      -0.247  -3.406  -1.282  0.00  0.00     0.062 A 
ATOM      3  C2  UNL d   1      -0.749  -2.134  -1.026  0.00  0.00     0.162 A 
ATOM      4  C3  UNL d   1      -0.421  -1.473   0.158  0.00  0.00    -0.034 A 
ATOM      5  C4  UNL d   1       0.414  -2.104   1.081  0.00  0.00     0.162 A 
ATOM      6  C5  UNL d   1       0.914  -3.376   0.820  0.00  0.00     0.062 A 
ATOM      7  F   UNL d   1       1.717  -3.974   1.712  0.00  0.00    -0.097 F 
ATOM      8  F1  UNL d   1       0.750  -1.497   2.229  0.00  0.00    -0.096 F 
ATOM      9  I   UNL d   1      -1.170   0.430   0.544  0.00  0.00    -0.060 I 
ATOM     10  F2  UNL d   1      -1.550  -1.558  -1.935  0.00  0.00    -0.096 F 
ATOM     11  F3  UNL d   1      -0.568  -4.034  -2.423  0.00  0.00    -0.097 F 
ATOM     12  F4  UNL d   1       1.065  -5.252  -0.609  0.00  0.00    -0.092 F 
ENDROOT
TORSDOF 0
ENDMDL
