MODEL 1
REMARK minimizedAffinity 1.52387249
REMARK minimizedRMSD -1
REMARK  0 active torsions:
REMARK  status: ('A' for Active; 'I' for Inactive)
ROOT
ATOM      1  C   UNL d   1       1.350   0.499   1.218  0.00  0.00     0.124 A 
ATOM      2  C1  UNL d   1       0.911  -0.757   1.613  0.00  0.00     0.062 A 
ATOM      3  C2  UNL d   1       1.438  -1.356   2.753  0.00  0.00     0.162 A 
ATOM      4  C3  UNL d   1       2.410  -0.699   3.508  0.00  0.00    -0.034 A 
ATOM      5  C4  UNL d   1       2.846   0.564   3.104  0.00  0.00     0.162 A 
ATOM      6  C5  UNL d   1       2.317   1.158   1.964  0.00  0.00     0.062 A 
ATOM      7  F   UNL d   1       2.742   2.372   1.584  0.00  0.00    -0.097 F 
ATOM      8  F1  UNL d   1       3.779   1.224   3.807  0.00  0.00    -0.096 F 
ATOM      9  I   UNL d   1       3.200  -1.591   5.214  0.00  0.00    -0.060 I 
ATOM     10  F2  UNL d   1       0.996  -2.571   3.111  0.00  0.00    -0.096 F 
ATOM     11  F3  UNL d   1      -0.022  -1.397   0.893  0.00  0.00    -0.097 F 
ATOM     12  F4  UNL d   1       0.841   1.072   0.119  0.00  0.00    -0.092 F 
ENDROOT
TORSDOF 0
ENDMDL
