MODEL 1
REMARK minimizedAffinity 2.75285912
REMARK minimizedRMSD -1
REMARK  0 active torsions:
REMARK  status: ('A' for Active; 'I' for Inactive)
ROOT
ATOM      1  C   UNL d   1       1.424  -2.204   3.927  0.00  0.00     0.124 A 
ATOM      2  C1  UNL d   1       0.812  -2.343   2.688  0.00  0.00     0.062 A 
ATOM      3  C2  UNL d   1       0.879  -1.312   1.756  0.00  0.00     0.162 A 
ATOM      4  C3  UNL d   1       1.561  -0.133   2.057  0.00  0.00    -0.034 A 
ATOM      5  C4  UNL d   1       2.173  -0.001   3.305  0.00  0.00     0.162 A 
ATOM      6  C5  UNL d   1       2.103  -1.034   4.234  0.00  0.00     0.062 A 
ATOM      7  F   UNL d   1       2.694  -0.898   5.430  0.00  0.00    -0.097 F 
ATOM      8  F1  UNL d   1       2.837   1.119   3.628  0.00  0.00    -0.096 F 
ATOM      9  I   UNL d   1       1.664   1.411   0.665  0.00  0.00    -0.060 I 
ATOM     10  F2  UNL d   1       0.279  -1.473   0.567  0.00  0.00    -0.096 F 
ATOM     11  F3  UNL d   1       0.155  -3.472   2.389  0.00  0.00    -0.097 F 
ATOM     12  F4  UNL d   1       1.357  -3.197   4.823  0.00  0.00    -0.092 F 
ENDROOT
TORSDOF 0
ENDMDL
