MODEL 1
REMARK minimizedAffinity 5.64726925
REMARK minimizedRMSD -1
REMARK  0 active torsions:
REMARK  status: ('A' for Active; 'I' for Inactive)
ROOT
ATOM      1  C   UNL d   1      -0.490  -1.019   3.480  0.00  0.00     0.172 C 
ATOM      2  N   UNL d   1      -1.294  -0.483   2.406  0.00  0.00    -0.070 N 
ATOM      3  C1  UNL d   1      -2.601  -0.088   2.508  0.00  0.00    -0.004 A 
ATOM      4  C2  UNL d   1      -3.003   0.362   1.269  0.00  0.00    -0.047 A 
ATOM      5  C3  UNL d   1      -1.900   0.232   0.392  0.00  0.00    -0.047 A 
ATOM      6  C4  UNL d   1      -0.855  -0.294   1.123  0.00  0.00    -0.004 A 
ENDROOT
TORSDOF 0
ENDMDL
