MODEL 1
REMARK minimizedAffinity 1.71690643
REMARK minimizedRMSD -1
REMARK  0 active torsions:
REMARK  status: ('A' for Active; 'I' for Inactive)
ROOT
ATOM      1  C   UNL d   1       0.711  -0.031   0.946  0.00  0.00     0.172 C 
ATOM      2  N   UNL d   1      -0.720   0.088   0.790  0.00  0.00    -0.070 N 
ATOM      3  C1  UNL d   1      -1.420  -0.155  -0.362  0.00  0.00    -0.004 A 
ATOM      4  C2  UNL d   1      -2.754   0.071  -0.100  0.00  0.00    -0.047 A 
ATOM      5  C3  UNL d   1      -2.859   0.464   1.256  0.00  0.00    -0.047 A 
ATOM      6  C4  UNL d   1      -1.585   0.467   1.782  0.00  0.00    -0.004 A 
ENDROOT
TORSDOF 0
ENDMDL
