MODEL 1
REMARK minimizedAffinity 3.81114388
REMARK minimizedRMSD -1
REMARK  0 active torsions:
REMARK  status: ('A' for Active; 'I' for Inactive)
ROOT
ATOM      1  C   UNL d   1      -1.344   6.000  -0.131  0.00  0.00     0.172 C 
ATOM      2  N   UNL d   1       0.076   5.765  -0.010  0.00  0.00    -0.070 N 
ATOM      3  C1  UNL d   1       1.009   6.000  -0.984  0.00  0.00    -0.004 A 
ATOM      4  C2  UNL d   1       2.243   5.649  -0.480  0.00  0.00    -0.047 A 
ATOM      5  C3  UNL d   1       2.044   5.186   0.842  0.00  0.00    -0.047 A 
ATOM      6  C4  UNL d   1       0.693   5.269   1.107  0.00  0.00    -0.004 A 
ENDROOT
TORSDOF 0
ENDMDL
