MODEL 1
REMARK minimizedAffinity 4.27888489
REMARK minimizedRMSD -1
REMARK  0 active torsions:
REMARK  status: ('A' for Active; 'I' for Inactive)
ROOT
ATOM      1  C   UNL d   1      -0.142  -1.613   3.797  0.00  0.00     0.172 C 
ATOM      2  N   UNL d   1      -0.937  -0.764   2.940  0.00  0.00    -0.070 N 
ATOM      3  C1  UNL d   1      -2.217  -0.348   3.193  0.00  0.00    -0.004 A 
ATOM      4  C2  UNL d   1      -2.619   0.443   2.140  0.00  0.00    -0.047 A 
ATOM      5  C3  UNL d   1      -1.545   0.505   1.221  0.00  0.00    -0.047 A 
ATOM      6  C4  UNL d   1      -0.516  -0.252   1.741  0.00  0.00    -0.004 A 
ENDROOT
TORSDOF 0
ENDMDL
