MODEL 1
REMARK minimizedAffinity -1.25096536
REMARK minimizedRMSD -1
REMARK  0 active torsions:
REMARK  status: ('A' for Active; 'I' for Inactive)
ROOT
ATOM      1  C   UNL d   1      -2.483   0.405   2.219  0.00  0.00     0.172 C 
ATOM      2  N   UNL d   1      -1.718  -0.152   1.128  0.00  0.00    -0.070 N 
ATOM      3  C1  UNL d   1      -0.372  -0.404   1.144  0.00  0.00    -0.004 A 
ATOM      4  C2  UNL d   1      -0.027  -0.931  -0.082  0.00  0.00    -0.047 A 
ATOM      5  C3  UNL d   1      -1.206  -0.997  -0.862  0.00  0.00    -0.047 A 
ATOM      6  C4  UNL d   1      -2.238  -0.508  -0.088  0.00  0.00    -0.004 A 
ENDROOT
TORSDOF 0
ENDMDL
