MODEL 1
REMARK minimizedAffinity 4.33547878
REMARK minimizedRMSD -1
REMARK  0 active torsions:
REMARK  status: ('A' for Active; 'I' for Inactive)
ROOT
ATOM      1  C   UNL d   1      -3.124  -0.717  -0.961  0.00  0.00     0.172 C 
ATOM      2  N   UNL d   1      -1.839  -0.599  -0.314  0.00  0.00    -0.070 N 
ATOM      3  C1  UNL d   1      -1.588   0.088   0.844  0.00  0.00    -0.004 A 
ATOM      4  C2  UNL d   1      -0.246  -0.041   1.129  0.00  0.00    -0.047 A 
ATOM      5  C3  UNL d   1       0.330  -0.831   0.107  0.00  0.00    -0.047 A 
ATOM      6  C4  UNL d   1      -0.678  -1.163  -0.773  0.00  0.00    -0.004 A 
ENDROOT
TORSDOF 0
ENDMDL
