MODEL 1
REMARK minimizedAffinity 3.73163128
REMARK minimizedRMSD -1
REMARK  3 active torsions:
REMARK  status: ('A' for Active; 'I' for Inactive)
REMARK    1  A    between atoms: C3'_2  and  C2'_3 
REMARK    2  A    between atoms: C2'_3  and  C1'_4 
REMARK    3  A    between atoms: C1'_4  and  C1_5 
ROOT
ATOM      1  C1  N4B d   1       2.974   0.687  -0.740  0.00  0.00    -0.075 A 
ATOM      2  C2  N4B d   1       4.089   1.491  -0.415  0.00  0.00     0.002 A 
ATOM      3  C3  N4B d   1       4.053   2.297   0.697  0.00  0.00     0.002 A 
ATOM      4  C4  N4B d   1       2.912   2.330   1.484  0.00  0.00    -0.004 A 
ATOM      5  C5  N4B d   1       1.849   1.531   1.177  0.00  0.00     0.002 A 
ATOM      6  C6  N4B d   1       1.872   0.714   0.065  0.00  0.00     0.002 A 
ENDROOT
BRANCH   1   7
ATOM      7  C1' N4B d   1       2.933  -0.145  -1.993  0.00  0.00     0.057 C 
BRANCH   7   8
ATOM      8  C2' N4B d   1       3.694   0.579  -3.100  0.00  0.00     0.009 C 
BRANCH   8   9
ATOM      9  C3' N4B d   1       4.927  -0.191  -3.539  0.00  0.00     0.004 C 
ATOM     10  C4' N4B d   1       5.997   0.697  -4.102  0.00  0.00     0.003 C 
ENDBRANCH   8   9
ENDBRANCH   7   8
ENDBRANCH   1   7
TORSDOF 3
ENDMDL
