MODEL 1
REMARK minimizedAffinity 24.939476
REMARK minimizedRMSD -1
REMARK  3 active torsions:
REMARK  status: ('A' for Active; 'I' for Inactive)
REMARK    1  A    between atoms: C3'_2  and  C2'_3 
REMARK    2  A    between atoms: C2'_3  and  C1'_4 
REMARK    3  A    between atoms: C1'_4  and  C1_5 
ROOT
ATOM      1  C1  N4B d   1       3.945   3.098   3.800  0.00  0.00    -0.075 A 
ATOM      2  C2  N4B d   1       4.896   4.086   4.141  0.00  0.00     0.002 A 
ATOM      3  C3  N4B d   1       4.694   4.884   5.240  0.00  0.00     0.002 A 
ATOM      4  C4  N4B d   1       3.544   4.726   6.000  0.00  0.00    -0.004 A 
ATOM      5  C5  N4B d   1       2.643   3.754   5.679  0.00  0.00     0.002 A 
ATOM      6  C6  N4B d   1       2.836   2.942   4.579  0.00  0.00     0.002 A 
ENDROOT
BRANCH   1   7
ATOM      7  C1' N4B d   1       4.081   2.260   2.559  0.00  0.00     0.057 C 
BRANCH   7   8
ATOM      8  C2' N4B d   1       3.536   3.039   1.366  0.00  0.00     0.009 C 
BRANCH   8   9
ATOM      9  C3' N4B d   1       3.664   2.258   0.070  0.00  0.00     0.004 C 
ATOM     10  C4' N4B d   1       2.393   2.241  -0.726  0.00  0.00     0.003 C 
ENDBRANCH   8   9
ENDBRANCH   7   8
ENDBRANCH   1   7
TORSDOF 3
ENDMDL
