MODEL 1
REMARK minimizedAffinity 17.4805298
REMARK minimizedRMSD -1
REMARK  3 active torsions:
REMARK  status: ('A' for Active; 'I' for Inactive)
REMARK    1  A    between atoms: C3'_2  and  C2'_3 
REMARK    2  A    between atoms: C2'_3  and  C1'_4 
REMARK    3  A    between atoms: C1'_4  and  C1_5 
ROOT
ATOM      1  C1  N4B d   1       4.497   2.748   4.256  0.00  0.00    -0.075 A 
ATOM      2  C2  N4B d   1       5.058   4.030   4.451  0.00  0.00     0.002 A 
ATOM      3  C3  N4B d   1       4.470   4.910   5.326  0.00  0.00     0.002 A 
ATOM      4  C4  N4B d   1       3.316   4.540   6.000  0.00  0.00    -0.004 A 
ATOM      5  C5  N4B d   1       2.796   3.291   5.825  0.00  0.00     0.002 A 
ATOM      6  C6  N4B d   1       3.378   2.394   4.952  0.00  0.00     0.002 A 
ENDROOT
BRANCH   1   7
ATOM      7  C1' N4B d   1       5.055   1.783   3.245  0.00  0.00     0.057 C 
BRANCH   7   8
ATOM      8  C2' N4B d   1       3.996   1.503   2.183  0.00  0.00     0.009 C 
BRANCH   8   9
ATOM      9  C3' N4B d   1       4.057   2.503   1.041  0.00  0.00     0.004 C 
ATOM     10  C4' N4B d   1       3.021   2.247  -0.011  0.00  0.00     0.003 C 
ENDBRANCH   8   9
ENDBRANCH   7   8
ENDBRANCH   1   7
TORSDOF 3
ENDMDL
