MODEL 1
REMARK minimizedAffinity 12.7637558
REMARK minimizedRMSD -1
REMARK  3 active torsions:
REMARK  status: ('A' for Active; 'I' for Inactive)
REMARK    1  A    between atoms: C3'_2  and  C2'_3 
REMARK    2  A    between atoms: C2'_3  and  C1'_4 
REMARK    3  A    between atoms: C1'_4  and  C1_5 
ROOT
ATOM      1  C1  N4B d   1       3.794   2.599  -0.103  0.00  0.00    -0.075 A 
ATOM      2  C2  N4B d   1       5.075   2.363  -0.650  0.00  0.00     0.002 A 
ATOM      3  C3  N4B d   1       6.000   3.378  -0.695  0.00  0.00     0.002 A 
ATOM      4  C4  N4B d   1       5.662   4.636  -0.219  0.00  0.00    -0.004 A 
ATOM      5  C5  N4B d   1       4.431   4.849   0.331  0.00  0.00     0.002 A 
ATOM      6  C6  N4B d   1       3.493   3.837   0.387  0.00  0.00     0.002 A 
ENDROOT
BRANCH   1   7
ATOM      7  C1' N4B d   1       2.721   1.545  -0.111  0.00  0.00     0.057 C 
BRANCH   7   8
ATOM      8  C2' N4B d   1       2.320   1.249  -1.553  0.00  0.00     0.009 C 
BRANCH   8   9
ATOM      9  C3' N4B d   1       1.969  -0.215  -1.755  0.00  0.00     0.004 C 
ATOM     10  C4' N4B d   1       1.826  -0.584  -3.202  0.00  0.00     0.003 C 
ENDBRANCH   8   9
ENDBRANCH   7   8
ENDBRANCH   1   7
TORSDOF 3
ENDMDL
