MODEL 1
REMARK minimizedAffinity 7.37060261
REMARK minimizedRMSD -1
REMARK  3 active torsions:
REMARK  status: ('A' for Active; 'I' for Inactive)
REMARK    1  A    between atoms: C3'_2  and  C2'_3 
REMARK    2  A    between atoms: C2'_3  and  C1'_4 
REMARK    3  A    between atoms: C1'_4  and  C1_5 
ROOT
ATOM      1  C1  N4B d   1       2.926   0.412  -1.796  0.00  0.00    -0.075 A 
ATOM      2  C2  N4B d   1       2.091  -0.158  -0.810  0.00  0.00     0.002 A 
ATOM      3  C3  N4B d   1       1.698   0.590   0.273  0.00  0.00     0.002 A 
ATOM      4  C4  N4B d   1       2.140   1.898   0.399  0.00  0.00    -0.004 A 
ATOM      5  C5  N4B d   1       2.926   2.449  -0.570  0.00  0.00     0.002 A 
ATOM      6  C6  N4B d   1       3.325   1.710  -1.666  0.00  0.00     0.002 A 
ENDROOT
BRANCH   1   7
ATOM      7  C1' N4B d   1       3.451  -0.393  -2.953  0.00  0.00     0.057 C 
BRANCH   7   8
ATOM      8  C2' N4B d   1       4.794  -1.007  -2.567  0.00  0.00     0.009 C 
BRANCH   8   9
ATOM      9  C3' N4B d   1       5.857  -0.760  -3.624  0.00  0.00     0.004 C 
ATOM     10  C4' N4B d   1       6.000   0.691  -3.975  0.00  0.00     0.003 C 
ENDBRANCH   8   9
ENDBRANCH   7   8
ENDBRANCH   1   7
TORSDOF 3
ENDMDL
