MODEL 1
REMARK minimizedAffinity 11.6582184
REMARK minimizedRMSD -1
REMARK  0 active torsions:
REMARK  status: ('A' for Active; 'I' for Inactive)
ROOT
ATOM      1  C   UNL d   1      -1.866  -3.054  -1.989  0.00  0.00     0.077 C 
ATOM      2  C1  UNL d   1      -3.177  -3.655  -2.402  0.00  0.00    -0.074 A 
ATOM      3  C2  UNL d   1      -3.648  -4.830  -1.808  0.00  0.00    -0.005 A 
ATOM      4  C3  UNL d   1      -4.874  -5.372  -2.196  0.00  0.00     0.006 A 
ATOM      5  C4  UNL d   1      -5.639  -4.745  -3.180  0.00  0.00    -0.005 A 
ATOM      6  C5  UNL d   1      -5.185  -3.569  -3.784  0.00  0.00    -0.074 A 
ATOM      7  C6  UNL d   1      -6.000  -2.877  -4.837  0.00  0.00     0.077 C 
ATOM      8  C7  UNL d   1      -3.956  -3.027  -3.385  0.00  0.00    -0.001 A 
ENDROOT
TORSDOF 0
ENDMDL
