MODEL 1
REMARK minimizedAffinity 6.93280745
REMARK minimizedRMSD -1
REMARK  0 active torsions:
REMARK  status: ('A' for Active; 'I' for Inactive)
ROOT
ATOM      1  C   UNL d   1       4.145  -0.112  -5.455  0.00  0.00     0.077 C 
ATOM      2  C1  UNL d   1       3.947   1.152  -4.672  0.00  0.00    -0.074 A 
ATOM      3  C2  UNL d   1       4.355   1.241  -3.337  0.00  0.00    -0.005 A 
ATOM      4  C3  UNL d   1       4.173   2.426  -2.624  0.00  0.00     0.006 A 
ATOM      5  C4  UNL d   1       3.582   3.532  -3.238  0.00  0.00    -0.005 A 
ATOM      6  C5  UNL d   1       3.168   3.461  -4.572  0.00  0.00    -0.074 A 
ATOM      7  C6  UNL d   1       2.540   4.642  -5.249  0.00  0.00     0.077 C 
ATOM      8  C7  UNL d   1       3.361   2.269  -5.284  0.00  0.00    -0.001 A 
ENDROOT
TORSDOF 0
ENDMDL
