MODEL 1
REMARK minimizedAffinity 12.9926643
REMARK minimizedRMSD -1
REMARK  0 active torsions:
REMARK  status: ('A' for Active; 'I' for Inactive)
ROOT
ATOM      1  C   UNL d   1      -4.038  -5.999  -0.176  0.00  0.00     0.077 C 
ATOM      2  C1  UNL d   1      -4.341  -4.987  -1.241  0.00  0.00    -0.074 A 
ATOM      3  C2  UNL d   1      -5.622  -4.887  -1.793  0.00  0.00    -0.005 A 
ATOM      4  C3  UNL d   1      -5.891  -3.934  -2.776  0.00  0.00     0.006 A 
ATOM      5  C4  UNL d   1      -4.885  -3.074  -3.215  0.00  0.00    -0.005 A 
ATOM      6  C5  UNL d   1      -3.598  -3.159  -2.674  0.00  0.00    -0.074 A 
ATOM      7  C6  UNL d   1      -2.507  -2.236  -3.128  0.00  0.00     0.077 C 
ATOM      8  C7  UNL d   1      -3.337  -4.114  -1.682  0.00  0.00    -0.001 A 
ENDROOT
TORSDOF 0
ENDMDL
