MODEL 1
REMARK minimizedAffinity 7.91910458
REMARK minimizedRMSD -1
REMARK  0 active torsions:
REMARK  status: ('A' for Active; 'I' for Inactive)
ROOT
ATOM      1  C   UNL d   1      -2.950  -2.236  -1.299  0.00  0.00     0.077 C 
ATOM      2  C1  UNL d   1      -2.185  -2.491  -2.563  0.00  0.00    -0.074 A 
ATOM      3  C2  UNL d   1      -2.049  -1.495  -3.535  0.00  0.00    -0.005 A 
ATOM      4  C3  UNL d   1      -1.325  -1.744  -4.701  0.00  0.00     0.006 A 
ATOM      5  C4  UNL d   1      -0.733  -2.990  -4.908  0.00  0.00    -0.005 A 
ATOM      6  C5  UNL d   1      -0.857  -3.999  -3.947  0.00  0.00    -0.074 A 
ATOM      7  C6  UNL d   1      -0.218  -5.340  -4.149  0.00  0.00     0.077 C 
ATOM      8  C7  UNL d   1      -1.580  -3.738  -2.774  0.00  0.00    -0.001 A 
ENDROOT
TORSDOF 0
ENDMDL
