MODEL 1
REMARK minimizedAffinity 5.54311609
REMARK minimizedRMSD -1
REMARK  0 active torsions:
REMARK  status: ('A' for Active; 'I' for Inactive)
ROOT
ATOM      1  C   UNL d   1       2.243   6.000  -4.502  0.00  0.00     0.077 C 
ATOM      2  C1  UNL d   1       2.781   4.600  -4.462  0.00  0.00    -0.074 A 
ATOM      3  C2  UNL d   1       2.696   3.765  -5.581  0.00  0.00    -0.005 A 
ATOM      4  C3  UNL d   1       3.209   2.469  -5.532  0.00  0.00     0.006 A 
ATOM      5  C4  UNL d   1       3.813   1.996  -4.366  0.00  0.00    -0.005 A 
ATOM      6  C5  UNL d   1       3.908   2.817  -3.238  0.00  0.00    -0.074 A 
ATOM      7  C6  UNL d   1       4.563   2.328  -1.980  0.00  0.00     0.077 C 
ATOM      8  C7  UNL d   1       3.396   4.121  -3.297  0.00  0.00    -0.001 A 
ENDROOT
TORSDOF 0
ENDMDL
