MODEL 1
REMARK minimizedAffinity 12.6638231
REMARK minimizedRMSD -1
REMARK  0 active torsions:
REMARK  status: ('A' for Active; 'I' for Inactive)
ROOT
ATOM      1  C   UNL d   1      -6.000  -3.000  -3.925  0.00  0.00     0.077 C 
ATOM      2  C1  UNL d   1      -4.950  -3.933  -3.399  0.00  0.00    -0.074 A 
ATOM      3  C2  UNL d   1      -5.304  -5.132  -2.770  0.00  0.00    -0.005 A 
ATOM      4  C3  UNL d   1      -4.316  -5.994  -2.295  0.00  0.00     0.006 A 
ATOM      5  C4  UNL d   1      -2.968  -5.668  -2.443  0.00  0.00    -0.005 A 
ATOM      6  C5  UNL d   1      -2.595  -4.475  -3.069  0.00  0.00    -0.074 A 
ATOM      7  C6  UNL d   1      -1.150  -4.114  -3.245  0.00  0.00     0.077 C 
ATOM      8  C7  UNL d   1      -3.593  -3.616  -3.551  0.00  0.00    -0.001 A 
ENDROOT
TORSDOF 0
ENDMDL
