MODEL 1
REMARK minimizedAffinity 11.4030313
REMARK minimizedRMSD -1
REMARK  0 active torsions:
REMARK  status: ('A' for Active; 'I' for Inactive)
ROOT
ATOM      1  C   UNL d   1      -6.000  -2.368  -4.121  0.00  0.00     0.077 C 
ATOM      2  C1  UNL d   1      -5.201  -3.407  -3.392  0.00  0.00    -0.074 A 
ATOM      3  C2  UNL d   1      -5.813  -4.555  -2.878  0.00  0.00    -0.005 A 
ATOM      4  C3  UNL d   1      -5.055  -5.517  -2.211  0.00  0.00     0.006 A 
ATOM      5  C4  UNL d   1      -3.680  -5.341  -2.050  0.00  0.00    -0.005 A 
ATOM      6  C5  UNL d   1      -3.051  -4.200  -2.558  0.00  0.00    -0.074 A 
ATOM      7  C6  UNL d   1      -1.572  -4.000  -2.402  0.00  0.00     0.077 C 
ATOM      8  C7  UNL d   1      -3.818  -3.241  -3.233  0.00  0.00    -0.001 A 
ENDROOT
TORSDOF 0
ENDMDL
