MODEL 1
REMARK minimizedAffinity 9.94172764
REMARK minimizedRMSD -1
REMARK  0 active torsions:
REMARK  status: ('A' for Active; 'I' for Inactive)
ROOT
ATOM      1  C   UNL d   1      -1.130  -2.230   0.602  0.00  0.00     0.077 C 
ATOM      2  C1  UNL d   1      -1.412  -2.630  -0.816  0.00  0.00    -0.074 A 
ATOM      3  C2  UNL d   1      -0.370  -2.921  -1.702  0.00  0.00    -0.005 A 
ATOM      4  C3  UNL d   1      -0.649  -3.301  -3.015  0.00  0.00     0.006 A 
ATOM      5  C4  UNL d   1      -1.970  -3.393  -3.454  0.00  0.00    -0.005 A 
ATOM      6  C5  UNL d   1      -3.025  -3.106  -2.582  0.00  0.00    -0.074 A 
ATOM      7  C6  UNL d   1      -4.451  -3.210  -3.036  0.00  0.00     0.077 C 
ATOM      8  C7  UNL d   1      -2.737  -2.732  -1.263  0.00  0.00    -0.001 A 
ENDROOT
TORSDOF 0
ENDMDL
