MODEL 1
REMARK minimizedAffinity 9.4263916
REMARK minimizedRMSD -1
REMARK  0 active torsions:
REMARK  status: ('A' for Active; 'I' for Inactive)
ROOT
ATOM      1  C   UNL d   1      -3.822  -5.530  -1.275  0.00  0.00     0.077 C 
ATOM      2  C1  UNL d   1      -2.885  -5.131  -0.174  0.00  0.00    -0.074 A 
ATOM      3  C2  UNL d   1      -2.611  -5.999   0.887  0.00  0.00    -0.005 A 
ATOM      4  C3  UNL d   1      -1.730  -5.618   1.899  0.00  0.00     0.006 A 
ATOM      5  C4  UNL d   1      -1.115  -4.366   1.860  0.00  0.00    -0.005 A 
ATOM      6  C5  UNL d   1      -1.376  -3.484   0.806  0.00  0.00    -0.074 A 
ATOM      7  C6  UNL d   1      -0.717  -2.138   0.744  0.00  0.00     0.077 C 
ATOM      8  C7  UNL d   1      -2.258  -3.877  -0.210  0.00  0.00    -0.001 A 
ENDROOT
TORSDOF 0
ENDMDL
