MODEL 1
REMARK minimizedAffinity 13.4828777
REMARK minimizedRMSD -1
REMARK  0 active torsions:
REMARK  status: ('A' for Active; 'I' for Inactive)
ROOT
ATOM      1  C   UNL d   1      -6.000  -3.754  -3.336  0.00  0.00     0.077 C 
ATOM      2  C1  UNL d   1      -4.568  -4.140  -3.113  0.00  0.00    -0.074 A 
ATOM      3  C2  UNL d   1      -4.237  -5.329  -2.456  0.00  0.00    -0.005 A 
ATOM      4  C3  UNL d   1      -2.901  -5.679  -2.265  0.00  0.00     0.006 A 
ATOM      5  C4  UNL d   1      -1.883  -4.845  -2.728  0.00  0.00    -0.005 A 
ATOM      6  C5  UNL d   1      -2.194  -3.652  -3.388  0.00  0.00    -0.074 A 
ATOM      7  C6  UNL d   1      -1.112  -2.749  -3.901  0.00  0.00     0.077 C 
ATOM      8  C7  UNL d   1      -3.539  -3.311  -3.583  0.00  0.00    -0.001 A 
ENDROOT
TORSDOF 0
ENDMDL
