MODEL 1
REMARK minimizedAffinity 6.97135258
REMARK minimizedRMSD -1
REMARK  0 active torsions:
REMARK  status: ('A' for Active; 'I' for Inactive)
ROOT
ATOM      1  C   UNL d   1      -5.999  -3.476  -5.605  0.00  0.00     0.077 C 
ATOM      2  C1  UNL d   1      -5.286  -4.355  -4.621  0.00  0.00    -0.074 A 
ATOM      3  C2  UNL d   1      -5.999  -5.181  -3.746  0.00  0.00    -0.005 A 
ATOM      4  C3  UNL d   1      -5.322  -5.999  -2.842  0.00  0.00     0.006 A 
ATOM      5  C4  UNL d   1      -3.927  -6.000  -2.804  0.00  0.00    -0.005 A 
ATOM      6  C5  UNL d   1      -3.197  -5.181  -3.671  0.00  0.00    -0.074 A 
ATOM      7  C6  UNL d   1      -1.697  -5.176  -3.649  0.00  0.00     0.077 C 
ATOM      8  C7  UNL d   1      -3.885  -4.366  -4.581  0.00  0.00    -0.001 A 
ENDROOT
TORSDOF 0
ENDMDL
