MODEL 1
REMARK minimizedAffinity 0.409843951
REMARK minimizedRMSD -1
REMARK  0 active torsions:
REMARK  status: ('A' for Active; 'I' for Inactive)
ROOT
ATOM      1  C   UNL d   1      -1.621  -1.957  -2.032  0.00  0.00     0.077 C 
ATOM      2  C1  UNL d   1      -2.403  -3.077  -2.651  0.00  0.00    -0.074 A 
ATOM      3  C2  UNL d   1      -1.775  -4.031  -3.459  0.00  0.00    -0.005 A 
ATOM      4  C3  UNL d   1      -2.514  -5.073  -4.020  0.00  0.00     0.006 A 
ATOM      5  C4  UNL d   1      -3.885  -5.171  -3.779  0.00  0.00    -0.005 A 
ATOM      6  C5  UNL d   1      -4.529  -4.227  -2.973  0.00  0.00    -0.074 A 
ATOM      7  C6  UNL d   1      -6.000  -4.324  -2.696  0.00  0.00     0.077 C 
ATOM      8  C7  UNL d   1      -3.779  -3.187  -2.407  0.00  0.00    -0.001 A 
ENDROOT
TORSDOF 0
ENDMDL
