MODEL 1
REMARK minimizedAffinity 10.8346338
REMARK minimizedRMSD -1
REMARK  0 active torsions:
REMARK  status: ('A' for Active; 'I' for Inactive)
ROOT
ATOM      1  C   UNL d   1      -0.889  -2.550   0.587  0.00  0.00     0.077 C 
ATOM      2  C1  UNL d   1      -1.441  -3.757   1.286  0.00  0.00    -0.074 A 
ATOM      3  C2  UNL d   1      -0.761  -4.338   2.361  0.00  0.00    -0.005 A 
ATOM      4  C3  UNL d   1      -1.291  -5.454   3.008  0.00  0.00     0.006 A 
ATOM      5  C4  UNL d   1      -2.504  -6.000   2.587  0.00  0.00    -0.005 A 
ATOM      6  C5  UNL d   1      -3.199  -5.432   1.514  0.00  0.00    -0.074 A 
ATOM      7  C6  UNL d   1      -4.509  -6.000   1.055  0.00  0.00     0.077 C 
ATOM      8  C7  UNL d   1      -2.663  -4.306   0.874  0.00  0.00    -0.001 A 
ENDROOT
TORSDOF 0
ENDMDL
