MODEL 1
REMARK minimizedAffinity 19.4447002
REMARK minimizedRMSD -1
REMARK  0 active torsions:
REMARK  status: ('A' for Active; 'I' for Inactive)
ROOT
ATOM      1  C   UNL d   1      -4.008  -5.932  -1.908  0.00  0.00     0.077 C 
ATOM      2  C1  UNL d   1      -2.858  -5.157  -2.479  0.00  0.00    -0.074 A 
ATOM      3  C2  UNL d   1      -2.879  -3.758  -2.510  0.00  0.00    -0.005 A 
ATOM      4  C3  UNL d   1      -1.799  -3.050  -3.035  0.00  0.00     0.006 A 
ATOM      5  C4  UNL d   1      -0.688  -3.732  -3.535  0.00  0.00    -0.005 A 
ATOM      6  C5  UNL d   1      -0.649  -5.129  -3.512  0.00  0.00    -0.074 A 
ATOM      7  C6  UNL d   1       0.541  -5.877  -4.036  0.00  0.00     0.077 C 
ATOM      8  C7  UNL d   1      -1.736  -5.834  -2.976  0.00  0.00    -0.001 A 
ENDROOT
TORSDOF 0
ENDMDL
