MODEL 1
REMARK minimizedAffinity 15.4477043
REMARK minimizedRMSD -1
REMARK  0 active torsions:
REMARK  status: ('A' for Active; 'I' for Inactive)
ROOT
ATOM      1  C   UNL d   1      -1.423  -5.963   5.427  0.00  0.00     0.077 C 
ATOM      2  C1  UNL d   1      -1.545  -5.287   4.094  0.00  0.00    -0.074 A 
ATOM      3  C2  UNL d   1      -0.959  -4.038   3.865  0.00  0.00    -0.005 A 
ATOM      4  C3  UNL d   1      -1.073  -3.426   2.617  0.00  0.00     0.006 A 
ATOM      5  C4  UNL d   1      -1.773  -4.055   1.587  0.00  0.00    -0.005 A 
ATOM      6  C5  UNL d   1      -2.365  -5.305   1.797  0.00  0.00    -0.074 A 
ATOM      7  C6  UNL d   1      -3.112  -6.000   0.698  0.00  0.00     0.077 C 
ATOM      8  C7  UNL d   1      -2.240  -5.917   3.052  0.00  0.00    -0.001 A 
ENDROOT
TORSDOF 0
ENDMDL
