MODEL 1
REMARK minimizedAffinity 9.06377411
REMARK minimizedRMSD -1
REMARK  0 active torsions:
REMARK  status: ('A' for Active; 'I' for Inactive)
ROOT
ATOM      1  C   UNL d   1      -4.542  -5.997   0.414  0.00  0.00     0.077 C 
ATOM      2  C1  UNL d   1      -4.574  -4.995  -0.701  0.00  0.00    -0.074 A 
ATOM      3  C2  UNL d   1      -5.753  -4.746  -1.411  0.00  0.00    -0.005 A 
ATOM      4  C3  UNL d   1      -5.770  -3.804  -2.439  0.00  0.00     0.006 A 
ATOM      5  C4  UNL d   1      -4.610  -3.101  -2.767  0.00  0.00    -0.005 A 
ATOM      6  C5  UNL d   1      -3.422  -3.335  -2.068  0.00  0.00    -0.074 A 
ATOM      7  C6  UNL d   1      -2.168  -2.582  -2.401  0.00  0.00     0.077 C 
ATOM      8  C7  UNL d   1      -3.415  -4.279  -1.031  0.00  0.00    -0.001 A 
ENDROOT
TORSDOF 0
ENDMDL
