MODEL 1
REMARK minimizedAffinity -4.31702137
REMARK minimizedRMSD -1
REMARK  1 active torsions:
REMARK  status: ('A' for Active; 'I' for Inactive)
REMARK    1  A    between atoms: C3_4  and  O_7 
ROOT
ATOM      1  C   UNL d   1       1.294  -0.412  -0.195  0.00  0.00    -0.033 A 
ATOM      2  C1  UNL d   1       0.026   0.083   0.118  0.00  0.00     0.039 A 
ATOM      3  C2  UNL d   1      -0.650  -0.387   1.245  0.00  0.00    -0.080 A 
ATOM      4  C3  UNL d   1      -0.049  -1.350   2.051  0.00  0.00     0.150 A 
ATOM      5  C4  UNL d   1       1.216  -1.844   1.747  0.00  0.00    -0.007 A 
ATOM      6  C5  UNL d   1       1.889  -1.374   0.620  0.00  0.00     0.039 A 
ENDROOT
BRANCH   4   7
ATOM      7  O   UNL d   1      -0.672  -1.842   3.159  0.00  0.00    -0.526 OA
ATOM      8  H5  UNL d   1      -1.549  -1.430   3.227  0.00  0.00     0.418 HD
ENDBRANCH   4   7
TORSDOF 1
ENDMDL
