MODEL 1
REMARK minimizedAffinity -2.08633637
REMARK minimizedRMSD -1
REMARK  1 active torsions:
REMARK  status: ('A' for Active; 'I' for Inactive)
REMARK    1  A    between atoms: C3_4  and  O_7 
ROOT
ATOM      1  C   UNL d   1       1.711  -1.752   1.484  0.00  0.00    -0.033 A 
ATOM      2  C1  UNL d   1       2.210  -1.238   0.285  0.00  0.00     0.039 A 
ATOM      3  C2  UNL d   1       1.439  -0.354  -0.472  0.00  0.00    -0.080 A 
ATOM      4  C3  UNL d   1       0.173   0.008  -0.019  0.00  0.00     0.150 A 
ATOM      5  C4  UNL d   1      -0.328  -0.497   1.176  0.00  0.00    -0.007 A 
ATOM      6  C5  UNL d   1       0.443  -1.381   1.930  0.00  0.00     0.039 A 
ENDROOT
BRANCH   4   7
ATOM      7  O   UNL d   1      -0.618   0.864  -0.726  0.00  0.00    -0.526 OA
ATOM      8  H5  UNL d   1      -0.153   1.109  -1.544  0.00  0.00     0.418 HD
ENDBRANCH   4   7
TORSDOF 1
ENDMDL
