MODEL 1
REMARK minimizedAffinity -2.43277693
REMARK minimizedRMSD -1
REMARK  1 active torsions:
REMARK  status: ('A' for Active; 'I' for Inactive)
REMARK    1  A    between atoms: C3_4  and  O_7 
ROOT
ATOM      1  C   UNL d   1      -0.186   1.496  -0.625  0.00  0.00    -0.033 A 
ATOM      2  C1  UNL d   1       1.168   1.643  -0.933  0.00  0.00     0.039 A 
ATOM      3  C2  UNL d   1       2.082   0.656  -0.562  0.00  0.00    -0.080 A 
ATOM      4  C3  UNL d   1       1.631  -0.473   0.116  0.00  0.00     0.150 A 
ATOM      5  C4  UNL d   1       0.283  -0.629   0.423  0.00  0.00    -0.007 A 
ATOM      6  C5  UNL d   1      -0.628   0.359   0.052  0.00  0.00     0.039 A 
ENDROOT
BRANCH   4   7
ATOM      7  O   UNL d   1       2.486  -1.462   0.503  0.00  0.00    -0.526 OA
ATOM      8  H5  UNL d   1       3.388  -1.205   0.249  0.00  0.00     0.418 HD
ENDBRANCH   4   7
TORSDOF 1
ENDMDL
