MODEL 1
REMARK minimizedAffinity -4.10529184
REMARK minimizedRMSD -1
REMARK  1 active torsions:
REMARK  status: ('A' for Active; 'I' for Inactive)
REMARK    1  A    between atoms: C3_4  and  O_7 
ROOT
ATOM      1  C   UNL d   1      -1.188   0.293  -0.076  0.00  0.00    -0.033 A 
ATOM      2  C1  UNL d   1      -0.212   0.345  -1.074  0.00  0.00     0.039 A 
ATOM      3  C2  UNL d   1       0.993  -0.340  -0.910  0.00  0.00    -0.080 A 
ATOM      4  C3  UNL d   1       1.209  -1.074   0.253  0.00  0.00     0.150 A 
ATOM      5  C4  UNL d   1       0.240  -1.134   1.249  0.00  0.00    -0.007 A 
ATOM      6  C5  UNL d   1      -0.962  -0.448   1.084  0.00  0.00     0.039 A 
ENDROOT
BRANCH   4   7
ATOM      7  O   UNL d   1       2.372  -1.756   0.460  0.00  0.00    -0.526 OA
ATOM      8  H5  UNL d   1       2.959  -1.600  -0.299  0.00  0.00     0.418 HD
ENDBRANCH   4   7
TORSDOF 1
ENDMDL
