MODEL 1
REMARK minimizedAffinity -4.22587538
REMARK minimizedRMSD -1
REMARK  1 active torsions:
REMARK  status: ('A' for Active; 'I' for Inactive)
REMARK    1  A    between atoms: C3_4  and  O_7 
ROOT
ATOM      1  C   UNL d   1       0.589  -1.443   2.269  0.00  0.00    -0.033 A 
ATOM      2  C1  UNL d   1       1.334  -1.139   1.128  0.00  0.00     0.039 A 
ATOM      3  C2  UNL d   1       0.823  -0.258   0.173  0.00  0.00    -0.080 A 
ATOM      4  C3  UNL d   1      -0.432   0.311   0.371  0.00  0.00     0.150 A 
ATOM      5  C4  UNL d   1      -1.178   0.016   1.507  0.00  0.00    -0.007 A 
ATOM      6  C5  UNL d   1      -0.666  -0.865   2.460  0.00  0.00     0.039 A 
ENDROOT
BRANCH   4   7
ATOM      7  O   UNL d   1      -0.974   1.173  -0.536  0.00  0.00    -0.526 OA
ATOM      8  H5  UNL d   1      -0.359   1.261  -1.283  0.00  0.00     0.418 HD
ENDBRANCH   4   7
TORSDOF 1
ENDMDL
