MODEL 1
REMARK minimizedAffinity -4.64295483
REMARK minimizedRMSD -1
REMARK  1 active torsions:
REMARK  status: ('A' for Active; 'I' for Inactive)
REMARK    1  A    between atoms: C3_4  and  O_7 
ROOT
ATOM      1  C   UNL d   1      -1.190  -0.130   0.246  0.00  0.00    -0.033 A 
ATOM      2  C1  UNL d   1      -0.343  -0.052  -0.861  0.00  0.00     0.039 A 
ATOM      3  C2  UNL d   1       0.975  -0.503  -0.766  0.00  0.00    -0.080 A 
ATOM      4  C3  UNL d   1       1.432  -1.031   0.439  0.00  0.00     0.150 A 
ATOM      5  C4  UNL d   1       0.592  -1.115   1.544  0.00  0.00    -0.007 A 
ATOM      6  C5  UNL d   1      -0.724  -0.662   1.448  0.00  0.00     0.039 A 
ENDROOT
BRANCH   4   7
ATOM      7  O   UNL d   1       2.711  -1.480   0.580  0.00  0.00    -0.526 OA
ATOM      8  H5  UNL d   1       3.183  -1.332  -0.256  0.00  0.00     0.418 HD
ENDBRANCH   4   7
TORSDOF 1
ENDMDL
