MODEL 1
REMARK minimizedAffinity -5.04400301
REMARK minimizedRMSD -1
REMARK  1 active torsions:
REMARK  status: ('A' for Active; 'I' for Inactive)
REMARK    1  A    between atoms: C3_4  and  O_7 
ROOT
ATOM      1  C   UNL d   1      -2.202   1.402  -0.087  0.00  0.00    -0.033 A 
ATOM      2  C1  UNL d   1      -1.668   2.353  -0.959  0.00  0.00     0.039 A 
ATOM      3  C2  UNL d   1      -1.410   2.016  -2.289  0.00  0.00    -0.080 A 
ATOM      4  C3  UNL d   1      -1.693   0.728  -2.735  0.00  0.00     0.150 A 
ATOM      5  C4  UNL d   1      -2.229  -0.223  -1.873  0.00  0.00    -0.007 A 
ATOM      6  C5  UNL d   1      -2.485   0.114  -0.545  0.00  0.00     0.039 A 
ENDROOT
BRANCH   4   7
ATOM      7  O   UNL d   1      -1.454   0.351  -4.023  0.00  0.00    -0.526 OA
ATOM      8  H5  UNL d   1      -1.057   1.102  -4.495  0.00  0.00     0.418 HD
ENDBRANCH   4   7
TORSDOF 1
ENDMDL
