MODEL 1
REMARK minimizedAffinity 2.92356825
REMARK minimizedRMSD -1
REMARK  1 active torsions:
REMARK  status: ('A' for Active; 'I' for Inactive)
REMARK    1  A    between atoms: C3_4  and  O_7 
ROOT
ATOM      1  C   UNL d   1       1.059  -0.498   0.891  0.00  0.00    -0.033 A 
ATOM      2  C1  UNL d   1       0.566   0.744   0.485  0.00  0.00     0.039 A 
ATOM      3  C2  UNL d   1       1.371   1.607  -0.260  0.00  0.00    -0.080 A 
ATOM      4  C3  UNL d   1       2.665   1.217  -0.594  0.00  0.00     0.150 A 
ATOM      5  C4  UNL d   1       3.161  -0.021  -0.197  0.00  0.00    -0.007 A 
ATOM      6  C5  UNL d   1       2.356  -0.881   0.548  0.00  0.00     0.039 A 
ENDROOT
BRANCH   4   7
ATOM      7  O   UNL d   1       3.490   2.027  -1.315  0.00  0.00    -0.526 OA
ATOM      8  H5  UNL d   1       3.023   2.861  -1.495  0.00  0.00     0.418 HD
ENDBRANCH   4   7
TORSDOF 1
ENDMDL
