MODEL 1
REMARK minimizedAffinity 3.16010284
REMARK minimizedRMSD -1
REMARK  1 active torsions:
REMARK  status: ('A' for Active; 'I' for Inactive)
REMARK    1  A    between atoms: C3_4  and  O_7 
ROOT
ATOM      1  C   UNL d   1       0.160  -5.878  -4.790  0.00  0.00    -0.033 A 
ATOM      2  C1  UNL d   1       0.863  -5.890  -3.584  0.00  0.00     0.039 A 
ATOM      3  C2  UNL d   1       2.254  -5.770  -3.584  0.00  0.00    -0.080 A 
ATOM      4  C3  UNL d   1       2.929  -5.638  -4.795  0.00  0.00     0.150 A 
ATOM      5  C4  UNL d   1       2.234  -5.622  -6.000  0.00  0.00    -0.007 A 
ATOM      6  C5  UNL d   1       0.845  -5.742  -5.998  0.00  0.00     0.039 A 
ENDROOT
BRANCH   4   7
ATOM      7  O   UNL d   1       4.286  -5.523  -4.846  0.00  0.00    -0.526 OA
ATOM      8  H5  UNL d   1       4.634  -5.579  -3.940  0.00  0.00     0.418 HD
ENDBRANCH   4   7
TORSDOF 1
ENDMDL
