MODEL 1
REMARK minimizedAffinity 2.47946239
REMARK minimizedRMSD -1
REMARK  1 active torsions:
REMARK  status: ('A' for Active; 'I' for Inactive)
REMARK    1  A    between atoms: C3_4  and  O_7 
ROOT
ATOM      1  C   UNL d   1      -1.851  -5.204  -4.957  0.00  0.00    -0.033 A 
ATOM      2  C1  UNL d   1      -1.209  -5.947  -5.951  0.00  0.00     0.039 A 
ATOM      3  C2  UNL d   1       0.186  -5.995  -5.997  0.00  0.00    -0.080 A 
ATOM      4  C3  UNL d   1       0.926  -5.298  -5.046  0.00  0.00     0.150 A 
ATOM      5  C4  UNL d   1       0.293  -4.560  -4.052  0.00  0.00    -0.007 A 
ATOM      6  C5  UNL d   1      -1.099  -4.512  -4.007  0.00  0.00     0.039 A 
ENDROOT
BRANCH   4   7
ATOM      7  O   UNL d   1       2.289  -5.312  -5.055  0.00  0.00    -0.526 OA
ATOM      8  H5  UNL d   1       2.587  -5.839  -5.814  0.00  0.00     0.418 HD
ENDBRANCH   4   7
TORSDOF 1
ENDMDL
