MODEL 1
REMARK minimizedAffinity 1.0382266
REMARK minimizedRMSD -1
REMARK  1 active torsions:
REMARK  status: ('A' for Active; 'I' for Inactive)
REMARK    1  A    between atoms: C3_4  and  O_7 
ROOT
ATOM      1  C   UNL d   1      -2.679  -1.827   1.510  0.00  0.00    -0.033 A 
ATOM      2  C1  UNL d   1      -1.854  -2.658   0.749  0.00  0.00     0.039 A 
ATOM      3  C2  UNL d   1      -0.733  -2.131   0.105  0.00  0.00    -0.080 A 
ATOM      4  C3  UNL d   1      -0.448  -0.774   0.230  0.00  0.00     0.150 A 
ATOM      5  C4  UNL d   1      -1.263   0.058   0.990  0.00  0.00    -0.007 A 
ATOM      6  C5  UNL d   1      -2.383  -0.470   1.632  0.00  0.00     0.039 A 
ENDROOT
BRANCH   4   7
ATOM      7  O   UNL d   1       0.632  -0.214  -0.384  0.00  0.00    -0.526 OA
ATOM      8  H5  UNL d   1       1.087  -0.903  -0.896  0.00  0.00     0.418 HD
ENDBRANCH   4   7
TORSDOF 1
ENDMDL
