MODEL 1
REMARK minimizedAffinity 2.73655605
REMARK minimizedRMSD -1
REMARK  1 active torsions:
REMARK  status: ('A' for Active; 'I' for Inactive)
REMARK    1  A    between atoms: C3_4  and  O_7 
ROOT
ATOM      1  C   UNL d   1       2.127  -5.850  -6.000  0.00  0.00    -0.033 A 
ATOM      2  C1  UNL d   1       0.737  -5.986  -5.990  0.00  0.00     0.039 A 
ATOM      3  C2  UNL d   1       0.032  -5.878  -4.790  0.00  0.00    -0.080 A 
ATOM      4  C3  UNL d   1       0.727  -5.633  -3.608  0.00  0.00     0.150 A 
ATOM      5  C4  UNL d   1       2.111  -5.493  -3.612  0.00  0.00    -0.007 A 
ATOM      6  C5  UNL d   1       2.814  -5.602  -4.811  0.00  0.00     0.039 A 
ENDROOT
BRANCH   4   7
ATOM      7  O   UNL d   1       0.082  -5.524  -2.412  0.00  0.00    -0.526 OA
ATOM      8  H5  UNL d   1      -0.867  -5.672  -2.559  0.00  0.00     0.418 HD
ENDBRANCH   4   7
TORSDOF 1
ENDMDL
