MODEL 1
REMARK minimizedAffinity -5.57580853
REMARK minimizedRMSD -1
REMARK  1 active torsions:
REMARK  status: ('A' for Active; 'I' for Inactive)
REMARK    1  A    between atoms: C3_4  and  O_7 
ROOT
ATOM      1  C   UNL d   1      -0.935  -0.716   1.970  0.00  0.00    -0.033 A 
ATOM      2  C1  UNL d   1      -0.350  -1.597   2.882  0.00  0.00     0.039 A 
ATOM      3  C2  UNL d   1       0.601  -2.523   2.450  0.00  0.00    -0.080 A 
ATOM      4  C3  UNL d   1       0.960  -2.557   1.105  0.00  0.00     0.150 A 
ATOM      5  C4  UNL d   1       0.385  -1.680   0.192  0.00  0.00    -0.007 A 
ATOM      6  C5  UNL d   1      -0.566  -0.757   0.625  0.00  0.00     0.039 A 
ENDROOT
BRANCH   4   7
ATOM      7  O   UNL d   1       1.880  -3.447   0.636  0.00  0.00    -0.526 OA
ATOM      8  H5  UNL d   1       2.171  -4.008   1.374  0.00  0.00     0.418 HD
ENDBRANCH   4   7
TORSDOF 1
ENDMDL
