MODEL 1
REMARK minimizedAffinity -1.67419207
REMARK minimizedRMSD -1
REMARK  1 active torsions:
REMARK  status: ('A' for Active; 'I' for Inactive)
REMARK    1  A    between atoms: C3_4  and  O_7 
ROOT
ATOM      1  C   UNL d   1      -0.051   1.391  -0.018  0.00  0.00    -0.033 A 
ATOM      2  C1  UNL d   1      -0.592   0.501   0.911  0.00  0.00     0.039 A 
ATOM      3  C2  UNL d   1       0.182  -0.551   1.405  0.00  0.00    -0.080 A 
ATOM      4  C3  UNL d   1       1.494  -0.701   0.962  0.00  0.00     0.150 A 
ATOM      5  C4  UNL d   1       2.040   0.185   0.039  0.00  0.00    -0.007 A 
ATOM      6  C5  UNL d   1       1.265   1.234  -0.453  0.00  0.00     0.039 A 
ENDROOT
BRANCH   4   7
ATOM      7  O   UNL d   1       2.286  -1.715   1.412  0.00  0.00    -0.526 OA
ATOM      8  H5  UNL d   1       1.767  -2.264   2.022  0.00  0.00     0.418 HD
ENDBRANCH   4   7
TORSDOF 1
ENDMDL
