MODEL 1
REMARK minimizedAffinity -1.59424233
REMARK minimizedRMSD -1
REMARK  1 active torsions:
REMARK  status: ('A' for Active; 'I' for Inactive)
REMARK    1  A    between atoms: C1_2  and  C2_3 
ROOT
ATOM      1  C2  UNL d   1      -3.913   1.503   0.762  0.00  0.00    -0.077 A 
ATOM      2  C3  UNL d   1      -3.323   2.542   0.028  0.00  0.00     0.002 A 
ATOM      3  C4  UNL d   1      -1.945   2.557  -0.193  0.00  0.00     0.002 A 
ATOM      4  C5  UNL d   1      -1.145   1.534   0.314  0.00  0.00    -0.004 A 
ATOM      5  C6  UNL d   1      -1.722   0.498   1.047  0.00  0.00     0.002 A 
ATOM      6  C7  UNL d   1      -3.099   0.481   1.269  0.00  0.00     0.002 A 
ENDROOT
BRANCH   1   7
ATOM      7  C1  UNL d   1      -5.406   1.459   0.958  0.00  0.00     0.055 C 
ATOM      8  C   UNL d   1      -6.000   2.859   1.004  0.00  0.00     0.019 C 
ENDBRANCH   1   7
TORSDOF 1
ENDMDL
