MODEL 1
REMARK minimizedAffinity 1.4466325
REMARK minimizedRMSD -1
REMARK  1 active torsions:
REMARK  status: ('A' for Active; 'I' for Inactive)
REMARK    1  A    between atoms: C1_2  and  C2_3 
ROOT
ATOM      1  C2  UNL d   1      -1.000   1.573  -0.009  0.00  0.00    -0.077 A 
ATOM      2  C3  UNL d   1      -1.493   0.744   1.008  0.00  0.00     0.002 A 
ATOM      3  C4  UNL d   1      -0.617  -0.006   1.795  0.00  0.00     0.002 A 
ATOM      4  C5  UNL d   1       0.757   0.068   1.576  0.00  0.00    -0.004 A 
ATOM      5  C6  UNL d   1       1.257   0.888   0.565  0.00  0.00     0.002 A 
ATOM      6  C7  UNL d   1       0.383   1.637  -0.224  0.00  0.00     0.002 A 
ENDROOT
BRANCH   1   7
ATOM      7  C1  UNL d   1      -1.940   2.420  -0.827  0.00  0.00     0.055 C 
ATOM      8  C   UNL d   1      -3.089   2.946   0.020  0.00  0.00     0.019 C 
ENDBRANCH   1   7
TORSDOF 1
ENDMDL
