MODEL 1
REMARK minimizedAffinity 5.88443565
REMARK minimizedRMSD -1
REMARK  1 active torsions:
REMARK  status: ('A' for Active; 'I' for Inactive)
REMARK    1  A    between atoms: C1_2  and  C2_3 
ROOT
ATOM      1  C2  UNL d   1      -1.827   1.874   0.308  0.00  0.00    -0.077 A 
ATOM      2  C3  UNL d   1      -2.220   0.893   1.228  0.00  0.00     0.002 A 
ATOM      3  C4  UNL d   1      -1.262   0.191   1.964  0.00  0.00     0.002 A 
ATOM      4  C5  UNL d   1       0.092   0.467   1.789  0.00  0.00    -0.004 A 
ATOM      5  C6  UNL d   1       0.493   1.440   0.874  0.00  0.00     0.002 A 
ATOM      6  C7  UNL d   1      -0.463   2.141   0.137  0.00  0.00     0.002 A 
ENDROOT
BRANCH   1   7
ATOM      7  C1  UNL d   1      -2.860   2.666  -0.451  0.00  0.00     0.055 C 
ATOM      8  C   UNL d   1      -4.180   2.722   0.306  0.00  0.00     0.019 C 
ENDBRANCH   1   7
TORSDOF 1
ENDMDL
