MODEL 1
REMARK minimizedAffinity 3.16041231
REMARK minimizedRMSD -1
REMARK  1 active torsions:
REMARK  status: ('A' for Active; 'I' for Inactive)
REMARK    1  A    between atoms: C1_2  and  C2_3 
ROOT
ATOM      1  C2  UNL d   1      -2.272   0.961   0.999  0.00  0.00    -0.077 A 
ATOM      2  C3  UNL d   1      -2.224   1.993   0.051  0.00  0.00     0.002 A 
ATOM      3  C4  UNL d   1      -1.059   2.744  -0.117  0.00  0.00     0.002 A 
ATOM      4  C5  UNL d   1       0.067   2.468   0.656  0.00  0.00    -0.004 A 
ATOM      5  C6  UNL d   1       0.029   1.445   1.602  0.00  0.00     0.002 A 
ATOM      6  C7  UNL d   1      -1.135   0.694   1.772  0.00  0.00     0.002 A 
ENDROOT
BRANCH   1   7
ATOM      7  C1  UNL d   1      -3.511   0.118   1.147  0.00  0.00     0.055 C 
ATOM      8  C   UNL d   1      -4.768   0.924   0.854  0.00  0.00     0.019 C 
ENDBRANCH   1   7
TORSDOF 1
ENDMDL
