MODEL 1
REMARK minimizedAffinity -2.85481763
REMARK minimizedRMSD -1
REMARK  1 active torsions:
REMARK  status: ('A' for Active; 'I' for Inactive)
REMARK    1  A    between atoms: C1_2  and  C2_3 
ROOT
ATOM      1  C2  UNL d   1      -2.725   1.201   0.711  0.00  0.00    -0.077 A 
ATOM      2  C3  UNL d   1      -1.654   0.314   0.884  0.00  0.00     0.002 A 
ATOM      3  C4  UNL d   1      -0.338   0.759   0.743  0.00  0.00     0.002 A 
ATOM      4  C5  UNL d   1      -0.081   2.092   0.432  0.00  0.00    -0.004 A 
ATOM      5  C6  UNL d   1      -1.140   2.982   0.256  0.00  0.00     0.002 A 
ATOM      6  C7  UNL d   1      -2.456   2.539   0.395  0.00  0.00     0.002 A 
ENDROOT
BRANCH   1   7
ATOM      7  C1  UNL d   1      -4.143   0.734   0.911  0.00  0.00     0.055 C 
ATOM      8  C   UNL d   1      -5.140   1.837   0.586  0.00  0.00     0.019 C 
ENDBRANCH   1   7
TORSDOF 1
ENDMDL
