MODEL 1
REMARK minimizedAffinity -2.82930303
REMARK minimizedRMSD -1
REMARK  1 active torsions:
REMARK  status: ('A' for Active; 'I' for Inactive)
REMARK    1  A    between atoms: C1_2  and  C2_3 
ROOT
ATOM      1  C2  UNL d   1      -2.396   1.862   0.516  0.00  0.00    -0.077 A 
ATOM      2  C3  UNL d   1      -1.229   2.182  -0.191  0.00  0.00     0.002 A 
ATOM      3  C4  UNL d   1      -0.068   1.425  -0.017  0.00  0.00     0.002 A 
ATOM      4  C5  UNL d   1      -0.066   0.342   0.859  0.00  0.00    -0.004 A 
ATOM      5  C6  UNL d   1      -1.221   0.017   1.569  0.00  0.00     0.002 A 
ATOM      6  C7  UNL d   1      -2.382   0.773   1.397  0.00  0.00     0.002 A 
ENDROOT
BRANCH   1   7
ATOM      7  C1  UNL d   1      -3.663   2.647   0.293  0.00  0.00     0.055 C 
ATOM      8  C   UNL d   1      -4.828   2.048   1.067  0.00  0.00     0.019 C 
ENDBRANCH   1   7
TORSDOF 1
ENDMDL
