MODEL 1
REMARK minimizedAffinity -2.90551138
REMARK minimizedRMSD -1
REMARK  1 active torsions:
REMARK  status: ('A' for Active; 'I' for Inactive)
REMARK    1  A    between atoms: C1_2  and  C2_3 
ROOT
ATOM      1  C2  UNL d   1      -2.784   2.082   0.088  0.00  0.00    -0.077 A 
ATOM      2  C3  UNL d   1      -2.363   0.919   0.748  0.00  0.00     0.002 A 
ATOM      3  C4  UNL d   1      -1.072   0.424   0.551  0.00  0.00     0.002 A 
ATOM      4  C5  UNL d   1      -0.191   1.087  -0.300  0.00  0.00    -0.004 A 
ATOM      5  C6  UNL d   1      -0.601   2.244  -0.963  0.00  0.00     0.002 A 
ATOM      6  C7  UNL d   1      -1.891   2.739  -0.769  0.00  0.00     0.002 A 
ENDROOT
BRANCH   1   7
ATOM      7  C1  UNL d   1      -4.159   2.646   0.336  0.00  0.00     0.055 C 
ATOM      8  C   UNL d   1      -5.144   1.551   0.719  0.00  0.00     0.019 C 
ENDBRANCH   1   7
TORSDOF 1
ENDMDL
