MODEL 1
REMARK minimizedAffinity 5.07754469
REMARK minimizedRMSD -1
REMARK  1 active torsions:
REMARK  status: ('A' for Active; 'I' for Inactive)
REMARK    1  A    between atoms: C1_2  and  C2_3 
ROOT
ATOM      1  C2  UNL d   1       3.352   2.752   1.098  0.00  0.00    -0.076 A 
ATOM      2  C3  UNL d   1       3.492   2.045  -0.108  0.00  0.00     0.004 A 
ATOM      3  C4  UNL d   1       4.582   2.269  -0.948  0.00  0.00    -0.003 A 
ATOM      4  C5  UNL d   1       5.550   3.202  -0.594  0.00  0.00     0.000 A 
ATOM      5  C6  UNL d   1       5.436   3.900   0.608  0.00  0.00     0.000 A 
ATOM      6  C7  UNL d   1       4.352   3.675   1.474  0.00  0.00    -0.073 A 
ATOM      7  C8  UNL d   1       4.275   4.460   2.754  0.00  0.00     0.078 C 
ENDROOT
BRANCH   1   8
ATOM      8  C1  UNL d   1       2.135   2.487   1.955  0.00  0.00     0.053 C 
ATOM      9  C   UNL d   1       0.866   2.327   1.132  0.00  0.00     0.018 C 
ENDBRANCH   1   8
TORSDOF 1
ENDMDL
