MODEL 1
REMARK minimizedAffinity 19.134304
REMARK minimizedRMSD -1
REMARK  1 active torsions:
REMARK  status: ('A' for Active; 'I' for Inactive)
REMARK    1  A    between atoms: C1_2  and  C2_3 
ROOT
ATOM      1  C2  UNL d   1      -1.874  -2.096   0.476  0.00  0.00    -0.076 A 
ATOM      2  C3  UNL d   1      -2.098  -2.107  -0.912  0.00  0.00     0.004 A 
ATOM      3  C4  UNL d   1      -1.780  -3.226  -1.680  0.00  0.00    -0.003 A 
ATOM      4  C5  UNL d   1      -1.234  -4.352  -1.073  0.00  0.00     0.000 A 
ATOM      5  C6  UNL d   1      -1.022  -4.364   0.305  0.00  0.00     0.000 A 
ATOM      6  C7  UNL d   1      -1.352  -3.251   1.097  0.00  0.00    -0.073 A 
ATOM      7  C8  UNL d   1      -1.096  -3.317   2.578  0.00  0.00     0.078 C 
ENDROOT
BRANCH   1   8
ATOM      8  C1  UNL d   1      -2.213  -0.844   1.254  0.00  0.00     0.053 C 
ATOM      9  C   UNL d   1      -1.081   0.172   1.245  0.00  0.00     0.018 C 
ENDBRANCH   1   8
TORSDOF 1
ENDMDL
