MODEL 1
REMARK minimizedAffinity 17.6824188
REMARK minimizedRMSD -1
REMARK  1 active torsions:
REMARK  status: ('A' for Active; 'I' for Inactive)
REMARK    1  A    between atoms: C1_2  and  C2_3 
ROOT
ATOM      1  C2  UNL d   1       3.122  -4.629  -3.826  0.00  0.00    -0.076 A 
ATOM      2  C3  UNL d   1       3.986  -3.653  -3.297  0.00  0.00     0.004 A 
ATOM      3  C4  UNL d   1       4.933  -3.021  -4.101  0.00  0.00    -0.003 A 
ATOM      4  C5  UNL d   1       5.031  -3.354  -5.447  0.00  0.00     0.000 A 
ATOM      5  C6  UNL d   1       4.171  -4.306  -5.993  0.00  0.00     0.000 A 
ATOM      6  C7  UNL d   1       3.200  -4.941  -5.200  0.00  0.00    -0.073 A 
ATOM      7  C8  UNL d   1       2.303  -5.965  -5.839  0.00  0.00     0.078 C 
ENDROOT
BRANCH   1   8
ATOM      8  C1  UNL d   1       2.134  -5.300  -2.899  0.00  0.00     0.053 C 
ATOM      9  C   UNL d   1       2.708  -5.544  -1.512  0.00  0.00     0.018 C 
ENDBRANCH   1   8
TORSDOF 1
ENDMDL
