MODEL 1
REMARK minimizedAffinity 11.9026842
REMARK minimizedRMSD -1
REMARK  1 active torsions:
REMARK  status: ('A' for Active; 'I' for Inactive)
REMARK    1  A    between atoms: C1_2  and  C2_3 
ROOT
ATOM      1  C2  UNL d   1       4.126   4.261   2.377  0.00  0.00    -0.076 A 
ATOM      2  C3  UNL d   1       3.963   2.944   2.841  0.00  0.00     0.004 A 
ATOM      3  C4  UNL d   1       3.262   2.001   2.091  0.00  0.00    -0.003 A 
ATOM      4  C5  UNL d   1       2.714   2.358   0.865  0.00  0.00     0.000 A 
ATOM      5  C6  UNL d   1       2.881   3.655   0.380  0.00  0.00     0.000 A 
ATOM      6  C7  UNL d   1       3.598   4.614   1.116  0.00  0.00    -0.073 A 
ATOM      7  C8  UNL d   1       3.742   6.000   0.549  0.00  0.00     0.078 C 
ENDROOT
BRANCH   1   8
ATOM      8  C1  UNL d   1       4.872   5.248   3.245  0.00  0.00     0.053 C 
ATOM      9  C   UNL d   1       5.997   4.596   4.034  0.00  0.00     0.018 C 
ENDBRANCH   1   8
TORSDOF 1
ENDMDL
