MODEL 1
REMARK minimizedAffinity 11.6668892
REMARK minimizedRMSD -1
REMARK  1 active torsions:
REMARK  status: ('A' for Active; 'I' for Inactive)
REMARK    1  A    between atoms: C1_2  and  C2_3 
ROOT
ATOM      1  C2  UNL d   1      -2.316  -4.653   1.389  0.00  0.00    -0.076 A 
ATOM      2  C3  UNL d   1      -1.948  -3.838   2.473  0.00  0.00     0.004 A 
ATOM      3  C4  UNL d   1      -1.338  -2.602   2.267  0.00  0.00    -0.003 A 
ATOM      4  C5  UNL d   1      -1.086  -2.160   0.972  0.00  0.00     0.000 A 
ATOM      5  C6  UNL d   1      -1.461  -2.948  -0.116  0.00  0.00     0.000 A 
ATOM      6  C7  UNL d   1      -2.091  -4.190   0.074  0.00  0.00    -0.073 A 
ATOM      7  C8  UNL d   1      -2.468  -5.001  -1.135  0.00  0.00     0.078 C 
ENDROOT
BRANCH   1   8
ATOM      8  C1  UNL d   1      -2.950  -5.996   1.674  0.00  0.00     0.053 C 
ATOM      9  C   UNL d   1      -3.780  -5.989   2.948  0.00  0.00     0.018 C 
ENDBRANCH   1   8
TORSDOF 1
ENDMDL
