MODEL 1
REMARK minimizedAffinity 11.0055294
REMARK minimizedRMSD -1
REMARK  1 active torsions:
REMARK  status: ('A' for Active; 'I' for Inactive)
REMARK    1  A    between atoms: C1_2  and  C2_3 
ROOT
ATOM      1  C2  UNL d   1       3.332  -4.995  -3.192  0.00  0.00    -0.076 A 
ATOM      2  C3  UNL d   1       2.541  -5.945  -3.860  0.00  0.00     0.004 A 
ATOM      3  C4  UNL d   1       2.507  -6.000  -5.252  0.00  0.00    -0.003 A 
ATOM      4  C5  UNL d   1       3.265  -5.105  -5.999  0.00  0.00     0.000 A 
ATOM      5  C6  UNL d   1       4.070  -4.167  -5.353  0.00  0.00     0.000 A 
ATOM      6  C7  UNL d   1       4.127  -4.109  -3.950  0.00  0.00    -0.073 A 
ATOM      7  C8  UNL d   1       5.007  -3.073  -3.306  0.00  0.00     0.078 C 
ENDROOT
BRANCH   1   8
ATOM      8  C1  UNL d   1       3.307  -4.965  -1.680  0.00  0.00     0.053 C 
ATOM      9  C   UNL d   1       2.358  -5.998  -1.093  0.00  0.00     0.018 C 
ENDBRANCH   1   8
TORSDOF 1
ENDMDL
