MODEL 1
REMARK minimizedAffinity 9.3240509
REMARK minimizedRMSD -1
REMARK  1 active torsions:
REMARK  status: ('A' for Active; 'I' for Inactive)
REMARK    1  A    between atoms: C1_2  and  C2_3 
ROOT
ATOM      1  C2  UNL d   1       0.612   2.911   1.182  0.00  0.00    -0.076 A 
ATOM      2  C3  UNL d   1       1.019   2.865   2.527  0.00  0.00     0.004 A 
ATOM      3  C4  UNL d   1       0.166   3.277   3.549  0.00  0.00    -0.003 A 
ATOM      4  C5  UNL d   1      -1.109   3.742   3.243  0.00  0.00     0.000 A 
ATOM      5  C6  UNL d   1      -1.535   3.778   1.916  0.00  0.00     0.000 A 
ATOM      6  C7  UNL d   1      -0.694   3.350   0.875  0.00  0.00    -0.073 A 
ATOM      7  C8  UNL d   1      -1.203   3.416  -0.539  0.00  0.00     0.078 C 
ENDROOT
BRANCH   1   8
ATOM      8  C1  UNL d   1       1.590   2.477   0.114  0.00  0.00     0.053 C 
ATOM      9  C   UNL d   1       2.782   1.724   0.686  0.00  0.00     0.018 C 
ENDBRANCH   1   8
TORSDOF 1
ENDMDL
