MODEL 1
REMARK minimizedAffinity 0.880927742
REMARK minimizedRMSD -1
REMARK  1 active torsions:
REMARK  status: ('A' for Active; 'I' for Inactive)
REMARK    1  A    between atoms: C1_2  and  C2_3 
ROOT
ATOM      1  C2  UNL d   1       2.367   2.203   0.460  0.00  0.00    -0.076 A 
ATOM      2  C3  UNL d   1       3.167   2.059  -0.686  0.00  0.00     0.004 A 
ATOM      3  C4  UNL d   1       4.532   2.340  -0.648  0.00  0.00    -0.003 A 
ATOM      4  C5  UNL d   1       5.119   2.768   0.537  0.00  0.00     0.000 A 
ATOM      5  C6  UNL d   1       4.343   2.899   1.689  0.00  0.00     0.000 A 
ATOM      6  C7  UNL d   1       2.969   2.605   1.672  0.00  0.00    -0.073 A 
ATOM      7  C8  UNL d   1       2.180   2.769   2.941  0.00  0.00     0.078 C 
ENDROOT
BRANCH   1   8
ATOM      8  C1  UNL d   1       0.888   1.909   0.352  0.00  0.00     0.053 C 
ATOM      9  C   UNL d   1       0.033   3.157   0.517  0.00  0.00     0.018 C 
ENDBRANCH   1   8
TORSDOF 1
ENDMDL
