MODEL 1
REMARK minimizedAffinity 7.45114946
REMARK minimizedRMSD -1
REMARK  1 active torsions:
REMARK  status: ('A' for Active; 'I' for Inactive)
REMARK    1  A    between atoms: C1_2  and  C2_3 
ROOT
ATOM      1  C2  UNL d   1       2.012   1.608  -0.891  0.00  0.00    -0.076 A 
ATOM      2  C3  UNL d   1       3.365   1.840  -1.196  0.00  0.00     0.004 A 
ATOM      3  C4  UNL d   1       4.293   2.101  -0.189  0.00  0.00    -0.003 A 
ATOM      4  C5  UNL d   1       3.883   2.134   1.139  0.00  0.00     0.000 A 
ATOM      5  C6  UNL d   1       2.549   1.888   1.462  0.00  0.00     0.000 A 
ATOM      6  C7  UNL d   1       1.604   1.608   0.460  0.00  0.00    -0.073 A 
ATOM      7  C8  UNL d   1       0.177   1.357   0.864  0.00  0.00     0.078 C 
ENDROOT
BRANCH   1   8
ATOM      8  C1  UNL d   1       1.046   1.357  -2.027  0.00  0.00     0.053 C 
ATOM      9  C   UNL d   1       1.661   1.642  -3.388  0.00  0.00     0.018 C 
ENDBRANCH   1   8
TORSDOF 1
ENDMDL
