MODEL 1
REMARK minimizedAffinity 12.0079098
REMARK minimizedRMSD -1
REMARK  1 active torsions:
REMARK  status: ('A' for Active; 'I' for Inactive)
REMARK    1  A    between atoms: C1_2  and  C2_3 
ROOT
ATOM      1  C2  UNL d   1      -3.839   2.862  -4.888  0.00  0.00    -0.076 A 
ATOM      2  C3  UNL d   1      -3.230   3.972  -5.499  0.00  0.00     0.004 A 
ATOM      3  C4  UNL d   1      -3.995   5.028  -5.992  0.00  0.00    -0.003 A 
ATOM      4  C5  UNL d   1      -5.380   4.992  -5.882  0.00  0.00     0.000 A 
ATOM      5  C6  UNL d   1      -6.000   3.907  -5.263  0.00  0.00     0.000 A 
ATOM      6  C7  UNL d   1      -5.243   2.842  -4.745  0.00  0.00    -0.073 A 
ATOM      7  C8  UNL d   1      -5.964   1.694  -4.093  0.00  0.00     0.078 C 
ENDROOT
BRANCH   1   8
ATOM      8  C1  UNL d   1      -2.960   1.734  -4.396  0.00  0.00     0.053 C 
ATOM      9  C   UNL d   1      -1.693   2.235  -3.721  0.00  0.00     0.018 C 
ENDBRANCH   1   8
TORSDOF 1
ENDMDL
