MODEL 1
REMARK minimizedAffinity 9.83845043
REMARK minimizedRMSD -1
REMARK  1 active torsions:
REMARK  status: ('A' for Active; 'I' for Inactive)
REMARK    1  A    between atoms: C1_2  and  C2_3 
ROOT
ATOM      1  C2  UNL d   1       0.581  -4.076   2.057  0.00  0.00    -0.076 A 
ATOM      2  C3  UNL d   1       1.215  -4.117   3.311  0.00  0.00     0.004 A 
ATOM      3  C4  UNL d   1       0.861  -5.071   4.263  0.00  0.00    -0.003 A 
ATOM      4  C5  UNL d   1      -0.134  -6.000   3.977  0.00  0.00     0.000 A 
ATOM      5  C6  UNL d   1      -0.762  -5.985   2.732  0.00  0.00     0.000 A 
ATOM      6  C7  UNL d   1      -0.405  -5.040   1.755  0.00  0.00    -0.073 A 
ATOM      7  C8  UNL d   1      -1.119  -5.065   0.431  0.00  0.00     0.078 C 
ENDROOT
BRANCH   1   8
ATOM      8  C1  UNL d   1       0.988  -3.001   1.075  0.00  0.00     0.053 C 
ATOM      9  C   UNL d   1       2.240  -2.256   1.512  0.00  0.00     0.018 C 
ENDBRANCH   1   8
TORSDOF 1
ENDMDL
