MODEL 1
REMARK minimizedAffinity 14.5993967
REMARK minimizedRMSD -1
REMARK  1 active torsions:
REMARK  status: ('A' for Active; 'I' for Inactive)
REMARK    1  A    between atoms: C1_2  and  C2_3 
ROOT
ATOM      1  C2  UNL d   1      -2.062  -4.368  -0.010  0.00  0.00    -0.076 A 
ATOM      2  C3  UNL d   1      -0.993  -4.093  -0.880  0.00  0.00     0.004 A 
ATOM      3  C4  UNL d   1      -1.218  -3.807  -2.225  0.00  0.00    -0.003 A 
ATOM      4  C5  UNL d   1      -2.516  -3.791  -2.722  0.00  0.00     0.000 A 
ATOM      5  C6  UNL d   1      -3.590  -4.044  -1.870  0.00  0.00     0.000 A 
ATOM      6  C7  UNL d   1      -3.382  -4.318  -0.507  0.00  0.00    -0.073 A 
ATOM      7  C8  UNL d   1      -4.576  -4.590   0.366  0.00  0.00     0.078 C 
ENDROOT
BRANCH   1   8
ATOM      8  C1  UNL d   1      -1.754  -4.698   1.434  0.00  0.00     0.053 C 
ATOM      9  C   UNL d   1      -2.404  -5.997   1.885  0.00  0.00     0.018 C 
ENDBRANCH   1   8
TORSDOF 1
ENDMDL
