MODEL 1
REMARK minimizedAffinity 4.44193888
REMARK minimizedRMSD -1
REMARK  1 active torsions:
REMARK  status: ('A' for Active; 'I' for Inactive)
REMARK    1  A    between atoms: C1_2  and  C2_3 
ROOT
ATOM      1  C2  UNL d   1       1.897   0.700  -0.003  0.00  0.00    -0.076 A 
ATOM      2  C3  UNL d   1       0.725   1.444  -0.224  0.00  0.00     0.004 A 
ATOM      3  C4  UNL d   1       0.674   2.806   0.067  0.00  0.00    -0.003 A 
ATOM      4  C5  UNL d   1       1.796   3.447   0.582  0.00  0.00     0.000 A 
ATOM      5  C6  UNL d   1       2.973   2.729   0.790  0.00  0.00     0.000 A 
ATOM      6  C7  UNL d   1       3.045   1.358   0.487  0.00  0.00    -0.073 A 
ATOM      7  C8  UNL d   1       4.338   0.631   0.737  0.00  0.00     0.078 C 
ENDROOT
BRANCH   1   8
ATOM      8  C1  UNL d   1       1.884  -0.780  -0.312  0.00  0.00     0.053 C 
ATOM      9  C   UNL d   1       1.824  -1.064  -1.805  0.00  0.00     0.018 C 
ENDBRANCH   1   8
TORSDOF 1
ENDMDL
