MODEL 1
REMARK minimizedAffinity 11.440402
REMARK minimizedRMSD -1
REMARK  1 active torsions:
REMARK  status: ('A' for Active; 'I' for Inactive)
REMARK    1  A    between atoms: C1_2  and  C2_3 
ROOT
ATOM      1  C2  UNL d   1       0.355   2.879   0.316  0.00  0.00    -0.076 A 
ATOM      2  C3  UNL d   1       1.529   3.369  -0.281  0.00  0.00     0.004 A 
ATOM      3  C4  UNL d   1       2.785   3.015   0.210  0.00  0.00    -0.003 A 
ATOM      4  C5  UNL d   1       2.886   2.166   1.306  0.00  0.00     0.000 A 
ATOM      5  C6  UNL d   1       1.732   1.656   1.900  0.00  0.00     0.000 A 
ATOM      6  C7  UNL d   1       0.459   1.990   1.407  0.00  0.00    -0.073 A 
ATOM      7  C8  UNL d   1      -0.752   1.416   2.090  0.00  0.00     0.078 C 
ENDROOT
BRANCH   1   8
ATOM      8  C1  UNL d   1      -0.980   3.319  -0.243  0.00  0.00     0.053 C 
ATOM      9  C   UNL d   1      -0.909   3.655  -1.725  0.00  0.00     0.018 C 
ENDBRANCH   1   8
TORSDOF 1
ENDMDL
