MODEL 1
REMARK minimizedAffinity -2.3606317
REMARK minimizedRMSD -1
REMARK  1 active torsions:
REMARK  status: ('A' for Active; 'I' for Inactive)
REMARK    1  A    between atoms: C1_2  and  C2_3 
ROOT
ATOM      1  C2  UNL d   1      -1.766   0.632   0.640  0.00  0.00    -0.081 A 
ATOM      2  C3  UNL d   1      -0.729   0.284  -0.235  0.00  0.00     0.006 A 
ATOM      3  C4  UNL d   1      -0.058  -0.933  -0.089  0.00  0.00     0.002 A 
ATOM      4  C5  UNL d   1      -0.417  -1.823   0.929  0.00  0.00    -0.080 A 
ATOM      5  C6  UNL d   1       0.275  -3.145   1.079  0.00  0.00     0.076 C 
ATOM      6  C7  UNL d   1      -1.440  -1.467   1.814  0.00  0.00     0.002 A 
ATOM      7  C8  UNL d   1      -2.111  -0.251   1.668  0.00  0.00     0.006 A 
ENDROOT
BRANCH   1   8
ATOM      8  C1  UNL d   1      -2.534   1.914   0.445  0.00  0.00     0.054 C 
ATOM      9  C   UNL d   1      -4.015   1.721   0.737  0.00  0.00     0.018 C 
ENDBRANCH   1   8
TORSDOF 1
ENDMDL
