MODEL 1
REMARK minimizedAffinity -0.766230285
REMARK minimizedRMSD -1
REMARK  1 active torsions:
REMARK  status: ('A' for Active; 'I' for Inactive)
REMARK    1  A    between atoms: C1_2  and  C2_3 
ROOT
ATOM      1  C2  UNL d   1      -1.178   0.848   0.654  0.00  0.00    -0.081 A 
ATOM      2  C3  UNL d   1      -0.403   0.331  -0.391  0.00  0.00     0.006 A 
ATOM      3  C4  UNL d   1       0.074  -0.980  -0.337  0.00  0.00     0.002 A 
ATOM      4  C5  UNL d   1      -0.222  -1.799   0.758  0.00  0.00    -0.080 A 
ATOM      5  C6  UNL d   1       0.258  -3.219   0.814  0.00  0.00     0.076 C 
ATOM      6  C7  UNL d   1      -0.983  -1.278   1.810  0.00  0.00     0.002 A 
ATOM      7  C8  UNL d   1      -1.459   0.034   1.757  0.00  0.00     0.006 A 
ENDROOT
BRANCH   1   8
ATOM      8  C1  UNL d   1      -1.749   2.241   0.569  0.00  0.00     0.054 C 
ATOM      9  C   UNL d   1      -3.270   2.219   0.606  0.00  0.00     0.018 C 
ENDBRANCH   1   8
TORSDOF 1
ENDMDL
