MODEL 1
REMARK minimizedAffinity -4.55498695
REMARK minimizedRMSD -1
REMARK  1 active torsions:
REMARK  status: ('A' for Active; 'I' for Inactive)
REMARK    1  A    between atoms: C1_2  and  C2_3 
ROOT
ATOM      1  C2  UNL d   1      -1.643  -0.462   1.269  0.00  0.00    -0.081 A 
ATOM      2  C3  UNL d   1      -0.930   0.389   0.416  0.00  0.00     0.006 A 
ATOM      3  C4  UNL d   1       0.067  -0.120  -0.420  0.00  0.00     0.002 A 
ATOM      4  C5  UNL d   1       0.361  -1.488  -0.423  0.00  0.00    -0.080 A 
ATOM      5  C6  UNL d   1       1.407  -2.052  -1.338  0.00  0.00     0.076 C 
ATOM      6  C7  UNL d   1      -0.340  -2.335   0.442  0.00  0.00     0.002 A 
ATOM      7  C8  UNL d   1      -1.336  -1.827   1.279  0.00  0.00     0.006 A 
ENDROOT
BRANCH   1   8
ATOM      8  C1  UNL d   1      -2.763   0.074   2.125  0.00  0.00     0.054 C 
ATOM      9  C   UNL d   1      -3.653   1.026   1.339  0.00  0.00     0.018 C 
ENDBRANCH   1   8
TORSDOF 1
ENDMDL
