MODEL 1
REMARK minimizedAffinity -3.78384304
REMARK minimizedRMSD -1
REMARK  1 active torsions:
REMARK  status: ('A' for Active; 'I' for Inactive)
REMARK    1  A    between atoms: C1_2  and  C2_3 
ROOT
ATOM      1  C2  UNL d   1       0.432   0.367  -0.181  0.00  0.00    -0.081 A 
ATOM      2  C3  UNL d   1      -0.250  -0.146   0.930  0.00  0.00     0.006 A 
ATOM      3  C4  UNL d   1      -0.400  -1.526   1.093  0.00  0.00     0.002 A 
ATOM      4  C5  UNL d   1       0.134  -2.414   0.154  0.00  0.00    -0.080 A 
ATOM      5  C6  UNL d   1       0.006  -3.898   0.334  0.00  0.00     0.076 C 
ATOM      6  C7  UNL d   1       0.800  -1.901  -0.964  0.00  0.00     0.002 A 
ATOM      7  C8  UNL d   1       0.950  -0.522  -1.129  0.00  0.00     0.006 A 
ENDROOT
BRANCH   1   8
ATOM      8  C1  UNL d   1       0.652   1.851  -0.327  0.00  0.00     0.054 C 
ATOM      9  C   UNL d   1       1.967   2.280   0.308  0.00  0.00     0.018 C 
ENDBRANCH   1   8
TORSDOF 1
ENDMDL
