MODEL 1
REMARK minimizedAffinity -0.209407046
REMARK minimizedRMSD -1
REMARK  1 active torsions:
REMARK  status: ('A' for Active; 'I' for Inactive)
REMARK    1  A    between atoms: C1_2  and  C2_3 
ROOT
ATOM      1  C2  UNL d   1      -2.565   0.737   0.590  0.00  0.00    -0.081 A 
ATOM      2  C3  UNL d   1      -1.459   0.570  -0.252  0.00  0.00     0.006 A 
ATOM      3  C4  UNL d   1      -0.598  -0.517  -0.083  0.00  0.00     0.002 A 
ATOM      4  C5  UNL d   1      -0.833  -1.458   0.925  0.00  0.00    -0.080 A 
ATOM      5  C6  UNL d   1       0.067  -2.646   1.098  0.00  0.00     0.076 C 
ATOM      6  C7  UNL d   1      -1.928  -1.282   1.778  0.00  0.00     0.002 A 
ATOM      7  C8  UNL d   1      -2.789  -0.195   1.609  0.00  0.00     0.006 A 
ENDROOT
BRANCH   1   8
ATOM      8  C1  UNL d   1      -3.532   1.872   0.369  0.00  0.00     0.054 C 
ATOM      9  C   UNL d   1      -4.896   1.561   0.968  0.00  0.00     0.018 C 
ENDBRANCH   1   8
TORSDOF 1
ENDMDL
