MODEL 1
REMARK minimizedAffinity -0.750706792
REMARK minimizedRMSD -1
REMARK  1 active torsions:
REMARK  status: ('A' for Active; 'I' for Inactive)
REMARK    1  A    between atoms: C1_2  and  C2_3 
ROOT
ATOM      1  C2  UNL d   1      -1.346   1.275   0.211  0.00  0.00    -0.081 A 
ATOM      2  C3  UNL d   1      -0.219   0.541  -0.179  0.00  0.00     0.006 A 
ATOM      3  C4  UNL d   1       1.056   1.108  -0.107  0.00  0.00     0.002 A 
ATOM      4  C5  UNL d   1       1.225   2.414   0.365  0.00  0.00    -0.080 A 
ATOM      5  C6  UNL d   1       2.591   3.024   0.477  0.00  0.00     0.076 C 
ATOM      6  C7  UNL d   1       0.098   3.154   0.739  0.00  0.00     0.002 A 
ATOM      7  C8  UNL d   1      -1.177   2.587   0.665  0.00  0.00     0.006 A 
ENDROOT
BRANCH   1   8
ATOM      8  C1  UNL d   1      -2.715   0.644   0.195  0.00  0.00     0.054 C 
ATOM      9  C   UNL d   1      -3.769   1.594   0.745  0.00  0.00     0.018 C 
ENDBRANCH   1   8
TORSDOF 1
ENDMDL
