MODEL 1
REMARK minimizedAffinity -1.5344218
REMARK minimizedRMSD -1
REMARK  1 active torsions:
REMARK  status: ('A' for Active; 'I' for Inactive)
REMARK    1  A    between atoms: C1_2  and  C2_3 
ROOT
ATOM      1  C2  UNL d   1       1.963   3.731  -0.243  0.00  0.00    -0.081 A 
ATOM      2  C3  UNL d   1       0.607   4.081  -0.260  0.00  0.00     0.006 A 
ATOM      3  C4  UNL d   1       0.013   4.669   0.860  0.00  0.00     0.002 A 
ATOM      4  C5  UNL d   1       0.766   4.924   2.011  0.00  0.00    -0.080 A 
ATOM      5  C6  UNL d   1       0.148   5.582   3.209  0.00  0.00     0.076 C 
ATOM      6  C7  UNL d   1       2.116   4.559   2.034  0.00  0.00     0.002 A 
ATOM      7  C8  UNL d   1       2.710   3.970   0.916  0.00  0.00     0.006 A 
ENDROOT
BRANCH   1   8
ATOM      8  C1  UNL d   1       2.621   3.156  -1.471  0.00  0.00     0.054 C 
ATOM      9  C   UNL d   1       2.739   4.198  -2.574  0.00  0.00     0.018 C 
ENDBRANCH   1   8
TORSDOF 1
ENDMDL
