MODEL 1
REMARK minimizedAffinity -2.75031209
REMARK minimizedRMSD -1
REMARK  1 active torsions:
REMARK  status: ('A' for Active; 'I' for Inactive)
REMARK    1  A    between atoms: C1_2  and  C2_3 
ROOT
ATOM      1  C2  UNL d   1      -1.344  -0.098   0.239  0.00  0.00    -0.081 A 
ATOM      2  C3  UNL d   1      -1.659  -0.598   1.508  0.00  0.00     0.006 A 
ATOM      3  C4  UNL d   1      -2.701  -0.039   2.251  0.00  0.00     0.002 A 
ATOM      4  C5  UNL d   1      -3.451   1.023   1.734  0.00  0.00    -0.080 A 
ATOM      5  C6  UNL d   1      -4.593   1.612   2.508  0.00  0.00     0.076 C 
ATOM      6  C7  UNL d   1      -3.125   1.534   0.473  0.00  0.00     0.002 A 
ATOM      7  C8  UNL d   1      -2.083   0.976  -0.270  0.00  0.00     0.006 A 
ENDROOT
BRANCH   1   8
ATOM      8  C1  UNL d   1      -0.262  -0.741  -0.591  0.00  0.00     0.054 C 
ATOM      9  C   UNL d   1      -0.107  -0.042  -1.935  0.00  0.00     0.018 C 
ENDBRANCH   1   8
TORSDOF 1
ENDMDL
