MODEL 1
REMARK minimizedAffinity -4.57232618
REMARK minimizedRMSD -1
REMARK  1 active torsions:
REMARK  status: ('A' for Active; 'I' for Inactive)
REMARK    1  A    between atoms: C1_2  and  C2_3 
ROOT
ATOM      1  C2  UNL d   1      -0.817   0.385   0.446  0.00  0.00    -0.081 A 
ATOM      2  C3  UNL d   1      -1.114  -0.253   1.656  0.00  0.00     0.006 A 
ATOM      3  C4  UNL d   1      -2.245   0.111   2.390  0.00  0.00     0.002 A 
ATOM      4  C5  UNL d   1      -3.102   1.114   1.923  0.00  0.00    -0.080 A 
ATOM      5  C6  UNL d   1      -4.335   1.494   2.687  0.00  0.00     0.076 C 
ATOM      6  C7  UNL d   1      -2.796   1.764   0.723  0.00  0.00     0.002 A 
ATOM      7  C8  UNL d   1      -1.664   1.400  -0.011  0.00  0.00     0.006 A 
ENDROOT
BRANCH   1   8
ATOM      8  C1  UNL d   1       0.366  -0.050  -0.380  0.00  0.00     0.054 C 
ATOM      9  C   UNL d   1      -0.043  -0.362  -1.812  0.00  0.00     0.018 C 
ENDBRANCH   1   8
TORSDOF 1
ENDMDL
