MODEL 1
REMARK minimizedAffinity -3.28811455
REMARK minimizedRMSD -1
REMARK  1 active torsions:
REMARK  status: ('A' for Active; 'I' for Inactive)
REMARK    1  A    between atoms: C1_2  and  C2_3 
ROOT
ATOM      1  C2  UNL d   1      -1.670   1.437   0.112  0.00  0.00    -0.081 A 
ATOM      2  C3  UNL d   1      -2.068   2.778   0.169  0.00  0.00     0.006 A 
ATOM      3  C4  UNL d   1      -3.160   3.160   0.952  0.00  0.00     0.002 A 
ATOM      4  C5  UNL d   1      -3.867   2.210   1.696  0.00  0.00    -0.080 A 
ATOM      5  C6  UNL d   1      -5.023   2.611   2.564  0.00  0.00     0.076 C 
ATOM      6  C7  UNL d   1      -3.481   0.867   1.625  0.00  0.00     0.002 A 
ATOM      7  C8  UNL d   1      -2.390   0.485   0.842  0.00  0.00     0.006 A 
ENDROOT
BRANCH   1   8
ATOM      8  C1  UNL d   1      -0.453   1.032  -0.680  0.00  0.00     0.054 C 
ATOM      9  C   UNL d   1       0.469   0.141   0.140  0.00  0.00     0.018 C 
ENDBRANCH   1   8
TORSDOF 1
ENDMDL
