MODEL 1
REMARK minimizedAffinity 7.89965916
REMARK minimizedRMSD -1
REMARK  1 active torsions:
REMARK  status: ('A' for Active; 'I' for Inactive)
REMARK    1  A    between atoms: C1_2  and  C2_3 
ROOT
ATOM      1  C2  UNL d   1      -0.344  -3.491  -2.185  0.00  0.00    -0.081 A 
ATOM      2  C3  UNL d   1      -1.024  -2.456  -1.531  0.00  0.00     0.006 A 
ATOM      3  C4  UNL d   1      -2.365  -2.607  -1.171  0.00  0.00     0.002 A 
ATOM      4  C5  UNL d   1      -3.046  -3.796  -1.452  0.00  0.00    -0.080 A 
ATOM      5  C6  UNL d   1      -4.477  -3.982  -1.044  0.00  0.00     0.076 C 
ATOM      6  C7  UNL d   1      -2.372  -4.823  -2.120  0.00  0.00     0.002 A 
ATOM      7  C8  UNL d   1      -1.031  -4.673  -2.481  0.00  0.00     0.006 A 
ENDROOT
BRANCH   1   8
ATOM      8  C1  UNL d   1       1.120  -3.356  -2.517  0.00  0.00     0.054 C 
ATOM      9  C   UNL d   1       1.967  -3.259  -1.255  0.00  0.00     0.018 C 
ENDBRANCH   1   8
TORSDOF 1
ENDMDL
