MODEL 1
REMARK minimizedAffinity 6.08090496
REMARK minimizedRMSD -1
REMARK  1 active torsions:
REMARK  status: ('A' for Active; 'I' for Inactive)
REMARK    1  A    between atoms: C1_2  and  C2_3 
ROOT
ATOM      1  C2  UNL d   1       1.730   4.693   1.819  0.00  0.00    -0.081 A 
ATOM      2  C3  UNL d   1       3.012   5.003   1.347  0.00  0.00     0.006 A 
ATOM      3  C4  UNL d   1       3.552   4.314   0.258  0.00  0.00     0.002 A 
ATOM      4  C5  UNL d   1       2.817   3.311  -0.382  0.00  0.00    -0.080 A 
ATOM      5  C6  UNL d   1       3.372   2.585  -1.571  0.00  0.00     0.076 C 
ATOM      6  C7  UNL d   1       1.543   2.989   0.100  0.00  0.00     0.002 A 
ATOM      7  C8  UNL d   1       1.004   3.677   1.189  0.00  0.00     0.006 A 
ENDROOT
BRANCH   1   8
ATOM      8  C1  UNL d   1       1.120   5.478   2.952  0.00  0.00     0.054 C 
ATOM      9  C   UNL d   1      -0.295   5.926   2.615  0.00  0.00     0.018 C 
ENDBRANCH   1   8
TORSDOF 1
ENDMDL
