MODEL 1
REMARK minimizedAffinity 5.72862148
REMARK minimizedRMSD -1
REMARK  1 active torsions:
REMARK  status: ('A' for Active; 'I' for Inactive)
REMARK    1  A    between atoms: C1_2  and  C2_3 
ROOT
ATOM      1  C2  UNL d   1      -0.356   0.476   2.828  0.00  0.00    -0.081 A 
ATOM      2  C3  UNL d   1      -1.391   0.065   1.979  0.00  0.00     0.006 A 
ATOM      3  C4  UNL d   1      -1.732   0.826   0.858  0.00  0.00     0.002 A 
ATOM      4  C5  UNL d   1      -1.039   2.005   0.563  0.00  0.00    -0.080 A 
ATOM      5  C6  UNL d   1      -1.375   2.814  -0.654  0.00  0.00     0.076 C 
ATOM      6  C7  UNL d   1      -0.017   2.424   1.420  0.00  0.00     0.002 A 
ATOM      7  C8  UNL d   1       0.324   1.665   2.542  0.00  0.00     0.006 A 
ENDROOT
BRANCH   1   8
ATOM      8  C1  UNL d   1       0.056  -0.376   4.001  0.00  0.00     0.054 C 
ATOM      9  C   UNL d   1      -1.133  -0.700   4.895  0.00  0.00     0.018 C 
ENDBRANCH   1   8
TORSDOF 1
ENDMDL
