MODEL 1
REMARK minimizedAffinity 8.88834572
REMARK minimizedRMSD -1
REMARK  1 active torsions:
REMARK  status: ('A' for Active; 'I' for Inactive)
REMARK    1  A    between atoms: C1_2  and  C2_3 
ROOT
ATOM      1  C2  UNL d   1      -0.425  -3.892  -2.945  0.00  0.00    -0.081 A 
ATOM      2  C3  UNL d   1      -0.945  -2.874  -2.135  0.00  0.00     0.006 A 
ATOM      3  C4  UNL d   1      -2.291  -2.883  -1.762  0.00  0.00     0.002 A 
ATOM      4  C5  UNL d   1      -3.138  -3.913  -2.186  0.00  0.00    -0.080 A 
ATOM      5  C6  UNL d   1      -4.578  -3.951  -1.768  0.00  0.00     0.076 C 
ATOM      6  C7  UNL d   1      -2.623  -4.921  -3.009  0.00  0.00     0.002 A 
ATOM      7  C8  UNL d   1      -1.278  -4.912  -3.382  0.00  0.00     0.006 A 
ENDROOT
BRANCH   1   8
ATOM      8  C1  UNL d   1       1.040  -3.920  -3.295  0.00  0.00     0.054 C 
ATOM      9  C   UNL d   1       1.893  -3.386  -2.153  0.00  0.00     0.018 C 
ENDBRANCH   1   8
TORSDOF 1
ENDMDL
