MODEL 1
REMARK minimizedAffinity 7.66742611
REMARK minimizedRMSD -1
REMARK  1 active torsions:
REMARK  status: ('A' for Active; 'I' for Inactive)
REMARK    1  A    between atoms: C1_2  and  C2_3 
ROOT
ATOM      1  C2  UNL d   1       1.557   4.518   1.963  0.00  0.00    -0.081 A 
ATOM      2  C3  UNL d   1       1.479   3.316   1.250  0.00  0.00     0.006 A 
ATOM      3  C4  UNL d   1       2.511   2.935   0.389  0.00  0.00     0.002 A 
ATOM      4  C5  UNL d   1       3.641   3.746   0.232  0.00  0.00    -0.080 A 
ATOM      5  C6  UNL d   1       4.769   3.334  -0.665  0.00  0.00     0.076 C 
ATOM      6  C7  UNL d   1       3.710   4.956   0.931  0.00  0.00     0.002 A 
ATOM      7  C8  UNL d   1       2.678   5.337   1.792  0.00  0.00     0.006 A 
ENDROOT
BRANCH   1   8
ATOM      8  C1  UNL d   1       0.475   4.901   2.941  0.00  0.00     0.054 C 
ATOM      9  C   UNL d   1      -0.417   5.998   2.378  0.00  0.00     0.018 C 
ENDBRANCH   1   8
TORSDOF 1
ENDMDL
