MODEL 1
REMARK minimizedAffinity -5.46725512
REMARK minimizedRMSD -1
REMARK  1 active torsions:
REMARK  status: ('A' for Active; 'I' for Inactive)
REMARK    1  A    between atoms: C1_2  and  C2_3 
ROOT
ATOM      1  C2  UNL d   1      -0.240  -0.313  -1.176  0.00  0.00    -0.081 A 
ATOM      2  C3  UNL d   1      -0.777  -1.542  -1.579  0.00  0.00     0.006 A 
ATOM      3  C4  UNL d   1       0.063  -2.607  -1.914  0.00  0.00     0.002 A 
ATOM      4  C5  UNL d   1       1.453  -2.463  -1.845  0.00  0.00    -0.080 A 
ATOM      5  C6  UNL d   1       2.366  -3.607  -2.173  0.00  0.00     0.076 C 
ATOM      6  C7  UNL d   1       1.990  -1.230  -1.460  0.00  0.00     0.002 A 
ATOM      7  C8  UNL d   1       1.151  -0.165  -1.125  0.00  0.00     0.006 A 
ENDROOT
BRANCH   1   8
ATOM      8  C1  UNL d   1      -1.143   0.816  -0.752  0.00  0.00     0.054 C 
ATOM      9  C   UNL d   1      -1.838   0.504   0.566  0.00  0.00     0.018 C 
ENDBRANCH   1   8
TORSDOF 1
ENDMDL
