MODEL 1
REMARK minimizedAffinity 5.52239513
REMARK minimizedRMSD -1
REMARK  1 active torsions:
REMARK  status: ('A' for Active; 'I' for Inactive)
REMARK    1  A    between atoms: C1_2  and  C2_3 
ROOT
ATOM      1  C2  UNL d   1       4.758  -3.823   5.451  0.00  0.00    -0.081 A 
ATOM      2  C3  UNL d   1       4.511  -2.464   5.685  0.00  0.00     0.006 A 
ATOM      3  C4  UNL d   1       3.330  -1.871   5.232  0.00  0.00     0.002 A 
ATOM      4  C5  UNL d   1       2.374  -2.626   4.545  0.00  0.00    -0.080 A 
ATOM      5  C6  UNL d   1       1.089  -2.008   4.080  0.00  0.00     0.076 C 
ATOM      6  C7  UNL d   1       2.628  -3.979   4.295  0.00  0.00     0.002 A 
ATOM      7  C8  UNL d   1       3.809  -4.573   4.747  0.00  0.00     0.006 A 
ENDROOT
BRANCH   1   8
ATOM      8  C1  UNL d   1       6.000  -4.481   5.994  0.00  0.00     0.054 C 
ATOM      9  C   UNL d   1       5.866  -5.997   5.998  0.00  0.00     0.018 C 
ENDBRANCH   1   8
TORSDOF 1
ENDMDL
