MODEL 1
REMARK minimizedAffinity -2.49898911
REMARK minimizedRMSD -1
REMARK  1 active torsions:
REMARK  status: ('A' for Active; 'I' for Inactive)
REMARK    1  A    between atoms: C1_2  and  C2_3 
ROOT
ATOM      1  C2  UNL d   1      -1.188   0.591   0.113  0.00  0.00    -0.081 A 
ATOM      2  C3  UNL d   1      -1.784  -0.486   0.780  0.00  0.00     0.006 A 
ATOM      3  C4  UNL d   1      -1.145  -1.727   0.835  0.00  0.00     0.002 A 
ATOM      4  C5  UNL d   1       0.105  -1.909   0.232  0.00  0.00    -0.080 A 
ATOM      5  C6  UNL d   1       0.816  -3.227   0.310  0.00  0.00     0.076 C 
ATOM      6  C7  UNL d   1       0.693  -0.838  -0.448  0.00  0.00     0.002 A 
ATOM      7  C8  UNL d   1       0.053   0.403  -0.505  0.00  0.00     0.006 A 
ENDROOT
BRANCH   1   8
ATOM      8  C1  UNL d   1      -1.845   1.948   0.107  0.00  0.00     0.054 C 
ATOM      9  C   UNL d   1      -3.362   1.827   0.122  0.00  0.00     0.018 C 
ENDBRANCH   1   8
TORSDOF 1
ENDMDL
