MODEL 1
REMARK minimizedAffinity -4.29614115
REMARK minimizedRMSD -1
REMARK  0 active torsions:
REMARK  status: ('A' for Active; 'I' for Inactive)
ROOT
ATOM      1  C   UNL d   1       0.936  -0.919   2.901  0.00  0.00     0.020 A 
ATOM      2  C1  UNL d   1       1.669  -0.148   2.000  0.00  0.00     0.020 A 
ATOM      3  C2  UNL d   1       1.140   0.146   0.741  0.00  0.00     0.034 A 
ATOM      4  C3  UNL d   1      -0.125  -0.333   0.380  0.00  0.00     0.017 A 
ATOM      5  C4  UNL d   1      -0.859  -1.107   1.285  0.00  0.00     0.017 A 
ATOM      6  C5  UNL d   1      -0.325  -1.398   2.544  0.00  0.00     0.034 A 
ATOM      7 Cl   UNL d   1      -2.426  -1.733   0.911  0.00  0.00    -0.070 Cl
ATOM      8 Cl1  UNL d   1      -0.716   0.069  -1.193  0.00  0.00    -0.070 Cl
ENDROOT
TORSDOF 0
ENDMDL
