MODEL 1
REMARK minimizedAffinity -5.74517584
REMARK minimizedRMSD -1
REMARK  0 active torsions:
REMARK  status: ('A' for Active; 'I' for Inactive)
ROOT
ATOM      1  C   UNL d   1       2.856  -1.564   1.948  0.00  0.00     0.020 A 
ATOM      2  C1  UNL d   1       1.891  -1.595   2.955  0.00  0.00     0.020 A 
ATOM      3  C2  UNL d   1       0.620  -1.067   2.720  0.00  0.00     0.034 A 
ATOM      4  C3  UNL d   1       0.310  -0.506   1.476  0.00  0.00     0.017 A 
ATOM      5  C4  UNL d   1       1.278  -0.476   0.466  0.00  0.00     0.017 A 
ATOM      6  C5  UNL d   1       2.550  -1.006   0.707  0.00  0.00     0.034 A 
ATOM      7 Cl   UNL d   1       0.970   0.199  -1.095  0.00  0.00    -0.070 Cl
ATOM      8 Cl1  UNL d   1      -1.282   0.128   1.255  0.00  0.00    -0.070 Cl
ENDROOT
TORSDOF 0
ENDMDL
