MODEL 1
REMARK minimizedAffinity -5.24373055
REMARK minimizedRMSD -1
REMARK  0 active torsions:
REMARK  status: ('A' for Active; 'I' for Inactive)
ROOT
ATOM      1  C   UNL d   1       0.637  -1.015   2.859  0.00  0.00     0.020 A 
ATOM      2  C1  UNL d   1       1.832  -1.653   2.526  0.00  0.00     0.020 A 
ATOM      3  C2  UNL d   1       2.203  -1.782   1.186  0.00  0.00     0.034 A 
ATOM      4  C3  UNL d   1       1.380  -1.273   0.174  0.00  0.00     0.017 A 
ATOM      5  C4  UNL d   1       0.182  -0.634   0.510  0.00  0.00     0.017 A 
ATOM      6  C5  UNL d   1      -0.186  -0.507   1.853  0.00  0.00     0.034 A 
ATOM      7 Cl   UNL d   1      -0.886   0.019  -0.682  0.00  0.00    -0.070 Cl
ATOM      8 Cl1  UNL d   1       1.903  -1.469  -1.461  0.00  0.00    -0.070 Cl
ENDROOT
TORSDOF 0
ENDMDL
