MODEL 1
REMARK minimizedAffinity -4.08544254
REMARK minimizedRMSD -1
REMARK  0 active torsions:
REMARK  status: ('A' for Active; 'I' for Inactive)
ROOT
ATOM      1  C   UNL d   1       1.830  -1.840   2.429  0.00  0.00     0.020 A 
ATOM      2  C1  UNL d   1       0.930  -0.832   2.773  0.00  0.00     0.020 A 
ATOM      3  C2  UNL d   1       0.371  -0.026   1.778  0.00  0.00     0.034 A 
ATOM      4  C3  UNL d   1       0.712  -0.227   0.435  0.00  0.00     0.017 A 
ATOM      5  C4  UNL d   1       1.615  -1.239   0.092  0.00  0.00     0.017 A 
ATOM      6  C5  UNL d   1       2.172  -2.043   1.092  0.00  0.00     0.034 A 
ATOM      7 Cl   UNL d   1       2.084  -1.547  -1.543  0.00  0.00    -0.070 Cl
ATOM      8 Cl1  UNL d   1      -0.018   0.806  -0.742  0.00  0.00    -0.070 Cl
ENDROOT
TORSDOF 0
ENDMDL
