MODEL 1
REMARK minimizedAffinity -4.60959387
REMARK minimizedRMSD -1
REMARK  0 active torsions:
REMARK  status: ('A' for Active; 'I' for Inactive)
ROOT
ATOM      1  C   UNL d   1      -1.453  -0.004   0.491  0.00  0.00     0.020 A 
ATOM      2  C1  UNL d   1      -0.886  -0.067  -0.781  0.00  0.00     0.020 A 
ATOM      3  C2  UNL d   1       0.445  -0.463  -0.934  0.00  0.00     0.034 A 
ATOM      4  C3  UNL d   1       1.212  -0.799   0.188  0.00  0.00     0.017 A 
ATOM      5  C4  UNL d   1       0.641  -0.736   1.464  0.00  0.00     0.017 A 
ATOM      6  C5  UNL d   1      -0.691  -0.338   1.611  0.00  0.00     0.034 A 
ATOM      7 Cl   UNL d   1       1.525  -1.134   2.895  0.00  0.00    -0.070 Cl
ATOM      8 Cl1  UNL d   1       2.850  -1.281  -0.074  0.00  0.00    -0.070 Cl
ENDROOT
TORSDOF 0
ENDMDL
