MODEL 1
REMARK minimizedAffinity -3.50520611
REMARK minimizedRMSD -1
REMARK  0 active torsions:
REMARK  status: ('A' for Active; 'I' for Inactive)
ROOT
ATOM      1  C   UNL d   1       1.379  -1.628   2.608  0.00  0.00     0.020 A 
ATOM      2  C1  UNL d   1       0.284  -0.764   2.592  0.00  0.00     0.020 A 
ATOM      3  C2  UNL d   1      -0.131  -0.185   1.390  0.00  0.00     0.034 A 
ATOM      4  C3  UNL d   1       0.550  -0.469   0.201  0.00  0.00     0.017 A 
ATOM      5  C4  UNL d   1       1.649  -1.335   0.219  0.00  0.00     0.017 A 
ATOM      6  C5  UNL d   1       2.060  -1.912   1.424  0.00  0.00     0.034 A 
ATOM      7 Cl   UNL d   1       2.539  -1.733  -1.209  0.00  0.00    -0.070 Cl
ATOM      8 Cl1  UNL d   1      -0.017   0.282  -1.248  0.00  0.00    -0.070 Cl
ENDROOT
TORSDOF 0
ENDMDL
