MODEL 1
REMARK minimizedAffinity -5.44050932
REMARK minimizedRMSD -1
REMARK  0 active torsions:
REMARK  status: ('A' for Active; 'I' for Inactive)
ROOT
ATOM      1  C   UNL d   1       1.568  -0.415   1.748  0.00  0.00     0.020 A 
ATOM      2  C1  UNL d   1       0.690  -1.038   2.634  0.00  0.00     0.020 A 
ATOM      3  C2  UNL d   1      -0.667  -1.138   2.318  0.00  0.00     0.034 A 
ATOM      4  C3  UNL d   1      -1.149  -0.615   1.112  0.00  0.00     0.017 A 
ATOM      5  C4  UNL d   1      -0.266   0.010   0.224  0.00  0.00     0.017 A 
ATOM      6  C5  UNL d   1       1.091   0.107   0.545  0.00  0.00     0.034 A 
ATOM      7 Cl   UNL d   1      -0.787   0.679  -1.282  0.00  0.00    -0.070 Cl
ATOM      8 Cl1  UNL d   1      -2.838  -0.775   0.786  0.00  0.00    -0.070 Cl
ENDROOT
TORSDOF 0
ENDMDL
