MODEL 1
REMARK minimizedAffinity -4.71793175
REMARK minimizedRMSD -1
REMARK  0 active torsions:
REMARK  status: ('A' for Active; 'I' for Inactive)
ROOT
ATOM      1  C   UNL d   1      -1.155   0.201   1.983  0.00  0.00     0.020 A 
ATOM      2  C1  UNL d   1      -1.037   0.353   0.602  0.00  0.00     0.020 A 
ATOM      3  C2  UNL d   1       0.066  -0.180  -0.068  0.00  0.00     0.034 A 
ATOM      4  C3  UNL d   1       1.056  -0.868   0.642  0.00  0.00     0.017 A 
ATOM      5  C4  UNL d   1       0.937  -1.021   2.028  0.00  0.00     0.017 A 
ATOM      6  C5  UNL d   1      -0.169  -0.485   2.694  0.00  0.00     0.034 A 
ATOM      7 Cl   UNL d   1       2.118  -1.858   2.973  0.00  0.00    -0.070 Cl
ATOM      8 Cl1  UNL d   1       2.392  -1.502  -0.251  0.00  0.00    -0.070 Cl
ENDROOT
TORSDOF 0
ENDMDL
