MODEL 1
REMARK minimizedAffinity -4.9918108
REMARK minimizedRMSD -1
REMARK  1 active torsions:
REMARK  status: ('A' for Active; 'I' for Inactive)
REMARK    1  A    between atoms: C1_2  and  C2_3 
ROOT
ATOM      1  C2  UNL d   1       0.717   1.655   0.435  0.00  0.00    -0.077 A 
ATOM      2  C3  UNL d   1      -0.525   1.068   0.717  0.00  0.00     0.002 A 
ATOM      3  C4  UNL d   1      -0.658  -0.321   0.753  0.00  0.00     0.002 A 
ATOM      4  C5  UNL d   1       0.448  -1.135   0.513  0.00  0.00    -0.004 A 
ATOM      5  C6  UNL d   1       1.686  -0.561   0.230  0.00  0.00     0.002 A 
ATOM      6  C7  UNL d   1       1.821   0.827   0.192  0.00  0.00     0.002 A 
ENDROOT
BRANCH   1   7
ATOM      7  C1  UNL d   1       0.873   3.153   0.444  0.00  0.00     0.055 C 
ATOM      8  C   UNL d   1       0.080   3.786   1.578  0.00  0.00     0.019 C 
ENDBRANCH   1   7
TORSDOF 1
ENDMDL
