MODEL 1
REMARK minimizedAffinity 5.46334505
REMARK minimizedRMSD -1
REMARK  1 active torsions:
REMARK  status: ('A' for Active; 'I' for Inactive)
REMARK    1  A    between atoms: C1_2  and  C2_3 
ROOT
ATOM      1  C2  UNL d   1      -0.391  -3.799   0.215  0.00  0.00    -0.077 A 
ATOM      2  C3  UNL d   1       0.196  -4.555  -0.810  0.00  0.00     0.002 A 
ATOM      3  C4  UNL d   1      -0.443  -4.686  -2.045  0.00  0.00     0.002 A 
ATOM      4  C5  UNL d   1      -1.668  -4.062  -2.267  0.00  0.00    -0.004 A 
ATOM      5  C6  UNL d   1      -2.261  -3.310  -1.254  0.00  0.00     0.002 A 
ATOM      6  C7  UNL d   1      -1.624  -3.178  -0.019  0.00  0.00     0.002 A 
ENDROOT
BRANCH   1   7
ATOM      7  C1  UNL d   1       0.320  -3.616   1.530  0.00  0.00     0.055 C 
ATOM      8  C   UNL d   1       0.423  -4.929   2.292  0.00  0.00     0.019 C 
ENDBRANCH   1   7
TORSDOF 1
ENDMDL
