MODEL 1
REMARK minimizedAffinity -1.48120391
REMARK minimizedRMSD -1
REMARK  1 active torsions:
REMARK  status: ('A' for Active; 'I' for Inactive)
REMARK    1  A    between atoms: C1_2  and  C2_3 
ROOT
ATOM      1  C2  UNL d   1      -1.074  -4.288   1.502  0.00  0.00    -0.077 A 
ATOM      2  C3  UNL d   1      -1.492  -4.787   0.260  0.00  0.00     0.002 A 
ATOM      3  C4  UNL d   1      -1.594  -3.938  -0.844  0.00  0.00     0.002 A 
ATOM      4  C5  UNL d   1      -1.278  -2.587  -0.718  0.00  0.00    -0.004 A 
ATOM      5  C6  UNL d   1      -0.863  -2.081   0.513  0.00  0.00     0.002 A 
ATOM      6  C7  UNL d   1      -0.761  -2.927   1.618  0.00  0.00     0.002 A 
ENDROOT
BRANCH   1   7
ATOM      7  C1  UNL d   1      -0.915  -5.211   2.681  0.00  0.00     0.055 C 
ATOM      8  C   UNL d   1      -0.154  -4.536   3.813  0.00  0.00     0.019 C 
ENDBRANCH   1   7
TORSDOF 1
ENDMDL
