MODEL 1
REMARK minimizedAffinity -0.0655675009
REMARK minimizedRMSD -1
REMARK  1 active torsions:
REMARK  status: ('A' for Active; 'I' for Inactive)
REMARK    1  A    between atoms: C1_2  and  C2_3 
ROOT
ATOM      1  C2  UNL d   1      -0.753  -3.813   0.613  0.00  0.00    -0.077 A 
ATOM      2  C3  UNL d   1      -2.122  -3.719   0.326  0.00  0.00     0.002 A 
ATOM      3  C4  UNL d   1      -2.598  -4.026  -0.950  0.00  0.00     0.002 A 
ATOM      4  C5  UNL d   1      -1.714  -4.435  -1.946  0.00  0.00    -0.004 A 
ATOM      5  C6  UNL d   1      -0.350  -4.530  -1.671  0.00  0.00     0.002 A 
ATOM      6  C7  UNL d   1       0.128  -4.221  -0.396  0.00  0.00     0.002 A 
ENDROOT
BRANCH   1   7
ATOM      7  C1  UNL d   1      -0.243  -3.529   2.002  0.00  0.00     0.055 C 
ATOM      8  C   UNL d   1      -0.038  -4.814   2.791  0.00  0.00     0.019 C 
ENDBRANCH   1   7
TORSDOF 1
ENDMDL
