MODEL 1
REMARK minimizedAffinity -0.98747462
REMARK minimizedRMSD -1
REMARK  1 active torsions:
REMARK  status: ('A' for Active; 'I' for Inactive)
REMARK    1  A    between atoms: C1_2  and  C2_3 
ROOT
ATOM      1  C2  UNL d   1      -1.738   2.613  -3.885  0.00  0.00    -0.077 A 
ATOM      2  C3  UNL d   1      -0.382   2.258  -3.876  0.00  0.00     0.002 A 
ATOM      3  C4  UNL d   1       0.457   2.648  -4.921  0.00  0.00     0.002 A 
ATOM      4  C5  UNL d   1      -0.049   3.398  -5.980  0.00  0.00    -0.004 A 
ATOM      5  C6  UNL d   1      -1.397   3.755  -6.000  0.00  0.00     0.002 A 
ATOM      6  C7  UNL d   1      -2.237   3.365  -4.956  0.00  0.00     0.002 A 
ENDROOT
BRANCH   1   7
ATOM      7  C1  UNL d   1      -2.634   2.235  -2.734  0.00  0.00     0.055 C 
ATOM      8  C   UNL d   1      -4.027   1.860  -3.218  0.00  0.00     0.019 C 
ENDBRANCH   1   7
TORSDOF 1
ENDMDL
