MODEL 1
REMARK minimizedAffinity 1.25448072
REMARK minimizedRMSD -1
REMARK  1 active torsions:
REMARK  status: ('A' for Active; 'I' for Inactive)
REMARK    1  A    between atoms: C1_2  and  C2_3 
ROOT
ATOM      1  C2  UNL d   1      -1.551  -3.763   0.896  0.00  0.00    -0.077 A 
ATOM      2  C3  UNL d   1      -1.821  -3.407  -0.433  0.00  0.00     0.002 A 
ATOM      3  C4  UNL d   1      -2.754  -4.127  -1.181  0.00  0.00     0.002 A 
ATOM      4  C5  UNL d   1      -3.427  -5.204  -0.608  0.00  0.00    -0.004 A 
ATOM      5  C6  UNL d   1      -3.164  -5.567   0.712  0.00  0.00     0.002 A 
ATOM      6  C7  UNL d   1      -2.231  -4.849   1.461  0.00  0.00     0.002 A 
ENDROOT
BRANCH   1   7
ATOM      7  C1  UNL d   1      -0.581  -2.957   1.720  0.00  0.00     0.055 C 
ATOM      8  C   UNL d   1       0.747  -2.782   0.998  0.00  0.00     0.019 C 
ENDBRANCH   1   7
TORSDOF 1
ENDMDL
