MODEL 1
REMARK minimizedAffinity 6.97031403
REMARK minimizedRMSD -1
REMARK  1 active torsions:
REMARK  status: ('A' for Active; 'I' for Inactive)
REMARK    1  A    between atoms: C1_2  and  C2_3 
ROOT
ATOM      1  C2  UNL d   1       0.095  -3.278  -0.307  0.00  0.00    -0.077 A 
ATOM      2  C3  UNL d   1       0.355  -2.261   0.622  0.00  0.00     0.002 A 
ATOM      3  C4  UNL d   1       1.610  -1.651   0.670  0.00  0.00     0.002 A 
ATOM      4  C5  UNL d   1       2.613  -2.048  -0.211  0.00  0.00    -0.004 A 
ATOM      5  C6  UNL d   1       2.365  -3.060  -1.138  0.00  0.00     0.002 A 
ATOM      6  C7  UNL d   1       1.112  -3.671  -1.187  0.00  0.00     0.002 A 
ENDROOT
BRANCH   1   7
ATOM      7  C1  UNL d   1      -1.273  -3.902  -0.394  0.00  0.00     0.055 C 
ATOM      8  C   UNL d   1      -1.801  -3.884  -1.821  0.00  0.00     0.019 C 
ENDBRANCH   1   7
TORSDOF 1
ENDMDL
