MODEL 1
REMARK minimizedAffinity 0.740798473
REMARK minimizedRMSD -1
REMARK  1 active torsions:
REMARK  status: ('A' for Active; 'I' for Inactive)
REMARK    1  A    between atoms: C1_2  and  C2_3 
ROOT
ATOM      1  C2  UNL d   1       0.511   2.119   2.196  0.00  0.00    -0.077 A 
ATOM      2  C3  UNL d   1       0.775   3.224   1.375  0.00  0.00     0.002 A 
ATOM      3  C4  UNL d   1       1.792   3.168   0.421  0.00  0.00     0.002 A 
ATOM      4  C5  UNL d   1       2.551   2.009   0.276  0.00  0.00    -0.004 A 
ATOM      5  C6  UNL d   1       2.298   0.905   1.089  0.00  0.00     0.002 A 
ATOM      6  C7  UNL d   1       1.282   0.959   2.044  0.00  0.00     0.002 A 
ENDROOT
BRANCH   1   7
ATOM      7  C1  UNL d   1      -0.618   2.159   3.193  0.00  0.00     0.055 C 
ATOM      8  C   UNL d   1      -1.834   2.874   2.622  0.00  0.00     0.019 C 
ENDBRANCH   1   7
TORSDOF 1
ENDMDL
