MODEL 1
REMARK minimizedAffinity -2.32114124
REMARK minimizedRMSD -1
REMARK  1 active torsions:
REMARK  status: ('A' for Active; 'I' for Inactive)
REMARK    1  A    between atoms: C1_2  and  C2_3 
ROOT
ATOM      1  C2  UNL d   1      -1.041  -1.900   0.456  0.00  0.00    -0.077 A 
ATOM      2  C3  UNL d   1      -0.670  -2.105  -0.880  0.00  0.00     0.002 A 
ATOM      3  C4  UNL d   1      -1.134  -3.221  -1.579  0.00  0.00     0.002 A 
ATOM      4  C5  UNL d   1      -1.975  -4.138  -0.951  0.00  0.00    -0.004 A 
ATOM      5  C6  UNL d   1      -2.348  -3.944   0.378  0.00  0.00     0.002 A 
ATOM      6  C7  UNL d   1      -1.884  -2.829   1.078  0.00  0.00     0.002 A 
ENDROOT
BRANCH   1   7
ATOM      7  C1  UNL d   1      -0.582  -0.671   1.196  0.00  0.00     0.055 C 
ATOM      8  C   UNL d   1      -1.675   0.387   1.245  0.00  0.00     0.019 C 
ENDBRANCH   1   7
TORSDOF 1
ENDMDL
