MODEL 1
REMARK minimizedAffinity 2.75130558
REMARK minimizedRMSD -1
REMARK  1 active torsions:
REMARK  status: ('A' for Active; 'I' for Inactive)
REMARK    1  A    between atoms: C1_2  and  C2_3 
ROOT
ATOM      1  C2  UNL d   1      -0.269   1.907  -4.550  0.00  0.00    -0.077 A 
ATOM      2  C3  UNL d   1      -0.626   2.529  -3.345  0.00  0.00     0.002 A 
ATOM      3  C4  UNL d   1      -1.947   2.492  -2.895  0.00  0.00     0.002 A 
ATOM      4  C5  UNL d   1      -2.920   1.830  -3.640  0.00  0.00    -0.004 A 
ATOM      5  C6  UNL d   1      -2.576   1.210  -4.841  0.00  0.00     0.002 A 
ATOM      6  C7  UNL d   1      -1.257   1.248  -5.293  0.00  0.00     0.002 A 
ENDROOT
BRANCH   1   7
ATOM      7  C1  UNL d   1       1.164   1.905  -5.013  0.00  0.00     0.055 C 
ATOM      8  C   UNL d   1       2.105   1.476  -3.896  0.00  0.00     0.019 C 
ENDBRANCH   1   7
TORSDOF 1
ENDMDL
