MODEL 1
REMARK minimizedAffinity 3.00511527
REMARK minimizedRMSD -1
REMARK  1 active torsions:
REMARK  status: ('A' for Active; 'I' for Inactive)
REMARK    1  A    between atoms: C1_2  and  C2_3 
ROOT
ATOM      1  C2  UNL d   1       4.662   5.966   3.779  0.00  0.00    -0.077 A 
ATOM      2  C3  UNL d   1       5.913   5.972   3.147  0.00  0.00     0.002 A 
ATOM      3  C4  UNL d   1       5.999   5.987   1.753  0.00  0.00     0.002 A 
ATOM      4  C5  UNL d   1       4.840   6.000   0.981  0.00  0.00    -0.004 A 
ATOM      5  C6  UNL d   1       3.591   5.992   1.601  0.00  0.00     0.002 A 
ATOM      6  C7  UNL d   1       3.502   5.976   2.994  0.00  0.00     0.002 A 
ENDROOT
BRANCH   1   7
ATOM      7  C1  UNL d   1       4.566   6.000   5.282  0.00  0.00     0.055 C 
ATOM      8  C   UNL d   1       5.943   5.927   5.926  0.00  0.00     0.019 C 
ENDBRANCH   1   7
TORSDOF 1
ENDMDL
