MODEL 1
REMARK minimizedAffinity 5.1559
REMARK minimizedRMSD -1
REMARK  1 active torsions:
REMARK  status: ('A' for Active; 'I' for Inactive)
REMARK    1  A    between atoms: C1_2  and  C2_3 
ROOT
ATOM      1  C2  UNL d   1       5.993   3.610   0.399  0.00  0.00    -0.077 A 
ATOM      2  C3  UNL d   1       5.936   3.360   1.778  0.00  0.00     0.002 A 
ATOM      3  C4  UNL d   1       5.886   4.420   2.686  0.00  0.00     0.002 A 
ATOM      4  C5  UNL d   1       5.888   5.735   2.225  0.00  0.00    -0.004 A 
ATOM      5  C6  UNL d   1       5.946   5.993   0.857  0.00  0.00     0.002 A 
ATOM      6  C7  UNL d   1       5.997   4.935  -0.052  0.00  0.00     0.002 A 
ENDROOT
BRANCH   1   7
ATOM      7  C1  UNL d   1       5.998   2.468  -0.584  0.00  0.00     0.055 C 
ATOM      8  C   UNL d   1       5.912   2.972  -2.017  0.00  0.00     0.019 C 
ENDBRANCH   1   7
TORSDOF 1
ENDMDL
