MODEL 1
REMARK minimizedAffinity 6.31738472
REMARK minimizedRMSD -1
REMARK  1 active torsions:
REMARK  status: ('A' for Active; 'I' for Inactive)
REMARK    1  A    between atoms: C1_2  and  C2_3 
ROOT
ATOM      1  C2  UNL d   1       0.518   3.207  -5.296  0.00  0.00    -0.077 A 
ATOM      2  C3  UNL d   1       0.475   4.518  -5.789  0.00  0.00     0.002 A 
ATOM      3  C4  UNL d   1      -0.751   5.155  -5.994  0.00  0.00     0.002 A 
ATOM      4  C5  UNL d   1      -1.940   4.490  -5.705  0.00  0.00    -0.004 A 
ATOM      5  C6  UNL d   1      -1.908   3.185  -5.216  0.00  0.00     0.002 A 
ATOM      6  C7  UNL d   1      -0.684   2.546  -5.012  0.00  0.00     0.002 A 
ENDROOT
BRANCH   1   7
ATOM      7  C1  UNL d   1       1.840   2.535  -5.028  0.00  0.00     0.055 C 
ATOM      8  C   UNL d   1       2.912   3.019  -5.994  0.00  0.00     0.019 C 
ENDBRANCH   1   7
TORSDOF 1
ENDMDL
