MODEL 1
REMARK minimizedAffinity 2.93571186
REMARK minimizedRMSD -1
REMARK  1 active torsions:
REMARK  status: ('A' for Active; 'I' for Inactive)
REMARK    1  A    between atoms: C1_2  and  C2_3 
ROOT
ATOM      1  C2  UNL d   1      -2.148   2.031  -4.394  0.00  0.00    -0.077 A 
ATOM      2  C3  UNL d   1      -2.230   3.073  -5.328  0.00  0.00     0.002 A 
ATOM      3  C4  UNL d   1      -1.087   3.511  -6.000  0.00  0.00     0.002 A 
ATOM      4  C5  UNL d   1       0.144   2.909  -5.748  0.00  0.00    -0.004 A 
ATOM      5  C6  UNL d   1       0.236   1.873  -4.820  0.00  0.00     0.002 A 
ATOM      6  C7  UNL d   1      -0.905   1.435  -4.147  0.00  0.00     0.002 A 
ENDROOT
BRANCH   1   7
ATOM      7  C1  UNL d   1      -3.388   1.524  -3.705  0.00  0.00     0.055 C 
ATOM      8  C   UNL d   1      -3.419   1.944  -2.242  0.00  0.00     0.019 C 
ENDBRANCH   1   7
TORSDOF 1
ENDMDL
