MODEL 1
REMARK minimizedAffinity -2.62255335
REMARK minimizedRMSD -1
REMARK  0 active torsions:
REMARK  status: ('A' for Active; 'I' for Inactive)
ROOT
ATOM      1  C   UNL d   1       2.143  -1.258  -1.345  0.00  0.00     0.023 A 
ATOM      2  C1  UNL d   1       1.258  -0.308  -1.856  0.00  0.00     0.003 A 
ATOM      3  C2  UNL d   1       0.208   0.165  -1.066  0.00  0.00     0.048 A 
ATOM      4  C3  UNL d   1       0.048  -0.316   0.233  0.00  0.00     0.023 A 
ATOM      5  C4  UNL d   1       0.931  -1.266   0.748  0.00  0.00     0.048 A 
ATOM      6  C5  UNL d   1       1.980  -1.737  -0.045  0.00  0.00     0.003 A 
ATOM      7  I   UNL d   1      -1.514   0.386   1.410  0.00  0.00    -0.146 I 
ENDROOT
TORSDOF 0
ENDMDL
