MODEL 1
REMARK minimizedAffinity -3.52029085
REMARK minimizedRMSD -1
REMARK  0 active torsions:
REMARK  status: ('A' for Active; 'I' for Inactive)
ROOT
ATOM      1  C   UNL d   1       2.235   1.283  -3.199  0.00  0.00     0.023 A 
ATOM      2  C1  UNL d   1       1.164   1.912  -2.565  0.00  0.00     0.003 A 
ATOM      3  C2  UNL d   1       0.545   1.306  -1.470  0.00  0.00     0.048 A 
ATOM      4  C3  UNL d   1       1.004   0.071  -1.013  0.00  0.00     0.023 A 
ATOM      5  C4  UNL d   1       2.076  -0.562  -1.644  0.00  0.00     0.048 A 
ATOM      6  C5  UNL d   1       2.691   0.048  -2.739  0.00  0.00     0.003 A 
ATOM      7  I   UNL d   1       0.085  -0.834   0.617  0.00  0.00    -0.146 I 
ENDROOT
TORSDOF 0
ENDMDL
