MODEL 1
REMARK minimizedAffinity -3.06937361
REMARK minimizedRMSD -1
REMARK  0 active torsions:
REMARK  status: ('A' for Active; 'I' for Inactive)
ROOT
ATOM      1  C   UNL d   1       1.780  -1.254  -0.809  0.00  0.00     0.023 A 
ATOM      2  C1  UNL d   1       0.989  -0.243  -1.355  0.00  0.00     0.003 A 
ATOM      3  C2  UNL d   1      -0.044   0.320  -0.604  0.00  0.00     0.048 A 
ATOM      4  C3  UNL d   1      -0.281  -0.132   0.694  0.00  0.00     0.023 A 
ATOM      5  C4  UNL d   1       0.508  -1.143   1.245  0.00  0.00     0.048 A 
ATOM      6  C5  UNL d   1       1.539  -1.704   0.490  0.00  0.00     0.003 A 
ATOM      7  I   UNL d   1      -1.819   0.704   1.815  0.00  0.00    -0.146 I 
ENDROOT
TORSDOF 0
ENDMDL
