MODEL 1
REMARK minimizedAffinity -0.649105191
REMARK minimizedRMSD -1
REMARK  0 active torsions:
REMARK  status: ('A' for Active; 'I' for Inactive)
ROOT
ATOM      1  C   UNL d   1      -2.069   1.091   3.232  0.00  0.00     0.023 A 
ATOM      2  C1  UNL d   1      -0.791   1.614   3.039  0.00  0.00     0.003 A 
ATOM      3  C2  UNL d   1      -0.061   1.273   1.898  0.00  0.00     0.048 A 
ATOM      4  C3  UNL d   1      -0.615   0.409   0.955  0.00  0.00     0.023 A 
ATOM      5  C4  UNL d   1      -1.895  -0.116   1.144  0.00  0.00     0.048 A 
ATOM      6  C5  UNL d   1      -2.621   0.227   2.286  0.00  0.00     0.003 A 
ATOM      7  I   UNL d   1       0.469  -0.099  -0.744  0.00  0.00    -0.146 I 
ENDROOT
TORSDOF 0
ENDMDL
