MODEL 1
REMARK minimizedAffinity -0.624730885
REMARK minimizedRMSD -1
REMARK  0 active torsions:
REMARK  status: ('A' for Active; 'I' for Inactive)
ROOT
ATOM      1  C   UNL d   1       1.925  -1.541  -1.195  0.00  0.00     0.023 A 
ATOM      2  C1  UNL d   1       1.717  -0.168  -1.326  0.00  0.00     0.003 A 
ATOM      3  C2  UNL d   1       0.649   0.444  -0.666  0.00  0.00     0.048 A 
ATOM      4  C3  UNL d   1      -0.207  -0.323   0.123  0.00  0.00     0.023 A 
ATOM      5  C4  UNL d   1      -0.002  -1.697   0.258  0.00  0.00     0.048 A 
ATOM      6  C5  UNL d   1       1.066  -2.305  -0.404  0.00  0.00     0.003 A 
ATOM      7  I   UNL d   1      -1.797   0.586   1.106  0.00  0.00    -0.146 I 
ENDROOT
TORSDOF 0
ENDMDL
