MODEL 1
REMARK minimizedAffinity 2.65470982
REMARK minimizedRMSD -1
REMARK  0 active torsions:
REMARK  status: ('A' for Active; 'I' for Inactive)
ROOT
ATOM      1  C   UNL d   1       0.730  -2.206  -0.334  0.00  0.00     0.023 A 
ATOM      2  C1  UNL d   1       1.280  -2.236   0.947  0.00  0.00     0.003 A 
ATOM      3  C2  UNL d   1       0.776  -1.399   1.945  0.00  0.00     0.048 A 
ATOM      4  C3  UNL d   1      -0.280  -0.536   1.655  0.00  0.00     0.023 A 
ATOM      5  C4  UNL d   1      -0.835  -0.503   0.374  0.00  0.00     0.048 A 
ATOM      6  C5  UNL d   1      -0.327  -1.341  -0.620  0.00  0.00     0.003 A 
ATOM      7  I   UNL d   1      -1.033   0.710   3.138  0.00  0.00    -0.146 I 
ENDROOT
TORSDOF 0
ENDMDL
