MODEL 1
REMARK minimizedAffinity -2.58174086
REMARK minimizedRMSD -1
REMARK  0 active torsions:
REMARK  status: ('A' for Active; 'I' for Inactive)
ROOT
ATOM      1  C   UNL d   1       2.514  -0.066  -2.642  0.00  0.00     0.023 A 
ATOM      2  C1  UNL d   1       2.336  -1.064  -1.684  0.00  0.00     0.003 A 
ATOM      3  C2  UNL d   1       1.342  -0.933  -0.713  0.00  0.00     0.048 A 
ATOM      4  C3  UNL d   1       0.527   0.199  -0.706  0.00  0.00     0.023 A 
ATOM      5  C4  UNL d   1       0.701   1.201  -1.663  0.00  0.00     0.048 A 
ATOM      6  C5  UNL d   1       1.698   1.065  -2.632  0.00  0.00     0.003 A 
ATOM      7  I   UNL d   1      -0.954   0.397   0.738  0.00  0.00    -0.146 I 
ENDROOT
TORSDOF 0
ENDMDL
