MODEL 1
REMARK minimizedAffinity 0.361290962
REMARK minimizedRMSD -1
REMARK  0 active torsions:
REMARK  status: ('A' for Active; 'I' for Inactive)
ROOT
ATOM      1  C   UNL d   1       1.144  -1.634  -0.706  0.00  0.00     0.023 A 
ATOM      2  C1  UNL d   1      -0.210  -1.772  -1.014  0.00  0.00     0.003 A 
ATOM      3  C2  UNL d   1      -1.168  -1.059  -0.290  0.00  0.00     0.048 A 
ATOM      4  C3  UNL d   1      -0.765  -0.209   0.740  0.00  0.00     0.023 A 
ATOM      5  C4  UNL d   1       0.589  -0.068   1.051  0.00  0.00     0.048 A 
ATOM      6  C5  UNL d   1       1.542  -0.783   0.325  0.00  0.00     0.003 A 
ATOM      7  I   UNL d   1      -2.189   0.853   1.819  0.00  0.00    -0.146 I 
ENDROOT
TORSDOF 0
ENDMDL
