MODEL 1
REMARK minimizedAffinity -3.66840744
REMARK minimizedRMSD -1
REMARK  0 active torsions:
REMARK  status: ('A' for Active; 'I' for Inactive)
ROOT
ATOM      1  C   UNL d   1       0.306  -1.086  -0.082  0.00  0.00     0.023 A 
ATOM      2  C1  UNL d   1       0.713  -1.065   1.252  0.00  0.00     0.003 A 
ATOM      3  C2  UNL d   1       0.061  -0.238   2.169  0.00  0.00     0.048 A 
ATOM      4  C3  UNL d   1      -0.998   0.565   1.745  0.00  0.00     0.023 A 
ATOM      5  C4  UNL d   1      -1.409   0.546   0.411  0.00  0.00     0.048 A 
ATOM      6  C5  UNL d   1      -0.753  -0.282  -0.502  0.00  0.00     0.003 A 
ATOM      7  I   UNL d   1      -1.970   1.796   3.108  0.00  0.00    -0.146 I 
ENDROOT
TORSDOF 0
ENDMDL
