MODEL 1
REMARK minimizedAffinity -3.19639444
REMARK minimizedRMSD -1
REMARK  0 active torsions:
REMARK  status: ('A' for Active; 'I' for Inactive)
ROOT
ATOM      1  C   UNL d   1       2.082   0.824  -3.374  0.00  0.00     0.023 A 
ATOM      2  C1  UNL d   1       2.305  -0.417  -2.776  0.00  0.00     0.003 A 
ATOM      3  C2  UNL d   1       1.826  -0.669  -1.489  0.00  0.00     0.048 A 
ATOM      4  C3  UNL d   1       1.124   0.323  -0.806  0.00  0.00     0.023 A 
ATOM      5  C4  UNL d   1       0.898   1.565  -1.400  0.00  0.00     0.048 A 
ATOM      6  C5  UNL d   1       1.379   1.813  -2.687  0.00  0.00     0.003 A 
ATOM      7  I   UNL d   1       0.410  -0.051   1.110  0.00  0.00    -0.146 I 
ENDROOT
TORSDOF 0
ENDMDL
