MODEL 1
REMARK minimizedAffinity -2.80650806
REMARK minimizedRMSD -1
REMARK  0 active torsions:
REMARK  status: ('A' for Active; 'I' for Inactive)
ROOT
ATOM      1  C   UNL d   1       1.719  -1.014  -1.685  0.00  0.00     0.023 A 
ATOM      2  C1  UNL d   1       1.478  -1.811  -0.566  0.00  0.00     0.003 A 
ATOM      3  C2  UNL d   1       0.597  -1.375   0.426  0.00  0.00     0.048 A 
ATOM      4  C3  UNL d   1      -0.040  -0.142   0.292  0.00  0.00     0.023 A 
ATOM      5  C4  UNL d   1       0.197   0.658  -0.827  0.00  0.00     0.048 A 
ATOM      6  C5  UNL d   1       1.079   0.219  -1.816  0.00  0.00     0.003 A 
ATOM      7  I   UNL d   1      -1.352   0.509   1.767  0.00  0.00    -0.146 I 
ENDROOT
TORSDOF 0
ENDMDL
