MODEL 1
REMARK minimizedAffinity -3.14281201
REMARK minimizedRMSD -1
REMARK  0 active torsions:
REMARK  status: ('A' for Active; 'I' for Inactive)
ROOT
ATOM      1  C   UNL d   1       1.630  -0.169  -2.098  0.00  0.00     0.023 A 
ATOM      2  C1  UNL d   1       0.936   1.039  -2.027  0.00  0.00     0.003 A 
ATOM      3  C2  UNL d   1       0.095   1.300  -0.943  0.00  0.00     0.048 A 
ATOM      4  C3  UNL d   1      -0.047   0.349   0.067  0.00  0.00     0.023 A 
ATOM      5  C4  UNL d   1       0.646  -0.861   0.000  0.00  0.00     0.048 A 
ATOM      6  C5  UNL d   1       1.485  -1.118  -1.086  0.00  0.00     0.003 A 
ATOM      7  I   UNL d   1      -1.298   0.735   1.681  0.00  0.00    -0.146 I 
ENDROOT
TORSDOF 0
ENDMDL
