MODEL 1
REMARK minimizedAffinity -1.83483136
REMARK minimizedRMSD -1
REMARK  0 active torsions:
REMARK  status: ('A' for Active; 'I' for Inactive)
ROOT
ATOM      1  C   UNL d   1      -0.400  -0.163  -0.706  0.00  0.00     0.023 A 
ATOM      2  C1  UNL d   1       0.411  -0.204   0.428  0.00  0.00     0.003 A 
ATOM      3  C2  UNL d   1      -0.100   0.187   1.668  0.00  0.00     0.048 A 
ATOM      4  C3  UNL d   1      -1.423   0.616   1.766  0.00  0.00     0.023 A 
ATOM      5  C4  UNL d   1      -2.238   0.658   0.634  0.00  0.00     0.048 A 
ATOM      6  C5  UNL d   1      -1.723   0.268  -0.603  0.00  0.00     0.003 A 
ATOM      7  I   UNL d   1      -2.185   1.198   3.610  0.00  0.00    -0.146 I 
ENDROOT
TORSDOF 0
ENDMDL
