MODEL 1
REMARK minimizedAffinity -0.636550546
REMARK minimizedRMSD -1
REMARK  0 active torsions:
REMARK  status: ('A' for Active; 'I' for Inactive)
ROOT
ATOM      1  C   UNL d   1       0.730  -0.086  -1.181  0.00  0.00     0.023 A 
ATOM      2  C1  UNL d   1      -0.043   1.071  -1.081  0.00  0.00     0.003 A 
ATOM      3  C2  UNL d   1      -1.021   1.175  -0.089  0.00  0.00     0.048 A 
ATOM      4  C3  UNL d   1      -1.219   0.120   0.800  0.00  0.00     0.023 A 
ATOM      5  C4  UNL d   1      -0.446  -1.039   0.705  0.00  0.00     0.048 A 
ATOM      6  C5  UNL d   1       0.529  -1.139  -0.289  0.00  0.00     0.003 A 
ATOM      7  I   UNL d   1      -2.673   0.273   2.277  0.00  0.00    -0.146 I 
ENDROOT
TORSDOF 0
ENDMDL
