MODEL 1
REMARK minimizedAffinity -1.36917543
REMARK minimizedRMSD -1
REMARK  0 active torsions:
REMARK  status: ('A' for Active; 'I' for Inactive)
ROOT
ATOM      1  C   UNL d   1       0.149  -1.080   1.177  0.00  0.00     0.023 A 
ATOM      2  C1  UNL d   1      -0.667  -0.180   0.491  0.00  0.00     0.003 A 
ATOM      3  C2  UNL d   1      -0.226   0.391  -0.705  0.00  0.00     0.048 A 
ATOM      4  C3  UNL d   1       1.030   0.057  -1.209  0.00  0.00     0.023 A 
ATOM      5  C4  UNL d   1       1.850  -0.843  -0.526  0.00  0.00     0.048 A 
ATOM      6  C5  UNL d   1       1.406  -1.411   0.670  0.00  0.00     0.003 A 
ATOM      7  I   UNL d   1       1.688   0.906  -2.989  0.00  0.00    -0.146 I 
ENDROOT
TORSDOF 0
ENDMDL
