MODEL 1
REMARK minimizedAffinity -1.56758082
REMARK minimizedRMSD -1
REMARK  0 active torsions:
REMARK  status: ('A' for Active; 'I' for Inactive)
ROOT
ATOM      1  C   UNL d   1       1.480  -1.515  -1.713  0.00  0.00     0.023 A 
ATOM      2  C1  UNL d   1       1.150  -2.199  -0.543  0.00  0.00     0.003 A 
ATOM      3  C2  UNL d   1       0.311  -1.604   0.402  0.00  0.00     0.048 A 
ATOM      4  C3  UNL d   1      -0.194  -0.325   0.170  0.00  0.00     0.023 A 
ATOM      5  C4  UNL d   1       0.133   0.363  -1.000  0.00  0.00     0.048 A 
ATOM      6  C5  UNL d   1       0.973  -0.236  -1.941  0.00  0.00     0.003 A 
ATOM      7  I   UNL d   1      -1.443   0.562   1.575  0.00  0.00    -0.146 I 
ENDROOT
TORSDOF 0
ENDMDL
