MODEL 1
REMARK minimizedAffinity -3.52413154
REMARK minimizedRMSD -1
REMARK  0 active torsions:
REMARK  status: ('A' for Active; 'I' for Inactive)
ROOT
ATOM      1  C   UNL d   1       2.752  -0.542   0.856  0.00  0.00     0.020 A 
ATOM      2  C1  UNL d   1       1.948  -1.564   0.353  0.00  0.00     0.020 A 
ATOM      3  C2  UNL d   1       0.698  -1.264  -0.192  0.00  0.00     0.034 A 
ATOM      4  C3  UNL d   1       0.248   0.060  -0.235  0.00  0.00     0.017 A 
ATOM      5  C4  UNL d   1       1.056   1.086   0.270  0.00  0.00     0.017 A 
ATOM      6  C5  UNL d   1       2.307   0.780   0.814  0.00  0.00     0.034 A 
ATOM      7 Cl   UNL d   1       0.569   2.744   0.251  0.00  0.00    -0.070 Cl
ATOM      8 Cl1  UNL d   1      -1.309   0.358  -0.924  0.00  0.00    -0.070 Cl
ENDROOT
TORSDOF 0
ENDMDL
