MODEL 1
REMARK minimizedAffinity -4.17111731
REMARK minimizedRMSD -1
REMARK  0 active torsions:
REMARK  status: ('A' for Active; 'I' for Inactive)
ROOT
ATOM      1  C   UNL d   1       1.653   1.959  -0.449  0.00  0.00     0.020 A 
ATOM      2  C1  UNL d   1       2.684   1.311   0.230  0.00  0.00     0.020 A 
ATOM      3  C2  UNL d   1       2.440   0.099   0.880  0.00  0.00     0.034 A 
ATOM      4  C3  UNL d   1       1.161  -0.469   0.851  0.00  0.00     0.017 A 
ATOM      5  C4  UNL d   1       0.126   0.182   0.169  0.00  0.00     0.017 A 
ATOM      6  C5  UNL d   1       0.377   1.395  -0.479  0.00  0.00     0.034 A 
ATOM      7 Cl   UNL d   1      -1.478  -0.457   0.090  0.00  0.00    -0.070 Cl
ATOM      8 Cl1  UNL d   1       0.930  -1.970   1.675  0.00  0.00    -0.070 Cl
ENDROOT
TORSDOF 0
ENDMDL
