MODEL 1
REMARK minimizedAffinity -0.396504372
REMARK minimizedRMSD -1
REMARK  0 active torsions:
REMARK  status: ('A' for Active; 'I' for Inactive)
ROOT
ATOM      1  C   UNL d   1      -3.280  -0.251  -3.532  0.00  0.00     0.020 A 
ATOM      2  C1  UNL d   1      -2.097   0.012  -4.221  0.00  0.00     0.020 A 
ATOM      3  C2  UNL d   1      -0.904   0.190  -3.518  0.00  0.00     0.034 A 
ATOM      4  C3  UNL d   1      -0.891   0.106  -2.121  0.00  0.00     0.017 A 
ATOM      5  C4  UNL d   1      -2.079  -0.158  -1.429  0.00  0.00     0.017 A 
ATOM      6  C5  UNL d   1      -3.271  -0.336  -2.139  0.00  0.00     0.034 A 
ATOM      7 Cl   UNL d   1      -2.143  -0.276   0.294  0.00  0.00    -0.070 Cl
ATOM      8 Cl1  UNL d   1       0.620   0.338  -1.315  0.00  0.00    -0.070 Cl
ENDROOT
TORSDOF 0
ENDMDL
