MODEL 1
REMARK minimizedAffinity 1.25036609
REMARK minimizedRMSD -1
REMARK  0 active torsions:
REMARK  status: ('A' for Active; 'I' for Inactive)
ROOT
ATOM      1  C   UNL d   1       0.903   0.634  -0.944  0.00  0.00     0.020 A 
ATOM      2  C1  UNL d   1       0.093   0.800   0.178  0.00  0.00     0.020 A 
ATOM      3  C2  UNL d   1      -1.294   0.878   0.033  0.00  0.00     0.034 A 
ATOM      4  C3  UNL d   1      -1.874   0.790  -1.238  0.00  0.00     0.017 A 
ATOM      5  C4  UNL d   1      -1.060   0.624  -2.364  0.00  0.00     0.017 A 
ATOM      6  C5  UNL d   1       0.328   0.547  -2.213  0.00  0.00     0.034 A 
ATOM      7 Cl   UNL d   1      -1.703   0.508  -3.964  0.00  0.00    -0.070 Cl
ATOM      8 Cl1  UNL d   1      -3.596   0.894  -1.344  0.00  0.00    -0.070 Cl
ENDROOT
TORSDOF 0
ENDMDL
