MODEL 1
REMARK minimizedAffinity -3.12891316
REMARK minimizedRMSD -1
REMARK  0 active torsions:
REMARK  status: ('A' for Active; 'I' for Inactive)
ROOT
ATOM      1  C   UNL d   1       2.254   0.976   0.624  0.00  0.00     0.020 A 
ATOM      2  C1  UNL d   1       2.437   0.069   1.667  0.00  0.00     0.020 A 
ATOM      3  C2  UNL d   1       1.446  -0.870   1.958  0.00  0.00     0.034 A 
ATOM      4  C3  UNL d   1       0.267  -0.905   1.204  0.00  0.00     0.017 A 
ATOM      5  C4  UNL d   1       0.084   0.005   0.157  0.00  0.00     0.017 A 
ATOM      6  C5  UNL d   1       1.080   0.944  -0.130  0.00  0.00     0.034 A 
ATOM      7 Cl   UNL d   1      -1.343   0.023  -0.818  0.00  0.00    -0.070 Cl
ATOM      8 Cl1  UNL d   1      -0.917  -2.094   1.618  0.00  0.00    -0.070 Cl
ENDROOT
TORSDOF 0
ENDMDL
