MODEL 1
REMARK minimizedAffinity -4.54695845
REMARK minimizedRMSD -1
REMARK  0 active torsions:
REMARK  status: ('A' for Active; 'I' for Inactive)
ROOT
ATOM      1  C   UNL d   1       3.066  -0.097   1.524  0.00  0.00     0.020 A 
ATOM      2  C1  UNL d   1       2.364  -1.271   1.254  0.00  0.00     0.020 A 
ATOM      3  C2  UNL d   1       1.079  -1.207   0.711  0.00  0.00     0.034 A 
ATOM      4  C3  UNL d   1       0.492   0.034   0.437  0.00  0.00     0.017 A 
ATOM      5  C4  UNL d   1       1.197   1.212   0.708  0.00  0.00     0.017 A 
ATOM      6  C5  UNL d   1       2.484   1.142   1.252  0.00  0.00     0.034 A 
ATOM      7 Cl   UNL d   1       0.539   2.779   0.397  0.00  0.00    -0.070 Cl
ATOM      8 Cl1  UNL d   1      -1.100   0.038  -0.234  0.00  0.00    -0.070 Cl
ENDROOT
TORSDOF 0
ENDMDL
