MODEL 1
REMARK minimizedAffinity -3.74419165
REMARK minimizedRMSD -1
REMARK  0 active torsions:
REMARK  status: ('A' for Active; 'I' for Inactive)
ROOT
ATOM      1  C   UNL d   1       1.021  -2.396   2.239  0.00  0.00     0.020 A 
ATOM      2  C1  UNL d   1       2.291  -1.831   2.344  0.00  0.00     0.020 A 
ATOM      3  C2  UNL d   1       2.572  -0.622   1.704  0.00  0.00     0.034 A 
ATOM      4  C3  UNL d   1       1.582   0.026   0.956  0.00  0.00     0.017 A 
ATOM      5  C4  UNL d   1       0.307  -0.543   0.852  0.00  0.00     0.017 A 
ATOM      6  C5  UNL d   1       0.031  -1.753   1.494  0.00  0.00     0.034 A 
ATOM      7 Cl   UNL d   1      -0.966   0.197  -0.053  0.00  0.00    -0.070 Cl
ATOM      8 Cl1  UNL d   1       2.000   1.518   0.192  0.00  0.00    -0.070 Cl
ENDROOT
TORSDOF 0
ENDMDL
