MODEL 1
REMARK minimizedAffinity -4.88151693
REMARK minimizedRMSD -1
REMARK  0 active torsions:
REMARK  status: ('A' for Active; 'I' for Inactive)
ROOT
ATOM      1  C   UNL d   1       3.035  -0.427   1.315  0.00  0.00     0.020 A 
ATOM      2  C1  UNL d   1       2.315  -1.562   0.946  0.00  0.00     0.020 A 
ATOM      3  C2  UNL d   1       0.998  -1.439   0.498  0.00  0.00     0.034 A 
ATOM      4  C3  UNL d   1       0.396  -0.177   0.420  0.00  0.00     0.017 A 
ATOM      5  C4  UNL d   1       1.120   0.962   0.791  0.00  0.00     0.017 A 
ATOM      6  C5  UNL d   1       2.438   0.833   1.238  0.00  0.00     0.034 A 
ATOM      7 Cl   UNL d   1       0.445   2.552   0.721  0.00  0.00    -0.070 Cl
ATOM      8 Cl1  UNL d   1      -1.236  -0.099  -0.143  0.00  0.00    -0.070 Cl
ENDROOT
TORSDOF 0
ENDMDL
