MODEL 1
REMARK minimizedAffinity 0.0216676742
REMARK minimizedRMSD -1
REMARK  0 active torsions:
REMARK  status: ('A' for Active; 'I' for Inactive)
ROOT
ATOM      1  C   UNL d   1      -0.506   1.691  -0.853  0.00  0.00     0.020 A 
ATOM      2  C1  UNL d   1      -1.255   0.612  -0.385  0.00  0.00     0.020 A 
ATOM      3  C2  UNL d   1      -0.683  -0.303   0.502  0.00  0.00     0.034 A 
ATOM      4  C3  UNL d   1       0.641  -0.141   0.923  0.00  0.00     0.017 A 
ATOM      5  C4  UNL d   1       1.393   0.942   0.453  0.00  0.00     0.017 A 
ATOM      6  C5  UNL d   1       0.815   1.856  -0.434  0.00  0.00     0.034 A 
ATOM      7 Cl   UNL d   1       3.033   1.209   0.929  0.00  0.00    -0.070 Cl
ATOM      8 Cl1  UNL d   1       1.284  -1.311   2.021  0.00  0.00    -0.070 Cl
ENDROOT
TORSDOF 0
ENDMDL
