MODEL 1
REMARK minimizedAffinity -2.87628031
REMARK minimizedRMSD -1
REMARK  0 active torsions:
REMARK  status: ('A' for Active; 'I' for Inactive)
ROOT
ATOM      1  C   UNL d   1       1.618   1.880  -0.336  0.00  0.00     0.020 A 
ATOM      2  C1  UNL d   1       2.553   1.172   0.419  0.00  0.00     0.020 A 
ATOM      3  C2  UNL d   1       2.196  -0.038   1.017  0.00  0.00     0.034 A 
ATOM      4  C3  UNL d   1       0.901  -0.544   0.862  0.00  0.00     0.017 A 
ATOM      5  C4  UNL d   1      -0.037   0.167   0.105  0.00  0.00     0.017 A 
ATOM      6  C5  UNL d   1       0.326   1.378  -0.492  0.00  0.00     0.034 A 
ATOM      7 Cl   UNL d   1      -1.655  -0.395  -0.131  0.00  0.00    -0.070 Cl
ATOM      8 Cl1  UNL d   1       0.528  -2.047   1.630  0.00  0.00    -0.070 Cl
ENDROOT
TORSDOF 0
ENDMDL
