MODEL 1
REMARK minimizedAffinity -4.22188377
REMARK minimizedRMSD -1
REMARK  0 active torsions:
REMARK  status: ('A' for Active; 'I' for Inactive)
ROOT
ATOM      1  C   UNL d   1       2.470  -2.019  -0.027  0.00  0.00    -0.002 A 
ATOM      2  C1  UNL d   1       1.419  -2.581  -0.739  0.00  0.00     0.010 A 
ATOM      3  C2  UNL d   1       0.221  -1.883  -0.907  0.00  0.00     0.041 A 
ATOM      4  C3  UNL d   1       0.096  -0.598  -0.343  0.00  0.00    -0.075 A 
ATOM      5  S   UNL d   1      -1.276   0.442  -0.420  0.00  0.00     0.015 SA
ATOM      6  C4  UNL d   1      -0.500   1.657   0.489  0.00  0.00     0.022 A 
ATOM      7  C5  UNL d   1       0.775   1.294   0.852  0.00  0.00     0.026 A 
ATOM      8  C6  UNL d   1       1.140  -0.011   0.378  0.00  0.00    -0.082 A 
ATOM      9  C7  UNL d   1       2.342  -0.744   0.531  0.00  0.00     0.045 A 
ENDROOT
TORSDOF 0
ENDMDL
