MODEL 1
REMARK minimizedAffinity -1.3665489
REMARK minimizedRMSD -1
REMARK  0 active torsions:
REMARK  status: ('A' for Active; 'I' for Inactive)
ROOT
ATOM      1  C   UNL d   1       2.308  -2.091   0.587  0.00  0.00    -0.002 A 
ATOM      2  C1  UNL d   1       1.165  -2.446  -0.116  0.00  0.00     0.010 A 
ATOM      3  C2  UNL d   1       0.252  -1.472  -0.526  0.00  0.00     0.041 A 
ATOM      4  C3  UNL d   1       0.510  -0.122  -0.217  0.00  0.00    -0.075 A 
ATOM      5  S   UNL d   1      -0.465   1.241  -0.619  0.00  0.00     0.015 SA
ATOM      6  C4  UNL d   1       0.612   2.327   0.132  0.00  0.00     0.022 A 
ATOM      7  C5  UNL d   1       1.695   1.683   0.681  0.00  0.00     0.026 A 
ATOM      8  C6  UNL d   1       1.655   0.260   0.488  0.00  0.00    -0.082 A 
ATOM      9  C7  UNL d   1       2.561  -0.750   0.891  0.00  0.00     0.045 A 
ENDROOT
TORSDOF 0
ENDMDL
