MODEL 1
REMARK minimizedAffinity -1.2935406
REMARK minimizedRMSD -1
REMARK  0 active torsions:
REMARK  status: ('A' for Active; 'I' for Inactive)
ROOT
ATOM      1  C   UNL d   1      -3.752   0.008   1.846  0.00  0.00    -0.002 A 
ATOM      2  C1  UNL d   1      -3.777   1.329   1.422  0.00  0.00     0.010 A 
ATOM      3  C2  UNL d   1      -2.725   1.853   0.669  0.00  0.00     0.041 A 
ATOM      4  C3  UNL d   1      -1.638   1.018   0.343  0.00  0.00    -0.075 A 
ATOM      5  S   UNL d   1      -0.239   1.442  -0.571  0.00  0.00     0.015 SA
ATOM      6  C4  UNL d   1       0.424  -0.121  -0.422  0.00  0.00     0.022 A 
ATOM      7  C5  UNL d   1      -0.389  -0.958   0.304  0.00  0.00     0.026 A 
ATOM      8  C6  UNL d   1      -1.591  -0.316   0.757  0.00  0.00    -0.082 A 
ATOM      9  C7  UNL d   1      -2.672  -0.817   1.520  0.00  0.00     0.045 A 
ENDROOT
TORSDOF 0
ENDMDL
