MODEL 1
REMARK minimizedAffinity 1.97363198
REMARK minimizedRMSD -1
REMARK  0 active torsions:
REMARK  status: ('A' for Active; 'I' for Inactive)
ROOT
ATOM      1  C   UNL d   1      -0.565   1.930  -0.370  0.00  0.00    -0.002 A 
ATOM      2  C1  UNL d   1       0.679   2.292   0.127  0.00  0.00     0.010 A 
ATOM      3  C2  UNL d   1       1.686   1.338   0.284  0.00  0.00     0.041 A 
ATOM      4  C3  UNL d   1       1.420   0.001  -0.071  0.00  0.00    -0.075 A 
ATOM      5  S   UNL d   1       2.501  -1.337   0.034  0.00  0.00     0.015 SA
ATOM      6  C4  UNL d   1       1.337  -2.421  -0.578  0.00  0.00     0.022 A 
ATOM      7  C5  UNL d   1       0.147  -1.794  -0.861  0.00  0.00     0.026 A 
ATOM      8  C6  UNL d   1       0.175  -0.388  -0.575  0.00  0.00    -0.082 A 
ATOM      9  C7  UNL d   1      -0.825   0.603  -0.721  0.00  0.00     0.045 A 
ENDROOT
TORSDOF 0
ENDMDL
