MODEL 1
REMARK minimizedAffinity -3.22038841
REMARK minimizedRMSD -1
REMARK  0 active torsions:
REMARK  status: ('A' for Active; 'I' for Inactive)
ROOT
ATOM      1  C   UNL d   1       3.151  -0.048   1.094  0.00  0.00    -0.002 A 
ATOM      2  C1  UNL d   1       3.193  -1.337   0.582  0.00  0.00     0.010 A 
ATOM      3  C2  UNL d   1       2.113  -1.852  -0.137  0.00  0.00     0.041 A 
ATOM      4  C3  UNL d   1       0.979  -1.040  -0.338  0.00  0.00    -0.075 A 
ATOM      5  S   UNL d   1      -0.461  -1.458  -1.189  0.00  0.00     0.015 SA
ATOM      6  C4  UNL d   1      -1.166   0.065  -0.894  0.00  0.00     0.022 A 
ATOM      7  C5  UNL d   1      -0.337   0.885  -0.166  0.00  0.00     0.026 A 
ATOM      8  C6  UNL d   1       0.913   0.262   0.166  0.00  0.00    -0.082 A 
ATOM      9  C7  UNL d   1       2.024   0.754   0.893  0.00  0.00     0.045 A 
ENDROOT
TORSDOF 0
ENDMDL
