MODEL 1
REMARK minimizedAffinity -1.0801332
REMARK minimizedRMSD -1
REMARK  0 active torsions:
REMARK  status: ('A' for Active; 'I' for Inactive)
ROOT
ATOM      1  C   UNL d   1       0.022  -1.805  -0.205  0.00  0.00    -0.002 A 
ATOM      2  C1  UNL d   1       1.354  -2.141  -0.010  0.00  0.00     0.010 A 
ATOM      3  C2  UNL d   1       2.299  -1.156   0.285  0.00  0.00     0.041 A 
ATOM      4  C3  UNL d   1       1.878   0.185   0.383  0.00  0.00    -0.075 A 
ATOM      5  S   UNL d   1       2.859   1.559   0.734  0.00  0.00     0.015 SA
ATOM      6  C4  UNL d   1       1.532   2.624   0.635  0.00  0.00     0.022 A 
ATOM      7  C5  UNL d   1       0.362   1.964   0.341  0.00  0.00     0.026 A 
ATOM      8  C6  UNL d   1       0.542   0.548   0.191  0.00  0.00    -0.082 A 
ATOM      9  C7  UNL d   1      -0.392  -0.474  -0.107  0.00  0.00     0.045 A 
ENDROOT
TORSDOF 0
ENDMDL
