MODEL 1
REMARK minimizedAffinity -2.0570507
REMARK minimizedRMSD -1
REMARK  0 active torsions:
REMARK  status: ('A' for Active; 'I' for Inactive)
ROOT
ATOM      1  C   UNL d   1      -0.363   1.564  -0.571  0.00  0.00    -0.002 A 
ATOM      2  C1  UNL d   1       0.832   2.087  -0.098  0.00  0.00     0.010 A 
ATOM      3  C2  UNL d   1       1.872   1.242   0.291  0.00  0.00     0.041 A 
ATOM      4  C3  UNL d   1       1.691  -0.152   0.194  0.00  0.00    -0.075 A 
ATOM      5  S   UNL d   1       2.827  -1.380   0.612  0.00  0.00     0.015 SA
ATOM      6  C4  UNL d   1       1.753  -2.628   0.171  0.00  0.00     0.022 A 
ATOM      7  C5  UNL d   1       0.552  -2.137  -0.286  0.00  0.00     0.026 A 
ATOM      8  C6  UNL d   1       0.497  -0.703  -0.280  0.00  0.00    -0.082 A 
ATOM      9  C7  UNL d   1      -0.540   0.181  -0.666  0.00  0.00     0.045 A 
ENDROOT
TORSDOF 0
ENDMDL
