MODEL 1
REMARK minimizedAffinity -2.22041631
REMARK minimizedRMSD -1
REMARK  0 active torsions:
REMARK  status: ('A' for Active; 'I' for Inactive)
ROOT
ATOM      1  C   UNL d   1       0.594  -0.186  -0.236  0.00  0.00    -0.002 A 
ATOM      2  C1  UNL d   1       0.134  -1.400   0.256  0.00  0.00     0.010 A 
ATOM      3  C2  UNL d   1      -1.083  -1.475   0.936  0.00  0.00     0.041 A 
ATOM      4  C3  UNL d   1      -1.839  -0.299   1.114  0.00  0.00    -0.075 A 
ATOM      5  S   UNL d   1      -3.359  -0.151   1.913  0.00  0.00     0.015 SA
ATOM      6  C4  UNL d   1      -3.434   1.526   1.620  0.00  0.00     0.022 A 
ATOM      7  C5  UNL d   1      -2.335   1.979   0.930  0.00  0.00     0.026 A 
ATOM      8  C6  UNL d   1      -1.397   0.934   0.626  0.00  0.00    -0.082 A 
ATOM      9  C7  UNL d   1      -0.159   0.978  -0.058  0.00  0.00     0.045 A 
ENDROOT
TORSDOF 0
ENDMDL
