MODEL 1
REMARK minimizedAffinity -1.88059831
REMARK minimizedRMSD -1
REMARK  0 active torsions:
REMARK  status: ('A' for Active; 'I' for Inactive)
ROOT
ATOM      1  C1  BNZ d   1       1.996  -0.054  -1.627  0.00  0.00     0.000 A 
ATOM      2  C2  BNZ d   1       2.998   0.789  -2.025  0.00  0.00     0.000 A 
ATOM      3  C3  BNZ d   1       2.759   1.779  -2.937  0.00  0.00     0.000 A 
ATOM      4  C4  BNZ d   1       1.530   1.899  -3.479  0.00  0.00     0.000 A 
ATOM      5  C5  BNZ d   1       0.511   1.050  -3.095  0.00  0.00     0.000 A 
ATOM      6  C6  BNZ d   1       0.745   0.080  -2.148  0.00  0.00     0.000 A 
ENDROOT
TORSDOF 0
ENDMDL
