MODEL 1
REMARK minimizedAffinity -0.125625819
REMARK minimizedRMSD -1
REMARK  0 active torsions:
REMARK  status: ('A' for Active; 'I' for Inactive)
ROOT
ATOM      1  C1  BNZ d   1       3.678   4.876   1.647  0.00  0.00     0.000 A 
ATOM      2  C2  BNZ d   1       4.854   4.883   2.349  0.00  0.00     0.000 A 
ATOM      3  C3  BNZ d   1       5.977   5.462   1.828  0.00  0.00     0.000 A 
ATOM      4  C4  BNZ d   1       5.934   5.998   0.591  0.00  0.00     0.000 A 
ATOM      5  C5  BNZ d   1       4.758   5.991  -0.133  0.00  0.00     0.000 A 
ATOM      6  C6  BNZ d   1       3.620   5.441   0.410  0.00  0.00     0.000 A 
ENDROOT
TORSDOF 0
ENDMDL
