MODEL 1
REMARK minimizedAffinity -0.064568989
REMARK minimizedRMSD -1
REMARK  0 active torsions:
REMARK  status: ('A' for Active; 'I' for Inactive)
ROOT
ATOM      1  C1  BNZ d   1       5.906   4.752   1.759  0.00  0.00     0.000 A 
ATOM      2  C2  BNZ d   1       4.845   5.348   1.131  0.00  0.00     0.000 A 
ATOM      3  C3  BNZ d   1       3.874   5.986   1.850  0.00  0.00     0.000 A 
ATOM      4  C4  BNZ d   1       3.942   5.992   3.197  0.00  0.00     0.000 A 
ATOM      5  C5  BNZ d   1       5.000   5.386   3.846  0.00  0.00     0.000 A 
ATOM      6  C6  BNZ d   1       5.996   4.779   3.117  0.00  0.00     0.000 A 
ENDROOT
TORSDOF 0
ENDMDL
