MODEL 1
REMARK minimizedAffinity -5.2610631
REMARK minimizedRMSD -1
REMARK  0 active torsions:
REMARK  status: ('A' for Active; 'I' for Inactive)
ROOT
ATOM      1  C1  BNZ d   1       4.042   1.639  -4.262  0.00  0.00     0.000 A 
ATOM      2  C2  BNZ d   1       3.671   1.774  -5.573  0.00  0.00     0.000 A 
ATOM      3  C3  BNZ d   1       2.355   1.905  -5.918  0.00  0.00     0.000 A 
ATOM      4  C4  BNZ d   1       1.410   1.860  -4.957  0.00  0.00     0.000 A 
ATOM      5  C5  BNZ d   1       1.768   1.715  -3.631  0.00  0.00     0.000 A 
ATOM      6  C6  BNZ d   1       3.096   1.622  -3.284  0.00  0.00     0.000 A 
ENDROOT
TORSDOF 0
ENDMDL
