MODEL 1
REMARK minimizedAffinity 2.32636452
REMARK minimizedRMSD -1
REMARK  0 active torsions:
REMARK  status: ('A' for Active; 'I' for Inactive)
ROOT
ATOM      1  C1  BNZ d   1       3.104   0.559  -2.105  0.00  0.00     0.000 A 
ATOM      2  C2  BNZ d   1       2.139   1.434  -2.525  0.00  0.00     0.000 A 
ATOM      3  C3  BNZ d   1       0.827   1.054  -2.584  0.00  0.00     0.000 A 
ATOM      4  C4  BNZ d   1       0.488  -0.211  -2.262  0.00  0.00     0.000 A 
ATOM      5  C5  BNZ d   1       1.451  -1.108  -1.845  0.00  0.00     0.000 A 
ATOM      6  C6  BNZ d   1       2.765  -0.711  -1.750  0.00  0.00     0.000 A 
ENDROOT
TORSDOF 0
ENDMDL
