MODEL 1
REMARK minimizedAffinity -3.1335063
REMARK minimizedRMSD -1
REMARK  0 active torsions:
REMARK  status: ('A' for Active; 'I' for Inactive)
ROOT
ATOM      1  C1  BNZ d   1       2.814   1.654  -3.806  0.00  0.00     0.000 A 
ATOM      2  C2  BNZ d   1       3.484   0.791  -2.981  0.00  0.00     0.000 A 
ATOM      3  C3  BNZ d   1       2.811   0.036  -2.062  0.00  0.00     0.000 A 
ATOM      4  C4  BNZ d   1       1.475   0.173  -1.942  0.00  0.00     0.000 A 
ATOM      5  C5  BNZ d   1       0.786   1.046  -2.760  0.00  0.00     0.000 A 
ATOM      6  C6  BNZ d   1       1.462   1.776  -3.711  0.00  0.00     0.000 A 
ENDROOT
TORSDOF 0
ENDMDL
