MODEL 1
REMARK minimizedAffinity -2.16931486
REMARK minimizedRMSD -1
REMARK  0 active torsions:
REMARK  status: ('A' for Active; 'I' for Inactive)
ROOT
ATOM      1  C1  BNZ d   1       3.051   1.488  -2.846  0.00  0.00     0.000 A 
ATOM      2  C2  BNZ d   1       4.128   1.499  -3.692  0.00  0.00     0.000 A 
ATOM      3  C3  BNZ d   1       3.996   1.913  -4.988  0.00  0.00     0.000 A 
ATOM      4  C4  BNZ d   1       2.781   2.277  -5.447  0.00  0.00     0.000 A 
ATOM      5  C5  BNZ d   1       1.684   2.262  -4.610  0.00  0.00     0.000 A 
ATOM      6  C6  BNZ d   1       1.828   1.882  -3.295  0.00  0.00     0.000 A 
ENDROOT
TORSDOF 0
ENDMDL
