MODEL 1
REMARK minimizedAffinity -0.3574332
REMARK minimizedRMSD -1
REMARK  0 active torsions:
REMARK  status: ('A' for Active; 'I' for Inactive)
ROOT
ATOM      1  C1  BNZ d   1       4.175   5.984   2.067  0.00  0.00     0.000 A 
ATOM      2  C2  BNZ d   1       5.068   5.216   1.367  0.00  0.00     0.000 A 
ATOM      3  C3  BNZ d   1       5.966   4.418   2.019  0.00  0.00     0.000 A 
ATOM      4  C4  BNZ d   1       5.997   4.419   3.368  0.00  0.00     0.000 A 
ATOM      5  C5  BNZ d   1       5.110   5.195   4.087  0.00  0.00     0.000 A 
ATOM      6  C6  BNZ d   1       4.182   5.968   3.427  0.00  0.00     0.000 A 
ENDROOT
TORSDOF 0
ENDMDL
