MODEL 1
REMARK minimizedAffinity -3.54606724
REMARK minimizedRMSD -1
REMARK  0 active torsions:
REMARK  status: ('A' for Active; 'I' for Inactive)
ROOT
ATOM      1  C1  BNZ d   1       2.727   1.269  -2.575  0.00  0.00     0.000 A 
ATOM      2  C2  BNZ d   1       2.699   0.143  -1.797  0.00  0.00     0.000 A 
ATOM      3  C3  BNZ d   1       1.510  -0.415  -1.416  0.00  0.00     0.000 A 
ATOM      4  C4  BNZ d   1       0.354   0.176  -1.779  0.00  0.00     0.000 A 
ATOM      5  C5  BNZ d   1       0.366   1.317  -2.556  0.00  0.00     0.000 A 
ATOM      6  C6  BNZ d   1       1.564   1.854  -2.970  0.00  0.00     0.000 A 
ENDROOT
TORSDOF 0
ENDMDL
