MODEL 1
REMARK minimizedAffinity -1.5759095
REMARK minimizedRMSD -1
REMARK  0 active torsions:
REMARK  status: ('A' for Active; 'I' for Inactive)
ROOT
ATOM      1  C1  BNZ d   1       4.989   5.266   1.235  0.00  0.00     0.000 A 
ATOM      2  C2  BNZ d   1       5.917   4.516   1.907  0.00  0.00     0.000 A 
ATOM      3  C3  BNZ d   1       5.933   4.483   3.274  0.00  0.00     0.000 A 
ATOM      4  C4  BNZ d   1       5.049   5.231   3.965  0.00  0.00     0.000 A 
ATOM      5  C5  BNZ d   1       4.114   6.000   3.302  0.00  0.00     0.000 A 
ATOM      6  C6  BNZ d   1       4.075   5.999   1.926  0.00  0.00     0.000 A 
ENDROOT
TORSDOF 0
ENDMDL
