MODEL 1
REMARK minimizedAffinity -0.141815037
REMARK minimizedRMSD -1
REMARK  0 active torsions:
REMARK  status: ('A' for Active; 'I' for Inactive)
ROOT
ATOM      1  C1  BNZ d   1       0.836   0.717  -3.213  0.00  0.00     0.000 A 
ATOM      2  C2  BNZ d   1       0.784   1.088  -4.530  0.00  0.00     0.000 A 
ATOM      3  C3  BNZ d   1       1.833   1.742  -5.114  0.00  0.00     0.000 A 
ATOM      4  C4  BNZ d   1       2.913   2.059  -4.372  0.00  0.00     0.000 A 
ATOM      5  C5  BNZ d   1       2.976   1.700  -3.040  0.00  0.00     0.000 A 
ATOM      6  C6  BNZ d   1       1.935   1.008  -2.465  0.00  0.00     0.000 A 
ENDROOT
TORSDOF 0
ENDMDL
