MODEL 1
REMARK minimizedAffinity -5.5008769
REMARK minimizedRMSD -1
REMARK  0 active torsions:
REMARK  status: ('A' for Active; 'I' for Inactive)
ROOT
ATOM      1  C1  BNZ d   1       3.340   2.003  -3.959  0.00  0.00     0.000 A 
ATOM      2  C2  BNZ d   1       3.024   2.273  -5.264  0.00  0.00     0.000 A 
ATOM      3  C3  BNZ d   1       1.747   2.108  -5.722  0.00  0.00     0.000 A 
ATOM      4  C4  BNZ d   1       0.798   1.637  -4.888  0.00  0.00     0.000 A 
ATOM      5  C5  BNZ d   1       1.103   1.351  -3.572  0.00  0.00     0.000 A 
ATOM      6  C6  BNZ d   1       2.381   1.555  -3.104  0.00  0.00     0.000 A 
ENDROOT
TORSDOF 0
ENDMDL
