MODEL 1
REMARK minimizedAffinity -1.11590326
REMARK minimizedRMSD -1
REMARK  0 active torsions:
REMARK  status: ('A' for Active; 'I' for Inactive)
ROOT
ATOM      1  C1  BNZ d   1       5.992   4.796   3.038  0.00  0.00     0.000 A 
ATOM      2  C2  BNZ d   1       5.993   4.746   1.670  0.00  0.00     0.000 A 
ATOM      3  C3  BNZ d   1       4.997   5.341   0.947  0.00  0.00     0.000 A 
ATOM      4  C4  BNZ d   1       3.982   5.949   1.593  0.00  0.00     0.000 A 
ATOM      5  C5  BNZ d   1       3.962   6.000   2.973  0.00  0.00     0.000 A 
ATOM      6  C6  BNZ d   1       4.986   5.434   3.696  0.00  0.00     0.000 A 
ENDROOT
TORSDOF 0
ENDMDL
