MODEL 1
REMARK minimizedAffinity -1.77838111
REMARK minimizedRMSD -1
REMARK  1 active torsions:
REMARK  status: ('A' for Active; 'I' for Inactive)
REMARK    1  A    between atoms: C3_4  and  O_7 
ROOT
ATOM      1  C   UNL d   1       5.998   5.347  -3.743  0.00  0.00    -0.033 A 
ATOM      2  C1  UNL d   1       4.973   4.549  -4.254  0.00  0.00     0.039 A 
ATOM      3  C2  UNL d   1       3.793   4.374  -3.527  0.00  0.00    -0.080 A 
ATOM      4  C3  UNL d   1       3.651   5.004  -2.294  0.00  0.00     0.150 A 
ATOM      5  C4  UNL d   1       4.667   5.804  -1.781  0.00  0.00    -0.007 A 
ATOM      6  C5  UNL d   1       5.844   5.976  -2.507  0.00  0.00     0.039 A 
ENDROOT
BRANCH   4   7
ATOM      7  O   UNL d   1       2.520   4.860  -1.546  0.00  0.00    -0.526 OA
ATOM      8  H5  UNL d   1       1.918   4.257  -2.013  0.00  0.00     0.418 HD
ENDBRANCH   4   7
TORSDOF 1
ENDMDL
