MODEL 1
REMARK minimizedAffinity -2.96632314
REMARK minimizedRMSD -1
REMARK  1 active torsions:
REMARK  status: ('A' for Active; 'I' for Inactive)
REMARK    1  A    between atoms: C3_4  and  O_7 
ROOT
ATOM      1  C   UNL d   1       5.998   5.106  -4.245  0.00  0.00    -0.033 A 
ATOM      2  C1  UNL d   1       5.032   4.144  -4.547  0.00  0.00     0.039 A 
ATOM      3  C2  UNL d   1       3.892   4.024  -3.751  0.00  0.00    -0.080 A 
ATOM      4  C3  UNL d   1       3.729   4.871  -2.657  0.00  0.00     0.150 A 
ATOM      5  C4  UNL d   1       4.686   5.833  -2.353  0.00  0.00    -0.007 A 
ATOM      6  C5  UNL d   1       5.825   5.951  -3.149  0.00  0.00     0.039 A 
ENDROOT
BRANCH   4   7
ATOM      7  O   UNL d   1       2.635   4.788  -1.848  0.00  0.00    -0.526 OA
ATOM      8  H5  UNL d   1       2.074   4.059  -2.163  0.00  0.00     0.418 HD
ENDBRANCH   4   7
TORSDOF 1
ENDMDL
