MODEL 1
REMARK minimizedAffinity -1.09588528
REMARK minimizedRMSD -1
REMARK  1 active torsions:
REMARK  status: ('A' for Active; 'I' for Inactive)
REMARK    1  A    between atoms: C3_4  and  O_7 
ROOT
ATOM      1  C   UNL d   1       3.947   4.008  -4.188  0.00  0.00    -0.033 A 
ATOM      2  C1  UNL d   1       3.236   4.507  -3.095  0.00  0.00     0.039 A 
ATOM      3  C2  UNL d   1       3.907   5.181  -2.073  0.00  0.00    -0.080 A 
ATOM      4  C3  UNL d   1       5.286   5.351  -2.156  0.00  0.00     0.150 A 
ATOM      5  C4  UNL d   1       6.000   4.859  -3.245  0.00  0.00    -0.007 A 
ATOM      6  C5  UNL d   1       5.329   4.185  -4.264  0.00  0.00     0.039 A 
ENDROOT
BRANCH   4   7
ATOM      7  O   UNL d   1       5.985   5.998  -1.181  0.00  0.00    -0.526 OA
ATOM      8  H5  UNL d   1       5.365   6.257  -0.479  0.00  0.00     0.418 HD
ENDBRANCH   4   7
TORSDOF 1
ENDMDL
