MODEL 1
REMARK minimizedAffinity -1.34302509
REMARK minimizedRMSD -1
REMARK  1 active torsions:
REMARK  status: ('A' for Active; 'I' for Inactive)
REMARK    1  A    between atoms: C3_4  and  O_7 
ROOT
ATOM      1  C   UNL d   1       3.120   4.737  -4.081  0.00  0.00    -0.033 A 
ATOM      2  C1  UNL d   1       4.121   5.645  -4.431  0.00  0.00     0.039 A 
ATOM      3  C2  UNL d   1       5.101   6.000  -3.501  0.00  0.00    -0.080 A 
ATOM      4  C3  UNL d   1       5.068   5.439  -2.227  0.00  0.00     0.150 A 
ATOM      5  C4  UNL d   1       4.076   4.531  -1.873  0.00  0.00    -0.007 A 
ATOM      6  C5  UNL d   1       3.098   4.179  -2.803  0.00  0.00     0.039 A 
ENDROOT
BRANCH   4   7
ATOM      7  O   UNL d   1       6.000   5.758  -1.284  0.00  0.00    -0.526 OA
ATOM      8  H5  UNL d   1       6.605   6.418  -1.661  0.00  0.00     0.418 HD
ENDBRANCH   4   7
TORSDOF 1
ENDMDL
