MODEL 1
REMARK minimizedAffinity 0.0551913232
REMARK minimizedRMSD -1
REMARK  1 active torsions:
REMARK  status: ('A' for Active; 'I' for Inactive)
REMARK    1  A    between atoms: C3_4  and  O_7 
ROOT
ATOM      1  C   UNL d   1       6.000   5.529  -4.086  0.00  0.00    -0.033 A 
ATOM      2  C1  UNL d   1       5.996   5.999  -2.771  0.00  0.00     0.039 A 
ATOM      3  C2  UNL d   1       5.043   5.533  -1.864  0.00  0.00    -0.080 A 
ATOM      4  C3  UNL d   1       4.100   4.599  -2.283  0.00  0.00     0.150 A 
ATOM      5  C4  UNL d   1       4.100   4.123  -3.590  0.00  0.00    -0.007 A 
ATOM      6  C5  UNL d   1       5.053   4.590  -4.495  0.00  0.00     0.039 A 
ENDROOT
BRANCH   4   7
ATOM      7  O   UNL d   1       3.146   4.119  -1.435  0.00  0.00    -0.526 OA
ATOM      8  H5  UNL d   1       3.251   4.557  -0.574  0.00  0.00     0.418 HD
ENDBRANCH   4   7
TORSDOF 1
ENDMDL
