MODEL 1
REMARK minimizedAffinity 0.0699886754
REMARK minimizedRMSD -1
REMARK  1 active torsions:
REMARK  status: ('A' for Active; 'I' for Inactive)
REMARK    1  A    between atoms: C3_4  and  O_7 
ROOT
ATOM      1  C   UNL d   1       4.143   4.889  -4.706  0.00  0.00    -0.033 A 
ATOM      2  C1  UNL d   1       3.566   4.515  -3.491  0.00  0.00     0.039 A 
ATOM      3  C2  UNL d   1       4.172   4.881  -2.287  0.00  0.00    -0.080 A 
ATOM      4  C3  UNL d   1       5.351   5.620  -2.313  0.00  0.00     0.150 A 
ATOM      5  C4  UNL d   1       5.929   6.000  -3.520  0.00  0.00    -0.007 A 
ATOM      6  C5  UNL d   1       5.323   5.633  -4.721  0.00  0.00     0.039 A 
ENDROOT
BRANCH   4   7
ATOM      7  O   UNL d   1       5.981   5.996  -1.164  0.00  0.00    -0.526 OA
ATOM      8  H5  UNL d   1       5.484   5.639  -0.409  0.00  0.00     0.418 HD
ENDBRANCH   4   7
TORSDOF 1
ENDMDL
