MODEL 1
REMARK minimizedAffinity -3.16884112
REMARK minimizedRMSD -1
REMARK  1 active torsions:
REMARK  status: ('A' for Active; 'I' for Inactive)
REMARK    1  A    between atoms: C3_4  and  O_7 
ROOT
ATOM      1  C   UNL d   1       4.868   5.279  -2.240  0.00  0.00    -0.033 A 
ATOM      2  C1  UNL d   1       5.978   5.452  -3.068  0.00  0.00     0.039 A 
ATOM      3  C2  UNL d   1       5.999   4.874  -4.339  0.00  0.00    -0.080 A 
ATOM      4  C3  UNL d   1       4.906   4.128  -4.769  0.00  0.00     0.150 A 
ATOM      5  C4  UNL d   1       3.795   3.955  -3.950  0.00  0.00    -0.007 A 
ATOM      6  C5  UNL d   1       3.775   4.532  -2.681  0.00  0.00     0.039 A 
ENDROOT
BRANCH   4   7
ATOM      7  O   UNL d   1       4.883   3.541  -5.999  0.00  0.00    -0.526 OA
ATOM      8  H5  UNL d   1       5.729   3.722  -6.442  0.00  0.00     0.418 HD
ENDBRANCH   4   7
TORSDOF 1
ENDMDL
