MODEL 1
REMARK minimizedAffinity -4.30249739
REMARK minimizedRMSD -1
REMARK  1 active torsions:
REMARK  status: ('A' for Active; 'I' for Inactive)
REMARK    1  A    between atoms: C3_4  and  O_7 
ROOT
ATOM      1  C   UNL d   1       4.046   4.466  -4.232  0.00  0.00    -0.033 A 
ATOM      2  C1  UNL d   1       3.379   4.513  -3.007  0.00  0.00     0.039 A 
ATOM      3  C2  UNL d   1       4.022   5.027  -1.879  0.00  0.00    -0.080 A 
ATOM      4  C3  UNL d   1       5.330   5.493  -1.991  0.00  0.00     0.150 A 
ATOM      5  C4  UNL d   1       5.999   5.453  -3.210  0.00  0.00    -0.007 A 
ATOM      6  C5  UNL d   1       5.355   4.937  -4.334  0.00  0.00     0.039 A 
ENDROOT
BRANCH   4   7
ATOM      7  O   UNL d   1       6.000   5.999  -0.918  0.00  0.00    -0.526 OA
ATOM      8  H5  UNL d   1       5.424   5.938  -0.138  0.00  0.00     0.418 HD
ENDBRANCH   4   7
TORSDOF 1
ENDMDL
