MODEL 1
REMARK minimizedAffinity -2.25506067
REMARK minimizedRMSD -1
REMARK  1 active torsions:
REMARK  status: ('A' for Active; 'I' for Inactive)
REMARK    1  A    between atoms: C3_4  and  O_7 
ROOT
ATOM      1  C   UNL d   1       4.528   4.499  -5.999  0.00  0.00    -0.033 A 
ATOM      2  C1  UNL d   1       5.495   3.653  -5.450  0.00  0.00     0.039 A 
ATOM      3  C2  UNL d   1       5.995   3.901  -4.171  0.00  0.00    -0.080 A 
ATOM      4  C3  UNL d   1       5.522   4.995  -3.451  0.00  0.00     0.150 A 
ATOM      5  C4  UNL d   1       4.556   5.839  -3.991  0.00  0.00    -0.007 A 
ATOM      6  C5  UNL d   1       4.058   5.590  -5.269  0.00  0.00     0.039 A 
ENDROOT
BRANCH   4   7
ATOM      7  O   UNL d   1       5.984   5.280  -2.201  0.00  0.00    -0.526 OA
ATOM      8  H5  UNL d   1       6.667   4.629  -1.970  0.00  0.00     0.418 HD
ENDBRANCH   4   7
TORSDOF 1
ENDMDL
