MODEL 1
REMARK minimizedAffinity -3.43541074
REMARK minimizedRMSD -1
REMARK  1 active torsions:
REMARK  status: ('A' for Active; 'I' for Inactive)
REMARK    1  A    between atoms: C3_4  and  O_7 
ROOT
ATOM      1  C   UNL d   1       5.010   4.061  -5.999  0.00  0.00    -0.033 A 
ATOM      2  C1  UNL d   1       5.757   5.241  -5.990  0.00  0.00     0.039 A 
ATOM      3  C2  UNL d   1       5.999   5.906  -4.786  0.00  0.00    -0.080 A 
ATOM      4  C3  UNL d   1       5.492   5.381  -3.601  0.00  0.00     0.150 A 
ATOM      5  C4  UNL d   1       4.751   4.204  -3.602  0.00  0.00    -0.007 A 
ATOM      6  C5  UNL d   1       4.509   3.541  -4.805  0.00  0.00     0.039 A 
ENDROOT
BRANCH   4   7
ATOM      7  O   UNL d   1       5.699   5.998  -2.403  0.00  0.00    -0.526 OA
ATOM      8  H5  UNL d   1       6.202   6.814  -2.560  0.00  0.00     0.418 HD
ENDBRANCH   4   7
TORSDOF 1
ENDMDL
