MODEL 1
REMARK minimizedAffinity -3.87312675
REMARK minimizedRMSD -1
REMARK  1 active torsions:
REMARK  status: ('A' for Active; 'I' for Inactive)
REMARK    1  A    between atoms: C3_4  and  O_7 
ROOT
ATOM      1  C   UNL d   1       4.292   4.690  -5.250  0.00  0.00    -0.033 A 
ATOM      2  C1  UNL d   1       5.415   3.975  -4.829  0.00  0.00     0.039 A 
ATOM      3  C2  UNL d   1       6.000   4.255  -3.592  0.00  0.00    -0.080 A 
ATOM      4  C3  UNL d   1       5.452   5.250  -2.787  0.00  0.00     0.150 A 
ATOM      5  C4  UNL d   1       4.331   5.964  -3.199  0.00  0.00    -0.007 A 
ATOM      6  C5  UNL d   1       3.750   5.683  -4.434  0.00  0.00     0.039 A 
ENDROOT
BRANCH   4   7
ATOM      7  O   UNL d   1       5.991   5.562  -1.574  0.00  0.00    -0.526 OA
ATOM      8  H5  UNL d   1       6.777   5.008  -1.435  0.00  0.00     0.418 HD
ENDBRANCH   4   7
TORSDOF 1
ENDMDL
