MODEL 1
REMARK minimizedAffinity -4.21179962
REMARK minimizedRMSD -1
REMARK  1 active torsions:
REMARK  status: ('A' for Active; 'I' for Inactive)
REMARK    1  A    between atoms: C3_4  and  O_7 
ROOT
ATOM      1  C   UNL d   1       4.342   4.490  -4.638  0.00  0.00    -0.033 A 
ATOM      2  C1  UNL d   1       5.437   5.353  -4.711  0.00  0.00     0.039 A 
ATOM      3  C2  UNL d   1       6.000   5.870  -3.543  0.00  0.00    -0.080 A 
ATOM      4  C3  UNL d   1       5.459   5.516  -2.310  0.00  0.00     0.150 A 
ATOM      5  C4  UNL d   1       4.370   4.655  -2.229  0.00  0.00    -0.007 A 
ATOM      6  C5  UNL d   1       3.809   4.140  -3.397  0.00  0.00     0.039 A 
ENDROOT
BRANCH   4   7
ATOM      7  O   UNL d   1       5.971   5.999  -1.142  0.00  0.00    -0.526 OA
ATOM      8  H5  UNL d   1       6.702   6.605  -1.354  0.00  0.00     0.418 HD
ENDBRANCH   4   7
TORSDOF 1
ENDMDL
