MODEL 1
REMARK minimizedAffinity 2.21639061
REMARK minimizedRMSD -1
REMARK  1 active torsions:
REMARK  status: ('A' for Active; 'I' for Inactive)
REMARK    1  A    between atoms: C3_4  and  O_7 
ROOT
ATOM      1  C   UNL d   1       4.020   3.751  -3.968  0.00  0.00    -0.033 A 
ATOM      2  C1  UNL d   1       5.313   3.387  -3.587  0.00  0.00     0.039 A 
ATOM      3  C2  UNL d   1       5.995   4.133  -2.624  0.00  0.00    -0.080 A 
ATOM      4  C3  UNL d   1       5.373   5.238  -2.049  0.00  0.00     0.150 A 
ATOM      5  C4  UNL d   1       4.083   5.603  -2.420  0.00  0.00    -0.007 A 
ATOM      6  C5  UNL d   1       3.404   4.858  -3.384  0.00  0.00     0.039 A 
ENDROOT
BRANCH   4   7
ATOM      7  O   UNL d   1       6.000   5.999  -1.108  0.00  0.00    -0.526 OA
ATOM      8  H5  UNL d   1       6.895   5.645  -0.972  0.00  0.00     0.418 HD
ENDBRANCH   4   7
TORSDOF 1
ENDMDL
