MODEL 1
REMARK minimizedAffinity 0.415837914
REMARK minimizedRMSD -1
REMARK  1 active torsions:
REMARK  status: ('A' for Active; 'I' for Inactive)
REMARK    1  A    between atoms: C3_4  and  O_7 
ROOT
ATOM      1  C   UNL d   1       3.080   5.271  -3.603  0.00  0.00    -0.033 A 
ATOM      2  C1  UNL d   1       4.327   5.750  -4.010  0.00  0.00     0.039 A 
ATOM      3  C2  UNL d   1       5.323   6.000  -3.064  0.00  0.00    -0.080 A 
ATOM      4  C3  UNL d   1       5.060   5.766  -1.717  0.00  0.00     0.150 A 
ATOM      5  C4  UNL d   1       3.822   5.285  -1.306  0.00  0.00    -0.007 A 
ATOM      6  C5  UNL d   1       2.828   5.037  -2.251  0.00  0.00     0.039 A 
ENDROOT
BRANCH   4   7
ATOM      7  O   UNL d   1       6.000   5.999  -0.757  0.00  0.00    -0.526 OA
ATOM      8  H5  UNL d   1       6.795   6.356  -1.185  0.00  0.00     0.418 HD
ENDBRANCH   4   7
TORSDOF 1
ENDMDL
