MODEL 1
REMARK minimizedAffinity 0.890236855
REMARK minimizedRMSD -1
REMARK  1 active torsions:
REMARK  status: ('A' for Active; 'I' for Inactive)
REMARK    1  A    between atoms: C3_4  and  O_7 
ROOT
ATOM      1  C   UNL d   1       6.000   4.601  -3.831  0.00  0.00    -0.033 A 
ATOM      2  C1  UNL d   1       5.856   5.675  -2.951  0.00  0.00     0.039 A 
ATOM      3  C2  UNL d   1       4.629   5.910  -2.328  0.00  0.00    -0.080 A 
ATOM      4  C3  UNL d   1       3.556   5.064  -2.592  0.00  0.00     0.150 A 
ATOM      5  C4  UNL d   1       3.693   3.990  -3.464  0.00  0.00    -0.007 A 
ATOM      6  C5  UNL d   1       4.919   3.757  -4.086  0.00  0.00     0.039 A 
ENDROOT
BRANCH   4   7
ATOM      7  O   UNL d   1       2.337   5.256  -2.011  0.00  0.00    -0.526 OA
ATOM      8  H5  UNL d   1       2.383   6.052  -1.455  0.00  0.00     0.418 HD
ENDBRANCH   4   7
TORSDOF 1
ENDMDL
