MODEL 1
REMARK minimizedAffinity -3.85107756
REMARK minimizedRMSD -1
REMARK  1 active torsions:
REMARK  status: ('A' for Active; 'I' for Inactive)
REMARK    1  A    between atoms: C3_4  and  O_7 
ROOT
ATOM      1  C   UNL d   1       4.005   3.544  -4.000  0.00  0.00    -0.033 A 
ATOM      2  C1  UNL d   1       3.236   4.106  -2.979  0.00  0.00     0.039 A 
ATOM      3  C2  UNL d   1       3.848   4.858  -1.975  0.00  0.00    -0.080 A 
ATOM      4  C3  UNL d   1       5.227   5.043  -2.004  0.00  0.00     0.150 A 
ATOM      5  C4  UNL d   1       5.999   4.490  -3.020  0.00  0.00    -0.007 A 
ATOM      6  C5  UNL d   1       5.387   3.738  -4.021  0.00  0.00     0.039 A 
ENDROOT
BRANCH   4   7
ATOM      7  O   UNL d   1       5.869   5.766  -1.043  0.00  0.00    -0.526 OA
ATOM      8  H5  UNL d   1       5.213   6.063  -0.391  0.00  0.00     0.418 HD
ENDBRANCH   4   7
TORSDOF 1
ENDMDL
