MODEL 1
REMARK minimizedAffinity 4.88068056
REMARK minimizedRMSD -1
REMARK  0 active torsions:
REMARK  status: ('A' for Active; 'I' for Inactive)
ROOT
ATOM      1  C   UNL d   1       1.194  -1.993   0.658  0.00  0.00     0.124 A 
ATOM      2  C1  UNL d   1       0.769  -2.236   1.956  0.00  0.00     0.062 A 
ATOM      3  C2  UNL d   1      -0.330  -1.555   2.472  0.00  0.00     0.162 A 
ATOM      4  C3  UNL d   1      -1.013  -0.625   1.688  0.00  0.00    -0.034 A 
ATOM      5  C4  UNL d   1      -0.578  -0.384   0.384  0.00  0.00     0.162 A 
ATOM      6  C5  UNL d   1       0.521  -1.067  -0.127  0.00  0.00     0.062 A 
ATOM      7  F   UNL d   1       0.931  -0.831  -1.382  0.00  0.00    -0.097 F 
ATOM      8  F1  UNL d   1      -1.211   0.504  -0.397  0.00  0.00    -0.096 F 
ATOM      9  I   UNL d   1      -2.656   0.395   2.456  0.00  0.00    -0.060 I 
ATOM     10  F2  UNL d   1      -0.719  -1.811   3.730  0.00  0.00    -0.096 F 
ATOM     11  F3  UNL d   1       1.419  -3.129   2.717  0.00  0.00    -0.097 F 
ATOM     12  F4  UNL d   1       2.253  -2.648   0.164  0.00  0.00    -0.092 F 
ENDROOT
TORSDOF 0
ENDMDL
