MODEL 1
REMARK minimizedAffinity 13.3664455
REMARK minimizedRMSD -1
REMARK  0 active torsions:
REMARK  status: ('A' for Active; 'I' for Inactive)
ROOT
ATOM      1  C   UNL d   1       0.050  -1.457   1.953  0.00  0.00     0.124 A 
ATOM      2  C1  UNL d   1      -0.986  -0.599   2.293  0.00  0.00     0.062 A 
ATOM      3  C2  UNL d   1      -1.470   0.317   1.363  0.00  0.00     0.162 A 
ATOM      4  C3  UNL d   1      -0.919   0.378   0.083  0.00  0.00    -0.034 A 
ATOM      5  C4  UNL d   1       0.124  -0.487  -0.251  0.00  0.00     0.162 A 
ATOM      6  C5  UNL d   1       0.604  -1.401   0.682  0.00  0.00     0.062 A 
ATOM      7  F   UNL d   1       1.606  -2.229   0.351  0.00  0.00    -0.097 F 
ATOM      8  F1  UNL d   1       0.677  -0.455  -1.473  0.00  0.00    -0.096 F 
ATOM      9  I   UNL d   1      -1.640   1.746  -1.310  0.00  0.00    -0.060 I 
ATOM     10  F2  UNL d   1      -2.473   1.134   1.719  0.00  0.00    -0.096 F 
ATOM     11  F3  UNL d   1      -1.523  -0.651   3.520  0.00  0.00    -0.097 F 
ATOM     12  F4  UNL d   1       0.514  -2.337   2.850  0.00  0.00    -0.092 F 
ENDROOT
TORSDOF 0
ENDMDL
