MODEL 1
REMARK minimizedAffinity 3.96526766
REMARK minimizedRMSD -1
REMARK  0 active torsions:
REMARK  status: ('A' for Active; 'I' for Inactive)
ROOT
ATOM      1  C   UNL d   1      -0.152  -4.433   2.977  0.00  0.00     0.124 A 
ATOM      2  C1  UNL d   1      -1.061  -3.517   3.489  0.00  0.00     0.062 A 
ATOM      3  C2  UNL d   1      -1.079  -2.209   3.015  0.00  0.00     0.162 A 
ATOM      4  C3  UNL d   1      -0.186  -1.808   2.022  0.00  0.00    -0.034 A 
ATOM      5  C4  UNL d   1       0.726  -2.734   1.512  0.00  0.00     0.162 A 
ATOM      6  C5  UNL d   1       0.740  -4.040   1.989  0.00  0.00     0.062 A 
ATOM      7  F   UNL d   1       1.619  -4.924   1.493  0.00  0.00    -0.097 F 
ATOM      8  F1  UNL d   1       1.599  -2.382   0.557  0.00  0.00    -0.096 F 
ATOM      9  I   UNL d   1      -0.209   0.148   1.310  0.00  0.00    -0.060 I 
ATOM     10  F2  UNL d   1      -1.968  -1.345   3.528  0.00  0.00    -0.096 F 
ATOM     11  F3  UNL d   1      -1.924  -3.893   4.444  0.00  0.00    -0.097 F 
ATOM     12  F4  UNL d   1      -0.136  -5.691   3.436  0.00  0.00    -0.092 F 
ENDROOT
TORSDOF 0
ENDMDL
