MODEL 1
REMARK minimizedAffinity 5.30271864
REMARK minimizedRMSD -1
REMARK  0 active torsions:
REMARK  status: ('A' for Active; 'I' for Inactive)
ROOT
ATOM      1  C   UNL d   1      -0.418  -2.848   2.863  0.00  0.00     0.124 A 
ATOM      2  C1  UNL d   1      -0.899  -1.590   2.528  0.00  0.00     0.062 A 
ATOM      3  C2  UNL d   1      -0.218  -0.804   1.602  0.00  0.00     0.162 A 
ATOM      4  C3  UNL d   1       0.951  -1.275   1.005  0.00  0.00    -0.034 A 
ATOM      5  C4  UNL d   1       1.429  -2.541   1.348  0.00  0.00     0.162 A 
ATOM      6  C5  UNL d   1       0.745  -3.322   2.273  0.00  0.00     0.062 A 
ATOM      7  F   UNL d   1       1.212  -4.537   2.596  0.00  0.00    -0.097 F 
ATOM      8  F1  UNL d   1       2.550  -3.024   0.792  0.00  0.00    -0.096 F 
ATOM      9  I   UNL d   1       1.972  -0.103  -0.380  0.00  0.00    -0.060 I 
ATOM     10  F2  UNL d   1      -0.706   0.407   1.297  0.00  0.00    -0.096 F 
ATOM     11  F3  UNL d   1      -2.022  -1.129   3.097  0.00  0.00    -0.097 F 
ATOM     12  F4  UNL d   1      -1.074  -3.602   3.755  0.00  0.00    -0.092 F 
ENDROOT
TORSDOF 0
ENDMDL
