MODEL 1
REMARK minimizedAffinity 6.32864952
REMARK minimizedRMSD -1
REMARK  0 active torsions:
REMARK  status: ('A' for Active; 'I' for Inactive)
ROOT
ATOM      1  C   UNL d   1      -0.746  -1.823   2.181  0.00  0.00     0.124 A 
ATOM      2  C1  UNL d   1       0.487  -2.348   1.821  0.00  0.00     0.062 A 
ATOM      3  C2  UNL d   1       1.132  -1.897   0.672  0.00  0.00     0.162 A 
ATOM      4  C3  UNL d   1       0.544  -0.915  -0.125  0.00  0.00    -0.034 A 
ATOM      5  C4  UNL d   1      -0.697  -0.392   0.243  0.00  0.00     0.162 A 
ATOM      6  C5  UNL d   1      -1.337  -0.846   1.392  0.00  0.00     0.062 A 
ATOM      7  F   UNL d   1      -2.529  -0.338   1.738  0.00  0.00    -0.097 F 
ATOM      8  F1  UNL d   1      -1.291   0.553  -0.501  0.00  0.00    -0.096 F 
ATOM      9  I   UNL d   1       1.504  -0.238  -1.843  0.00  0.00    -0.060 I 
ATOM     10  F2  UNL d   1       2.323  -2.422   0.348  0.00  0.00    -0.096 F 
ATOM     11  F3  UNL d   1       1.060  -3.292   2.581  0.00  0.00    -0.097 F 
ATOM     12  F4  UNL d   1      -1.364  -2.259   3.286  0.00  0.00    -0.092 F 
ENDROOT
TORSDOF 0
ENDMDL
