MODEL 1
REMARK minimizedAffinity 0.207688242
REMARK minimizedRMSD -1
REMARK  1 active torsions:
REMARK  status: ('A' for Active; 'I' for Inactive)
REMARK    1  A    between atoms: C1_2  and  C2_3 
ROOT
ATOM      1  C2  UNL d   1      -1.184  -5.935  -4.734  0.00  0.00    -0.081 A 
ATOM      2  C3  UNL d   1      -0.623  -5.990  -3.452  0.00  0.00     0.006 A 
ATOM      3  C4  UNL d   1      -1.442  -5.998  -2.320  0.00  0.00     0.002 A 
ATOM      4  C5  UNL d   1      -2.835  -5.960  -2.452  0.00  0.00    -0.080 A 
ATOM      5  C6  UNL d   1      -3.726  -6.000  -1.246  0.00  0.00     0.076 C 
ATOM      6  C7  UNL d   1      -3.395  -5.888  -3.731  0.00  0.00     0.002 A 
ATOM      7  C8  UNL d   1      -2.577  -5.879  -4.863  0.00  0.00     0.006 A 
ENDROOT
BRANCH   1   8
ATOM      8  C1  UNL d   1      -0.306  -5.991  -5.958  0.00  0.00     0.054 C 
ATOM      9  C   UNL d   1       1.168  -5.987  -5.582  0.00  0.00     0.018 C 
ENDBRANCH   1   8
TORSDOF 1
ENDMDL
