MODEL 1
REMARK minimizedAffinity 10.6981735
REMARK minimizedRMSD -1
REMARK  1 active torsions:
REMARK  status: ('A' for Active; 'I' for Inactive)
REMARK    1  A    between atoms: C1_2  and  C2_3 
ROOT
ATOM      1  C2  UNL d   1       2.680   0.266  -0.560  0.00  0.00    -0.081 A 
ATOM      2  C3  UNL d   1       2.158  -0.681   0.329  0.00  0.00     0.006 A 
ATOM      3  C4  UNL d   1       0.861  -0.542   0.831  0.00  0.00     0.002 A 
ATOM      4  C5  UNL d   1       0.064   0.541   0.447  0.00  0.00    -0.080 A 
ATOM      5  C6  UNL d   1      -1.340   0.686   0.954  0.00  0.00     0.076 C 
ATOM      6  C7  UNL d   1       0.592   1.497  -0.428  0.00  0.00     0.002 A 
ATOM      7  C8  UNL d   1       1.888   1.359  -0.930  0.00  0.00     0.006 A 
ENDROOT
BRANCH   1   8
ATOM      8  C1  UNL d   1       4.054   0.084  -1.153  0.00  0.00     0.054 C 
ATOM      9  C   UNL d   1       3.983  -0.589  -2.516  0.00  0.00     0.018 C 
ENDBRANCH   1   8
TORSDOF 1
ENDMDL
