MODEL 1
REMARK minimizedAffinity 2.12121511
REMARK minimizedRMSD -1
REMARK  1 active torsions:
REMARK  status: ('A' for Active; 'I' for Inactive)
REMARK    1  A    between atoms: C1_2  and  C2_3 
ROOT
ATOM      1  C2  UNL d   1       1.106  -1.291   1.040  0.00  0.00    -0.081 A 
ATOM      2  C3  UNL d   1       0.398  -0.241   0.442  0.00  0.00     0.006 A 
ATOM      3  C4  UNL d   1       1.080   0.826  -0.149  0.00  0.00     0.002 A 
ATOM      4  C5  UNL d   1       2.478   0.857  -0.158  0.00  0.00    -0.080 A 
ATOM      5  C6  UNL d   1       3.222   1.982  -0.815  0.00  0.00     0.076 C 
ATOM      6  C7  UNL d   1       3.185  -0.183   0.455  0.00  0.00     0.002 A 
ATOM      7  C8  UNL d   1       2.504  -1.250   1.046  0.00  0.00     0.006 A 
ENDROOT
BRANCH   1   8
ATOM      8  C1  UNL d   1       0.375  -2.475   1.620  0.00  0.00     0.054 C 
ATOM      9  C   UNL d   1       0.373  -3.652   0.655  0.00  0.00     0.018 C 
ENDBRANCH   1   8
TORSDOF 1
ENDMDL
