MODEL 1
REMARK minimizedAffinity 2.21199775
REMARK minimizedRMSD -1
REMARK  1 active torsions:
REMARK  status: ('A' for Active; 'I' for Inactive)
REMARK    1  A    between atoms: C1_2  and  C2_3 
ROOT
ATOM      1  C2  UNL d   1      -4.018  -5.994  -1.584  0.00  0.00    -0.081 A 
ATOM      2  C3  UNL d   1      -2.693  -5.997  -1.130  0.00  0.00     0.006 A 
ATOM      3  C4  UNL d   1      -1.633  -5.997  -2.040  0.00  0.00     0.002 A 
ATOM      4  C5  UNL d   1      -1.879  -5.985  -3.417  0.00  0.00    -0.080 A 
ATOM      5  C6  UNL d   1      -0.750  -5.954  -4.404  0.00  0.00     0.076 C 
ATOM      6  C7  UNL d   1      -3.203  -5.999  -3.870  0.00  0.00     0.002 A 
ATOM      7  C8  UNL d   1      -4.263  -6.000  -2.961  0.00  0.00     0.006 A 
ENDROOT
BRANCH   1   8
ATOM      8  C1  UNL d   1      -5.163  -5.929  -0.605  0.00  0.00     0.054 C 
ATOM      9  C   UNL d   1      -4.674  -5.597   0.797  0.00  0.00     0.018 C 
ENDBRANCH   1   8
TORSDOF 1
ENDMDL
