MODEL 1
REMARK minimizedAffinity 2.34832287
REMARK minimizedRMSD -1
REMARK  1 active torsions:
REMARK  status: ('A' for Active; 'I' for Inactive)
REMARK    1  A    between atoms: C1_2  and  C2_3 
ROOT
ATOM      1  C2  UNL d   1       0.340  -0.274   0.295  0.00  0.00    -0.081 A 
ATOM      2  C3  UNL d   1       1.304  -0.663   1.234  0.00  0.00     0.006 A 
ATOM      3  C4  UNL d   1       1.342  -1.976   1.707  0.00  0.00     0.002 A 
ATOM      4  C5  UNL d   1       0.423  -2.924   1.244  0.00  0.00    -0.080 A 
ATOM      5  C6  UNL d   1       0.472  -4.345   1.722  0.00  0.00     0.076 C 
ATOM      6  C7  UNL d   1      -0.550  -2.532   0.319  0.00  0.00     0.002 A 
ATOM      7  C8  UNL d   1      -0.589  -1.219  -0.154  0.00  0.00     0.006 A 
ENDROOT
BRANCH   1   8
ATOM      8  C1  UNL d   1       0.337   1.125  -0.266  0.00  0.00     0.054 C 
ATOM      9  C   UNL d   1       1.736   1.558  -0.681  0.00  0.00     0.018 C 
ENDBRANCH   1   8
TORSDOF 1
ENDMDL
