MODEL 1
REMARK minimizedAffinity 2.54035163
REMARK minimizedRMSD -1
REMARK  1 active torsions:
REMARK  status: ('A' for Active; 'I' for Inactive)
REMARK    1  A    between atoms: C1_2  and  C2_3 
ROOT
ATOM      1  C2  UNL d   1       1.226  -0.967   0.974  0.00  0.00    -0.081 A 
ATOM      2  C3  UNL d   1       1.326  -2.363   0.947  0.00  0.00     0.006 A 
ATOM      3  C4  UNL d   1       0.188  -3.151   0.759  0.00  0.00     0.002 A 
ATOM      4  C5  UNL d   1      -1.066  -2.556   0.587  0.00  0.00    -0.080 A 
ATOM      5  C6  UNL d   1      -2.292  -3.389   0.354  0.00  0.00     0.076 C 
ATOM      6  C7  UNL d   1      -1.169  -1.162   0.632  0.00  0.00     0.002 A 
ATOM      7  C8  UNL d   1      -0.031  -0.373   0.821  0.00  0.00     0.006 A 
ENDROOT
BRANCH   1   8
ATOM      8  C1  UNL d   1       2.461  -0.113   1.112  0.00  0.00     0.054 C 
ATOM      9  C   UNL d   1       3.725  -0.959   1.083  0.00  0.00     0.018 C 
ENDBRANCH   1   8
TORSDOF 1
ENDMDL
