MODEL 1
REMARK minimizedAffinity 0.375653923
REMARK minimizedRMSD -1
REMARK  1 active torsions:
REMARK  status: ('A' for Active; 'I' for Inactive)
REMARK    1  A    between atoms: C1_2  and  C2_3 
ROOT
ATOM      1  C2  UNL d   1       1.220  -1.811   1.168  0.00  0.00    -0.081 A 
ATOM      2  C3  UNL d   1       0.354  -0.848   0.636  0.00  0.00     0.006 A 
ATOM      3  C4  UNL d   1       0.851   0.373   0.173  0.00  0.00     0.002 A 
ATOM      4  C5  UNL d   1       2.222   0.647   0.225  0.00  0.00    -0.080 A 
ATOM      5  C6  UNL d   1       2.772   1.941  -0.297  0.00  0.00     0.076 C 
ATOM      6  C7  UNL d   1       3.085  -0.309   0.772  0.00  0.00     0.002 A 
ATOM      7  C8  UNL d   1       2.589  -1.529   1.236  0.00  0.00     0.006 A 
ENDROOT
BRANCH   1   8
ATOM      8  C1  UNL d   1       0.696  -3.154   1.609  0.00  0.00     0.054 C 
ATOM      9  C   UNL d   1       0.017  -3.887   0.461  0.00  0.00     0.018 C 
ENDBRANCH   1   8
TORSDOF 1
ENDMDL
