MODEL 1
REMARK minimizedAffinity -1.85498214
REMARK minimizedRMSD -1
REMARK  1 active torsions:
REMARK  status: ('A' for Active; 'I' for Inactive)
REMARK    1  A    between atoms: C1_2  and  C2_3 
ROOT
ATOM      1  C2  UNL d   1      -0.850  -5.910  -4.612  0.00  0.00    -0.081 A 
ATOM      2  C3  UNL d   1      -2.221  -5.948  -4.896  0.00  0.00     0.006 A 
ATOM      3  C4  UNL d   1      -3.158  -5.990  -3.861  0.00  0.00     0.002 A 
ATOM      4  C5  UNL d   1      -2.741  -5.986  -2.526  0.00  0.00    -0.080 A 
ATOM      5  C6  UNL d   1      -3.738  -6.000  -1.405  0.00  0.00     0.076 C 
ATOM      6  C7  UNL d   1      -1.371  -5.965  -2.241  0.00  0.00     0.002 A 
ATOM      7  C8  UNL d   1      -0.434  -5.924  -3.276  0.00  0.00     0.006 A 
ENDROOT
BRANCH   1   8
ATOM      8  C1  UNL d   1       0.161  -5.799  -5.724  0.00  0.00     0.054 C 
ATOM      9  C   UNL d   1       1.265  -4.812  -5.373  0.00  0.00     0.018 C 
ENDBRANCH   1   8
TORSDOF 1
ENDMDL
