MODEL 1
REMARK minimizedAffinity 1.40696716
REMARK minimizedRMSD -1
REMARK  1 active torsions:
REMARK  status: ('A' for Active; 'I' for Inactive)
REMARK    1  A    between atoms: C1_2  and  C2_3 
ROOT
ATOM      1  C2  UNL d   1      -2.231  -5.928  -3.785  0.00  0.00    -0.081 A 
ATOM      2  C3  UNL d   1      -1.278  -5.766  -2.772  0.00  0.00     0.006 A 
ATOM      3  C4  UNL d   1       0.080  -5.666  -3.086  0.00  0.00     0.002 A 
ATOM      4  C5  UNL d   1       0.506  -5.719  -4.417  0.00  0.00    -0.080 A 
ATOM      5  C6  UNL d   1       1.957  -5.583  -4.770  0.00  0.00     0.076 C 
ATOM      6  C7  UNL d   1      -0.444  -5.899  -5.428  0.00  0.00     0.002 A 
ATOM      7  C8  UNL d   1      -1.802  -5.999  -5.115  0.00  0.00     0.006 A 
ENDROOT
BRANCH   1   8
ATOM      8  C1  UNL d   1      -3.701  -5.971  -3.455  0.00  0.00     0.054 C 
ATOM      9  C   UNL d   1      -3.930  -5.979  -1.950  0.00  0.00     0.018 C 
ENDBRANCH   1   8
TORSDOF 1
ENDMDL
