MODEL 1
REMARK minimizedAffinity 2.4956696
REMARK minimizedRMSD -1
REMARK  1 active torsions:
REMARK  status: ('A' for Active; 'I' for Inactive)
REMARK    1  A    between atoms: C1_2  and  C2_3 
ROOT
ATOM      1  C2  UNL d   1      -2.137  -5.932  -3.475  0.00  0.00    -0.081 A 
ATOM      2  C3  UNL d   1      -1.558  -5.964  -4.750  0.00  0.00     0.006 A 
ATOM      3  C4  UNL d   1      -0.169  -5.967  -4.897  0.00  0.00     0.002 A 
ATOM      4  C5  UNL d   1       0.664  -5.945  -3.773  0.00  0.00    -0.080 A 
ATOM      5  C6  UNL d   1       2.156  -5.978  -3.917  0.00  0.00     0.076 C 
ATOM      6  C7  UNL d   1       0.085  -5.895  -2.500  0.00  0.00     0.002 A 
ATOM      7  C8  UNL d   1      -1.303  -5.891  -2.353  0.00  0.00     0.006 A 
ENDROOT
BRANCH   1   8
ATOM      8  C1  UNL d   1      -3.634  -5.994  -3.312  0.00  0.00     0.054 C 
ATOM      9  C   UNL d   1      -4.033  -5.953  -1.843  0.00  0.00     0.018 C 
ENDBRANCH   1   8
TORSDOF 1
ENDMDL
