MODEL 1
REMARK minimizedAffinity -1.44310558
REMARK minimizedRMSD -1
REMARK  1 active torsions:
REMARK  status: ('A' for Active; 'I' for Inactive)
REMARK    1  A    between atoms: C1_2  and  C2_3 
ROOT
ATOM      1  C2  UNL d   1       0.405  -4.939  -1.444  0.00  0.00    -0.081 A 
ATOM      2  C3  UNL d   1       1.496  -4.616  -2.261  0.00  0.00     0.006 A 
ATOM      3  C4  UNL d   1       1.497  -4.969  -3.613  0.00  0.00     0.002 A 
ATOM      4  C5  UNL d   1       0.406  -5.642  -4.172  0.00  0.00    -0.080 A 
ATOM      5  C6  UNL d   1       0.382  -5.999  -5.628  0.00  0.00     0.076 C 
ATOM      6  C7  UNL d   1      -0.676  -5.980  -3.352  0.00  0.00     0.002 A 
ATOM      7  C8  UNL d   1      -0.678  -5.629  -2.000  0.00  0.00     0.006 A 
ENDROOT
BRANCH   1   8
ATOM      8  C1  UNL d   1       0.373  -4.503  -0.002  0.00  0.00     0.054 C 
ATOM      9  C   UNL d   1      -0.755  -3.513   0.252  0.00  0.00     0.018 C 
ENDBRANCH   1   8
TORSDOF 1
ENDMDL
