MODEL 1
REMARK minimizedAffinity 11.7973499
REMARK minimizedRMSD -1
REMARK  1 active torsions:
REMARK  status: ('A' for Active; 'I' for Inactive)
REMARK    1  A    between atoms: C1_2  and  C2_3 
ROOT
ATOM      1  C2  UNL d   1       2.603  -0.408   0.862  0.00  0.00    -0.081 A 
ATOM      2  C3  UNL d   1       2.098   0.583   0.012  0.00  0.00     0.006 A 
ATOM      3  C4  UNL d   1       0.722   0.810  -0.072  0.00  0.00     0.002 A 
ATOM      4  C5  UNL d   1      -0.170   0.055   0.698  0.00  0.00    -0.080 A 
ATOM      5  C6  UNL d   1      -1.647   0.309   0.639  0.00  0.00     0.076 C 
ATOM      6  C7  UNL d   1       0.334  -0.946   1.534  0.00  0.00     0.002 A 
ATOM      7  C8  UNL d   1       1.709  -1.174   1.618  0.00  0.00     0.006 A 
ENDROOT
BRANCH   1   8
ATOM      8  C1  UNL d   1       4.090  -0.611   1.004  0.00  0.00     0.054 C 
ATOM      9  C   UNL d   1       4.528  -0.503   2.458  0.00  0.00     0.018 C 
ENDBRANCH   1   8
TORSDOF 1
ENDMDL
