MODEL 1
REMARK minimizedAffinity -3.45242691
REMARK minimizedRMSD -1
REMARK  0 active torsions:
REMARK  status: ('A' for Active; 'I' for Inactive)
ROOT
ATOM      1  C   UNL d   1       1.819  -0.781   3.679  0.00  0.00     0.077 C 
ATOM      2  C1  UNL d   1       0.737  -0.618   2.654  0.00  0.00    -0.074 A 
ATOM      3  C2  UNL d   1      -0.609  -0.779   2.998  0.00  0.00    -0.005 A 
ATOM      4  C3  UNL d   1      -1.606  -0.614   2.036  0.00  0.00     0.006 A 
ATOM      5  C4  UNL d   1      -1.267  -0.287   0.723  0.00  0.00    -0.005 A 
ATOM      6  C5  UNL d   1       0.073  -0.121   0.360  0.00  0.00    -0.074 A 
ATOM      7  C6  UNL d   1       0.453   0.241  -1.045  0.00  0.00     0.077 C 
ATOM      8  C7  UNL d   1       1.068  -0.281   1.334  0.00  0.00    -0.001 A 
ENDROOT
TORSDOF 0
ENDMDL
