MODEL 1
REMARK minimizedAffinity -3.3416276
REMARK minimizedRMSD -1
REMARK  0 active torsions:
REMARK  status: ('A' for Active; 'I' for Inactive)
ROOT
ATOM      1  C   UNL d   1       2.926  -1.749   2.993  0.00  0.00     0.077 C 
ATOM      2  C1  UNL d   1       2.044  -1.395   1.832  0.00  0.00    -0.074 A 
ATOM      3  C2  UNL d   1       2.390  -1.764   0.528  0.00  0.00    -0.005 A 
ATOM      4  C3  UNL d   1       1.555  -1.436  -0.540  0.00  0.00     0.006 A 
ATOM      5  C4  UNL d   1       0.369  -0.737  -0.316  0.00  0.00    -0.005 A 
ATOM      6  C5  UNL d   1       0.006  -0.360   0.981  0.00  0.00    -0.074 A 
ATOM      7  C6  UNL d   1      -1.271   0.383   1.241  0.00  0.00     0.077 C 
ATOM      8  C7  UNL d   1       0.847  -0.700   2.050  0.00  0.00    -0.001 A 
ENDROOT
TORSDOF 0
ENDMDL
