MODEL 1
REMARK minimizedAffinity -3.52255511
REMARK minimizedRMSD -1
REMARK  0 active torsions:
REMARK  status: ('A' for Active; 'I' for Inactive)
ROOT
ATOM      1  C   UNL d   1       1.452  -0.539  -1.920  0.00  0.00     0.077 C 
ATOM      2  C1  UNL d   1       0.640  -0.420  -0.665  0.00  0.00    -0.074 A 
ATOM      3  C2  UNL d   1      -0.743  -0.219  -0.720  0.00  0.00    -0.005 A 
ATOM      4  C3  UNL d   1      -1.487  -0.120   0.455  0.00  0.00     0.006 A 
ATOM      5  C4  UNL d   1      -0.857  -0.219   1.696  0.00  0.00    -0.005 A 
ATOM      6  C5  UNL d   1       0.525  -0.420   1.772  0.00  0.00    -0.074 A 
ATOM      7  C6  UNL d   1       1.217  -0.539   3.097  0.00  0.00     0.077 C 
ATOM      8  C7  UNL d   1       1.265  -0.526   0.586  0.00  0.00    -0.001 A 
ENDROOT
TORSDOF 0
ENDMDL
