MODEL 1
REMARK minimizedAffinity -2.58442736
REMARK minimizedRMSD -1
REMARK  0 active torsions:
REMARK  status: ('A' for Active; 'I' for Inactive)
ROOT
ATOM      1  C   UNL d   1      -2.236  -0.179   1.087  0.00  0.00     0.077 C 
ATOM      2  C1  UNL d   1      -0.736  -0.184   1.121  0.00  0.00    -0.074 A 
ATOM      3  C2  UNL d   1      -0.043   0.213   2.269  0.00  0.00    -0.005 A 
ATOM      4  C3  UNL d   1       1.352   0.195   2.289  0.00  0.00     0.006 A 
ATOM      5  C4  UNL d   1       2.066  -0.220   1.164  0.00  0.00    -0.005 A 
ATOM      6  C5  UNL d   1       1.389  -0.622   0.008  0.00  0.00    -0.074 A 
ATOM      7  C6  UNL d   1       2.141  -1.080  -1.206  0.00  0.00     0.077 C 
ATOM      8  C7  UNL d   1      -0.012  -0.607  -0.002  0.00  0.00    -0.001 A 
ENDROOT
TORSDOF 0
ENDMDL
