MODEL 1
REMARK minimizedAffinity -3.47697091
REMARK minimizedRMSD -1
REMARK  0 active torsions:
REMARK  status: ('A' for Active; 'I' for Inactive)
ROOT
ATOM      1  C   UNL d   1       2.145  -0.017   2.483  0.00  0.00     0.077 C 
ATOM      2  C1  UNL d   1       0.877  -0.120   1.689  0.00  0.00    -0.074 A 
ATOM      3  C2  UNL d   1      -0.186  -0.913   2.132  0.00  0.00    -0.005 A 
ATOM      4  C3  UNL d   1      -1.363  -0.991   1.388  0.00  0.00     0.006 A 
ATOM      5  C4  UNL d   1      -1.489  -0.278   0.196  0.00  0.00    -0.005 A 
ATOM      6  C5  UNL d   1      -0.437   0.521  -0.263  0.00  0.00    -0.074 A 
ATOM      7  C6  UNL d   1      -0.560   1.302  -1.538  0.00  0.00     0.077 C 
ATOM      8  C7  UNL d   1       0.740   0.600   0.494  0.00  0.00    -0.001 A 
ENDROOT
TORSDOF 0
ENDMDL
