MODEL 1
REMARK minimizedAffinity -4.19565105
REMARK minimizedRMSD -1
REMARK  0 active torsions:
REMARK  status: ('A' for Active; 'I' for Inactive)
ROOT
ATOM      1  C   UNL d   1      -0.846   0.501  -0.496  0.00  0.00     0.077 C 
ATOM      2  C1  UNL d   1       0.285  -0.347   0.004  0.00  0.00    -0.074 A 
ATOM      3  C2  UNL d   1       1.086  -1.074  -0.883  0.00  0.00    -0.005 A 
ATOM      4  C3  UNL d   1       2.140  -1.852  -0.404  0.00  0.00     0.006 A 
ATOM      5  C4  UNL d   1       2.404  -1.910   0.965  0.00  0.00    -0.005 A 
ATOM      6  C5  UNL d   1       1.615  -1.189   1.868  0.00  0.00    -0.074 A 
ATOM      7  C6  UNL d   1       1.892  -1.233   3.341  0.00  0.00     0.077 C 
ATOM      8  C7  UNL d   1       0.562  -0.405   1.378  0.00  0.00    -0.001 A 
ENDROOT
TORSDOF 0
ENDMDL
