MODEL 1
REMARK minimizedAffinity -2.14789557
REMARK minimizedRMSD -1
REMARK  0 active torsions:
REMARK  status: ('A' for Active; 'I' for Inactive)
ROOT
ATOM      1  C   UNL d   1       0.303   0.357  -2.120  0.00  0.00     0.077 C 
ATOM      2  C1  UNL d   1       0.010   0.210  -0.656  0.00  0.00    -0.074 A 
ATOM      3  C2  UNL d   1      -1.290   0.364  -0.165  0.00  0.00    -0.005 A 
ATOM      4  C3  UNL d   1      -1.549   0.216   1.198  0.00  0.00     0.006 A 
ATOM      5  C4  UNL d   1      -0.513  -0.087   2.081  0.00  0.00    -0.005 A 
ATOM      6  C5  UNL d   1       0.794  -0.245   1.608  0.00  0.00    -0.074 A 
ATOM      7  C6  UNL d   1       1.918  -0.580   2.543  0.00  0.00     0.077 C 
ATOM      8  C7  UNL d   1       1.045  -0.101   0.237  0.00  0.00    -0.001 A 
ENDROOT
TORSDOF 0
ENDMDL
