MODEL 1
REMARK minimizedAffinity -3.07424569
REMARK minimizedRMSD -1
REMARK  0 active torsions:
REMARK  status: ('A' for Active; 'I' for Inactive)
ROOT
ATOM      1  C   UNL d   1      -1.140   1.136  -1.151  0.00  0.00     0.077 C 
ATOM      2  C1  UNL d   1      -0.103   0.251  -0.527  0.00  0.00    -0.074 A 
ATOM      3  C2  UNL d   1       0.799  -0.468  -1.318  0.00  0.00    -0.005 A 
ATOM      4  C3  UNL d   1       1.764  -1.280  -0.722  0.00  0.00     0.006 A 
ATOM      5  C4  UNL d   1       1.837  -1.381   0.668  0.00  0.00    -0.005 A 
ATOM      6  C5  UNL d   1       0.944  -0.669   1.475  0.00  0.00    -0.074 A 
ATOM      7  C6  UNL d   1       1.015  -0.759   2.970  0.00  0.00     0.077 C 
ATOM      8  C7  UNL d   1      -0.018   0.150   0.869  0.00  0.00    -0.001 A 
ENDROOT
TORSDOF 0
ENDMDL
