MODEL 1
REMARK minimizedAffinity -3.24532199
REMARK minimizedRMSD -1
REMARK  0 active torsions:
REMARK  status: ('A' for Active; 'I' for Inactive)
ROOT
ATOM      1  C   UNL d   1       2.392  -1.324   3.354  0.00  0.00     0.077 C 
ATOM      2  C1  UNL d   1       1.618  -1.031   2.103  0.00  0.00    -0.074 A 
ATOM      3  C2  UNL d   1       2.272  -0.826   0.884  0.00  0.00    -0.005 A 
ATOM      4  C3  UNL d   1       1.538  -0.564  -0.272  0.00  0.00     0.006 A 
ATOM      5  C4  UNL d   1       0.145  -0.503  -0.222  0.00  0.00    -0.005 A 
ATOM      6  C5  UNL d   1      -0.527  -0.706   0.988  0.00  0.00    -0.074 A 
ATOM      7  C6  UNL d   1      -2.024  -0.655   1.058  0.00  0.00     0.077 C 
ATOM      8  C7  UNL d   1       0.218  -0.976   2.144  0.00  0.00    -0.001 A 
ENDROOT
TORSDOF 0
ENDMDL
