MODEL 1
REMARK minimizedAffinity -4.40811396
REMARK minimizedRMSD -1
REMARK  0 active torsions:
REMARK  status: ('A' for Active; 'I' for Inactive)
ROOT
ATOM      1  C   UNL d   1      -1.947   0.215   1.744  0.00  0.00     0.077 C 
ATOM      2  C1  UNL d   1      -0.674  -0.439   1.297  0.00  0.00    -0.074 A 
ATOM      3  C2  UNL d   1       0.178  -1.058   2.218  0.00  0.00    -0.005 A 
ATOM      4  C3  UNL d   1       1.354  -1.671   1.786  0.00  0.00     0.006 A 
ATOM      5  C4  UNL d   1       1.691  -1.670   0.432  0.00  0.00    -0.005 A 
ATOM      6  C5  UNL d   1       0.851  -1.057  -0.503  0.00  0.00    -0.074 A 
ATOM      7  C6  UNL d   1       1.193  -1.056  -1.963  0.00  0.00     0.077 C 
ATOM      8  C7  UNL d   1      -0.333  -0.450  -0.062  0.00  0.00    -0.001 A 
ENDROOT
TORSDOF 0
ENDMDL
