MODEL 1
REMARK minimizedAffinity 6.25895691
REMARK minimizedRMSD -1
REMARK  0 active torsions:
REMARK  status: ('A' for Active; 'I' for Inactive)
ROOT
ATOM      1  C   UNL d   1       1.400  -0.926  -0.947  0.00  0.00     0.077 C 
ATOM      2  C1  UNL d   1       0.889  -0.983   0.462  0.00  0.00    -0.074 A 
ATOM      3  C2  UNL d   1      -0.483  -0.956   0.731  0.00  0.00    -0.005 A 
ATOM      4  C3  UNL d   1      -0.944  -1.019   2.046  0.00  0.00     0.006 A 
ATOM      5  C4  UNL d   1      -0.039  -1.109   3.104  0.00  0.00    -0.005 A 
ATOM      6  C5  UNL d   1       1.337  -1.138   2.855  0.00  0.00    -0.074 A 
ATOM      7  C6  UNL d   1       2.323  -1.245   3.980  0.00  0.00     0.077 C 
ATOM      8  C7  UNL d   1       1.792  -1.082   1.530  0.00  0.00    -0.001 A 
ENDROOT
TORSDOF 0
ENDMDL
