MODEL 1
REMARK minimizedAffinity 2.6036706
REMARK minimizedRMSD -1
REMARK  0 active torsions:
REMARK  status: ('A' for Active; 'I' for Inactive)
ROOT
ATOM      1  C   UNL d   1      -1.092  -0.708   3.420  0.00  0.00     0.077 C 
ATOM      2  C1  UNL d   1       0.209  -0.874   2.692  0.00  0.00    -0.074 A 
ATOM      3  C2  UNL d   1       1.419  -0.943   3.389  0.00  0.00    -0.005 A 
ATOM      4  C3  UNL d   1       2.620  -1.107   2.699  0.00  0.00     0.006 A 
ATOM      5  C4  UNL d   1       2.623  -1.203   1.307  0.00  0.00    -0.005 A 
ATOM      6  C5  UNL d   1       1.423  -1.137   0.593  0.00  0.00    -0.074 A 
ATOM      7  C6  UNL d   1       1.407  -1.248  -0.903  0.00  0.00     0.077 C 
ATOM      8  C7  UNL d   1       0.219  -0.979   1.294  0.00  0.00    -0.001 A 
ENDROOT
TORSDOF 0
ENDMDL
