MODEL 1
REMARK minimizedAffinity 7.80831242
REMARK minimizedRMSD -1
REMARK  0 active torsions:
REMARK  status: ('A' for Active; 'I' for Inactive)
ROOT
ATOM      1  C   UNL d   1       3.132  -1.671   2.863  0.00  0.00     0.077 C 
ATOM      2  C1  UNL d   1       1.764  -1.060   2.783  0.00  0.00    -0.074 A 
ATOM      3  C2  UNL d   1       1.354  -0.094   3.707  0.00  0.00    -0.005 A 
ATOM      4  C3  UNL d   1       0.082   0.472   3.615  0.00  0.00     0.006 A 
ATOM      5  C4  UNL d   1      -0.790   0.078   2.600  0.00  0.00    -0.005 A 
ATOM      6  C5  UNL d   1      -0.396  -0.886   1.666  0.00  0.00    -0.074 A 
ATOM      7  C6  UNL d   1      -1.318  -1.313   0.562  0.00  0.00     0.077 C 
ATOM      8  C7  UNL d   1       0.885  -1.445   1.761  0.00  0.00    -0.001 A 
ENDROOT
TORSDOF 0
ENDMDL
