MODEL 1
REMARK minimizedAffinity 9.34339714
REMARK minimizedRMSD -1
REMARK  0 active torsions:
REMARK  status: ('A' for Active; 'I' for Inactive)
ROOT
ATOM      1  C   UNL d   1      -1.076   0.617   3.414  0.00  0.00     0.077 C 
ATOM      2  C1  UNL d   1       0.112  -0.122   2.874  0.00  0.00    -0.074 A 
ATOM      3  C2  UNL d   1       1.106  -0.608   3.729  0.00  0.00    -0.005 A 
ATOM      4  C3  UNL d   1       2.201  -1.301   3.213  0.00  0.00     0.006 A 
ATOM      5  C4  UNL d   1       2.313  -1.514   1.838  0.00  0.00    -0.005 A 
ATOM      6  C5  UNL d   1       1.329  -1.036   0.968  0.00  0.00    -0.074 A 
ATOM      7  C6  UNL d   1       1.429  -1.265  -0.511  0.00  0.00     0.077 C 
ATOM      8  C7  UNL d   1       0.228  -0.347   1.495  0.00  0.00    -0.001 A 
ENDROOT
TORSDOF 0
ENDMDL
