MODEL 1
REMARK minimizedAffinity 0.385989159
REMARK minimizedRMSD -1
REMARK  0 active torsions:
REMARK  status: ('A' for Active; 'I' for Inactive)
ROOT
ATOM      1  C   UNL d   1       3.296  -2.266  -0.447  0.00  0.00     0.077 C 
ATOM      2  C1  UNL d   1       1.993  -1.702   0.036  0.00  0.00    -0.074 A 
ATOM      3  C2  UNL d   1       0.981  -1.356  -0.865  0.00  0.00    -0.005 A 
ATOM      4  C3  UNL d   1      -0.229  -0.841  -0.400  0.00  0.00     0.006 A 
ATOM      5  C4  UNL d   1      -0.439  -0.668   0.968  0.00  0.00    -0.005 A 
ATOM      6  C5  UNL d   1       0.561  -1.009   1.884  0.00  0.00    -0.074 A 
ATOM      7  C6  UNL d   1       0.347  -0.838   3.359  0.00  0.00     0.077 C 
ATOM      8  C7  UNL d   1       1.771  -1.532   1.410  0.00  0.00    -0.001 A 
ENDROOT
TORSDOF 0
ENDMDL
