MODEL 1
REMARK minimizedAffinity -5.07621145
REMARK minimizedRMSD -1
REMARK  1 active torsions:
REMARK  status: ('A' for Active; 'I' for Inactive)
REMARK    1  A    between atoms: N_2  and  C1_3 
ROOT
ATOM      1  C1  UNL d   1      -0.028   0.214  -0.013  0.00  0.00     0.143 A 
ATOM      2  C2  UNL d   1      -1.011   1.115   0.410  0.00  0.00    -0.057 A 
ATOM      3  C3  UNL d   1      -0.791   2.497   0.378  0.00  0.00     0.033 A 
ATOM      4  C4  UNL d   1       0.432   3.003  -0.051  0.00  0.00    -0.042 A 
ATOM      5  C5  UNL d   1       1.432   2.125  -0.453  0.00  0.00     0.033 A 
ATOM      6  C6  UNL d   1       1.204   0.746  -0.425  0.00  0.00    -0.057 A 
ENDROOT
BRANCH   1   7
ATOM      7  N   UNL d   1      -0.151  -1.174   0.088  0.00  0.00    -0.732 N 
ATOM      8  C   UNL d   1      -0.520  -1.967  -1.065  0.00  0.00     0.284 C 
ATOM      9  H3  UNL d   1       0.582  -1.589   0.659  0.00  0.00     0.395 HD
ENDBRANCH   1   7
TORSDOF 1
ENDMDL
