MODEL 1
REMARK minimizedAffinity -5.00478697
REMARK minimizedRMSD -1
REMARK  1 active torsions:
REMARK  status: ('A' for Active; 'I' for Inactive)
REMARK    1  A    between atoms: N_2  and  C1_3 
ROOT
ATOM      1  C1  UNL d   1       0.133   0.113   0.096  0.00  0.00     0.143 A 
ATOM      2  C2  UNL d   1       0.986   1.149  -0.298  0.00  0.00    -0.057 A 
ATOM      3  C3  UNL d   1       0.513   2.457  -0.459  0.00  0.00     0.033 A 
ATOM      4  C4  UNL d   1      -0.832   2.747  -0.256  0.00  0.00    -0.042 A 
ATOM      5  C5  UNL d   1      -1.703   1.728   0.112  0.00  0.00     0.033 A 
ATOM      6  C6  UNL d   1      -1.224   0.425   0.277  0.00  0.00    -0.057 A 
ENDROOT
BRANCH   1   7
ATOM      7  N   UNL d   1       0.521  -1.227   0.177  0.00  0.00    -0.732 N 
ATOM      8  C   UNL d   1      -0.193  -2.248  -0.559  0.00  0.00     0.284 C 
ATOM      9  H3  UNL d   1       1.533  -1.339   0.168  0.00  0.00     0.395 HD
ENDBRANCH   1   7
TORSDOF 1
ENDMDL
