MODEL 1
REMARK minimizedAffinity -4.02287054
REMARK minimizedRMSD -1
REMARK  1 active torsions:
REMARK  status: ('A' for Active; 'I' for Inactive)
REMARK    1  A    between atoms: N_2  and  C1_3 
ROOT
ATOM      1  C1  UNL d   1      -0.075  -0.124  -0.389  0.00  0.00     0.143 A 
ATOM      2  C2  UNL d   1      -1.280   0.572  -0.245  0.00  0.00    -0.057 A 
ATOM      3  C3  UNL d   1      -1.307   1.970  -0.166  0.00  0.00     0.033 A 
ATOM      4  C4  UNL d   1      -0.122   2.697  -0.202  0.00  0.00    -0.042 A 
ATOM      5  C5  UNL d   1       1.090   2.025  -0.319  0.00  0.00     0.033 A 
ATOM      6  C6  UNL d   1       1.110   0.630  -0.404  0.00  0.00    -0.057 A 
ENDROOT
BRANCH   1   7
ATOM      7  N   UNL d   1       0.026  -1.517  -0.373  0.00  0.00    -0.732 N 
ATOM      8  C   UNL d   1       0.197  -2.258  -1.604  0.00  0.00     0.284 C 
ATOM      9  H3  UNL d   1       0.595  -1.856   0.399  0.00  0.00     0.395 HD
ENDBRANCH   1   7
TORSDOF 1
ENDMDL
