MODEL 1
REMARK minimizedAffinity -5.40381575
REMARK minimizedRMSD -1
REMARK  1 active torsions:
REMARK  status: ('A' for Active; 'I' for Inactive)
REMARK    1  A    between atoms: N_2  and  C1_3 
ROOT
ATOM      1  C1  UNL d   1      -0.354  -0.269  -0.097  0.00  0.00     0.143 A 
ATOM      2  C2  UNL d   1       0.951   0.230  -0.032  0.00  0.00    -0.057 A 
ATOM      3  C3  UNL d   1       1.201   1.568   0.297  0.00  0.00     0.033 A 
ATOM      4  C4  UNL d   1       0.145   2.440   0.539  0.00  0.00    -0.042 A 
ATOM      5  C5  UNL d   1      -1.162   1.972   0.456  0.00  0.00     0.033 A 
ATOM      6  C6  UNL d   1      -1.405   0.633   0.134  0.00  0.00    -0.057 A 
ENDROOT
BRANCH   1   7
ATOM      7  N   UNL d   1      -0.672  -1.564  -0.515  0.00  0.00    -0.732 N 
ATOM      8  C   UNL d   1      -0.281  -2.032  -1.827  0.00  0.00     0.284 C 
ATOM      9  H3  UNL d   1      -0.550  -2.252   0.225  0.00  0.00     0.395 HD
ENDBRANCH   1   7
TORSDOF 1
ENDMDL
