MODEL 1
REMARK minimizedAffinity -0.74816823
REMARK minimizedRMSD -1
REMARK  1 active torsions:
REMARK  status: ('A' for Active; 'I' for Inactive)
REMARK    1  A    between atoms: N_2  and  C1_3 
ROOT
ATOM      1  C1  UNL d   1      -0.646  -1.769  -0.728  0.00  0.00     0.143 A 
ATOM      2  C2  UNL d   1      -0.285  -3.100  -0.493  0.00  0.00    -0.057 A 
ATOM      3  C3  UNL d   1      -0.899  -4.151  -1.184  0.00  0.00     0.033 A 
ATOM      4  C4  UNL d   1      -1.910  -3.891  -2.104  0.00  0.00    -0.042 A 
ATOM      5  C5  UNL d   1      -2.302  -2.577  -2.334  0.00  0.00     0.033 A 
ATOM      6  C6  UNL d   1      -1.680  -1.531  -1.646  0.00  0.00    -0.057 A 
ENDROOT
BRANCH   1   7
ATOM      7  N   UNL d   1      -0.142  -0.687  -0.002  0.00  0.00    -0.732 N 
ATOM      8  C   UNL d   1      -0.878   0.557   0.073  0.00  0.00     0.284 C 
ATOM      9  H3  UNL d   1       0.282  -0.973   0.878  0.00  0.00     0.395 HD
ENDBRANCH   1   7
TORSDOF 1
ENDMDL
