MODEL 1
REMARK minimizedAffinity -4.08056974
REMARK minimizedRMSD -1
REMARK  1 active torsions:
REMARK  status: ('A' for Active; 'I' for Inactive)
REMARK    1  A    between atoms: N_2  and  C1_3 
ROOT
ATOM      1  C1  UNL d   1       0.299  -0.114   0.036  0.00  0.00     0.143 A 
ATOM      2  C2  UNL d   1      -0.815   0.571   0.531  0.00  0.00    -0.057 A 
ATOM      3  C3  UNL d   1      -0.866   1.970   0.535  0.00  0.00     0.033 A 
ATOM      4  C4  UNL d   1       0.215   2.712   0.068  0.00  0.00    -0.042 A 
ATOM      5  C5  UNL d   1       1.343   2.053  -0.405  0.00  0.00     0.033 A 
ATOM      6  C6  UNL d   1       1.385   0.655  -0.413  0.00  0.00    -0.057 A 
ENDROOT
BRANCH   1   7
ATOM      7  N   UNL d   1       0.450  -1.501   0.096  0.00  0.00    -0.732 N 
ATOM      8  C   UNL d   1      -0.364  -2.367  -0.730  0.00  0.00     0.284 C 
ATOM      9  H3  UNL d   1       1.425  -1.784   0.159  0.00  0.00     0.395 HD
ENDBRANCH   1   7
TORSDOF 1
ENDMDL
