MODEL 1
REMARK minimizedAffinity -3.13933253
REMARK minimizedRMSD -1
REMARK  1 active torsions:
REMARK  status: ('A' for Active; 'I' for Inactive)
REMARK    1  A    between atoms: N_2  and  C1_3 
ROOT
ATOM      1  C1  UNL d   1      -0.132  -0.288  -0.090  0.00  0.00     0.143 A 
ATOM      2  C2  UNL d   1       0.920   0.617  -0.266  0.00  0.00    -0.057 A 
ATOM      3  C3  UNL d   1       0.755   1.982  -0.005  0.00  0.00     0.033 A 
ATOM      4  C4  UNL d   1      -0.479   2.473   0.410  0.00  0.00    -0.042 A 
ATOM      5  C5  UNL d   1      -1.546   1.595   0.568  0.00  0.00     0.033 A 
ATOM      6  C6  UNL d   1      -1.372   0.231   0.312  0.00  0.00    -0.057 A 
ENDROOT
BRANCH   1   7
ATOM      7  N   UNL d   1      -0.058  -1.642  -0.427  0.00  0.00    -0.732 N 
ATOM      8  C   UNL d   1      -0.369  -2.086  -1.769  0.00  0.00     0.284 C 
ATOM      9  H3  UNL d   1       0.751  -2.101  -0.015  0.00  0.00     0.395 HD
ENDBRANCH   1   7
TORSDOF 1
ENDMDL
