MODEL 1
REMARK minimizedAffinity -3.33149004
REMARK minimizedRMSD -1
REMARK  1 active torsions:
REMARK  status: ('A' for Active; 'I' for Inactive)
REMARK    1  A    between atoms: N_2  and  C1_3 
ROOT
ATOM      1  C1  UNL d   1       0.063  -0.636  -0.165  0.00  0.00     0.143 A 
ATOM      2  C2  UNL d   1       1.398  -0.230  -0.059  0.00  0.00    -0.057 A 
ATOM      3  C3  UNL d   1       1.735   1.117   0.116  0.00  0.00     0.033 A 
ATOM      4  C4  UNL d   1       0.741   2.089   0.159  0.00  0.00    -0.042 A 
ATOM      5  C5  UNL d   1      -0.591   1.712   0.031  0.00  0.00     0.033 A 
ATOM      6  C6  UNL d   1      -0.922   0.364  -0.138  0.00  0.00    -0.057 A 
ENDROOT
BRANCH   1   7
ATOM      7  N   UNL d   1      -0.332  -1.948  -0.439  0.00  0.00    -0.732 N 
ATOM      8  C   UNL d   1       0.015  -2.575  -1.697  0.00  0.00     0.284 C 
ATOM      9  H3  UNL d   1      -0.238  -2.558   0.369  0.00  0.00     0.395 HD
ENDBRANCH   1   7
TORSDOF 1
ENDMDL
