MODEL 1
REMARK minimizedAffinity -1.23790896
REMARK minimizedRMSD -1
REMARK  1 active torsions:
REMARK  status: ('A' for Active; 'I' for Inactive)
REMARK    1  A    between atoms: N_2  and  C1_3 
ROOT
ATOM      1  C1  UNL d   1       0.012   2.145   0.316  0.00  0.00     0.143 A 
ATOM      2  C2  UNL d   1       0.725   1.818  -0.842  0.00  0.00    -0.057 A 
ATOM      3  C3  UNL d   1       0.718   0.515  -1.354  0.00  0.00     0.033 A 
ATOM      4  C4  UNL d   1       0.019  -0.493  -0.699  0.00  0.00    -0.042 A 
ATOM      5  C5  UNL d   1      -0.676  -0.196   0.468  0.00  0.00     0.033 A 
ATOM      6  C6  UNL d   1      -0.671   1.108   0.971  0.00  0.00    -0.057 A 
ENDROOT
BRANCH   1   7
ATOM      7  N   UNL d   1       0.060   3.399   0.930  0.00  0.00    -0.732 N 
ATOM      8  C   UNL d   1      -0.030   3.520   2.370  0.00  0.00     0.284 C 
ATOM      9  H3  UNL d   1       0.749   4.015   0.504  0.00  0.00     0.395 HD
ENDBRANCH   1   7
TORSDOF 1
ENDMDL
