MODEL 1
REMARK minimizedAffinity -4.08283234
REMARK minimizedRMSD -1
REMARK  1 active torsions:
REMARK  status: ('A' for Active; 'I' for Inactive)
REMARK    1  A    between atoms: N_2  and  C1_3 
ROOT
ATOM      1  C1  UNL d   1       0.077   0.474  -0.065  0.00  0.00     0.143 A 
ATOM      2  C2  UNL d   1       0.996   1.213  -0.819  0.00  0.00    -0.057 A 
ATOM      3  C3  UNL d   1       0.890   2.604  -0.932  0.00  0.00     0.033 A 
ATOM      4  C4  UNL d   1      -0.157   3.280  -0.314  0.00  0.00    -0.042 A 
ATOM      5  C5  UNL d   1      -1.096   2.564   0.420  0.00  0.00     0.033 A 
ATOM      6  C6  UNL d   1      -0.981   1.175   0.534  0.00  0.00    -0.057 A 
ENDROOT
BRANCH   1   7
ATOM      7  N   UNL d   1       0.072  -0.921   0.004  0.00  0.00    -0.732 N 
ATOM      8  C   UNL d   1      -0.135  -1.718  -1.186  0.00  0.00     0.284 C 
ATOM      9  H3  UNL d   1       0.791  -1.282   0.626  0.00  0.00     0.395 HD
ENDBRANCH   1   7
TORSDOF 1
ENDMDL
