MODEL 1
REMARK minimizedAffinity -2.82465339
REMARK minimizedRMSD -1
REMARK  1 active torsions:
REMARK  status: ('A' for Active; 'I' for Inactive)
REMARK    1  A    between atoms: C1_2  and  C2_3 
ROOT
ATOM      1  C2  UNL d   1       1.552   4.512  -5.957  0.00  0.00    -0.077 A 
ATOM      2  C3  UNL d   1       2.088   5.807  -5.954  0.00  0.00     0.002 A 
ATOM      3  C4  UNL d   1       3.471   6.000  -5.972  0.00  0.00     0.002 A 
ATOM      4  C5  UNL d   1       4.328   4.902  -5.997  0.00  0.00    -0.004 A 
ATOM      5  C6  UNL d   1       3.805   3.609  -5.999  0.00  0.00     0.002 A 
ATOM      6  C7  UNL d   1       2.423   3.415  -5.980  0.00  0.00     0.002 A 
ENDROOT
BRANCH   1   7
ATOM      7  C1  UNL d   1       0.061   4.303  -5.988  0.00  0.00     0.055 C 
ATOM      8  C   UNL d   1      -0.685   5.630  -5.983  0.00  0.00     0.019 C 
ENDBRANCH   1   7
TORSDOF 1
ENDMDL
