MODEL 1
REMARK minimizedAffinity -2.34706569
REMARK minimizedRMSD -1
REMARK  1 active torsions:
REMARK  status: ('A' for Active; 'I' for Inactive)
REMARK    1  A    between atoms: C1_2  and  C2_3 
ROOT
ATOM      1  C2  UNL d   1       0.279   3.125  -5.898  0.00  0.00    -0.077 A 
ATOM      2  C3  UNL d   1       0.621   4.484  -5.934  0.00  0.00     0.002 A 
ATOM      3  C4  UNL d   1       1.961   4.873  -5.982  0.00  0.00     0.002 A 
ATOM      4  C5  UNL d   1       2.968   3.910  -5.999  0.00  0.00    -0.004 A 
ATOM      5  C6  UNL d   1       2.638   2.556  -5.961  0.00  0.00     0.002 A 
ATOM      6  C7  UNL d   1       1.299   2.165  -5.912  0.00  0.00     0.002 A 
ENDROOT
BRANCH   1   7
ATOM      7  C1  UNL d   1      -1.167   2.702  -5.896  0.00  0.00     0.055 C 
ATOM      8  C   UNL d   1      -2.095   3.903  -5.999  0.00  0.00     0.019 C 
ENDBRANCH   1   7
TORSDOF 1
ENDMDL
