MODEL 1
REMARK minimizedAffinity -2.66898918
REMARK minimizedRMSD -1
REMARK  1 active torsions:
REMARK  status: ('A' for Active; 'I' for Inactive)
REMARK    1  A    between atoms: C1_2  and  C2_3 
ROOT
ATOM      1  C2  UNL d   1       0.003   3.763  -5.964  0.00  0.00    -0.077 A 
ATOM      2  C3  UNL d   1      -0.521   2.462  -5.970  0.00  0.00     0.002 A 
ATOM      3  C4  UNL d   1      -1.902   2.257  -5.984  0.00  0.00     0.002 A 
ATOM      4  C5  UNL d   1      -2.770   3.347  -5.997  0.00  0.00    -0.004 A 
ATOM      5  C6  UNL d   1      -2.259   4.644  -5.990  0.00  0.00     0.002 A 
ATOM      6  C7  UNL d   1      -0.879   4.851  -5.974  0.00  0.00     0.002 A 
ENDROOT
BRANCH   1   7
ATOM      7  C1  UNL d   1       1.492   3.986  -5.998  0.00  0.00     0.055 C 
ATOM      8  C   UNL d   1       2.250   2.666  -5.974  0.00  0.00     0.019 C 
ENDBRANCH   1   7
TORSDOF 1
ENDMDL
