MODEL 1
REMARK minimizedAffinity -1.47825277
REMARK minimizedRMSD -1
REMARK  1 active torsions:
REMARK  status: ('A' for Active; 'I' for Inactive)
REMARK    1  A    between atoms: C1_2  and  C2_3 
ROOT
ATOM      1  C2  UNL d   1       1.874   3.976  -6.000  0.00  0.00    -0.077 A 
ATOM      2  C3  UNL d   1       1.459   5.315  -6.000  0.00  0.00     0.002 A 
ATOM      3  C4  UNL d   1       0.099   5.633  -5.995  0.00  0.00     0.002 A 
ATOM      4  C5  UNL d   1      -0.855   4.618  -5.986  0.00  0.00    -0.004 A 
ATOM      5  C6  UNL d   1      -0.452   3.283  -5.988  0.00  0.00     0.002 A 
ATOM      6  C7  UNL d   1       0.906   2.963  -5.994  0.00  0.00     0.002 A 
ENDROOT
BRANCH   1   7
ATOM      7  C1  UNL d   1       3.340   3.631  -5.955  0.00  0.00     0.055 C 
ATOM      8  C   UNL d   1       4.203   4.884  -5.959  0.00  0.00     0.019 C 
ENDBRANCH   1   7
TORSDOF 1
ENDMDL
