MODEL 1
REMARK minimizedAffinity 0.275531769
REMARK minimizedRMSD -1
REMARK  1 active torsions:
REMARK  status: ('A' for Active; 'I' for Inactive)
REMARK    1  A    between atoms: C1_2  and  C2_3 
ROOT
ATOM      1  C2  UNL d   1      -2.109   3.836  -5.969  0.00  0.00    -0.077 A 
ATOM      2  C3  UNL d   1      -2.049   5.232  -5.862  0.00  0.00     0.002 A 
ATOM      3  C4  UNL d   1      -3.222   5.986  -5.788  0.00  0.00     0.002 A 
ATOM      4  C5  UNL d   1      -4.462   5.351  -5.815  0.00  0.00    -0.004 A 
ATOM      5  C6  UNL d   1      -4.532   3.963  -5.923  0.00  0.00     0.002 A 
ATOM      6  C7  UNL d   1      -3.361   3.208  -5.998  0.00  0.00     0.002 A 
ENDROOT
BRANCH   1   7
ATOM      7  C1  UNL d   1      -0.844   3.018  -5.999  0.00  0.00     0.055 C 
ATOM      8  C   UNL d   1       0.391   3.907  -5.995  0.00  0.00     0.019 C 
ENDBRANCH   1   7
TORSDOF 1
ENDMDL
