MODEL 1
REMARK minimizedAffinity 1.68844068
REMARK minimizedRMSD -1
REMARK  1 active torsions:
REMARK  status: ('A' for Active; 'I' for Inactive)
REMARK    1  A    between atoms: C1_2  and  C2_3 
ROOT
ATOM      1  C2  UNL d   1      -0.603   4.228  -5.956  0.00  0.00    -0.077 A 
ATOM      2  C3  UNL d   1       0.164   5.402  -5.953  0.00  0.00     0.002 A 
ATOM      3  C4  UNL d   1       1.559   5.334  -5.970  0.00  0.00     0.002 A 
ATOM      4  C5  UNL d   1       2.197   4.096  -5.994  0.00  0.00    -0.004 A 
ATOM      5  C6  UNL d   1       1.443   2.923  -5.994  0.00  0.00     0.002 A 
ATOM      6  C7  UNL d   1       0.049   2.989  -5.977  0.00  0.00     0.002 A 
ENDROOT
BRANCH   1   7
ATOM      7  C1  UNL d   1      -2.108   4.300  -5.988  0.00  0.00     0.055 C 
ATOM      8  C   UNL d   1      -2.594   5.742  -5.963  0.00  0.00     0.019 C 
ENDBRANCH   1   7
TORSDOF 1
ENDMDL
