MODEL 1
REMARK minimizedAffinity -1.65436435
REMARK minimizedRMSD -1
REMARK  1 active torsions:
REMARK  status: ('A' for Active; 'I' for Inactive)
REMARK    1  A    between atoms: C1_2  and  C2_3 
ROOT
ATOM      1  C2  UNL d   1       3.928   4.695  -5.934  0.00  0.00    -0.077 A 
ATOM      2  C3  UNL d   1       3.270   3.458  -5.934  0.00  0.00     0.002 A 
ATOM      3  C4  UNL d   1       1.875   3.399  -5.964  0.00  0.00     0.002 A 
ATOM      4  C5  UNL d   1       1.127   4.574  -5.997  0.00  0.00    -0.004 A 
ATOM      5  C6  UNL d   1       1.773   5.810  -5.995  0.00  0.00     0.002 A 
ATOM      6  C7  UNL d   1       3.167   5.871  -5.964  0.00  0.00     0.002 A 
ENDROOT
BRANCH   1   7
ATOM      7  C1  UNL d   1       5.433   4.760  -5.952  0.00  0.00     0.055 C 
ATOM      8  C   UNL d   1       5.999   4.868  -4.543  0.00  0.00     0.019 C 
ENDBRANCH   1   7
TORSDOF 1
ENDMDL
