MODEL 1
REMARK minimizedAffinity 1.71243417
REMARK minimizedRMSD -1
REMARK  1 active torsions:
REMARK  status: ('A' for Active; 'I' for Inactive)
REMARK    1  A    between atoms: C1_2  and  C2_3 
ROOT
ATOM      1  C2  UNL d   1       0.089   4.561  -5.956  0.00  0.00    -0.077 A 
ATOM      2  C3  UNL d   1       0.793   3.348  -5.953  0.00  0.00     0.002 A 
ATOM      3  C4  UNL d   1       2.189   3.342  -5.971  0.00  0.00     0.002 A 
ATOM      4  C5  UNL d   1       2.892   4.545  -5.989  0.00  0.00    -0.004 A 
ATOM      5  C6  UNL d   1       2.202   5.756  -5.994  0.00  0.00     0.002 A 
ATOM      6  C7  UNL d   1       0.806   5.764  -5.977  0.00  0.00     0.002 A 
ENDROOT
BRANCH   1   7
ATOM      7  C1  UNL d   1      -1.416   4.570  -5.886  0.00  0.00     0.055 C 
ATOM      8  C   UNL d   1      -1.963   5.989  -5.933  0.00  0.00     0.019 C 
ENDBRANCH   1   7
TORSDOF 1
ENDMDL
