MODEL 1
REMARK minimizedAffinity -4.80815935
REMARK minimizedRMSD -1
REMARK  1 active torsions:
REMARK  status: ('A' for Active; 'I' for Inactive)
REMARK    1  A    between atoms: C1_2  and  C2_3 
ROOT
ATOM      1  C2  UNL d   1       0.051   0.469   0.100  0.00  0.00    -0.076 A 
ATOM      2  C3  UNL d   1       1.023   1.286  -0.503  0.00  0.00     0.004 A 
ATOM      3  C4  UNL d   1       0.881   2.672  -0.524  0.00  0.00    -0.003 A 
ATOM      4  C5  UNL d   1      -0.235   3.264   0.058  0.00  0.00     0.000 A 
ATOM      5  C6  UNL d   1      -1.200   2.470   0.676  0.00  0.00     0.000 A 
ATOM      6  C7  UNL d   1      -1.064   1.072   0.720  0.00  0.00    -0.073 A 
ATOM      7  C8  UNL d   1      -2.138   0.263   1.395  0.00  0.00     0.078 C 
ENDROOT
BRANCH   1   8
ATOM      8  C1  UNL d   1       0.245  -1.031   0.069  0.00  0.00     0.053 C 
ATOM      9  C   UNL d   1       1.673  -1.440   0.393  0.00  0.00     0.018 C 
ENDBRANCH   1   8
TORSDOF 1
ENDMDL
