MODEL 1
REMARK minimizedAffinity -2.11223149
REMARK minimizedRMSD -1
REMARK  1 active torsions:
REMARK  status: ('A' for Active; 'I' for Inactive)
REMARK    1  A    between atoms: C1_2  and  C2_3 
ROOT
ATOM      1  C2  UNL d   1      -0.024   0.163  -0.311  0.00  0.00    -0.076 A 
ATOM      2  C3  UNL d   1       0.892   0.848  -1.127  0.00  0.00     0.004 A 
ATOM      3  C4  UNL d   1       0.899   2.241  -1.186  0.00  0.00    -0.003 A 
ATOM      4  C5  UNL d   1      -0.010   2.971  -0.429  0.00  0.00     0.000 A 
ATOM      5  C6  UNL d   1      -0.914   2.309   0.400  0.00  0.00     0.000 A 
ATOM      6  C7  UNL d   1      -0.924   0.906   0.484  0.00  0.00    -0.073 A 
ATOM      7  C8  UNL d   1      -1.926   0.244   1.389  0.00  0.00     0.078 C 
ENDROOT
BRANCH   1   8
ATOM      8  C1  UNL d   1      -0.003  -1.349  -0.308  0.00  0.00     0.053 C 
ATOM      9  C   UNL d   1      -0.502  -1.941  -1.617  0.00  0.00     0.018 C 
ENDBRANCH   1   8
TORSDOF 1
ENDMDL
