MODEL 1
REMARK minimizedAffinity -3.8918674
REMARK minimizedRMSD -1
REMARK  1 active torsions:
REMARK  status: ('A' for Active; 'I' for Inactive)
REMARK    1  A    between atoms: C1_2  and  C2_3 
ROOT
ATOM      1  C2  UNL d   1      -0.022   0.071   0.051  0.00  0.00    -0.076 A 
ATOM      2  C3  UNL d   1       1.223   0.514  -0.429  0.00  0.00     0.004 A 
ATOM      3  C4  UNL d   1       1.454   1.864  -0.686  0.00  0.00    -0.003 A 
ATOM      4  C5  UNL d   1       0.444   2.794  -0.467  0.00  0.00     0.000 A 
ATOM      5  C6  UNL d   1      -0.792   2.375   0.026  0.00  0.00     0.000 A 
ATOM      6  C7  UNL d   1      -1.036   1.020   0.306  0.00  0.00    -0.073 A 
ATOM      7  C8  UNL d   1      -2.388   0.623   0.830  0.00  0.00     0.078 C 
ENDROOT
BRANCH   1   8
ATOM      8  C1  UNL d   1      -0.223  -1.409   0.285  0.00  0.00     0.053 C 
ATOM      9  C   UNL d   1      -0.408  -2.184  -1.010  0.00  0.00     0.018 C 
ENDBRANCH   1   8
TORSDOF 1
ENDMDL
