MODEL 1
REMARK minimizedAffinity -5.05203199
REMARK minimizedRMSD -1
REMARK  1 active torsions:
REMARK  status: ('A' for Active; 'I' for Inactive)
REMARK    1  A    between atoms: C1_2  and  C2_3 
ROOT
ATOM      1  C2  UNL d   1       0.739   0.924   0.367  0.00  0.00    -0.076 A 
ATOM      2  C3  UNL d   1       0.267   2.188  -0.026  0.00  0.00     0.004 A 
ATOM      3  C4  UNL d   1       1.134   3.274  -0.139  0.00  0.00    -0.003 A 
ATOM      4  C5  UNL d   1       2.487   3.114   0.139  0.00  0.00     0.000 A 
ATOM      5  C6  UNL d   1       2.975   1.862   0.514  0.00  0.00     0.000 A 
ATOM      6  C7  UNL d   1       2.118   0.753   0.616  0.00  0.00    -0.073 A 
ATOM      7  C8  UNL d   1       2.698  -0.571   1.030  0.00  0.00     0.078 C 
ENDROOT
BRANCH   1   8
ATOM      8  C1  UNL d   1      -0.252  -0.210   0.499  0.00  0.00     0.053 C 
ATOM      9  C   UNL d   1      -1.150  -0.061   1.717  0.00  0.00     0.018 C 
ENDBRANCH   1   8
TORSDOF 1
ENDMDL
