MODEL 1
REMARK minimizedAffinity -3.07983446
REMARK minimizedRMSD -1
REMARK  1 active torsions:
REMARK  status: ('A' for Active; 'I' for Inactive)
REMARK    1  A    between atoms: C1_2  and  C2_3 
ROOT
ATOM      1  C2  UNL d   1       0.212   0.076   0.101  0.00  0.00    -0.076 A 
ATOM      2  C3  UNL d   1       1.038   0.745  -0.819  0.00  0.00     0.004 A 
ATOM      3  C4  UNL d   1       0.995   2.132  -0.945  0.00  0.00    -0.003 A 
ATOM      4  C5  UNL d   1       0.125   2.874  -0.153  0.00  0.00     0.000 A 
ATOM      5  C6  UNL d   1      -0.689   2.229   0.777  0.00  0.00     0.000 A 
ATOM      6  C7  UNL d   1      -0.646   0.832   0.929  0.00  0.00    -0.073 A 
ATOM      7  C8  UNL d   1      -1.550   0.188   1.944  0.00  0.00     0.078 C 
ENDROOT
BRANCH   1   8
ATOM      8  C1  UNL d   1       0.283  -1.432   0.175  0.00  0.00     0.053 C 
ATOM      9  C   UNL d   1      -0.363  -2.105  -1.026  0.00  0.00     0.018 C 
ENDBRANCH   1   8
TORSDOF 1
ENDMDL
