MODEL 1
REMARK minimizedAffinity -3.58078885
REMARK minimizedRMSD -1
REMARK  1 active torsions:
REMARK  status: ('A' for Active; 'I' for Inactive)
REMARK    1  A    between atoms: C1_2  and  C2_3 
ROOT
ATOM      1  C2  UNL d   1      -0.954  -3.158  -0.718  0.00  0.00    -0.076 A 
ATOM      2  C3  UNL d   1      -2.221  -3.520  -0.230  0.00  0.00     0.004 A 
ATOM      3  C4  UNL d   1      -3.236  -3.921  -1.097  0.00  0.00    -0.003 A 
ATOM      4  C5  UNL d   1      -3.000  -3.968  -2.467  0.00  0.00     0.000 A 
ATOM      5  C6  UNL d   1      -1.743  -3.629  -2.967  0.00  0.00     0.000 A 
ATOM      6  C7  UNL d   1      -0.704  -3.238  -2.105  0.00  0.00    -0.073 A 
ATOM      7  C8  UNL d   1       0.630  -2.877  -2.699  0.00  0.00     0.078 C 
ENDROOT
BRANCH   1   8
ATOM      8  C1  UNL d   1       0.100  -2.705   0.267  0.00  0.00     0.053 C 
ATOM      9  C   UNL d   1       0.188  -1.190   0.370  0.00  0.00     0.018 C 
ENDBRANCH   1   8
TORSDOF 1
ENDMDL
