MODEL 1
REMARK minimizedAffinity -4.24797058
REMARK minimizedRMSD -1
REMARK  1 active torsions:
REMARK  status: ('A' for Active; 'I' for Inactive)
REMARK    1  A    between atoms: C1_2  and  C2_3 
ROOT
ATOM      1  C2  UNL d   1       1.014   0.977  -0.183  0.00  0.00    -0.076 A 
ATOM      2  C3  UNL d   1       2.372   1.339  -0.164  0.00  0.00     0.004 A 
ATOM      3  C4  UNL d   1       3.332   0.491   0.385  0.00  0.00    -0.003 A 
ATOM      4  C5  UNL d   1       2.950  -0.733   0.924  0.00  0.00     0.000 A 
ATOM      5  C6  UNL d   1       1.609  -1.115   0.897  0.00  0.00     0.000 A 
ATOM      6  C7  UNL d   1       0.631  -0.279   0.332  0.00  0.00    -0.073 A 
ATOM      7  C8  UNL d   1      -0.801  -0.740   0.336  0.00  0.00     0.078 C 
ENDROOT
BRANCH   1   8
ATOM      8  C1  UNL d   1       0.014   1.949  -0.768  0.00  0.00     0.053 C 
ATOM      9  C   UNL d   1       0.410   3.400  -0.540  0.00  0.00     0.018 C 
ENDBRANCH   1   8
TORSDOF 1
ENDMDL
