MODEL 1
REMARK minimizedAffinity -4.8873682
REMARK minimizedRMSD -1
REMARK  1 active torsions:
REMARK  status: ('A' for Active; 'I' for Inactive)
REMARK    1  A    between atoms: C1_2  and  C2_3 
ROOT
ATOM      1  C2  UNL d   1       0.153   0.608   0.297  0.00  0.00    -0.076 A 
ATOM      2  C3  UNL d   1      -1.119   1.095   0.642  0.00  0.00     0.004 A 
ATOM      3  C4  UNL d   1      -1.408   2.457   0.578  0.00  0.00    -0.003 A 
ATOM      4  C5  UNL d   1      -0.428   3.354   0.168  0.00  0.00     0.000 A 
ATOM      5  C6  UNL d   1       0.835   2.887  -0.195  0.00  0.00     0.000 A 
ATOM      6  C7  UNL d   1       1.137   1.515  -0.152  0.00  0.00    -0.073 A 
ATOM      7  C8  UNL d   1       2.517   1.067  -0.549  0.00  0.00     0.078 C 
ENDROOT
BRANCH   1   8
ATOM      8  C1  UNL d   1       0.416  -0.877   0.411  0.00  0.00     0.053 C 
ATOM      9  C   UNL d   1      -0.632  -1.711  -0.310  0.00  0.00     0.018 C 
ENDBRANCH   1   8
TORSDOF 1
ENDMDL
