MODEL 1
REMARK minimizedAffinity -2.27718258
REMARK minimizedRMSD -1
REMARK  1 active torsions:
REMARK  status: ('A' for Active; 'I' for Inactive)
REMARK    1  A    between atoms: C1_2  and  C2_3 
ROOT
ATOM      1  C2  UNL d   1       0.184   1.176   0.343  0.00  0.00    -0.076 A 
ATOM      2  C3  UNL d   1       1.540   0.836   0.194  0.00  0.00     0.004 A 
ATOM      3  C4  UNL d   1       1.957  -0.493   0.251  0.00  0.00    -0.003 A 
ATOM      4  C5  UNL d   1       1.024  -1.504   0.455  0.00  0.00     0.000 A 
ATOM      5  C6  UNL d   1      -0.328  -1.186   0.587  0.00  0.00     0.000 A 
ATOM      6  C7  UNL d   1      -0.766   0.147   0.516  0.00  0.00    -0.073 A 
ATOM      7  C8  UNL d   1      -2.235   0.433   0.670  0.00  0.00     0.078 C 
ENDROOT
BRANCH   1   8
ATOM      8  C1  UNL d   1      -0.205   2.636   0.300  0.00  0.00     0.053 C 
ATOM      9  C   UNL d   1      -0.516   3.197   1.679  0.00  0.00     0.018 C 
ENDBRANCH   1   8
TORSDOF 1
ENDMDL
