MODEL 1
REMARK minimizedAffinity -2.32281947
REMARK minimizedRMSD -1
REMARK  1 active torsions:
REMARK  status: ('A' for Active; 'I' for Inactive)
REMARK    1  A    between atoms: C1_2  and  C2_3 
ROOT
ATOM      1  C2  UNL d   1       0.710   0.428   0.003  0.00  0.00    -0.076 A 
ATOM      2  C3  UNL d   1       0.838  -0.869  -0.525  0.00  0.00     0.004 A 
ATOM      3  C4  UNL d   1      -0.051  -1.881  -0.167  0.00  0.00    -0.003 A 
ATOM      4  C5  UNL d   1      -1.085  -1.612   0.724  0.00  0.00     0.000 A 
ATOM      5  C6  UNL d   1      -1.238  -0.327   1.243  0.00  0.00     0.000 A 
ATOM      6  C7  UNL d   1      -0.360   0.709   0.880  0.00  0.00    -0.073 A 
ATOM      7  C8  UNL d   1      -0.568   2.074   1.475  0.00  0.00     0.078 C 
ENDROOT
BRANCH   1   8
ATOM      8  C1  UNL d   1       1.721   1.477  -0.401  0.00  0.00     0.053 C 
ATOM      9  C   UNL d   1       1.086   2.642  -1.145  0.00  0.00     0.018 C 
ENDBRANCH   1   8
TORSDOF 1
ENDMDL
