MODEL 1
REMARK minimizedAffinity -5.01601601
REMARK minimizedRMSD -1
REMARK  1 active torsions:
REMARK  status: ('A' for Active; 'I' for Inactive)
REMARK    1  A    between atoms: C1_2  and  C2_3 
ROOT
ATOM      1  C2  UNL d   1      -0.063  -0.107  -0.177  0.00  0.00    -0.076 A 
ATOM      2  C3  UNL d   1      -1.061   0.851  -0.431  0.00  0.00     0.004 A 
ATOM      3  C4  UNL d   1      -0.755   2.210  -0.479  0.00  0.00    -0.003 A 
ATOM      4  C5  UNL d   1       0.553   2.634  -0.274  0.00  0.00     0.000 A 
ATOM      5  C6  UNL d   1       1.559   1.697  -0.039  0.00  0.00     0.000 A 
ATOM      6  C7  UNL d   1       1.271   0.322  -0.003  0.00  0.00    -0.073 A 
ATOM      7  C8  UNL d   1       2.393  -0.645   0.261  0.00  0.00     0.078 C 
ENDROOT
BRANCH   1   8
ATOM      8  C1  UNL d   1      -0.458  -1.564  -0.110  0.00  0.00     0.053 C 
ATOM      9  C   UNL d   1      -0.474  -2.228  -1.478  0.00  0.00     0.018 C 
ENDBRANCH   1   8
TORSDOF 1
ENDMDL
