MODEL 1
REMARK minimizedAffinity -2.61770105
REMARK minimizedRMSD -1
REMARK  0 active torsions:
REMARK  status: ('A' for Active; 'I' for Inactive)
ROOT
ATOM      1  C   UNL d   1       5.668   5.557  -5.429  0.00  0.00     0.020 A 
ATOM      2  C1  UNL d   1       4.559   4.753  -5.690  0.00  0.00     0.020 A 
ATOM      3  C2  UNL d   1       3.750   4.317  -4.639  0.00  0.00     0.034 A 
ATOM      4  C3  UNL d   1       4.048   4.685  -3.322  0.00  0.00     0.017 A 
ATOM      5  C4  UNL d   1       5.161   5.492  -3.061  0.00  0.00     0.017 A 
ATOM      6  C5  UNL d   1       5.968   5.926  -4.117  0.00  0.00     0.034 A 
ATOM      7 Cl   UNL d   1       5.592   5.987  -1.462  0.00  0.00    -0.070 Cl
ATOM      8 Cl1  UNL d   1       3.003   4.110  -2.072  0.00  0.00    -0.070 Cl
ENDROOT
TORSDOF 0
ENDMDL
