MODEL 1
REMARK minimizedAffinity 6.23482752
REMARK minimizedRMSD -1
REMARK  0 active torsions:
REMARK  status: ('A' for Active; 'I' for Inactive)
ROOT
ATOM      1  C   UNL d   1       0.355  -1.809   5.581  0.00  0.00     0.020 A 
ATOM      2  C1  UNL d   1       1.471  -2.617   5.367  0.00  0.00     0.020 A 
ATOM      3  C2  UNL d   1       2.140  -2.574   4.142  0.00  0.00     0.034 A 
ATOM      4  C3  UNL d   1       1.694  -1.721   3.126  0.00  0.00     0.017 A 
ATOM      5  C4  UNL d   1       0.573  -0.911   3.341  0.00  0.00     0.017 A 
ATOM      6  C5  UNL d   1      -0.093  -0.958   4.570  0.00  0.00     0.034 A 
ATOM      7 Cl   UNL d   1      -0.037   0.166   2.135  0.00  0.00    -0.070 Cl
ATOM      8 Cl1  UNL d   1       2.569  -1.719   1.636  0.00  0.00    -0.070 Cl
ENDROOT
TORSDOF 0
ENDMDL
