MODEL 1
REMARK minimizedAffinity 11.3706598
REMARK minimizedRMSD -1
REMARK  0 active torsions:
REMARK  status: ('A' for Active; 'I' for Inactive)
ROOT
ATOM      1  C   UNL d   1      -4.021   4.121   2.212  0.00  0.00     0.020 A 
ATOM      2  C1  UNL d   1      -5.409   4.134   2.086  0.00  0.00     0.020 A 
ATOM      3  C2  UNL d   1      -6.000   3.899   0.843  0.00  0.00     0.034 A 
ATOM      4  C3  UNL d   1      -5.202   3.651  -0.280  0.00  0.00     0.017 A 
ATOM      5  C4  UNL d   1      -3.808   3.639  -0.153  0.00  0.00     0.017 A 
ATOM      6  C5  UNL d   1      -3.222   3.874   1.095  0.00  0.00     0.034 A 
ATOM      7 Cl   UNL d   1      -2.758   3.340  -1.492  0.00  0.00    -0.070 Cl
ATOM      8 Cl1  UNL d   1      -6.000   3.369  -1.786  0.00  0.00    -0.070 Cl
ENDROOT
TORSDOF 0
ENDMDL
