MODEL 1
REMARK minimizedAffinity 18.5393066
REMARK minimizedRMSD -1
REMARK  0 active torsions:
REMARK  status: ('A' for Active; 'I' for Inactive)
ROOT
ATOM      1  C   UNL d   1       3.606  -1.176   0.770  0.00  0.00     0.020 A 
ATOM      2  C1  UNL d   1       3.657  -2.261   1.645  0.00  0.00     0.020 A 
ATOM      3  C2  UNL d   1       2.701  -2.389   2.655  0.00  0.00     0.034 A 
ATOM      4  C3  UNL d   1       1.691  -1.430   2.793  0.00  0.00     0.017 A 
ATOM      5  C4  UNL d   1       1.641  -0.341   1.915  0.00  0.00     0.017 A 
ATOM      6  C5  UNL d   1       2.600  -0.218   0.905  0.00  0.00     0.034 A 
ATOM      7 Cl   UNL d   1       0.424   0.882   2.023  0.00  0.00    -0.070 Cl
ATOM      8 Cl1  UNL d   1       0.542  -1.651   4.065  0.00  0.00    -0.070 Cl
ENDROOT
TORSDOF 0
ENDMDL
