MODEL 1
REMARK minimizedAffinity 11.9608097
REMARK minimizedRMSD -1
REMARK  0 active torsions:
REMARK  status: ('A' for Active; 'I' for Inactive)
ROOT
ATOM      1  C   UNL d   1       5.658   5.721  -5.414  0.00  0.00     0.020 A 
ATOM      2  C1  UNL d   1       4.441   5.114  -5.723  0.00  0.00     0.020 A 
ATOM      3  C2  UNL d   1       3.559   4.758  -4.701  0.00  0.00     0.034 A 
ATOM      4  C3  UNL d   1       3.891   5.009  -3.365  0.00  0.00     0.017 A 
ATOM      5  C4  UNL d   1       5.113   5.619  -3.055  0.00  0.00     0.017 A 
ATOM      6  C5  UNL d   1       5.993   5.973  -4.083  0.00  0.00     0.034 A 
ATOM      7 Cl   UNL d   1       5.593   5.961  -1.430  0.00  0.00    -0.070 Cl
ATOM      8 Cl1  UNL d   1       2.752   4.543  -2.152  0.00  0.00    -0.070 Cl
ENDROOT
TORSDOF 0
ENDMDL
