MODEL 1
REMARK minimizedAffinity 0.625893056
REMARK minimizedRMSD -1
REMARK  0 active torsions:
REMARK  status: ('A' for Active; 'I' for Inactive)
ROOT
ATOM      1  C   UNL d   1       0.906  -1.991   2.812  0.00  0.00     0.020 A 
ATOM      2  C1  UNL d   1       0.703  -1.452   4.081  0.00  0.00     0.020 A 
ATOM      3  C2  UNL d   1       1.173  -0.172   4.380  0.00  0.00     0.034 A 
ATOM      4  C3  UNL d   1       1.849   0.574   3.407  0.00  0.00     0.017 A 
ATOM      5  C4  UNL d   1       2.052   0.032   2.133  0.00  0.00     0.017 A 
ATOM      6  C5  UNL d   1       1.579  -1.251   1.840  0.00  0.00     0.034 A 
ATOM      7 Cl   UNL d   1       2.877   0.892   0.881  0.00  0.00    -0.070 Cl
ATOM      8 Cl1  UNL d   1       2.403   2.151   3.845  0.00  0.00    -0.070 Cl
ENDROOT
TORSDOF 0
ENDMDL
