MODEL 1
REMARK minimizedAffinity 8.76998425
REMARK minimizedRMSD -1
REMARK  0 active torsions:
REMARK  status: ('A' for Active; 'I' for Inactive)
ROOT
ATOM      1  C   UNL d   1       1.358  -3.212   2.806  0.00  0.00     0.020 A 
ATOM      2  C1  UNL d   1       0.949  -2.899   4.102  0.00  0.00     0.020 A 
ATOM      3  C2  UNL d   1       0.983  -1.575   4.544  0.00  0.00     0.034 A 
ATOM      4  C3  UNL d   1       1.426  -0.558   3.689  0.00  0.00     0.017 A 
ATOM      5  C4  UNL d   1       1.836  -0.874   2.389  0.00  0.00     0.017 A 
ATOM      6  C5  UNL d   1       1.800  -2.201   1.952  0.00  0.00     0.034 A 
ATOM      7 Cl   UNL d   1       2.395   0.326   1.277  0.00  0.00    -0.070 Cl
ATOM      8 Cl1  UNL d   1       1.441   1.057   4.302  0.00  0.00    -0.070 Cl
ENDROOT
TORSDOF 0
ENDMDL
