MODEL 1
REMARK minimizedAffinity 3.87503481
REMARK minimizedRMSD -1
REMARK  0 active torsions:
REMARK  status: ('A' for Active; 'I' for Inactive)
ROOT
ATOM      1  C   UNL d   1       3.907   4.847  -1.975  0.00  0.00     0.020 A 
ATOM      2  C1  UNL d   1       4.716   5.938  -2.290  0.00  0.00     0.020 A 
ATOM      3  C2  UNL d   1       5.353   5.999  -3.531  0.00  0.00     0.034 A 
ATOM      4  C3  UNL d   1       5.182   4.968  -4.462  0.00  0.00     0.017 A 
ATOM      5  C4  UNL d   1       4.369   3.874  -4.145  0.00  0.00     0.017 A 
ATOM      6  C5  UNL d   1       3.733   3.818  -2.901  0.00  0.00     0.034 A 
ATOM      7 Cl   UNL d   1       4.110   2.564  -5.242  0.00  0.00    -0.070 Cl
ATOM      8 Cl1  UNL d   1       6.000   5.110  -5.977  0.00  0.00    -0.070 Cl
ENDROOT
TORSDOF 0
ENDMDL
