MODEL 1
REMARK minimizedAffinity 2.94282222
REMARK minimizedRMSD -1
REMARK  0 active torsions:
REMARK  status: ('A' for Active; 'I' for Inactive)
ROOT
ATOM      1  C   UNL d   1       4.958   4.855  -5.373  0.00  0.00     0.020 A 
ATOM      2  C1  UNL d   1       5.961   5.654  -4.827  0.00  0.00     0.020 A 
ATOM      3  C2  UNL d   1       5.922   5.996  -3.474  0.00  0.00     0.034 A 
ATOM      4  C3  UNL d   1       4.877   5.538  -2.662  0.00  0.00     0.017 A 
ATOM      5  C4  UNL d   1       3.871   4.736  -3.211  0.00  0.00     0.017 A 
ATOM      6  C5  UNL d   1       3.915   4.396  -4.567  0.00  0.00     0.034 A 
ATOM      7 Cl   UNL d   1       2.551   4.133  -2.273  0.00  0.00    -0.070 Cl
ATOM      8 Cl1  UNL d   1       4.892   5.999  -0.997  0.00  0.00    -0.070 Cl
ENDROOT
TORSDOF 0
ENDMDL
