MODEL 1
REMARK minimizedAffinity 11.6084242
REMARK minimizedRMSD -1
REMARK  0 active torsions:
REMARK  status: ('A' for Active; 'I' for Inactive)
ROOT
ATOM      1  C   UNL d   1      -4.042   2.761   2.085  0.00  0.00     0.020 A 
ATOM      2  C1  UNL d   1      -5.415   2.964   1.961  0.00  0.00     0.020 A 
ATOM      3  C2  UNL d   1      -6.000   3.035   0.695  0.00  0.00     0.034 A 
ATOM      4  C3  UNL d   1      -5.210   2.903  -0.453  0.00  0.00     0.017 A 
ATOM      5  C4  UNL d   1      -3.831   2.699  -0.328  0.00  0.00     0.017 A 
ATOM      6  C5  UNL d   1      -3.251   2.629   0.942  0.00  0.00     0.034 A 
ATOM      7 Cl   UNL d   1      -2.792   2.527  -1.699  0.00  0.00    -0.070 Cl
ATOM      8 Cl1  UNL d   1      -6.000   3.001  -1.987  0.00  0.00    -0.070 Cl
ENDROOT
TORSDOF 0
ENDMDL
