MODEL 1
REMARK minimizedAffinity -3.77527881
REMARK minimizedRMSD -1
REMARK  0 active torsions:
REMARK  status: ('A' for Active; 'I' for Inactive)
ROOT
ATOM      1  C1  DEN d   1       0.954  -3.084  -0.819  0.00  0.00     0.130 A 
ATOM      2  C2  DEN d   1       2.170  -3.430  -1.550  0.00  0.00    -0.031 A 
ATOM      3  C3  DEN d   1       2.858  -2.174  -1.912  0.00  0.00     0.027 A 
ATOM      4  C4  DEN d   1       2.163   0.259  -1.411  0.00  0.00     0.027 A 
ATOM      5  C5  DEN d   1       1.202   1.054  -0.827  0.00  0.00    -0.003 A 
ATOM      6  C6  DEN d   1       0.083   0.532  -0.235  0.00  0.00     0.001 A 
ATOM      7  C7  DEN d   1      -0.081  -0.827  -0.173  0.00  0.00     0.017 A 
ATOM      8  C8  DEN d   1       0.880  -1.635  -0.765  0.00  0.00    -0.094 A 
ATOM      9  C9  DEN d   1       2.011  -1.088  -1.348  0.00  0.00    -0.072 A 
ENDROOT
TORSDOF 0
ENDMDL
