MODEL 1
REMARK minimizedAffinity 2.44879389
REMARK minimizedRMSD -1
REMARK  0 active torsions:
REMARK  status: ('A' for Active; 'I' for Inactive)
ROOT
ATOM      1  C1  DEN d   1      -0.166  -0.554   0.937  0.00  0.00     0.130 A 
ATOM      2  C2  DEN d   1       0.374  -1.792   0.381  0.00  0.00    -0.031 A 
ATOM      3  C3  DEN d   1       1.367  -1.433  -0.651  0.00  0.00     0.027 A 
ATOM      4  C4  DEN d   1       2.120   0.906  -1.435  0.00  0.00     0.027 A 
ATOM      5  C5  DEN d   1       1.936   2.261  -1.264  0.00  0.00    -0.003 A 
ATOM      6  C6  DEN d   1       1.021   2.767  -0.379  0.00  0.00     0.001 A 
ATOM      7  C7  DEN d   1       0.287   1.914   0.402  0.00  0.00     0.017 A 
ATOM      8  C8  DEN d   1       0.462   0.547   0.230  0.00  0.00    -0.094 A 
ATOM      9  C9  DEN d   1       1.401   0.055  -0.661  0.00  0.00    -0.072 A 
ENDROOT
TORSDOF 0
ENDMDL
