MODEL 1
REMARK minimizedAffinity 0.105185293
REMARK minimizedRMSD -1
REMARK  0 active torsions:
REMARK  status: ('A' for Active; 'I' for Inactive)
ROOT
ATOM      1  C1  DEN d   1      -3.065   5.252  -5.726  0.00  0.00     0.130 A 
ATOM      2  C2  DEN d   1      -4.500   5.296  -5.997  0.00  0.00    -0.031 A 
ATOM      3  C3  DEN d   1      -5.011   3.911  -5.982  0.00  0.00     0.027 A 
ATOM      4  C4  DEN d   1      -3.728   1.713  -5.564  0.00  0.00     0.027 A 
ATOM      5  C5  DEN d   1      -2.491   1.168  -5.301  0.00  0.00    -0.003 A 
ATOM      6  C6  DEN d   1      -1.362   1.936  -5.195  0.00  0.00     0.001 A 
ATOM      7  C7  DEN d   1      -1.455   3.298  -5.309  0.00  0.00     0.017 A 
ATOM      8  C8  DEN d   1      -2.697   3.854  -5.582  0.00  0.00    -0.094 A 
ATOM      9  C9  DEN d   1      -3.829   3.062  -5.672  0.00  0.00    -0.072 A 
ENDROOT
TORSDOF 0
ENDMDL
