MODEL 1
REMARK minimizedAffinity 5.89333391
REMARK minimizedRMSD -1
REMARK  0 active torsions:
REMARK  status: ('A' for Active; 'I' for Inactive)
ROOT
ATOM      1  C1  DEN d   1       1.267   3.144   0.146  0.00  0.00     0.130 A 
ATOM      2  C2  DEN d   1       1.157   4.354  -0.664  0.00  0.00    -0.031 A 
ATOM      3  C3  DEN d   1       1.299   3.968  -2.083  0.00  0.00     0.027 A 
ATOM      4  C4  DEN d   1       1.671   1.626  -3.098  0.00  0.00     0.027 A 
ATOM      5  C5  DEN d   1       1.841   0.291  -2.807  0.00  0.00    -0.003 A 
ATOM      6  C6  DEN d   1       1.866  -0.179  -1.520  0.00  0.00     0.001 A 
ATOM      7  C7  DEN d   1       1.672   0.689  -0.477  0.00  0.00     0.017 A 
ATOM      8  C8  DEN d   1       1.507   2.038  -0.763  0.00  0.00    -0.094 A 
ATOM      9  C9  DEN d   1       1.473   2.491  -2.070  0.00  0.00    -0.072 A 
ENDROOT
TORSDOF 0
ENDMDL
