MODEL 1
REMARK minimizedAffinity 2.8769486
REMARK minimizedRMSD -1
REMARK  0 active torsions:
REMARK  status: ('A' for Active; 'I' for Inactive)
ROOT
ATOM      1  C1  DEN d   1       1.133   3.159  -1.665  0.00  0.00     0.130 A 
ATOM      2  C2  DEN d   1       1.548   3.287  -0.271  0.00  0.00    -0.031 A 
ATOM      3  C3  DEN d   1       1.998   1.960   0.196  0.00  0.00     0.027 A 
ATOM      4  C4  DEN d   1       2.095  -0.268  -1.101  0.00  0.00     0.027 A 
ATOM      5  C5  DEN d   1       1.836  -0.875  -2.309  0.00  0.00    -0.003 A 
ATOM      6  C6  DEN d   1       1.297  -0.194  -3.368  0.00  0.00     0.001 A 
ATOM      7  C7  DEN d   1       1.042   1.147  -3.254  0.00  0.00     0.017 A 
ATOM      8  C8  DEN d   1       1.294   1.765  -2.036  0.00  0.00    -0.094 A 
ATOM      9  C9  DEN d   1       1.850   1.062  -0.981  0.00  0.00    -0.072 A 
ENDROOT
TORSDOF 0
ENDMDL
