MODEL 1
REMARK minimizedAffinity 3.33521867
REMARK minimizedRMSD -1
REMARK  0 active torsions:
REMARK  status: ('A' for Active; 'I' for Inactive)
ROOT
ATOM      1  C1  DEN d   1       0.912   3.287  -0.009  0.00  0.00     0.130 A 
ATOM      2  C2  DEN d   1       1.337   4.403  -0.850  0.00  0.00    -0.031 A 
ATOM      3  C3  DEN d   1       1.999   3.847  -2.047  0.00  0.00     0.027 A 
ATOM      4  C4  DEN d   1       2.400   1.379  -2.680  0.00  0.00     0.027 A 
ATOM      5  C5  DEN d   1       2.227   0.074  -2.274  0.00  0.00    -0.003 A 
ATOM      6  C6  DEN d   1       1.640  -0.248  -1.079  0.00  0.00     0.001 A 
ATOM      7  C7  DEN d   1       1.162   0.747  -0.268  0.00  0.00     0.017 A 
ATOM      8  C8  DEN d   1       1.339   2.065  -0.667  0.00  0.00    -0.094 A 
ATOM      9  C9  DEN d   1       1.925   2.370  -1.884  0.00  0.00    -0.072 A 
ENDROOT
TORSDOF 0
ENDMDL
