MODEL 1
REMARK minimizedAffinity 8.14830589
REMARK minimizedRMSD -1
REMARK  0 active torsions:
REMARK  status: ('A' for Active; 'I' for Inactive)
ROOT
ATOM      1  C1  DEN d   1       1.953   3.501  -0.171  0.00  0.00     0.130 A 
ATOM      2  C2  DEN d   1       1.219   4.543  -0.884  0.00  0.00    -0.031 A 
ATOM      3  C3  DEN d   1       0.656   3.946  -2.112  0.00  0.00     0.027 A 
ATOM      4  C4  DEN d   1       0.844   1.521  -2.970  0.00  0.00     0.027 A 
ATOM      5  C5  DEN d   1       1.377   0.277  -2.713  0.00  0.00    -0.003 A 
ATOM      6  C6  DEN d   1       2.161   0.031  -1.617  0.00  0.00     0.001 A 
ATOM      7  C7  DEN d   1       2.397   1.033  -0.713  0.00  0.00     0.017 A 
ATOM      8  C8  DEN d   1       1.869   2.291  -0.969  0.00  0.00    -0.094 A 
ATOM      9  C9  DEN d   1       1.069   2.517  -2.077  0.00  0.00    -0.072 A 
ENDROOT
TORSDOF 0
ENDMDL
