MODEL 1
REMARK minimizedAffinity 12.0183878
REMARK minimizedRMSD -1
REMARK  0 active torsions:
REMARK  status: ('A' for Active; 'I' for Inactive)
ROOT
ATOM      1  C1  DEN d   1       0.179  -3.171   0.316  0.00  0.00     0.130 A 
ATOM      2  C2  DEN d   1       0.893  -3.230  -0.957  0.00  0.00    -0.031 A 
ATOM      3  C3  DEN d   1       0.007  -2.681  -2.003  0.00  0.00     0.027 A 
ATOM      4  C4  DEN d   1      -2.387  -1.748  -1.776  0.00  0.00     0.027 A 
ATOM      5  C5  DEN d   1      -3.417  -1.503  -0.896  0.00  0.00    -0.003 A 
ATOM      6  C6  DEN d   1      -3.335  -1.825   0.433  0.00  0.00     0.001 A 
ATOM      7  C7  DEN d   1      -2.180  -2.370   0.929  0.00  0.00     0.017 A 
ATOM      8  C8  DEN d   1      -1.139  -2.627   0.046  0.00  0.00    -0.094 A 
ATOM      9  C9  DEN d   1      -1.238  -2.283  -1.292  0.00  0.00    -0.072 A 
ENDROOT
TORSDOF 0
ENDMDL
