MODEL 1
REMARK minimizedAffinity 3.43493438
REMARK minimizedRMSD -1
REMARK  0 active torsions:
REMARK  status: ('A' for Active; 'I' for Inactive)
ROOT
ATOM      1  C1  DEN d   1       2.392   1.615  -1.011  0.00  0.00     0.130 A 
ATOM      2  C2  DEN d   1       2.543   2.684  -0.027  0.00  0.00    -0.031 A 
ATOM      3  C3  DEN d   1       1.677   2.368   1.126  0.00  0.00     0.027 A 
ATOM      4  C4  DEN d   1       0.129   0.336   1.485  0.00  0.00     0.027 A 
ATOM      5  C5  DEN d   1      -0.341  -0.830   0.922  0.00  0.00    -0.003 A 
ATOM      6  C6  DEN d   1       0.038  -1.242  -0.328  0.00  0.00     0.001 A 
ATOM      7  C7  DEN d   1       0.948  -0.505  -1.039  0.00  0.00     0.017 A 
ATOM      8  C8  DEN d   1       1.420   0.676  -0.481  0.00  0.00    -0.094 A 
ATOM      9  C9  DEN d   1       1.035   1.069   0.789  0.00  0.00    -0.072 A 
ENDROOT
TORSDOF 0
ENDMDL
