MODEL 1
REMARK minimizedAffinity -0.217949674
REMARK minimizedRMSD -1
REMARK  0 active torsions:
REMARK  status: ('A' for Active; 'I' for Inactive)
ROOT
ATOM      1  C1  DEN d   1      -3.612   1.771  -5.921  0.00  0.00     0.130 A 
ATOM      2  C2  DEN d   1      -4.833   0.969  -5.922  0.00  0.00    -0.031 A 
ATOM      3  C3  DEN d   1      -5.985   1.892  -5.948  0.00  0.00     0.027 A 
ATOM      4  C4  DEN d   1      -5.999   4.471  -5.990  0.00  0.00     0.027 A 
ATOM      5  C5  DEN d   1      -5.207   5.597  -5.987  0.00  0.00    -0.003 A 
ATOM      6  C6  DEN d   1      -3.840   5.529  -5.928  0.00  0.00     0.001 A 
ATOM      7  C7  DEN d   1      -3.221   4.307  -5.915  0.00  0.00     0.017 A 
ATOM      8  C8  DEN d   1      -4.014   3.166  -5.910  0.00  0.00    -0.094 A 
ATOM      9  C9  DEN d   1      -5.393   3.256  -5.983  0.00  0.00    -0.072 A 
ENDROOT
TORSDOF 0
ENDMDL
