MODEL 1
REMARK minimizedAffinity 6.79456711
REMARK minimizedRMSD -1
REMARK  0 active torsions:
REMARK  status: ('A' for Active; 'I' for Inactive)
ROOT
ATOM      1  C1  DEN d   1       4.236  -1.650  -5.627  0.00  0.00     0.130 A 
ATOM      2  C2  DEN d   1       4.769  -2.958  -5.999  0.00  0.00    -0.031 A 
ATOM      3  C3  DEN d   1       5.005  -3.724  -4.758  0.00  0.00     0.027 A 
ATOM      4  C4  DEN d   1       4.594  -3.017  -2.312  0.00  0.00     0.027 A 
ATOM      5  C5  DEN d   1       4.162  -1.994  -1.497  0.00  0.00    -0.003 A 
ATOM      6  C6  DEN d   1       3.759  -0.784  -1.995  0.00  0.00     0.001 A 
ATOM      7  C7  DEN d   1       3.738  -0.580  -3.349  0.00  0.00     0.017 A 
ATOM      8  C8  DEN d   1       4.180  -1.604  -4.177  0.00  0.00    -0.094 A 
ATOM      9  C9  DEN d   1       4.571  -2.825  -3.655  0.00  0.00    -0.072 A 
ENDROOT
TORSDOF 0
ENDMDL
