MODEL 1
REMARK minimizedAffinity 0.659451008
REMARK minimizedRMSD -1
REMARK  0 active torsions:
REMARK  status: ('A' for Active; 'I' for Inactive)
ROOT
ATOM      1  C1  DEN d   1      -5.014   1.223  -5.837  0.00  0.00     0.130 A 
ATOM      2  C2  DEN d   1      -4.494  -0.133  -5.995  0.00  0.00    -0.031 A 
ATOM      3  C3  DEN d   1      -3.019  -0.058  -5.995  0.00  0.00     0.027 A 
ATOM      4  C4  DEN d   1      -1.498   2.012  -5.763  0.00  0.00     0.027 A 
ATOM      5  C5  DEN d   1      -1.481   3.381  -5.618  0.00  0.00    -0.003 A 
ATOM      6  C6  DEN d   1      -2.630   4.125  -5.571  0.00  0.00     0.001 A 
ATOM      7  C7  DEN d   1      -3.847   3.498  -5.624  0.00  0.00     0.017 A 
ATOM      8  C8  DEN d   1      -3.872   2.118  -5.777  0.00  0.00    -0.094 A 
ATOM      9  C9  DEN d   1      -2.700   1.383  -5.811  0.00  0.00    -0.072 A 
ENDROOT
TORSDOF 0
ENDMDL
