MODEL 1
REMARK minimizedAffinity -4.48860931
REMARK minimizedRMSD -1
REMARK  0 active torsions:
REMARK  status: ('A' for Active; 'I' for Inactive)
ROOT
ATOM      1  C1  DEN d   1      -1.934   1.596   2.623  0.00  0.00     0.130 A 
ATOM      2  C2  DEN d   1      -3.360   1.907   2.573  0.00  0.00    -0.031 A 
ATOM      3  C3  DEN d   1      -4.032   0.844   1.801  0.00  0.00     0.027 A 
ATOM      4  C4  DEN d   1      -3.011  -1.246   0.687  0.00  0.00     0.027 A 
ATOM      5  C5  DEN d   1      -1.841  -1.932   0.448  0.00  0.00    -0.003 A 
ATOM      6  C6  DEN d   1      -0.625  -1.477   0.885  0.00  0.00     0.001 A 
ATOM      7  C7  DEN d   1      -0.557  -0.325   1.623  0.00  0.00     0.017 A 
ATOM      8  C8  DEN d   1      -1.732   0.376   1.861  0.00  0.00    -0.094 A 
ATOM      9  C9  DEN d   1      -2.953  -0.107   1.422  0.00  0.00    -0.072 A 
ENDROOT
TORSDOF 0
ENDMDL
