MODEL 1
REMARK minimizedAffinity 1.35614944
REMARK minimizedRMSD -1
REMARK  0 active torsions:
REMARK  status: ('A' for Active; 'I' for Inactive)
ROOT
ATOM      1  C   UNL d   1      -2.085  -1.213   3.224  0.00  0.00    -0.002 A 
ATOM      2  C1  UNL d   1      -2.515  -0.191   2.390  0.00  0.00     0.010 A 
ATOM      3  C2  UNL d   1      -1.593   0.645   1.758  0.00  0.00     0.041 A 
ATOM      4  C3  UNL d   1      -0.218   0.434   1.980  0.00  0.00    -0.075 A 
ATOM      5  S   UNL d   1       1.093   1.332   1.311  0.00  0.00     0.015 SA
ATOM      6  C4  UNL d   1       2.255   0.380   2.117  0.00  0.00     0.022 A 
ATOM      7  C5  UNL d   1       1.674  -0.604   2.881  0.00  0.00     0.026 A 
ATOM      8  C6  UNL d   1       0.240  -0.590   2.814  0.00  0.00    -0.082 A 
ATOM      9  C7  UNL d   1      -0.720  -1.420   3.441  0.00  0.00     0.045 A 
ENDROOT
TORSDOF 0
ENDMDL
