MODEL 1
REMARK minimizedAffinity -4.05285072
REMARK minimizedRMSD -1
REMARK  0 active torsions:
REMARK  status: ('A' for Active; 'I' for Inactive)
ROOT
ATOM      1  C   UNL d   1      -2.921  -1.008   4.536  0.00  0.00    -0.002 A 
ATOM      2  C1  UNL d   1      -1.712  -1.120   5.208  0.00  0.00     0.010 A 
ATOM      3  C2  UNL d   1      -0.511  -0.816   4.565  0.00  0.00     0.041 A 
ATOM      4  C3  UNL d   1      -0.544  -0.391   3.223  0.00  0.00    -0.075 A 
ATOM      5  S   UNL d   1       0.801   0.037   2.233  0.00  0.00     0.015 SA
ATOM      6  C4  UNL d   1      -0.197   0.379   0.895  0.00  0.00     0.022 A 
ATOM      7  C5  UNL d   1      -1.527   0.178   1.178  0.00  0.00     0.026 A 
ATOM      8  C6  UNL d   1      -1.749  -0.269   2.525  0.00  0.00    -0.082 A 
ATOM      9  C7  UNL d   1      -2.950  -0.586   3.204  0.00  0.00     0.045 A 
ENDROOT
TORSDOF 0
ENDMDL
