MODEL 1
REMARK minimizedAffinity 6.30231476
REMARK minimizedRMSD -1
REMARK  0 active torsions:
REMARK  status: ('A' for Active; 'I' for Inactive)
ROOT
ATOM      1  C   UNL d   1      -1.751  -0.069   3.578  0.00  0.00    -0.002 A 
ATOM      2  C1  UNL d   1      -0.407  -0.154   3.243  0.00  0.00     0.010 A 
ATOM      3  C2  UNL d   1       0.002  -0.038   1.913  0.00  0.00     0.041 A 
ATOM      4  C3  UNL d   1      -0.971   0.168   0.916  0.00  0.00    -0.075 A 
ATOM      5  S   UNL d   1      -0.704   0.339  -0.779  0.00  0.00     0.015 SA
ATOM      6  C4  UNL d   1      -2.367   0.530  -1.098  0.00  0.00     0.022 A 
ATOM      7  C5  UNL d   1      -3.123   0.466   0.049  0.00  0.00     0.026 A 
ATOM      8  C6  UNL d   1      -2.331   0.257   1.228  0.00  0.00    -0.082 A 
ATOM      9  C7  UNL d   1      -2.714   0.135   2.586  0.00  0.00     0.045 A 
ENDROOT
TORSDOF 0
ENDMDL
