MODEL 1
REMARK minimizedAffinity 8.66034222
REMARK minimizedRMSD -1
REMARK  0 active torsions:
REMARK  status: ('A' for Active; 'I' for Inactive)
ROOT
ATOM      1  C   UNL d   1       3.949   0.470   1.632  0.00  0.00    -0.002 A 
ATOM      2  C1  UNL d   1       3.425   1.591   1.004  0.00  0.00     0.010 A 
ATOM      3  C2  UNL d   1       2.096   1.966   1.213  0.00  0.00     0.041 A 
ATOM      4  C3  UNL d   1       1.296   1.189   2.073  0.00  0.00    -0.075 A 
ATOM      5  S   UNL d   1      -0.358   1.457   2.480  0.00  0.00     0.015 SA
ATOM      6  C4  UNL d   1      -0.407   0.091   3.497  0.00  0.00     0.022 A 
ATOM      7  C5  UNL d   1       0.800  -0.566   3.537  0.00  0.00     0.026 A 
ATOM      8  C6  UNL d   1       1.802   0.056   2.717  0.00  0.00    -0.082 A 
ATOM      9  C7  UNL d   1       3.152  -0.299   2.484  0.00  0.00     0.045 A 
ENDROOT
TORSDOF 0
ENDMDL
