MODEL 1
REMARK minimizedAffinity 8.00744438
REMARK minimizedRMSD -1
REMARK  0 active torsions:
REMARK  status: ('A' for Active; 'I' for Inactive)
ROOT
ATOM      1  C   UNL d   1       5.995  -3.351   3.748  0.00  0.00    -0.002 A 
ATOM      2  C1  UNL d   1       5.996  -2.824   5.032  0.00  0.00     0.010 A 
ATOM      3  C2  UNL d   1       5.999  -1.442   5.232  0.00  0.00     0.041 A 
ATOM      4  C3  UNL d   1       5.998  -0.591   4.110  0.00  0.00    -0.075 A 
ATOM      5  S   UNL d   1       6.000   1.133   4.113  0.00  0.00     0.015 SA
ATOM      6  C4  UNL d   1       5.998   1.211   2.411  0.00  0.00     0.022 A 
ATOM      7  C5  UNL d   1       5.997  -0.039   1.838  0.00  0.00     0.026 A 
ATOM      8  C6  UNL d   1       5.996  -1.098   2.807  0.00  0.00    -0.082 A 
ATOM      9  C7  UNL d   1       5.994  -2.503   2.637  0.00  0.00     0.045 A 
ENDROOT
TORSDOF 0
ENDMDL
