MODEL 1
REMARK minimizedAffinity 11.9797554
REMARK minimizedRMSD -1
REMARK  0 active torsions:
REMARK  status: ('A' for Active; 'I' for Inactive)
ROOT
ATOM      1  C   UNL d   1       5.221   2.630  -3.988  0.00  0.00    -0.002 A 
ATOM      2  C1  UNL d   1       4.449   1.714  -3.287  0.00  0.00     0.010 A 
ATOM      3  C2  UNL d   1       3.124   2.006  -2.959  0.00  0.00     0.041 A 
ATOM      4  C3  UNL d   1       2.582   3.246  -3.351  0.00  0.00    -0.075 A 
ATOM      5  S   UNL d   1       0.982   3.820  -3.060  0.00  0.00     0.015 SA
ATOM      6  C4  UNL d   1       1.286   5.295  -3.859  0.00  0.00     0.022 A 
ATOM      7  C5  UNL d   1       2.571   5.364  -4.342  0.00  0.00     0.026 A 
ATOM      8  C6  UNL d   1       3.339   4.184  -4.058  0.00  0.00    -0.082 A 
ATOM      9  C7  UNL d   1       4.680   3.859  -4.375  0.00  0.00     0.045 A 
ENDROOT
TORSDOF 0
ENDMDL
