MODEL 1
REMARK minimizedAffinity 5.25973272
REMARK minimizedRMSD -1
REMARK  0 active torsions:
REMARK  status: ('A' for Active; 'I' for Inactive)
ROOT
ATOM      1  C   UNL d   1      -2.254   0.870   1.788  0.00  0.00    -0.002 A 
ATOM      2  C1  UNL d   1      -3.478   1.260   1.264  0.00  0.00     0.010 A 
ATOM      3  C2  UNL d   1      -3.894   0.803   0.012  0.00  0.00     0.041 A 
ATOM      4  C3  UNL d   1      -3.051  -0.064  -0.711  0.00  0.00    -0.075 A 
ATOM      5  S   UNL d   1      -3.353  -0.751  -2.263  0.00  0.00     0.015 SA
ATOM      6  C4  UNL d   1      -1.864  -1.580  -2.268  0.00  0.00     0.022 A 
ATOM      7  C5  UNL d   1      -1.142  -1.349  -1.121  0.00  0.00     0.026 A 
ATOM      8  C6  UNL d   1      -1.814  -0.472  -0.205  0.00  0.00    -0.082 A 
ATOM      9  C7  UNL d   1      -1.421   0.010   1.067  0.00  0.00     0.045 A 
ENDROOT
TORSDOF 0
ENDMDL
