MODEL 1
REMARK minimizedAffinity 7.7569809
REMARK minimizedRMSD -1
REMARK  0 active torsions:
REMARK  status: ('A' for Active; 'I' for Inactive)
ROOT
ATOM      1  C   UNL d   1      -2.613   0.640   3.025  0.00  0.00    -0.002 A 
ATOM      2  C1  UNL d   1      -1.290   0.223   3.065  0.00  0.00     0.010 A 
ATOM      3  C2  UNL d   1      -0.676  -0.301   1.925  0.00  0.00     0.041 A 
ATOM      4  C3  UNL d   1      -1.421  -0.398   0.733  0.00  0.00    -0.075 A 
ATOM      5  S   UNL d   1      -0.877  -1.005  -0.786  0.00  0.00     0.015 SA
ATOM      6  C4  UNL d   1      -2.387  -0.725  -1.523  0.00  0.00     0.022 A 
ATOM      7  C5  UNL d   1      -3.296  -0.182  -0.647  0.00  0.00     0.026 A 
ATOM      8  C6  UNL d   1      -2.754   0.017   0.668  0.00  0.00    -0.082 A 
ATOM      9  C7  UNL d   1      -3.348   0.543   1.841  0.00  0.00     0.045 A 
ENDROOT
TORSDOF 0
ENDMDL
