MODEL 1
REMARK minimizedAffinity 22.3800659
REMARK minimizedRMSD -1
REMARK  0 active torsions:
REMARK  status: ('A' for Active; 'I' for Inactive)
ROOT
ATOM      1  C   UNL d   1       0.372   1.115  -0.531  0.00  0.00    -0.002 A 
ATOM      2  C1  UNL d   1       1.134   2.162  -0.033  0.00  0.00     0.010 A 
ATOM      3  C2  UNL d   1       1.000   2.568   1.296  0.00  0.00     0.041 A 
ATOM      4  C3  UNL d   1       0.079   1.897   2.124  0.00  0.00    -0.075 A 
ATOM      5  S   UNL d   1      -0.254   2.220   3.785  0.00  0.00     0.015 SA
ATOM      6  C4  UNL d   1      -1.415   0.976   3.872  0.00  0.00     0.022 A 
ATOM      7  C5  UNL d   1      -1.559   0.320   2.672  0.00  0.00     0.026 A 
ATOM      8  C6  UNL d   1      -0.699   0.839   1.646  0.00  0.00    -0.082 A 
ATOM      9  C7  UNL d   1      -0.541   0.451   0.293  0.00  0.00     0.045 A 
ENDROOT
TORSDOF 0
ENDMDL
