MODEL 1
REMARK minimizedAffinity 12.0771599
REMARK minimizedRMSD -1
REMARK  0 active torsions:
REMARK  status: ('A' for Active; 'I' for Inactive)
ROOT
ATOM      1  C   UNL d   1      -0.700  -3.148  -0.474  0.00  0.00    -0.002 A 
ATOM      2  C1  UNL d   1      -0.376  -2.361  -1.571  0.00  0.00     0.010 A 
ATOM      3  C2  UNL d   1      -1.099  -1.200  -1.851  0.00  0.00     0.041 A 
ATOM      4  C3  UNL d   1      -2.163  -0.839  -1.001  0.00  0.00    -0.075 A 
ATOM      5  S   UNL d   1      -3.188   0.540  -1.147  0.00  0.00     0.015 SA
ATOM      6  C4  UNL d   1      -4.079   0.118   0.243  0.00  0.00     0.022 A 
ATOM      7  C5  UNL d   1      -3.620  -1.043   0.817  0.00  0.00     0.026 A 
ATOM      8  C6  UNL d   1      -2.508  -1.614   0.110  0.00  0.00    -0.082 A 
ATOM      9  C7  UNL d   1      -1.756  -2.785   0.366  0.00  0.00     0.045 A 
ENDROOT
TORSDOF 0
ENDMDL
