MODEL 1
REMARK minimizedAffinity 13.8411512
REMARK minimizedRMSD -1
REMARK  0 active torsions:
REMARK  status: ('A' for Active; 'I' for Inactive)
ROOT
ATOM      1  C   UNL d   1      -0.663  -3.520  -1.184  0.00  0.00    -0.002 A 
ATOM      2  C1  UNL d   1      -0.456  -2.687  -2.275  0.00  0.00     0.010 A 
ATOM      3  C2  UNL d   1      -1.162  -1.488  -2.397  0.00  0.00     0.041 A 
ATOM      4  C3  UNL d   1      -2.086  -1.137  -1.394  0.00  0.00    -0.075 A 
ATOM      5  S   UNL d   1      -3.063   0.283  -1.332  0.00  0.00     0.015 SA
ATOM      6  C4  UNL d   1      -3.777  -0.182   0.144  0.00  0.00     0.022 A 
ATOM      7  C5  UNL d   1      -3.294  -1.389   0.593  0.00  0.00     0.026 A 
ATOM      8  C6  UNL d   1      -2.311  -1.958  -0.286  0.00  0.00    -0.082 A 
ATOM      9  C7  UNL d   1      -1.581  -3.167  -0.191  0.00  0.00     0.045 A 
ENDROOT
TORSDOF 0
ENDMDL
