MODEL 1
REMARK minimizedAffinity -6.03687811
REMARK minimizedRMSD -1
REMARK  1 active torsions:
REMARK  status: ('A' for Active; 'I' for Inactive)
REMARK    1  A    between atoms: C1_2  and  C2_3 
ROOT
ATOM      1  C2  UNL d   1      -1.783  -0.205  -0.568  0.00  0.00    -0.073 A 
ATOM      2  C3  UNL d   1      -1.709   0.778  -1.561  0.00  0.00    -0.002 A 
ATOM      3  C4  UNL d   1      -0.493   1.398  -1.850  0.00  0.00     0.004 A 
ATOM      4  C5  UNL d   1       0.662   1.036  -1.157  0.00  0.00    -0.004 A 
ATOM      5  C6  UNL d   1       0.611   0.046  -0.170  0.00  0.00    -0.075 A 
ATOM      6  C7  UNL d   1       1.843  -0.353   0.587  0.00  0.00     0.076 C 
ATOM      7  C8  UNL d   1      -0.615  -0.569   0.117  0.00  0.00     0.001 A 
ENDROOT
BRANCH   1   8
ATOM      8  C1  UNL d   1      -3.093  -0.881  -0.257  0.00  0.00     0.053 C 
ATOM      9  C   UNL d   1      -2.900  -2.326   0.178  0.00  0.00     0.018 C 
ENDBRANCH   1   8
TORSDOF 1
ENDMDL
