MODEL 1
REMARK minimizedAffinity 0.971201062
REMARK minimizedRMSD -1
REMARK  1 active torsions:
REMARK  status: ('A' for Active; 'I' for Inactive)
REMARK    1  A    between atoms: C1_2  and  C2_3 
ROOT
ATOM      1  C2  UNL d   1       0.611   0.070   0.089  0.00  0.00    -0.073 A 
ATOM      2  C3  UNL d   1       0.748  -1.314   0.251  0.00  0.00    -0.002 A 
ATOM      3  C4  UNL d   1       0.695  -1.883   1.523  0.00  0.00     0.004 A 
ATOM      4  C5  UNL d   1       0.497  -1.078   2.645  0.00  0.00    -0.004 A 
ATOM      5  C6  UNL d   1       0.345   0.305   2.503  0.00  0.00    -0.075 A 
ATOM      6  C7  UNL d   1       0.134   1.185   3.700  0.00  0.00     0.076 C 
ATOM      7  C8  UNL d   1       0.403   0.870   1.222  0.00  0.00     0.001 A 
ENDROOT
BRANCH   1   8
ATOM      8  C1  UNL d   1       0.661   0.689  -1.284  0.00  0.00     0.053 C 
ATOM      9  C   UNL d   1      -0.205  -0.065  -2.281  0.00  0.00     0.018 C 
ENDBRANCH   1   8
TORSDOF 1
ENDMDL
