MODEL 1
REMARK minimizedAffinity -3.9955194
REMARK minimizedRMSD -1
REMARK  1 active torsions:
REMARK  status: ('A' for Active; 'I' for Inactive)
REMARK    1  A    between atoms: C1_2  and  C2_3 
ROOT
ATOM      1  C2  UNL d   1       0.433  -0.347  -0.083  0.00  0.00    -0.073 A 
ATOM      2  C3  UNL d   1      -0.310   0.273  -1.094  0.00  0.00    -0.002 A 
ATOM      3  C4  UNL d   1      -1.515  -0.282  -1.526  0.00  0.00     0.004 A 
ATOM      4  C5  UNL d   1      -1.993  -1.458  -0.948  0.00  0.00    -0.004 A 
ATOM      5  C6  UNL d   1      -1.271  -2.086   0.072  0.00  0.00    -0.075 A 
ATOM      6  C7  UNL d   1      -1.771  -3.353   0.703  0.00  0.00     0.076 C 
ATOM      7  C8  UNL d   1      -0.061  -1.524   0.499  0.00  0.00     0.001 A 
ENDROOT
BRANCH   1   8
ATOM      8  C1  UNL d   1       1.731   0.252   0.391  0.00  0.00     0.053 C 
ATOM      9  C   UNL d   1       1.575   1.713   0.784  0.00  0.00     0.018 C 
ENDBRANCH   1   8
TORSDOF 1
ENDMDL
