MODEL 1
REMARK minimizedAffinity -4.95374966
REMARK minimizedRMSD -1
REMARK  1 active torsions:
REMARK  status: ('A' for Active; 'I' for Inactive)
REMARK    1  A    between atoms: C1_2  and  C2_3 
ROOT
ATOM      1  C2  UNL d   1      -1.720  -0.121  -0.350  0.00  0.00    -0.073 A 
ATOM      2  C3  UNL d   1      -2.995  -0.402  -0.856  0.00  0.00    -0.002 A 
ATOM      3  C4  UNL d   1      -3.649  -1.583  -0.502  0.00  0.00     0.004 A 
ATOM      4  C5  UNL d   1      -3.039  -2.491   0.364  0.00  0.00    -0.004 A 
ATOM      5  C6  UNL d   1      -1.771  -2.222   0.889  0.00  0.00    -0.075 A 
ATOM      6  C7  UNL d   1      -1.101  -3.189   1.820  0.00  0.00     0.076 C 
ATOM      7  C8  UNL d   1      -1.120  -1.035   0.527  0.00  0.00     0.001 A 
ENDROOT
BRANCH   1   8
ATOM      8  C1  UNL d   1      -1.013   1.156  -0.724  0.00  0.00     0.053 C 
ATOM      9  C   UNL d   1       0.201   1.413   0.155  0.00  0.00     0.018 C 
ENDBRANCH   1   8
TORSDOF 1
ENDMDL
