MODEL 1
REMARK minimizedAffinity -6.04284954
REMARK minimizedRMSD -1
REMARK  1 active torsions:
REMARK  status: ('A' for Active; 'I' for Inactive)
REMARK    1  A    between atoms: C1_2  and  C2_3 
ROOT
ATOM      1  C2  UNL d   1      -0.350  -0.286  -0.136  0.00  0.00    -0.073 A 
ATOM      2  C3  UNL d   1      -1.189   0.369  -1.044  0.00  0.00    -0.002 A 
ATOM      3  C4  UNL d   1      -2.511  -0.048  -1.210  0.00  0.00     0.004 A 
ATOM      4  C5  UNL d   1      -3.008  -1.118  -0.466  0.00  0.00    -0.004 A 
ATOM      5  C6  UNL d   1      -2.188  -1.778   0.456  0.00  0.00    -0.075 A 
ATOM      6  C7  UNL d   1      -2.706  -2.932   1.263  0.00  0.00     0.076 C 
ATOM      7  C8  UNL d   1      -0.861  -1.354   0.615  0.00  0.00     0.001 A 
ENDROOT
BRANCH   1   8
ATOM      8  C1  UNL d   1       1.076   0.165   0.051  0.00  0.00     0.053 C 
ATOM      9  C   UNL d   1       1.158   1.554   0.665  0.00  0.00     0.018 C 
ENDBRANCH   1   8
TORSDOF 1
ENDMDL
