MODEL 1
REMARK minimizedAffinity -2.85445499
REMARK minimizedRMSD -1
REMARK  1 active torsions:
REMARK  status: ('A' for Active; 'I' for Inactive)
REMARK    1  A    between atoms: C1_2  and  C2_3 
ROOT
ATOM      1  C2  UNL d   1       1.471   1.210   0.933  0.00  0.00    -0.073 A 
ATOM      2  C3  UNL d   1       2.335   0.851  -0.108  0.00  0.00    -0.002 A 
ATOM      3  C4  UNL d   1       1.908  -0.025  -1.107  0.00  0.00     0.004 A 
ATOM      4  C5  UNL d   1       0.614  -0.545  -1.079  0.00  0.00    -0.004 A 
ATOM      5  C6  UNL d   1      -0.267  -0.189  -0.053  0.00  0.00    -0.075 A 
ATOM      6  C7  UNL d   1      -1.661  -0.742  -0.008  0.00  0.00     0.076 C 
ATOM      7  C8  UNL d   1       0.169   0.689   0.948  0.00  0.00     0.001 A 
ENDROOT
BRANCH   1   8
ATOM      8  C1  UNL d   1       1.925   2.161   2.011  0.00  0.00     0.053 C 
ATOM      9  C   UNL d   1       2.728   3.321   1.445  0.00  0.00     0.018 C 
ENDBRANCH   1   8
TORSDOF 1
ENDMDL
