MODEL 1
REMARK minimizedAffinity -4.75627327
REMARK minimizedRMSD -1
REMARK  1 active torsions:
REMARK  status: ('A' for Active; 'I' for Inactive)
REMARK    1  A    between atoms: C1_2  and  C2_3 
ROOT
ATOM      1  C2  UNL d   1       0.112   0.404  -0.152  0.00  0.00    -0.073 A 
ATOM      2  C3  UNL d   1       0.789  -0.814  -0.022  0.00  0.00    -0.002 A 
ATOM      3  C4  UNL d   1       2.046  -0.860   0.582  0.00  0.00     0.004 A 
ATOM      4  C5  UNL d   1       2.634   0.307   1.069  0.00  0.00    -0.004 A 
ATOM      5  C6  UNL d   1       1.968   1.532   0.959  0.00  0.00    -0.075 A 
ATOM      6  C7  UNL d   1       2.588   2.797   1.476  0.00  0.00     0.076 C 
ATOM      7  C8  UNL d   1       0.707   1.571   0.348  0.00  0.00     0.001 A 
ENDROOT
BRANCH   1   8
ATOM      8  C1  UNL d   1      -1.248   0.458  -0.799  0.00  0.00     0.053 C 
ATOM      9  C   UNL d   1      -1.902  -0.913  -0.867  0.00  0.00     0.018 C 
ENDBRANCH   1   8
TORSDOF 1
ENDMDL
