MODEL 1
REMARK minimizedAffinity -3.35484672
REMARK minimizedRMSD -1
REMARK  1 active torsions:
REMARK  status: ('A' for Active; 'I' for Inactive)
REMARK    1  A    between atoms: C1_2  and  C2_3 
ROOT
ATOM      1  C2  UNL d   1       0.736   0.431  -0.239  0.00  0.00    -0.073 A 
ATOM      2  C3  UNL d   1       0.545   1.686  -0.830  0.00  0.00    -0.002 A 
ATOM      3  C4  UNL d   1      -0.624   1.959  -1.541  0.00  0.00     0.004 A 
ATOM      4  C5  UNL d   1      -1.616   0.986  -1.662  0.00  0.00    -0.004 A 
ATOM      5  C6  UNL d   1      -1.449  -0.269  -1.069  0.00  0.00    -0.075 A 
ATOM      6  C7  UNL d   1      -2.506  -1.328  -1.192  0.00  0.00     0.076 C 
ATOM      7  C8  UNL d   1      -0.271  -0.537  -0.359  0.00  0.00     0.001 A 
ENDROOT
BRANCH   1   8
ATOM      8  C1  UNL d   1       1.993   0.133   0.535  0.00  0.00     0.053 C 
ATOM      9  C   UNL d   1       2.898   1.351   0.644  0.00  0.00     0.018 C 
ENDBRANCH   1   8
TORSDOF 1
ENDMDL
