MODEL 1
REMARK minimizedAffinity -2.45763493
REMARK minimizedRMSD -1
REMARK  1 active torsions:
REMARK  status: ('A' for Active; 'I' for Inactive)
REMARK    1  A    between atoms: C1_2  and  C2_3 
ROOT
ATOM      1  C2  UNL d   1      -0.563  -0.055  -0.268  0.00  0.00    -0.073 A 
ATOM      2  C3  UNL d   1      -1.238  -0.501   0.874  0.00  0.00    -0.002 A 
ATOM      3  C4  UNL d   1      -2.316  -1.379   0.757  0.00  0.00     0.004 A 
ATOM      4  C5  UNL d   1      -2.725  -1.826  -0.500  0.00  0.00    -0.004 A 
ATOM      5  C6  UNL d   1      -2.055  -1.401  -1.651  0.00  0.00    -0.075 A 
ATOM      6  C7  UNL d   1      -2.483  -1.870  -3.011  0.00  0.00     0.076 C 
ATOM      7  C8  UNL d   1      -0.975  -0.517  -1.526  0.00  0.00     0.001 A 
ENDROOT
BRANCH   1   8
ATOM      8  C1  UNL d   1       0.606   0.888  -0.146  0.00  0.00     0.053 C 
ATOM      9  C   UNL d   1       1.913   0.149   0.089  0.00  0.00     0.018 C 
ENDBRANCH   1   8
TORSDOF 1
ENDMDL
