MODEL 1
REMARK minimizedAffinity -3.04066658
REMARK minimizedRMSD -1
REMARK  1 active torsions:
REMARK  status: ('A' for Active; 'I' for Inactive)
REMARK    1  A    between atoms: C1_2  and  C2_3 
ROOT
ATOM      1  C2  UNL d   1       1.929   1.213   0.645  0.00  0.00    -0.073 A 
ATOM      2  C3  UNL d   1       1.886   1.788   1.920  0.00  0.00    -0.002 A 
ATOM      3  C4  UNL d   1       2.551   2.988   2.175  0.00  0.00     0.004 A 
ATOM      4  C5  UNL d   1       3.259   3.628   1.157  0.00  0.00    -0.004 A 
ATOM      5  C6  UNL d   1       3.304   3.075  -0.126  0.00  0.00    -0.075 A 
ATOM      6  C7  UNL d   1       4.064   3.749  -1.231  0.00  0.00     0.076 C 
ATOM      7  C8  UNL d   1       2.636   1.868  -0.374  0.00  0.00     0.001 A 
ENDROOT
BRANCH   1   8
ATOM      8  C1  UNL d   1       1.208  -0.080   0.363  0.00  0.00     0.053 C 
ATOM      9  C   UNL d   1      -0.252   0.149   0.003  0.00  0.00     0.018 C 
ENDBRANCH   1   8
TORSDOF 1
ENDMDL
