MODEL 1
REMARK minimizedAffinity -5.28460121
REMARK minimizedRMSD -1
REMARK  1 active torsions:
REMARK  status: ('A' for Active; 'I' for Inactive)
REMARK    1  A    between atoms: C1_2  and  C2_3 
ROOT
ATOM      1  C2  UNL d   1       0.533   0.283  -0.132  0.00  0.00    -0.073 A 
ATOM      2  C3  UNL d   1       0.602   1.067  -1.289  0.00  0.00    -0.002 A 
ATOM      3  C4  UNL d   1      -0.465   1.092  -2.188  0.00  0.00     0.004 A 
ATOM      4  C5  UNL d   1      -1.612   0.339  -1.937  0.00  0.00    -0.004 A 
ATOM      5  C6  UNL d   1      -1.705  -0.442  -0.780  0.00  0.00    -0.075 A 
ATOM      6  C7  UNL d   1      -2.931  -1.259  -0.497  0.00  0.00     0.076 C 
ATOM      7  C8  UNL d   1      -0.628  -0.463   0.117  0.00  0.00     0.001 A 
ENDROOT
BRANCH   1   8
ATOM      8  C1  UNL d   1       1.680   0.258   0.846  0.00  0.00     0.053 C 
ATOM      9  C   UNL d   1       2.718   1.323   0.533  0.00  0.00     0.018 C 
ENDBRANCH   1   8
TORSDOF 1
ENDMDL
