MODEL 1
REMARK minimizedAffinity -6.01702166
REMARK minimizedRMSD -1
REMARK  2 active torsions:
REMARK  status: ('A' for Active; 'I' for Inactive)
REMARK    1  A    between atoms: C2'_3  and  C1'_4 
REMARK    2  A    between atoms: C1'_4  and  C1_5 
ROOT
ATOM      1  C1  I4B d   1      -0.006  -0.516   0.205  0.00  0.00    -0.075 A 
ATOM      2  C2  I4B d   1       0.184  -1.631  -0.573  0.00  0.00     0.003 A 
ATOM      3  C3  I4B d   1       0.926  -1.542  -1.775  0.00  0.00     0.002 A 
ATOM      4  C4  I4B d   1       1.413  -0.318  -2.185  0.00  0.00    -0.004 A 
ATOM      5  C5  I4B d   1       1.238   0.807  -1.384  0.00  0.00     0.002 A 
ATOM      6  C6  I4B d   1       0.535   0.705  -0.175  0.00  0.00     0.003 A 
ENDROOT
BRANCH   1   7
ATOM      7  C1' I4B d   1      -0.823  -0.639   1.453  0.00  0.00     0.060 C 
BRANCH   7   8
ATOM      8  C2' I4B d   1      -2.012   0.291   1.326  0.00  0.00    -0.013 C 
ATOM      9  C4' I4B d   1      -3.283  -0.478   1.081  0.00  0.00     0.013 C 
ATOM     10  C3' I4B d   1      -2.103   1.100   2.586  0.00  0.00     0.013 C 
ENDBRANCH   7   8
ENDBRANCH   1   7
TORSDOF 2
ENDMDL
