MODEL 1
REMARK minimizedAffinity 6.85663176
REMARK minimizedRMSD -1
REMARK  2 active torsions:
REMARK  status: ('A' for Active; 'I' for Inactive)
REMARK    1  A    between atoms: C2'_3  and  C1'_4 
REMARK    2  A    between atoms: C1'_4  and  C1_5 
ROOT
ATOM      1  C1  I4B d   1       1.759   1.781  -1.058  0.00  0.00    -0.075 A 
ATOM      2  C2  I4B d   1       1.614   1.767   0.307  0.00  0.00     0.003 A 
ATOM      3  C3  I4B d   1       1.180   2.930   0.989  0.00  0.00     0.002 A 
ATOM      4  C4  I4B d   1       0.953   4.090   0.278  0.00  0.00    -0.004 A 
ATOM      5  C5  I4B d   1       1.078   4.096  -1.109  0.00  0.00     0.002 A 
ATOM      6  C6  I4B d   1       1.471   2.930  -1.783  0.00  0.00     0.003 A 
ENDROOT
BRANCH   1   7
ATOM      7  C1' I4B d   1       2.250   0.545  -1.743  0.00  0.00     0.060 C 
BRANCH   7   8
ATOM      8  C2' I4B d   1       1.068  -0.112  -2.426  0.00  0.00    -0.013 C 
ATOM      9  C4' I4B d   1       1.390  -0.465  -3.854  0.00  0.00     0.013 C 
ATOM     10  C3' I4B d   1       0.696  -1.332  -1.637  0.00  0.00     0.013 C 
ENDBRANCH   7   8
ENDBRANCH   1   7
TORSDOF 2
ENDMDL
