MODEL 1
REMARK minimizedAffinity -1.86244977
REMARK minimizedRMSD -1
REMARK  2 active torsions:
REMARK  status: ('A' for Active; 'I' for Inactive)
REMARK    1  A    between atoms: C2'_3  and  C1'_4 
REMARK    2  A    between atoms: C1'_4  and  C1_5 
ROOT
ATOM      1  C1  I4B d   1      -0.438   0.077   0.022  0.00  0.00    -0.075 A 
ATOM      2  C2  I4B d   1      -0.533  -0.903  -0.934  0.00  0.00     0.003 A 
ATOM      3  C3  I4B d   1       0.305  -0.869  -2.075  0.00  0.00     0.002 A 
ATOM      4  C4  I4B d   1       1.183   0.182  -2.243  0.00  0.00    -0.004 A 
ATOM      5  C5  I4B d   1       1.294   1.162  -1.261  0.00  0.00     0.002 A 
ATOM      6  C6  I4B d   1       0.488   1.103  -0.115  0.00  0.00     0.003 A 
ENDROOT
BRANCH   1   7
ATOM      7  C1' I4B d   1      -1.361   0.029   1.198  0.00  0.00     0.060 C 
BRANCH   7   8
ATOM      8  C2' I4B d   1      -2.726   0.503   0.740  0.00  0.00    -0.013 C 
ATOM      9  C4' I4B d   1      -3.660  -0.657   0.519  0.00  0.00     0.013 C 
ATOM     10  C3' I4B d   1      -3.263   1.442   1.779  0.00  0.00     0.013 C 
ENDBRANCH   7   8
ENDBRANCH   1   7
TORSDOF 2
ENDMDL
