MODEL 1
REMARK minimizedAffinity -5.80063677
REMARK minimizedRMSD -1
REMARK  2 active torsions:
REMARK  status: ('A' for Active; 'I' for Inactive)
REMARK    1  A    between atoms: C2'_3  and  C1'_4 
REMARK    2  A    between atoms: C1'_4  and  C1_5 
ROOT
ATOM      1  C1  I4B d   1      -0.247   0.121   0.154  0.00  0.00    -0.075 A 
ATOM      2  C2  I4B d   1      -0.197  -0.853  -0.812  0.00  0.00     0.003 A 
ATOM      3  C3  I4B d   1       0.593  -0.666  -1.973  0.00  0.00     0.002 A 
ATOM      4  C4  I4B d   1       1.271   0.523  -2.149  0.00  0.00    -0.004 A 
ATOM      5  C5  I4B d   1       1.237   1.499  -1.158  0.00  0.00     0.002 A 
ATOM      6  C6  I4B d   1       0.484   1.293   0.007  0.00  0.00     0.003 A 
ENDROOT
BRANCH   1   7
ATOM      7  C1' I4B d   1      -1.117  -0.096   1.351  0.00  0.00     0.060 C 
BRANCH   7   8
ATOM      8  C2' I4B d   1      -2.511   0.387   1.009  0.00  0.00    -0.013 C 
ATOM      9  C4' I4B d   1      -3.177  -0.529   0.016  0.00  0.00     0.013 C 
ATOM     10  C3' I4B d   1      -3.299   0.470   2.282  0.00  0.00     0.013 C 
ENDBRANCH   7   8
ENDBRANCH   1   7
TORSDOF 2
ENDMDL
