MODEL 1
REMARK minimizedAffinity -2.44004679
REMARK minimizedRMSD -1
REMARK  2 active torsions:
REMARK  status: ('A' for Active; 'I' for Inactive)
REMARK    1  A    between atoms: C2'_3  and  C1'_4 
REMARK    2  A    between atoms: C1'_4  and  C1_5 
ROOT
ATOM      1  C1  I4B d   1       0.257  -0.333  -1.166  0.00  0.00    -0.075 A 
ATOM      2  C2  I4B d   1       0.011   0.695  -0.291  0.00  0.00     0.003 A 
ATOM      3  C3  I4B d   1      -0.192   0.428   1.085  0.00  0.00     0.002 A 
ATOM      4  C4  I4B d   1      -0.190  -0.878   1.531  0.00  0.00    -0.004 A 
ATOM      5  C5  I4B d   1       0.083  -1.918   0.646  0.00  0.00     0.002 A 
ATOM      6  C6  I4B d   1       0.320  -1.643  -0.709  0.00  0.00     0.003 A 
ENDROOT
BRANCH   1   7
ATOM      7  C1' I4B d   1       0.434  -0.017  -2.617  0.00  0.00     0.060 C 
BRANCH   7   8
ATOM      8  C2' I4B d   1       1.919   0.116  -2.888  0.00  0.00    -0.013 C 
ATOM      9  C4' I4B d   1       2.692   0.306  -1.609  0.00  0.00     0.013 C 
ATOM     10  C3' I4B d   1       2.369  -1.116  -3.615  0.00  0.00     0.013 C 
ENDBRANCH   7   8
ENDBRANCH   1   7
TORSDOF 2
ENDMDL
