MODEL 1
REMARK minimizedAffinity -2.71883607
REMARK minimizedRMSD -1
REMARK  2 active torsions:
REMARK  status: ('A' for Active; 'I' for Inactive)
REMARK    1  A    between atoms: C2'_3  and  C1'_4 
REMARK    2  A    between atoms: C1'_4  and  C1_5 
ROOT
ATOM      1  C1  I4B d   1      -0.169  -0.186  -0.083  0.00  0.00    -0.075 A 
ATOM      2  C2  I4B d   1       0.348   1.076  -0.234  0.00  0.00     0.003 A 
ATOM      3  C3  I4B d   1       1.070   1.416  -1.404  0.00  0.00     0.002 A 
ATOM      4  C4  I4B d   1       1.292   0.454  -2.369  0.00  0.00    -0.004 A 
ATOM      5  C5  I4B d   1       0.747  -0.819  -2.225  0.00  0.00     0.002 A 
ATOM      6  C6  I4B d   1       0.001  -1.138  -1.080  0.00  0.00     0.003 A 
ENDROOT
BRANCH   1   7
ATOM      7  C1' I4B d   1      -0.897  -0.520   1.180  0.00  0.00     0.060 C 
BRANCH   7   8
ATOM      8  C2' I4B d   1      -1.987   0.514   1.378  0.00  0.00    -0.013 C 
ATOM      9  C4' I4B d   1      -3.354  -0.099   1.226  0.00  0.00     0.013 C 
ATOM     10  C3' I4B d   1      -1.812   1.116   2.740  0.00  0.00     0.013 C 
ENDBRANCH   7   8
ENDBRANCH   1   7
TORSDOF 2
ENDMDL
