MODEL 1
REMARK minimizedAffinity -3.89996815
REMARK minimizedRMSD -1
REMARK  2 active torsions:
REMARK  status: ('A' for Active; 'I' for Inactive)
REMARK    1  A    between atoms: C2'_3  and  C1'_4 
REMARK    2  A    between atoms: C1'_4  and  C1_5 
ROOT
ATOM      1  C1  I4B d   1      -0.166  -0.097   0.252  0.00  0.00    -0.075 A 
ATOM      2  C2  I4B d   1       0.748   0.927   0.275  0.00  0.00     0.003 A 
ATOM      3  C3  I4B d   1       1.624   1.125  -0.820  0.00  0.00     0.002 A 
ATOM      4  C4  I4B d   1       1.586   0.252  -1.887  0.00  0.00    -0.004 A 
ATOM      5  C5  I4B d   1       0.644  -0.772  -1.919  0.00  0.00     0.002 A 
ATOM      6  C6  I4B d   1      -0.247  -0.940  -0.849  0.00  0.00     0.003 A 
ENDROOT
BRANCH   1   7
ATOM      7  C1' I4B d   1      -1.054  -0.298   1.439  0.00  0.00     0.060 C 
BRANCH   7   8
ATOM      8  C2' I4B d   1      -2.476   0.007   1.015  0.00  0.00    -0.013 C 
ATOM      9  C4' I4B d   1      -3.249  -1.258   0.748  0.00  0.00     0.013 C 
ATOM     10  C3' I4B d   1      -3.120   0.816   2.102  0.00  0.00     0.013 C 
ENDBRANCH   7   8
ENDBRANCH   1   7
TORSDOF 2
ENDMDL
