MODEL 1
REMARK minimizedAffinity 0.34354037
REMARK minimizedRMSD -1
REMARK  0 active torsions:
REMARK  status: ('A' for Active; 'I' for Inactive)
ROOT
ATOM      1  C1  DEN d   1      -2.630   5.971   2.255  0.00  0.00     0.130 A 
ATOM      2  C2  DEN d   1      -3.809   5.948   1.394  0.00  0.00    -0.031 A 
ATOM      3  C3  DEN d   1      -5.006   5.948   2.258  0.00  0.00     0.027 A 
ATOM      4  C4  DEN d   1      -5.147   5.985   4.833  0.00  0.00     0.027 A 
ATOM      5  C5  DEN d   1      -4.412   5.996   5.998  0.00  0.00    -0.003 A 
ATOM      6  C6  DEN d   1      -3.042   5.965   5.997  0.00  0.00     0.001 A 
ATOM      7  C7  DEN d   1      -2.364   5.968   4.807  0.00  0.00     0.017 A 
ATOM      8  C8  DEN d   1      -3.099   5.949   3.629  0.00  0.00    -0.094 A 
ATOM      9  C9  DEN d   1      -4.483   5.993   3.650  0.00  0.00    -0.072 A 
ENDROOT
TORSDOF 0
ENDMDL
