MODEL 1
REMARK minimizedAffinity -3.5419178
REMARK minimizedRMSD -1
REMARK  0 active torsions:
REMARK  status: ('A' for Active; 'I' for Inactive)
ROOT
ATOM      1  C1  DEN d   1      -2.339   5.952   4.993  0.00  0.00     0.130 A 
ATOM      2  C2  DEN d   1      -3.398   5.969   5.999  0.00  0.00    -0.031 A 
ATOM      3  C3  DEN d   1      -4.696   5.982   5.296  0.00  0.00     0.027 A 
ATOM      4  C4  DEN d   1      -5.167   5.973   2.760  0.00  0.00     0.027 A 
ATOM      5  C5  DEN d   1      -4.588   5.973   1.510  0.00  0.00    -0.003 A 
ATOM      6  C6  DEN d   1      -3.229   5.999   1.335  0.00  0.00     0.001 A 
ATOM      7  C7  DEN d   1      -2.404   5.982   2.429  0.00  0.00     0.017 A 
ATOM      8  C8  DEN d   1      -2.981   5.990   3.692  0.00  0.00    -0.094 A 
ATOM      9  C9  DEN d   1      -4.356   5.951   3.847  0.00  0.00    -0.072 A 
ENDROOT
TORSDOF 0
ENDMDL
