MODEL 1
REMARK minimizedAffinity -2.65811157
REMARK minimizedRMSD -1
REMARK  0 active torsions:
REMARK  status: ('A' for Active; 'I' for Inactive)
ROOT
ATOM      1  C1  DEN d   1      -2.634   6.000   4.620  0.00  0.00     0.130 A 
ATOM      2  C2  DEN d   1      -3.502   5.744   5.766  0.00  0.00    -0.031 A 
ATOM      3  C3  DEN d   1      -4.848   5.413   5.255  0.00  0.00     0.027 A 
ATOM      4  C4  DEN d   1      -5.666   5.270   2.813  0.00  0.00     0.027 A 
ATOM      5  C5  DEN d   1      -5.295   5.415   1.495  0.00  0.00    -0.003 A 
ATOM      6  C6  DEN d   1      -4.030   5.795   1.130  0.00  0.00     0.001 A 
ATOM      7  C7  DEN d   1      -3.078   6.000   2.093  0.00  0.00     0.017 A 
ATOM      8  C8  DEN d   1      -3.447   5.863   3.425  0.00  0.00    -0.094 A 
ATOM      9  C9  DEN d   1      -4.727   5.466   3.773  0.00  0.00    -0.072 A 
ENDROOT
TORSDOF 0
ENDMDL
