MODEL 1
REMARK minimizedAffinity 0.380663097
REMARK minimizedRMSD -1
REMARK  0 active torsions:
REMARK  status: ('A' for Active; 'I' for Inactive)
ROOT
ATOM      1  C1  DEN d   1      -2.300   5.973   4.739  0.00  0.00     0.130 A 
ATOM      2  C2  DEN d   1      -3.036   5.993   6.000  0.00  0.00    -0.031 A 
ATOM      3  C3  DEN d   1      -4.479   5.997   5.686  0.00  0.00     0.027 A 
ATOM      4  C4  DEN d   1      -5.638   5.969   3.382  0.00  0.00     0.027 A 
ATOM      5  C5  DEN d   1      -5.429   5.962   2.020  0.00  0.00    -0.003 A 
ATOM      6  C6  DEN d   1      -4.174   5.991   1.474  0.00  0.00     0.001 A 
ATOM      7  C7  DEN d   1      -3.076   5.985   2.294  0.00  0.00     0.017 A 
ATOM      8  C8  DEN d   1      -3.279   6.000   3.667  0.00  0.00    -0.094 A 
ATOM      9  C9  DEN d   1      -4.556   5.957   4.200  0.00  0.00    -0.072 A 
ENDROOT
TORSDOF 0
ENDMDL
