MODEL 1
REMARK minimizedAffinity -0.638408005
REMARK minimizedRMSD -1
REMARK  0 active torsions:
REMARK  status: ('A' for Active; 'I' for Inactive)
ROOT
ATOM      1  C1  DEN d   1      -4.515   5.706   5.637  0.00  0.00     0.130 A 
ATOM      2  C2  DEN d   1      -3.078   5.909   5.798  0.00  0.00    -0.031 A 
ATOM      3  C3  DEN d   1      -2.476   6.000   4.452  0.00  0.00     0.027 A 
ATOM      4  C4  DEN d   1      -3.624   5.850   2.148  0.00  0.00     0.027 A 
ATOM      5  C5  DEN d   1      -4.828   5.671   1.503  0.00  0.00    -0.003 A 
ATOM      6  C6  DEN d   1      -5.996   5.458   2.184  0.00  0.00     0.001 A 
ATOM      7  C7  DEN d   1      -5.994   5.464   3.554  0.00  0.00     0.017 A 
ATOM      8  C8  DEN d   1      -4.783   5.638   4.211  0.00  0.00    -0.094 A 
ATOM      9  C9  DEN d   1      -3.614   5.863   3.505  0.00  0.00    -0.072 A 
ENDROOT
TORSDOF 0
ENDMDL
