MODEL 1
REMARK minimizedAffinity 4.69066381
REMARK minimizedRMSD -1
REMARK  0 active torsions:
REMARK  status: ('A' for Active; 'I' for Inactive)
ROOT
ATOM      1  C1  DEN d   1      -2.319   5.999   4.781  0.00  0.00     0.130 A 
ATOM      2  C2  DEN d   1      -3.126   5.444   5.863  0.00  0.00    -0.031 A 
ATOM      3  C3  DEN d   1      -4.290   4.763   5.261  0.00  0.00     0.027 A 
ATOM      4  C4  DEN d   1      -4.915   4.514   2.771  0.00  0.00     0.027 A 
ATOM      5  C5  DEN d   1      -4.542   4.828   1.483  0.00  0.00    -0.003 A 
ATOM      6  C6  DEN d   1      -3.429   5.577   1.208  0.00  0.00     0.001 A 
ATOM      7  C7  DEN d   1      -2.624   6.000   2.233  0.00  0.00     0.017 A 
ATOM      8  C8  DEN d   1      -2.998   5.693   3.535  0.00  0.00    -0.094 A 
ATOM      9  C9  DEN d   1      -4.121   4.924   3.792  0.00  0.00    -0.072 A 
ENDROOT
TORSDOF 0
ENDMDL
