MODEL 1
REMARK minimizedAffinity -2.54281974
REMARK minimizedRMSD -1
REMARK  0 active torsions:
REMARK  status: ('A' for Active; 'I' for Inactive)
ROOT
ATOM      1  C1  DEN d   1      -2.965   5.999   2.480  0.00  0.00     0.130 A 
ATOM      2  C2  DEN d   1      -3.966   5.985   1.417  0.00  0.00    -0.031 A 
ATOM      3  C3  DEN d   1      -5.247   5.541   2.002  0.00  0.00     0.027 A 
ATOM      4  C4  DEN d   1      -5.776   4.882   4.439  0.00  0.00     0.027 A 
ATOM      5  C5  DEN d   1      -5.244   4.725   5.700  0.00  0.00    -0.003 A 
ATOM      6  C6  DEN d   1      -3.919   4.948   5.967  0.00  0.00     0.001 A 
ATOM      7  C7  DEN d   1      -3.090   5.383   4.968  0.00  0.00     0.017 A 
ATOM      8  C8  DEN d   1      -3.616   5.536   3.692  0.00  0.00    -0.094 A 
ATOM      9  C9  DEN d   1      -4.961   5.318   3.445  0.00  0.00    -0.072 A 
ENDROOT
TORSDOF 0
ENDMDL
