MODEL 1
REMARK minimizedAffinity -0.541086555
REMARK minimizedRMSD -1
REMARK  0 active torsions:
REMARK  status: ('A' for Active; 'I' for Inactive)
ROOT
ATOM      1  C1  DEN d   1      -4.288   5.774   5.525  0.00  0.00     0.130 A 
ATOM      2  C2  DEN d   1      -2.915   5.914   6.000  0.00  0.00    -0.031 A 
ATOM      3  C3  DEN d   1      -2.030   5.996   4.820  0.00  0.00     0.027 A 
ATOM      4  C4  DEN d   1      -2.651   5.925   2.318  0.00  0.00     0.027 A 
ATOM      5  C5  DEN d   1      -3.691   5.805   1.423  0.00  0.00    -0.003 A 
ATOM      6  C6  DEN d   1      -4.988   5.634   1.828  0.00  0.00     0.001 A 
ATOM      7  C7  DEN d   1      -5.285   5.623   3.165  0.00  0.00     0.017 A 
ATOM      8  C8  DEN d   1      -4.241   5.736   4.074  0.00  0.00    -0.094 A 
ATOM      9  C9  DEN d   1      -2.938   5.920   3.644  0.00  0.00    -0.072 A 
ENDROOT
TORSDOF 0
ENDMDL
