MODEL 1
REMARK minimizedAffinity 0.921459436
REMARK minimizedRMSD -1
REMARK  0 active torsions:
REMARK  status: ('A' for Active; 'I' for Inactive)
ROOT
ATOM      1  C1  DEN d   1      -3.894   5.749   5.630  0.00  0.00     0.130 A 
ATOM      2  C2  DEN d   1      -2.486   5.879   5.994  0.00  0.00    -0.031 A 
ATOM      3  C3  DEN d   1      -1.701   5.999   4.749  0.00  0.00     0.027 A 
ATOM      4  C4  DEN d   1      -2.526   6.000   2.305  0.00  0.00     0.027 A 
ATOM      5  C5  DEN d   1      -3.635   5.903   1.495  0.00  0.00    -0.003 A 
ATOM      6  C6  DEN d   1      -4.895   5.716   2.000  0.00  0.00     0.001 A 
ATOM      7  C7  DEN d   1      -5.081   5.664   3.356  0.00  0.00     0.017 A 
ATOM      8  C8  DEN d   1      -3.966   5.754   4.180  0.00  0.00    -0.094 A 
ATOM      9  C9  DEN d   1      -2.703   5.955   3.650  0.00  0.00    -0.072 A 
ENDROOT
TORSDOF 0
ENDMDL
