MODEL 1
REMARK minimizedAffinity -2.83059382
REMARK minimizedRMSD -1
REMARK  0 active torsions:
REMARK  status: ('A' for Active; 'I' for Inactive)
ROOT
ATOM      1  C1  DEN d   1      -4.506   5.917   5.396  0.00  0.00     0.130 A 
ATOM      2  C2  DEN d   1      -3.144   5.951   5.921  0.00  0.00    -0.031 A 
ATOM      3  C3  DEN d   1      -2.214   5.988   4.775  0.00  0.00     0.027 A 
ATOM      4  C4  DEN d   1      -2.747   6.000   2.252  0.00  0.00     0.027 A 
ATOM      5  C5  DEN d   1      -3.759   5.968   1.318  0.00  0.00    -0.003 A 
ATOM      6  C6  DEN d   1      -5.079   5.884   1.675  0.00  0.00     0.001 A 
ATOM      7  C7  DEN d   1      -5.424   5.874   3.000  0.00  0.00     0.017 A 
ATOM      8  C8  DEN d   1      -4.409   5.898   3.947  0.00  0.00    -0.094 A 
ATOM      9  C9  DEN d   1      -3.081   5.995   3.567  0.00  0.00    -0.072 A 
ENDROOT
TORSDOF 0
ENDMDL
