MODEL 1
REMARK minimizedAffinity 1.41653359
REMARK minimizedRMSD -1
REMARK  0 active torsions:
REMARK  status: ('A' for Active; 'I' for Inactive)
ROOT
ATOM      1  C1  DEN d   1       5.239   0.746  -3.632  0.00  0.00     0.130 A 
ATOM      2  C2  DEN d   1       5.995   0.624  -4.875  0.00  0.00    -0.031 A 
ATOM      3  C3  DEN d   1       5.046   0.736  -6.000  0.00  0.00     0.027 A 
ATOM      4  C4  DEN d   1       2.491   1.089  -5.938  0.00  0.00     0.027 A 
ATOM      5  C5  DEN d   1       1.399   1.239  -5.114  0.00  0.00    -0.003 A 
ATOM      6  C6  DEN d   1       1.503   1.202  -3.749  0.00  0.00     0.001 A 
ATOM      7  C7  DEN d   1       2.735   1.055  -3.166  0.00  0.00     0.017 A 
ATOM      8  C8  DEN d   1       3.840   0.896  -3.991  0.00  0.00    -0.094 A 
ATOM      9  C9  DEN d   1       3.715   0.948  -5.369  0.00  0.00    -0.072 A 
ENDROOT
TORSDOF 0
ENDMDL
