MODEL 1
REMARK minimizedAffinity 3.9589963
REMARK minimizedRMSD -1
REMARK  0 active torsions:
REMARK  status: ('A' for Active; 'I' for Inactive)
ROOT
ATOM      1  C1  DEN d   1      -2.430   2.112   3.519  0.00  0.00     0.130 A 
ATOM      2  C2  DEN d   1      -2.774   1.396   2.294  0.00  0.00    -0.031 A 
ATOM      3  C3  DEN d   1      -3.269   2.382   1.312  0.00  0.00     0.027 A 
ATOM      4  C4  DEN d   1      -3.529   4.935   1.568  0.00  0.00     0.027 A 
ATOM      5  C5  DEN d   1      -3.377   5.998   2.430  0.00  0.00    -0.003 A 
ATOM      6  C6  DEN d   1      -2.935   5.838   3.716  0.00  0.00     0.001 A 
ATOM      7  C7  DEN d   1      -2.586   4.591   4.163  0.00  0.00     0.017 A 
ATOM      8  C8  DEN d   1      -2.743   3.513   3.302  0.00  0.00    -0.094 A 
ATOM      9  C9  DEN d   1      -3.181   3.697   2.001  0.00  0.00    -0.072 A 
ENDROOT
TORSDOF 0
ENDMDL
