MODEL 1
REMARK minimizedAffinity 9.09592342
REMARK minimizedRMSD -1
REMARK  0 active torsions:
REMARK  status: ('A' for Active; 'I' for Inactive)
ROOT
ATOM      1  C1  DEN d   1      -3.295   4.542   5.693  0.00  0.00     0.130 A 
ATOM      2  C2  DEN d   1      -2.043   5.229   5.998  0.00  0.00    -0.031 A 
ATOM      3  C3  DEN d   1      -1.589   5.917   4.773  0.00  0.00     0.027 A 
ATOM      4  C4  DEN d   1      -2.700   5.989   2.446  0.00  0.00     0.027 A 
ATOM      5  C5  DEN d   1      -3.770   5.548   1.699  0.00  0.00    -0.003 A 
ATOM      6  C6  DEN d   1      -4.731   4.720   2.217  0.00  0.00     0.001 A 
ATOM      7  C7  DEN d   1      -4.665   4.343   3.533  0.00  0.00     0.017 A 
ATOM      8  C8  DEN d   1      -3.585   4.778   4.290  0.00  0.00    -0.094 A 
ATOM      9  C9  DEN d   1      -2.631   5.624   3.752  0.00  0.00    -0.072 A 
ENDROOT
TORSDOF 0
ENDMDL
