MODEL 1
REMARK minimizedAffinity 2.43117499
REMARK minimizedRMSD -1
REMARK  0 active torsions:
REMARK  status: ('A' for Active; 'I' for Inactive)
ROOT
ATOM      1  C1  DEN d   1       1.969   2.448  -2.491  0.00  0.00     0.130 A 
ATOM      2  C2  DEN d   1       1.479   1.169  -2.999  0.00  0.00    -0.031 A 
ATOM      3  C3  DEN d   1       1.291   1.299  -4.457  0.00  0.00     0.027 A 
ATOM      4  C4  DEN d   1       1.713   3.343  -5.973  0.00  0.00     0.027 A 
ATOM      5  C5  DEN d   1       2.120   4.659  -5.995  0.00  0.00    -0.003 A 
ATOM      6  C6  DEN d   1       2.469   5.334  -4.856  0.00  0.00     0.001 A 
ATOM      7  C7  DEN d   1       2.462   4.683  -3.651  0.00  0.00     0.017 A 
ATOM      8  C8  DEN d   1       2.046   3.358  -3.619  0.00  0.00    -0.094 A 
ATOM      9  C9  DEN d   1       1.708   2.689  -4.783  0.00  0.00    -0.072 A 
ENDROOT
TORSDOF 0
ENDMDL
