MODEL 1
REMARK minimizedAffinity -1.30859053
REMARK minimizedRMSD -1
REMARK  0 active torsions:
REMARK  status: ('A' for Active; 'I' for Inactive)
ROOT
ATOM      1  C1  DEN d   1       4.278   5.997  -1.184  0.00  0.00     0.130 A 
ATOM      2  C2  DEN d   1       3.047   5.276  -1.496  0.00  0.00    -0.031 A 
ATOM      3  C3  DEN d   1       2.711   4.424  -0.337  0.00  0.00     0.027 A 
ATOM      4  C4  DEN d   1       3.969   4.156   1.898  0.00  0.00     0.027 A 
ATOM      5  C5  DEN d   1       5.072   4.553   2.620  0.00  0.00    -0.003 A 
ATOM      6  C6  DEN d   1       5.999   5.427   2.116  0.00  0.00     0.001 A 
ATOM      7  C7  DEN d   1       5.815   5.966   0.870  0.00  0.00     0.017 A 
ATOM      8  C8  DEN d   1       4.709   5.565   0.133  0.00  0.00    -0.094 A 
ATOM      9  C9  DEN d   1       3.777   4.690   0.666  0.00  0.00    -0.072 A 
ENDROOT
TORSDOF 0
ENDMDL
