MODEL 1
REMARK minimizedAffinity -1.40933585
REMARK minimizedRMSD -1
REMARK  0 active torsions:
REMARK  status: ('A' for Active; 'I' for Inactive)
ROOT
ATOM      1  C1  DEN d   1      -4.391   5.998   5.280  0.00  0.00     0.130 A 
ATOM      2  C2  DEN d   1      -3.033   5.980   5.817  0.00  0.00    -0.031 A 
ATOM      3  C3  DEN d   1      -2.092   5.966   4.679  0.00  0.00     0.027 A 
ATOM      4  C4  DEN d   1      -2.603   5.978   2.151  0.00  0.00     0.027 A 
ATOM      5  C5  DEN d   1      -3.608   5.980   1.209  0.00  0.00    -0.003 A 
ATOM      6  C6  DEN d   1      -4.933   5.955   1.555  0.00  0.00     0.001 A 
ATOM      7  C7  DEN d   1      -5.290   5.972   2.877  0.00  0.00     0.017 A 
ATOM      8  C8  DEN d   1      -4.283   5.961   3.833  0.00  0.00    -0.094 A 
ATOM      9  C9  DEN d   1      -2.949   5.999   3.463  0.00  0.00    -0.072 A 
ENDROOT
TORSDOF 0
ENDMDL
