MODEL 1
REMARK minimizedAffinity -2.98505569
REMARK minimizedRMSD -1
REMARK  0 active torsions:
REMARK  status: ('A' for Active; 'I' for Inactive)
ROOT
ATOM      1  C   UNL d   1       1.417   0.041  -1.592  0.00  0.00     0.124 A 
ATOM      2  C1  UNL d   1       1.455  -0.907  -0.579  0.00  0.00     0.062 A 
ATOM      3  C2  UNL d   1       0.473  -0.916   0.408  0.00  0.00     0.162 A 
ATOM      4  C3  UNL d   1      -0.556   0.025   0.385  0.00  0.00    -0.034 A 
ATOM      5  C4  UNL d   1      -0.587   0.976  -0.637  0.00  0.00     0.162 A 
ATOM      6  C5  UNL d   1       0.397   0.981  -1.620  0.00  0.00     0.062 A 
ATOM      7  F   UNL d   1       0.359   1.898  -2.599  0.00  0.00    -0.097 F 
ATOM      8  F1  UNL d   1      -1.562   1.895  -0.688  0.00  0.00    -0.096 F 
ATOM      9  I   UNL d   1      -2.026   0.015   1.859  0.00  0.00    -0.060 I 
ATOM     10  F2  UNL d   1       0.534  -1.843   1.375  0.00  0.00    -0.096 F 
ATOM     11  F3  UNL d   1       2.440  -1.816  -0.549  0.00  0.00    -0.097 F 
ATOM     12  F4  UNL d   1       2.364   0.048  -2.540  0.00  0.00    -0.092 F 
ENDROOT
TORSDOF 0
ENDMDL
