MODEL 1
REMARK minimizedAffinity -0.760286152
REMARK minimizedRMSD -1
REMARK  0 active torsions:
REMARK  status: ('A' for Active; 'I' for Inactive)
ROOT
ATOM      1  C   UNL d   1       1.539   1.334  -1.706  0.00  0.00     0.124 A 
ATOM      2  C1  UNL d   1       1.750   0.303  -0.802  0.00  0.00     0.062 A 
ATOM      3  C2  UNL d   1       0.773  -0.017   0.137  0.00  0.00     0.162 A 
ATOM      4  C3  UNL d   1      -0.425   0.696   0.176  0.00  0.00    -0.034 A 
ATOM      5  C4  UNL d   1      -0.630   1.733  -0.736  0.00  0.00     0.162 A 
ATOM      6  C5  UNL d   1       0.349   2.049  -1.672  0.00  0.00     0.062 A 
ATOM      7  F   UNL d   1       0.143   3.046  -2.545  0.00  0.00    -0.097 F 
ATOM      8  F1  UNL d   1      -1.771   2.439  -0.727  0.00  0.00    -0.096 F 
ATOM      9  I   UNL d   1      -1.888   0.222   1.578  0.00  0.00    -0.060 I 
ATOM     10  F2  UNL d   1       1.004  -1.018   0.998  0.00  0.00    -0.096 F 
ATOM     11  F3  UNL d   1       2.899  -0.388  -0.832  0.00  0.00    -0.097 F 
ATOM     12  F4  UNL d   1       2.481   1.640  -2.607  0.00  0.00    -0.092 F 
ENDROOT
TORSDOF 0
ENDMDL
