MODEL 1
REMARK minimizedAffinity -0.525348961
REMARK minimizedRMSD -1
REMARK  0 active torsions:
REMARK  status: ('A' for Active; 'I' for Inactive)
ROOT
ATOM      1  C   UNL d   1       1.751  -0.390  -1.599  0.00  0.00     0.124 A 
ATOM      2  C1  UNL d   1       1.460  -1.489  -0.803  0.00  0.00     0.062 A 
ATOM      3  C2  UNL d   1       0.449  -1.414   0.151  0.00  0.00     0.162 A 
ATOM      4  C3  UNL d   1      -0.279  -0.235   0.313  0.00  0.00    -0.034 A 
ATOM      5  C4  UNL d   1       0.020   0.866  -0.491  0.00  0.00     0.162 A 
ATOM      6  C5  UNL d   1       1.031   0.786  -1.443  0.00  0.00     0.062 A 
ATOM      7  F   UNL d   1       1.311   1.849  -2.212  0.00  0.00    -0.097 F 
ATOM      8  F1  UNL d   1      -0.661   2.015  -0.362  0.00  0.00    -0.096 F 
ATOM      9  I   UNL d   1      -1.792  -0.119   1.738  0.00  0.00    -0.060 I 
ATOM     10  F2  UNL d   1       0.189  -2.491   0.907  0.00  0.00    -0.096 F 
ATOM     11  F3  UNL d   1       2.155  -2.626  -0.951  0.00  0.00    -0.097 F 
ATOM     12  F4  UNL d   1       2.725  -0.465  -2.516  0.00  0.00    -0.092 F 
ENDROOT
TORSDOF 0
ENDMDL
