MODEL 1
REMARK minimizedAffinity 0.0982082188
REMARK minimizedRMSD -1
REMARK  0 active torsions:
REMARK  status: ('A' for Active; 'I' for Inactive)
ROOT
ATOM      1  C   UNL d   1       2.285  -0.371  -1.307  0.00  0.00     0.124 A 
ATOM      2  C1  UNL d   1       1.814  -1.550  -0.746  0.00  0.00     0.062 A 
ATOM      3  C2  UNL d   1       0.622  -1.557  -0.029  0.00  0.00     0.162 A 
ATOM      4  C3  UNL d   1      -0.109  -0.380   0.132  0.00  0.00    -0.034 A 
ATOM      5  C4  UNL d   1       0.371   0.803  -0.434  0.00  0.00     0.162 A 
ATOM      6  C5  UNL d   1       1.564   0.804  -1.150  0.00  0.00     0.062 A 
ATOM      7  F   UNL d   1       2.017   1.944  -1.691  0.00  0.00    -0.097 F 
ATOM      8  F1  UNL d   1      -0.307   1.952  -0.299  0.00  0.00    -0.096 F 
ATOM      9  I   UNL d   1      -1.893  -0.385   1.205  0.00  0.00    -0.060 I 
ATOM     10  F2  UNL d   1       0.191  -2.710   0.502  0.00  0.00    -0.096 F 
ATOM     11  F3  UNL d   1       2.510  -2.686  -0.895  0.00  0.00    -0.097 F 
ATOM     12  F4  UNL d   1       3.434  -0.367  -1.996  0.00  0.00    -0.092 F 
ENDROOT
TORSDOF 0
ENDMDL
