MODEL 1
REMARK minimizedAffinity -2.89264417
REMARK minimizedRMSD -1
REMARK  0 active torsions:
REMARK  status: ('A' for Active; 'I' for Inactive)
ROOT
ATOM      1  C   UNL d   1       1.919   0.255  -1.173  0.00  0.00     0.124 A 
ATOM      2  C1  UNL d   1       2.013  -0.558  -0.052  0.00  0.00     0.062 A 
ATOM      3  C2  UNL d   1       0.986  -0.578   0.887  0.00  0.00     0.162 A 
ATOM      4  C3  UNL d   1      -0.146   0.216   0.708  0.00  0.00    -0.034 A 
ATOM      5  C4  UNL d   1      -0.234   1.032  -0.421  0.00  0.00     0.162 A 
ATOM      6  C5  UNL d   1       0.795   1.049  -1.357  0.00  0.00     0.062 A 
ATOM      7  F   UNL d   1       0.702   1.835  -2.439  0.00  0.00    -0.097 F 
ATOM      8  F1  UNL d   1      -1.309   1.809  -0.624  0.00  0.00    -0.096 F 
ATOM      9  I   UNL d   1      -1.685   0.189   2.110  0.00  0.00    -0.060 I 
ATOM     10  F2  UNL d   1       1.104  -1.373   1.961  0.00  0.00    -0.096 F 
ATOM     11  F3  UNL d   1       3.098  -1.326   0.128  0.00  0.00    -0.097 F 
ATOM     12  F4  UNL d   1       2.909   0.273  -2.074  0.00  0.00    -0.092 F 
ENDROOT
TORSDOF 0
ENDMDL
