MODEL 1
REMARK minimizedAffinity -1.32778597
REMARK minimizedRMSD -1
REMARK  0 active torsions:
REMARK  status: ('A' for Active; 'I' for Inactive)
ROOT
ATOM      1  C   UNL d   1      -1.733   0.774   1.770  0.00  0.00     0.124 A 
ATOM      2  C1  UNL d   1      -0.524   1.417   1.543  0.00  0.00     0.062 A 
ATOM      3  C2  UNL d   1       0.418   0.855   0.687  0.00  0.00     0.162 A 
ATOM      4  C3  UNL d   1       0.155  -0.358   0.051  0.00  0.00    -0.034 A 
ATOM      5  C4  UNL d   1      -1.063  -1.000   0.285  0.00  0.00     0.162 A 
ATOM      6  C5  UNL d   1      -2.001  -0.433   1.141  0.00  0.00     0.062 A 
ATOM      7  F   UNL d   1      -3.168  -1.056   1.359  0.00  0.00    -0.097 F 
ATOM      8  F1  UNL d   1      -1.348  -2.167  -0.311  0.00  0.00    -0.096 F 
ATOM      9  I   UNL d   1       1.561  -1.203  -1.230  0.00  0.00    -0.060 I 
ATOM     10  F2  UNL d   1       1.578   1.498   0.486  0.00  0.00    -0.096 F 
ATOM     11  F3  UNL d   1      -0.262   2.584   2.151  0.00  0.00    -0.097 F 
ATOM     12  F4  UNL d   1      -2.637   1.318   2.595  0.00  0.00    -0.092 F 
ENDROOT
TORSDOF 0
ENDMDL
