MODEL 1
REMARK minimizedAffinity 0.774161339
REMARK minimizedRMSD -1
REMARK  0 active torsions:
REMARK  status: ('A' for Active; 'I' for Inactive)
ROOT
ATOM      1  C   UNL d   1       2.052   0.104  -2.425  0.00  0.00     0.124 A 
ATOM      2  C1  UNL d   1       1.386   1.319  -2.339  0.00  0.00     0.062 A 
ATOM      3  C2  UNL d   1       0.364   1.492  -1.411  0.00  0.00     0.162 A 
ATOM      4  C3  UNL d   1       0.001   0.449  -0.559  0.00  0.00    -0.034 A 
ATOM      5  C4  UNL d   1       0.675  -0.770  -0.652  0.00  0.00     0.162 A 
ATOM      6  C5  UNL d   1       1.696  -0.939  -1.582  0.00  0.00     0.062 A 
ATOM      7  F   UNL d   1       2.338  -2.114  -1.663  0.00  0.00    -0.097 F 
ATOM      8  F1  UNL d   1       0.352  -1.795   0.151  0.00  0.00    -0.096 F 
ATOM      9  I   UNL d   1      -1.527   0.705   0.831  0.00  0.00    -0.060 I 
ATOM     10  F2  UNL d   1      -0.263   2.677  -1.350  0.00  0.00    -0.096 F 
ATOM     11  F3  UNL d   1       1.727   2.328  -3.154  0.00  0.00    -0.097 F 
ATOM     12  F4  UNL d   1       3.034  -0.061  -3.320  0.00  0.00    -0.092 F 
ENDROOT
TORSDOF 0
ENDMDL
