MODEL 1
REMARK minimizedAffinity -1.72549176
REMARK minimizedRMSD -1
REMARK  0 active torsions:
REMARK  status: ('A' for Active; 'I' for Inactive)
ROOT
ATOM      1  C   UNL d   1       1.525  -0.217  -2.273  0.00  0.00     0.124 A 
ATOM      2  C1  UNL d   1       0.739   0.927  -2.261  0.00  0.00     0.062 A 
ATOM      3  C2  UNL d   1      -0.163   1.147  -1.224  0.00  0.00     0.162 A 
ATOM      4  C3  UNL d   1      -0.284   0.220  -0.189  0.00  0.00    -0.034 A 
ATOM      5  C4  UNL d   1       0.509  -0.929  -0.208  0.00  0.00     0.162 A 
ATOM      6  C5  UNL d   1       1.409  -1.144  -1.246  0.00  0.00     0.062 A 
ATOM      7  F   UNL d   1       2.167  -2.250  -1.256  0.00  0.00    -0.097 F 
ATOM      8  F1  UNL d   1       0.418  -1.841   0.772  0.00  0.00    -0.096 F 
ATOM      9  I   UNL d   1      -1.632   0.544   1.364  0.00  0.00    -0.060 I 
ATOM     10  F2  UNL d   1      -0.910   2.261  -1.239  0.00  0.00    -0.096 F 
ATOM     11  F3  UNL d   1       0.848   1.824  -3.252  0.00  0.00    -0.097 F 
ATOM     12  F4  UNL d   1       2.391  -0.426  -3.272  0.00  0.00    -0.092 F 
ENDROOT
TORSDOF 0
ENDMDL
