MODEL 1
REMARK minimizedAffinity -3.46346951
REMARK minimizedRMSD -1
REMARK  0 active torsions:
REMARK  status: ('A' for Active; 'I' for Inactive)
ROOT
ATOM      1  C   UNL d   1       3.043   0.573  -1.889  0.00  0.00     0.124 A 
ATOM      2  C1  UNL d   1       2.829  -0.387  -0.909  0.00  0.00     0.062 A 
ATOM      3  C2  UNL d   1       1.606  -0.451  -0.248  0.00  0.00     0.162 A 
ATOM      4  C3  UNL d   1       0.587   0.447  -0.565  0.00  0.00    -0.034 A 
ATOM      5  C4  UNL d   1       0.810   1.410  -1.550  0.00  0.00     0.162 A 
ATOM      6  C5  UNL d   1       2.034   1.470  -2.208  0.00  0.00     0.062 A 
ATOM      7  F   UNL d   1       2.240   2.399  -3.154  0.00  0.00    -0.097 F 
ATOM      8  F1  UNL d   1      -0.148   2.289  -1.880  0.00  0.00    -0.096 F 
ATOM      9  I   UNL d   1      -1.244   0.354   0.421  0.00  0.00    -0.060 I 
ATOM     10  F2  UNL d   1       1.426  -1.389   0.694  0.00  0.00    -0.096 F 
ATOM     11  F3  UNL d   1       3.803  -1.254  -0.598  0.00  0.00    -0.097 F 
ATOM     12  F4  UNL d   1       4.222   0.633  -2.523  0.00  0.00    -0.092 F 
ENDROOT
TORSDOF 0
ENDMDL
