MODEL 1
REMARK minimizedAffinity 1.43753183
REMARK minimizedRMSD -1
REMARK  0 active torsions:
REMARK  status: ('A' for Active; 'I' for Inactive)
ROOT
ATOM      1  C   UNL d   1       1.775   1.138  -1.194  0.00  0.00     0.124 A 
ATOM      2  C1  UNL d   1       1.878   0.288  -0.102  0.00  0.00     0.062 A 
ATOM      3  C2  UNL d   1       0.760   0.014   0.681  0.00  0.00     0.162 A 
ATOM      4  C3  UNL d   1      -0.472   0.590   0.373  0.00  0.00    -0.034 A 
ATOM      5  C4  UNL d   1      -0.569   1.445  -0.726  0.00  0.00     0.162 A 
ATOM      6  C5  UNL d   1       0.552   1.716  -1.505  0.00  0.00     0.062 A 
ATOM      7  F   UNL d   1       0.450   2.538  -2.559  0.00  0.00    -0.097 F 
ATOM      8  F1  UNL d   1      -1.738   2.016  -1.050  0.00  0.00    -0.096 F 
ATOM      9  I   UNL d   1      -2.147   0.182   1.540  0.00  0.00    -0.060 I 
ATOM     10  F2  UNL d   1       0.889  -0.812   1.730  0.00  0.00    -0.096 F 
ATOM     11  F3  UNL d   1       3.059  -0.271   0.202  0.00  0.00    -0.097 F 
ATOM     12  F4  UNL d   1       2.852   1.401  -1.944  0.00  0.00    -0.092 F 
ENDROOT
TORSDOF 0
ENDMDL
