MODEL 1
REMARK minimizedAffinity -3.01008844
REMARK minimizedRMSD -1
REMARK  0 active torsions:
REMARK  status: ('A' for Active; 'I' for Inactive)
ROOT
ATOM      1  C   UNL d   1       2.166   0.380  -2.335  0.00  0.00     0.124 A 
ATOM      2  C1  UNL d   1       0.997   1.080  -2.603  0.00  0.00     0.062 A 
ATOM      3  C2  UNL d   1      -0.028   1.116  -1.662  0.00  0.00     0.162 A 
ATOM      4  C3  UNL d   1       0.111   0.451  -0.444  0.00  0.00    -0.034 A 
ATOM      5  C4  UNL d   1       1.289  -0.251  -0.182  0.00  0.00     0.162 A 
ATOM      6  C5  UNL d   1       2.310  -0.284  -1.125  0.00  0.00     0.062 A 
ATOM      7  F   UNL d   1       3.439  -0.960  -0.865  0.00  0.00    -0.097 F 
ATOM      8  F1  UNL d   1       1.456  -0.901   0.980  0.00  0.00    -0.096 F 
ATOM      9  I   UNL d   1      -1.420   0.503   0.966  0.00  0.00    -0.060 I 
ATOM     10  F2  UNL d   1      -1.146   1.799  -1.948  0.00  0.00    -0.096 F 
ATOM     11  F3  UNL d   1       0.854   1.721  -3.771  0.00  0.00    -0.097 F 
ATOM     12  F4  UNL d   1       3.150   0.346  -3.242  0.00  0.00    -0.092 F 
ENDROOT
TORSDOF 0
ENDMDL
