MODEL 1
REMARK minimizedAffinity -1.58518469
REMARK minimizedRMSD -1
REMARK  0 active torsions:
REMARK  status: ('A' for Active; 'I' for Inactive)
ROOT
ATOM      1  C   UNL d   1       1.618  -1.560  -0.588  0.00  0.00     0.124 A 
ATOM      2  C1  UNL d   1       1.842  -0.266  -1.036  0.00  0.00     0.062 A 
ATOM      3  C2  UNL d   1       0.847   0.700  -0.912  0.00  0.00     0.162 A 
ATOM      4  C3  UNL d   1      -0.381   0.375  -0.335  0.00  0.00    -0.034 A 
ATOM      5  C4  UNL d   1      -0.599  -0.929   0.112  0.00  0.00     0.162 A 
ATOM      6  C5  UNL d   1       0.399  -1.891  -0.014  0.00  0.00     0.062 A 
ATOM      7  F   UNL d   1       0.181  -3.141   0.420  0.00  0.00    -0.097 F 
ATOM      8  F1  UNL d   1      -1.768  -1.275   0.671  0.00  0.00    -0.096 F 
ATOM      9  I   UNL d   1      -1.871   1.816  -0.148  0.00  0.00    -0.060 I 
ATOM     10  F2  UNL d   1       1.091   1.943  -1.353  0.00  0.00    -0.096 F 
ATOM     11  F3  UNL d   1       3.019   0.056  -1.591  0.00  0.00    -0.097 F 
ATOM     12  F4  UNL d   1       2.577  -2.487  -0.709  0.00  0.00    -0.092 F 
ENDROOT
TORSDOF 0
ENDMDL
