MODEL 1
REMARK minimizedAffinity -3.25988388
REMARK minimizedRMSD -1
REMARK  1 active torsions:
REMARK  status: ('A' for Active; 'I' for Inactive)
REMARK    1  A    between atoms: N_2  and  C1_3 
ROOT
ATOM      1  C1  UNL d   1      -5.801  -1.156   3.295  0.00  0.00     0.143 A 
ATOM      2  C2  UNL d   1      -5.950  -2.545   3.378  0.00  0.00    -0.057 A 
ATOM      3  C3  UNL d   1      -5.942  -3.203   4.614  0.00  0.00     0.033 A 
ATOM      4  C4  UNL d   1      -5.756  -2.485   5.790  0.00  0.00    -0.042 A 
ATOM      5  C5  UNL d   1      -5.580  -1.107   5.730  0.00  0.00     0.033 A 
ATOM      6  C6  UNL d   1      -5.596  -0.455   4.493  0.00  0.00    -0.057 A 
ENDROOT
BRANCH   1   7
ATOM      7  N   UNL d   1      -5.701  -0.455   2.090  0.00  0.00    -0.732 N 
ATOM      8  C   UNL d   1      -4.561   0.396   1.826  0.00  0.00     0.284 C 
ATOM      9  H3  UNL d   1      -5.999  -1.011   1.292  0.00  0.00     0.395 HD
ENDBRANCH   1   7
TORSDOF 1
ENDMDL
