MODEL 1
REMARK minimizedAffinity 5.77913857
REMARK minimizedRMSD -1
REMARK  1 active torsions:
REMARK  status: ('A' for Active; 'I' for Inactive)
REMARK    1  A    between atoms: N_2  and  C1_3 
ROOT
ATOM      1  C1  UNL d   1      -0.344   0.157   0.673  0.00  0.00     0.143 A 
ATOM      2  C2  UNL d   1       0.186  -1.133   0.561  0.00  0.00    -0.057 A 
ATOM      3  C3  UNL d   1       1.262  -1.548   1.355  0.00  0.00     0.033 A 
ATOM      4  C4  UNL d   1       1.847  -0.667   2.258  0.00  0.00    -0.042 A 
ATOM      5  C5  UNL d   1       1.353   0.628   2.369  0.00  0.00     0.033 A 
ATOM      6  C6  UNL d   1       0.274   1.034   1.578  0.00  0.00    -0.057 A 
ENDROOT
BRANCH   1   7
ATOM      7  N   UNL d   1      -1.348   0.660  -0.157  0.00  0.00    -0.732 N 
ATOM      8  C   UNL d   1      -1.034   1.141  -1.486  0.00  0.00     0.284 C 
ATOM      9  H3  UNL d   1      -2.206   0.115  -0.104  0.00  0.00     0.395 HD
ENDBRANCH   1   7
TORSDOF 1
ENDMDL
