MODEL 1
REMARK minimizedAffinity 2.59583092
REMARK minimizedRMSD -1
REMARK  1 active torsions:
REMARK  status: ('A' for Active; 'I' for Inactive)
REMARK    1  A    between atoms: N_2  and  C1_3 
ROOT
ATOM      1  C1  UNL d   1       0.856   1.681   1.943  0.00  0.00     0.143 A 
ATOM      2  C2  UNL d   1       0.428   1.199   0.702  0.00  0.00    -0.057 A 
ATOM      3  C3  UNL d   1       0.598  -0.145   0.347  0.00  0.00     0.033 A 
ATOM      4  C4  UNL d   1       1.228  -1.027   1.219  0.00  0.00    -0.042 A 
ATOM      5  C5  UNL d   1       1.684  -0.564   2.448  0.00  0.00     0.033 A 
ATOM      6  C6  UNL d   1       1.505   0.778   2.800  0.00  0.00    -0.057 A 
ENDROOT
BRANCH   1   7
ATOM      7  N   UNL d   1       0.805   3.027   2.315  0.00  0.00    -0.732 N 
ATOM      8  C   UNL d   1       1.256   4.060   1.408  0.00  0.00     0.284 C 
ATOM      9  H3  UNL d   1      -0.049   3.258   2.817  0.00  0.00     0.395 HD
ENDBRANCH   1   7
TORSDOF 1
ENDMDL
