MODEL 1
REMARK minimizedAffinity -3.05990314
REMARK minimizedRMSD -1
REMARK  1 active torsions:
REMARK  status: ('A' for Active; 'I' for Inactive)
REMARK    1  A    between atoms: N_2  and  C1_3 
ROOT
ATOM      1  C1  UNL d   1       0.263   3.145   0.882  0.00  0.00     0.143 A 
ATOM      2  C2  UNL d   1       0.121   2.640   2.179  0.00  0.00    -0.057 A 
ATOM      3  C3  UNL d   1       0.197   1.266   2.436  0.00  0.00     0.033 A 
ATOM      4  C4  UNL d   1       0.388   0.367   1.393  0.00  0.00    -0.042 A 
ATOM      5  C5  UNL d   1       0.506   0.843   0.092  0.00  0.00     0.033 A 
ATOM      6  C6  UNL d   1       0.436   2.217  -0.158  0.00  0.00    -0.057 A 
ENDROOT
BRANCH   1   7
ATOM      7  N   UNL d   1       0.099   4.491   0.548  0.00  0.00    -0.732 N 
ATOM      8  C   UNL d   1       0.974   5.124  -0.415  0.00  0.00     0.284 C 
ATOM      9  H3  UNL d   1      -0.881   4.752   0.454  0.00  0.00     0.395 HD
ENDBRANCH   1   7
TORSDOF 1
ENDMDL
