MODEL 1
REMARK minimizedAffinity 1.13938034
REMARK minimizedRMSD -1
REMARK  1 active torsions:
REMARK  status: ('A' for Active; 'I' for Inactive)
REMARK    1  A    between atoms: N_2  and  C1_3 
ROOT
ATOM      1  C1  UNL d   1      -1.089   0.410   0.551  0.00  0.00     0.143 A 
ATOM      2  C2  UNL d   1      -1.295   0.175  -0.812  0.00  0.00    -0.057 A 
ATOM      3  C3  UNL d   1      -2.585   0.142  -1.357  0.00  0.00     0.033 A 
ATOM      4  C4  UNL d   1      -3.696   0.316  -0.539  0.00  0.00    -0.042 A 
ATOM      5  C5  UNL d   1      -3.516   0.527   0.823  0.00  0.00     0.033 A 
ATOM      6  C6  UNL d   1      -2.226   0.565   1.360  0.00  0.00    -0.057 A 
ENDROOT
BRANCH   1   7
ATOM      7  N   UNL d   1       0.162   0.357   1.169  0.00  0.00    -0.732 N 
ATOM      8  C   UNL d   1       0.608   1.434   2.027  0.00  0.00     0.284 C 
ATOM      9  H3  UNL d   1       0.382  -0.572   1.521  0.00  0.00     0.395 HD
ENDBRANCH   1   7
TORSDOF 1
ENDMDL
