MODEL 1
REMARK minimizedAffinity -4.01234198
REMARK minimizedRMSD -1
REMARK  0 active torsions:
REMARK  status: ('A' for Active; 'I' for Inactive)
ROOT
ATOM      1  C   UNL d   1      -1.232   0.074   3.113  0.00  0.00     0.023 A 
ATOM      2  C1  UNL d   1       0.130   0.217   2.852  0.00  0.00     0.003 A 
ATOM      3  C2  UNL d   1       0.603   0.137   1.540  0.00  0.00     0.048 A 
ATOM      4  C3  UNL d   1      -0.292  -0.085   0.495  0.00  0.00     0.023 A 
ATOM      5  C4  UNL d   1      -1.657  -0.228   0.751  0.00  0.00     0.048 A 
ATOM      6  C5  UNL d   1      -2.125  -0.148   2.064  0.00  0.00     0.003 A 
ATOM      7  I   UNL d   1       0.409  -0.204  -1.458  0.00  0.00    -0.146 I 
ENDROOT
TORSDOF 0
ENDMDL
