MODEL 1
REMARK minimizedAffinity -2.66490293
REMARK minimizedRMSD -1
REMARK  0 active torsions:
REMARK  status: ('A' for Active; 'I' for Inactive)
ROOT
ATOM      1  C   UNL d   1       0.618  -0.841  -1.977  0.00  0.00     0.023 A 
ATOM      2  C1  UNL d   1      -0.043  -1.928  -1.404  0.00  0.00     0.003 A 
ATOM      3  C2  UNL d   1      -0.694  -1.784  -0.178  0.00  0.00     0.048 A 
ATOM      4  C3  UNL d   1      -0.681  -0.550   0.471  0.00  0.00     0.023 A 
ATOM      5  C4  UNL d   1      -0.022   0.541  -0.098  0.00  0.00     0.048 A 
ATOM      6  C5  UNL d   1       0.628   0.392  -1.325  0.00  0.00     0.003 A 
ATOM      7  I   UNL d   1      -1.650  -0.332   2.297  0.00  0.00    -0.146 I 
ENDROOT
TORSDOF 0
ENDMDL
