MODEL 1
REMARK minimizedAffinity -3.47773814
REMARK minimizedRMSD -1
REMARK  0 active torsions:
REMARK  status: ('A' for Active; 'I' for Inactive)
ROOT
ATOM      1  C   UNL d   1      -1.672  -0.020   3.327  0.00  0.00     0.023 A 
ATOM      2  C1  UNL d   1      -0.300  -0.207   3.160  0.00  0.00     0.003 A 
ATOM      3  C2  UNL d   1       0.250  -0.241   1.877  0.00  0.00     0.048 A 
ATOM      4  C3  UNL d   1      -0.577  -0.087   0.765  0.00  0.00     0.023 A 
ATOM      5  C4  UNL d   1      -1.951   0.101   0.928  0.00  0.00     0.048 A 
ATOM      6  C5  UNL d   1      -2.497   0.134   2.212  0.00  0.00     0.003 A 
ATOM      7  I   UNL d   1       0.239  -0.138  -1.145  0.00  0.00    -0.146 I 
ENDROOT
TORSDOF 0
ENDMDL
