MODEL 1
REMARK minimizedAffinity -5.40609646
REMARK minimizedRMSD -1
REMARK  0 active torsions:
REMARK  status: ('A' for Active; 'I' for Inactive)
ROOT
ATOM      1  C   UNL d   1      -1.858  -0.378   2.918  0.00  0.00     0.023 A 
ATOM      2  C1  UNL d   1      -0.471  -0.429   2.784  0.00  0.00     0.003 A 
ATOM      3  C2  UNL d   1       0.116  -0.285   1.525  0.00  0.00     0.048 A 
ATOM      4  C3  UNL d   1      -0.690  -0.089   0.405  0.00  0.00     0.023 A 
ATOM      5  C4  UNL d   1      -2.079  -0.036   0.534  0.00  0.00     0.048 A 
ATOM      6  C5  UNL d   1      -2.661  -0.181   1.794  0.00  0.00     0.003 A 
ATOM      7  I   UNL d   1       0.182   0.127  -1.470  0.00  0.00    -0.146 I 
ENDROOT
TORSDOF 0
ENDMDL
