MODEL 1
REMARK minimizedAffinity -2.64737868
REMARK minimizedRMSD -1
REMARK  0 active torsions:
REMARK  status: ('A' for Active; 'I' for Inactive)
ROOT
ATOM      1  C   UNL d   1      -0.073  -0.137   2.603  0.00  0.00     0.023 A 
ATOM      2  C1  UNL d   1      -1.108  -0.489   1.736  0.00  0.00     0.003 A 
ATOM      3  C2  UNL d   1      -0.921  -0.411   0.355  0.00  0.00     0.048 A 
ATOM      4  C3  UNL d   1       0.304   0.018  -0.154  0.00  0.00     0.023 A 
ATOM      5  C4  UNL d   1       1.343   0.370   0.709  0.00  0.00     0.048 A 
ATOM      6  C5  UNL d   1       1.151   0.292   2.090  0.00  0.00     0.003 A 
ATOM      7  I   UNL d   1       0.585   0.134  -2.210  0.00  0.00    -0.146 I 
ENDROOT
TORSDOF 0
ENDMDL
