MODEL 1
REMARK minimizedAffinity -2.69831133
REMARK minimizedRMSD -1
REMARK  0 active torsions:
REMARK  status: ('A' for Active; 'I' for Inactive)
ROOT
ATOM      1  C   UNL d   1      -1.933  -0.066   3.135  0.00  0.00     0.023 A 
ATOM      2  C1  UNL d   1      -0.577  -0.199   2.835  0.00  0.00     0.003 A 
ATOM      3  C2  UNL d   1      -0.142  -0.107   1.512  0.00  0.00     0.048 A 
ATOM      4  C3  UNL d   1      -1.067   0.119   0.493  0.00  0.00     0.023 A 
ATOM      5  C4  UNL d   1      -2.424   0.254   0.789  0.00  0.00     0.048 A 
ATOM      6  C5  UNL d   1      -2.855   0.161   2.114  0.00  0.00     0.003 A 
ATOM      7  I   UNL d   1      -0.420   0.257  -1.477  0.00  0.00    -0.146 I 
ENDROOT
TORSDOF 0
ENDMDL
