MODEL 1
REMARK minimizedAffinity -4.36208296
REMARK minimizedRMSD -1
REMARK  0 active torsions:
REMARK  status: ('A' for Active; 'I' for Inactive)
ROOT
ATOM      1  C   UNL d   1      -1.470  -0.355   3.298  0.00  0.00     0.023 A 
ATOM      2  C1  UNL d   1      -2.423   0.023   2.353  0.00  0.00     0.003 A 
ATOM      3  C2  UNL d   1      -2.028   0.356   1.055  0.00  0.00     0.048 A 
ATOM      4  C3  UNL d   1      -0.678   0.308   0.710  0.00  0.00     0.023 A 
ATOM      5  C4  UNL d   1       0.280  -0.070   1.653  0.00  0.00     0.048 A 
ATOM      6  C5  UNL d   1      -0.120  -0.401   2.949  0.00  0.00     0.003 A 
ATOM      7  I   UNL d   1      -0.087   0.804  -1.220  0.00  0.00    -0.146 I 
ENDROOT
TORSDOF 0
ENDMDL
