MODEL 1
REMARK minimizedAffinity -5.09687805
REMARK minimizedRMSD -1
REMARK  0 active torsions:
REMARK  status: ('A' for Active; 'I' for Inactive)
ROOT
ATOM      1  C   UNL d   1      -2.242  -0.359   2.986  0.00  0.00     0.023 A 
ATOM      2  C1  UNL d   1      -2.920   0.126   1.869  0.00  0.00     0.003 A 
ATOM      3  C2  UNL d   1      -2.239   0.315   0.664  0.00  0.00     0.048 A 
ATOM      4  C3  UNL d   1      -0.880   0.014   0.584  0.00  0.00     0.023 A 
ATOM      5  C4  UNL d   1      -0.197  -0.473   1.700  0.00  0.00     0.048 A 
ATOM      6  C5  UNL d   1      -0.882  -0.659   2.902  0.00  0.00     0.003 A 
ATOM      7  I   UNL d   1       0.136   0.293  -1.207  0.00  0.00    -0.146 I 
ENDROOT
TORSDOF 0
ENDMDL
