MODEL 1
REMARK minimizedAffinity -4.44456148
REMARK minimizedRMSD -1
REMARK  0 active torsions:
REMARK  status: ('A' for Active; 'I' for Inactive)
ROOT
ATOM      1  C   UNL d   1       1.279   0.006   1.180  0.00  0.00     0.023 A 
ATOM      2  C1  UNL d   1       0.716  -0.181   2.442  0.00  0.00     0.003 A 
ATOM      3  C2  UNL d   1      -0.668  -0.105   2.609  0.00  0.00     0.048 A 
ATOM      4  C3  UNL d   1      -1.484   0.158   1.509  0.00  0.00     0.023 A 
ATOM      5  C4  UNL d   1      -0.925   0.345   0.244  0.00  0.00     0.048 A 
ATOM      6  C5  UNL d   1       0.460   0.268   0.082  0.00  0.00     0.003 A 
ATOM      7  I   UNL d   1      -3.545   0.272   1.755  0.00  0.00    -0.146 I 
ENDROOT
TORSDOF 0
ENDMDL
