MODEL 1
REMARK minimizedAffinity -4.70710802
REMARK minimizedRMSD -1
REMARK  0 active torsions:
REMARK  status: ('A' for Active; 'I' for Inactive)
ROOT
ATOM      1  C   UNL d   1      -2.015  -0.679   3.140  0.00  0.00     0.023 A 
ATOM      2  C1  UNL d   1      -2.764  -0.124   2.102  0.00  0.00     0.003 A 
ATOM      3  C2  UNL d   1      -2.145   0.220   0.899  0.00  0.00     0.048 A 
ATOM      4  C3  UNL d   1      -0.777   0.006   0.739  0.00  0.00     0.023 A 
ATOM      5  C4  UNL d   1      -0.023  -0.550   1.774  0.00  0.00     0.048 A 
ATOM      6  C5  UNL d   1      -0.647  -0.892   2.976  0.00  0.00     0.003 A 
ATOM      7  I   UNL d   1       0.147   0.517  -1.051  0.00  0.00    -0.146 I 
ENDROOT
TORSDOF 0
ENDMDL
