MODEL 1
REMARK minimizedAffinity -1.80127096
REMARK minimizedRMSD -1
REMARK  0 active torsions:
REMARK  status: ('A' for Active; 'I' for Inactive)
ROOT
ATOM      1  C   UNL d   1       0.429  -1.154  -3.844  0.00  0.00     0.023 A 
ATOM      2  C1  UNL d   1       1.547  -0.428  -3.434  0.00  0.00     0.003 A 
ATOM      3  C2  UNL d   1       1.605   0.096  -2.141  0.00  0.00     0.048 A 
ATOM      4  C3  UNL d   1       0.542  -0.110  -1.263  0.00  0.00     0.023 A 
ATOM      5  C4  UNL d   1      -0.578  -0.837  -1.668  0.00  0.00     0.048 A 
ATOM      6  C5  UNL d   1      -0.633  -1.358  -2.962  0.00  0.00     0.003 A 
ATOM      7  I   UNL d   1       0.627   0.669   0.662  0.00  0.00    -0.146 I 
ENDROOT
TORSDOF 0
ENDMDL
