MODEL 1
REMARK minimizedAffinity -3.59232593
REMARK minimizedRMSD -1
REMARK  0 active torsions:
REMARK  status: ('A' for Active; 'I' for Inactive)
ROOT
ATOM      1  C   UNL d   1      -0.393  -0.139   2.613  0.00  0.00     0.023 A 
ATOM      2  C1  UNL d   1       0.847   0.306   2.153  0.00  0.00     0.003 A 
ATOM      3  C2  UNL d   1       1.137   0.283   0.788  0.00  0.00     0.048 A 
ATOM      4  C3  UNL d   1       0.181  -0.185  -0.114  0.00  0.00     0.023 A 
ATOM      5  C4  UNL d   1      -1.061  -0.630   0.341  0.00  0.00     0.048 A 
ATOM      6  C5  UNL d   1      -1.346  -0.606   1.708  0.00  0.00     0.003 A 
ATOM      7  I   UNL d   1       0.610  -0.220  -2.147  0.00  0.00    -0.146 I 
ENDROOT
TORSDOF 0
ENDMDL
