MODEL 1
REMARK minimizedAffinity -4.50555563
REMARK minimizedRMSD -1
REMARK  0 active torsions:
REMARK  status: ('A' for Active; 'I' for Inactive)
ROOT
ATOM      1  C   UNL d   1      -1.703  -0.503   3.238  0.00  0.00     0.023 A 
ATOM      2  C1  UNL d   1      -2.659  -0.164   2.281  0.00  0.00     0.003 A 
ATOM      3  C2  UNL d   1      -2.272   0.076   0.961  0.00  0.00     0.048 A 
ATOM      4  C3  UNL d   1      -0.928  -0.027   0.604  0.00  0.00     0.023 A 
ATOM      5  C4  UNL d   1       0.032  -0.367   1.559  0.00  0.00     0.048 A 
ATOM      6  C5  UNL d   1      -0.359  -0.605   2.878  0.00  0.00     0.003 A 
ATOM      7  I   UNL d   1      -0.351   0.329  -1.360  0.00  0.00    -0.146 I 
ENDROOT
TORSDOF 0
ENDMDL
