MODEL 1
REMARK minimizedAffinity -5.16533089
REMARK minimizedRMSD -1
REMARK  0 active torsions:
REMARK  status: ('A' for Active; 'I' for Inactive)
ROOT
ATOM      1  C   UNL d   1      -1.657   0.076   3.191  0.00  0.00     0.023 A 
ATOM      2  C1  UNL d   1      -2.551   0.091   2.120  0.00  0.00     0.003 A 
ATOM      3  C2  UNL d   1      -2.074   0.190   0.812  0.00  0.00     0.048 A 
ATOM      4  C3  UNL d   1      -0.702   0.273   0.581  0.00  0.00     0.023 A 
ATOM      5  C4  UNL d   1       0.197   0.258   1.649  0.00  0.00     0.048 A 
ATOM      6  C5  UNL d   1      -0.285   0.160   2.955  0.00  0.00     0.003 A 
ATOM      7  I   UNL d   1       0.011   0.421  -1.366  0.00  0.00    -0.146 I 
ENDROOT
TORSDOF 0
ENDMDL
