MODEL 1
REMARK minimizedAffinity -4.21042967
REMARK minimizedRMSD -1
REMARK  0 active torsions:
REMARK  status: ('A' for Active; 'I' for Inactive)
ROOT
ATOM      1  C   UNL d   1       1.732   0.423   0.793  0.00  0.00     0.023 A 
ATOM      2  C1  UNL d   1       0.782   0.292  -0.220  0.00  0.00     0.003 A 
ATOM      3  C2  UNL d   1      -0.579   0.297   0.091  0.00  0.00     0.048 A 
ATOM      4  C3  UNL d   1      -0.984   0.435   1.418  0.00  0.00     0.023 A 
ATOM      5  C4  UNL d   1      -0.037   0.568   2.436  0.00  0.00     0.048 A 
ATOM      6  C5  UNL d   1       1.323   0.561   2.120  0.00  0.00     0.003 A 
ATOM      7  I   UNL d   1      -3.009   0.443   1.885  0.00  0.00    -0.146 I 
ENDROOT
TORSDOF 0
ENDMDL
