MODEL 1
REMARK minimizedAffinity -4.73951769
REMARK minimizedRMSD -1
REMARK  0 active torsions:
REMARK  status: ('A' for Active; 'I' for Inactive)
ROOT
ATOM      1  C   UNL d   1      -1.344  -0.644   3.209  0.00  0.00     0.023 A 
ATOM      2  C1  UNL d   1       0.009  -0.659   2.868  0.00  0.00     0.003 A 
ATOM      3  C2  UNL d   1       0.401  -0.411   1.551  0.00  0.00     0.048 A 
ATOM      4  C3  UNL d   1      -0.565  -0.147   0.580  0.00  0.00     0.023 A 
ATOM      5  C4  UNL d   1      -1.919  -0.131   0.916  0.00  0.00     0.048 A 
ATOM      6  C5  UNL d   1      -2.307  -0.381   2.234  0.00  0.00     0.003 A 
ATOM      7  I   UNL d   1       0.017   0.223  -1.381  0.00  0.00    -0.146 I 
ENDROOT
TORSDOF 0
ENDMDL
