MODEL 1
REMARK minimizedAffinity -5.32265759
REMARK minimizedRMSD -1
REMARK  0 active torsions:
REMARK  status: ('A' for Active; 'I' for Inactive)
ROOT
ATOM      1  C   UNL d   1      -2.167  -0.306   3.199  0.00  0.00     0.023 A 
ATOM      2  C1  UNL d   1      -2.876   0.001   2.038  0.00  0.00     0.003 A 
ATOM      3  C2  UNL d   1      -2.205   0.113   0.818  0.00  0.00     0.048 A 
ATOM      4  C3  UNL d   1      -0.825  -0.084   0.768  0.00  0.00     0.023 A 
ATOM      5  C4  UNL d   1      -0.112  -0.392   1.927  0.00  0.00     0.048 A 
ATOM      6  C5  UNL d   1      -0.787  -0.503   3.144  0.00  0.00     0.003 A 
ATOM      7  I   UNL d   1       0.176   0.083  -1.046  0.00  0.00    -0.146 I 
ENDROOT
TORSDOF 0
ENDMDL
