MODEL 1
REMARK minimizedAffinity -1.40371776
REMARK minimizedRMSD -1
REMARK  0 active torsions:
REMARK  status: ('A' for Active; 'I' for Inactive)
ROOT
ATOM      1  C   UNL d   1       1.751   0.099   0.981  0.00  0.00     0.023 A 
ATOM      2  C1  UNL d   1       0.890   0.219  -0.110  0.00  0.00     0.003 A 
ATOM      3  C2  UNL d   1      -0.470   0.458   0.095  0.00  0.00     0.048 A 
ATOM      4  C3  UNL d   1      -0.963   0.579   1.394  0.00  0.00     0.023 A 
ATOM      5  C4  UNL d   1      -0.105   0.461   2.489  0.00  0.00     0.048 A 
ATOM      6  C5  UNL d   1       1.254   0.220   2.279  0.00  0.00     0.003 A 
ATOM      7  I   UNL d   1      -2.987   0.936   1.702  0.00  0.00    -0.146 I 
ENDROOT
TORSDOF 0
ENDMDL
