MODEL 1
REMARK minimizedAffinity 0.817856193
REMARK minimizedRMSD -1
REMARK  0 active torsions:
REMARK  status: ('A' for Active; 'I' for Inactive)
ROOT
ATOM      1  C   UNL d   1       1.794   1.630   1.348  0.00  0.00     0.172 C 
ATOM      2  N   UNL d   1       0.432   1.155   1.262  0.00  0.00    -0.070 N 
ATOM      3  C1  UNL d   1      -0.106   0.459   0.213  0.00  0.00    -0.004 A 
ATOM      4  C2  UNL d   1      -1.424   0.192   0.515  0.00  0.00    -0.047 A 
ATOM      5  C3  UNL d   1      -1.687   0.748   1.790  0.00  0.00    -0.047 A 
ATOM      6  C4  UNL d   1      -0.520   1.338   2.230  0.00  0.00    -0.004 A 
ENDROOT
TORSDOF 0
ENDMDL
