MODEL 1
REMARK minimizedAffinity 2.24346042
REMARK minimizedRMSD -1
REMARK  0 active torsions:
REMARK  status: ('A' for Active; 'I' for Inactive)
ROOT
ATOM      1  C   UNL d   1      -3.004  -3.345   1.465  0.00  0.00     0.172 C 
ATOM      2  N   UNL d   1      -4.015  -4.240   0.953  0.00  0.00    -0.070 N 
ATOM      3  C1  UNL d   1      -3.784  -5.463   0.383  0.00  0.00    -0.004 A 
ATOM      4  C2  UNL d   1      -5.002  -6.000   0.028  0.00  0.00    -0.047 A 
ATOM      5  C3  UNL d   1      -6.000  -5.066   0.395  0.00  0.00    -0.047 A 
ATOM      6  C4  UNL d   1      -5.361  -3.985   0.965  0.00  0.00    -0.004 A 
ENDROOT
TORSDOF 0
ENDMDL
