MODEL 1
REMARK minimizedAffinity 1.75818253
REMARK minimizedRMSD -1
REMARK  0 active torsions:
REMARK  status: ('A' for Active; 'I' for Inactive)
ROOT
ATOM      1  C   UNL d   1      -5.998  -2.514   0.367  0.00  0.00     0.172 C 
ATOM      2  N   UNL d   1      -5.632  -3.909   0.293  0.00  0.00    -0.070 N 
ATOM      3  C1  UNL d   1      -4.874  -4.585   1.211  0.00  0.00    -0.004 A 
ATOM      4  C2  UNL d   1      -4.753  -5.889   0.781  0.00  0.00    -0.047 A 
ATOM      5  C3  UNL d   1      -5.462  -6.000  -0.439  0.00  0.00    -0.047 A 
ATOM      6  C4  UNL d   1      -5.997  -4.759  -0.717  0.00  0.00    -0.004 A 
ENDROOT
TORSDOF 0
ENDMDL
