MODEL 1
REMARK minimizedAffinity -0.550887048
REMARK minimizedRMSD -1
REMARK  0 active torsions:
REMARK  status: ('A' for Active; 'I' for Inactive)
ROOT
ATOM      1  C   UNL d   1      -0.634   0.961  -1.165  0.00  0.00     0.172 C 
ATOM      2  N   UNL d   1      -0.734   0.834   0.270  0.00  0.00    -0.070 N 
ATOM      3  C1  UNL d   1      -0.066   1.601   1.187  0.00  0.00    -0.004 A 
ATOM      4  C2  UNL d   1      -0.432   1.169   2.444  0.00  0.00    -0.047 A 
ATOM      5  C3  UNL d   1      -1.350   0.106   2.276  0.00  0.00    -0.047 A 
ATOM      6  C4  UNL d   1      -1.519  -0.081   0.920  0.00  0.00    -0.004 A 
ENDROOT
TORSDOF 0
ENDMDL
