MODEL 1
REMARK minimizedAffinity -0.737399697
REMARK minimizedRMSD -1
REMARK  0 active torsions:
REMARK  status: ('A' for Active; 'I' for Inactive)
ROOT
ATOM      1  C   UNL d   1      -1.725  -5.984   2.923  0.00  0.00     0.172 C 
ATOM      2  N   UNL d   1      -0.316  -5.990   3.241  0.00  0.00    -0.070 N 
ATOM      3  C1  UNL d   1       0.218  -5.993   4.502  0.00  0.00    -0.004 A 
ATOM      4  C2  UNL d   1       1.590  -5.999   4.379  0.00  0.00    -0.047 A 
ATOM      5  C3  UNL d   1       1.892  -6.000   2.996  0.00  0.00    -0.047 A 
ATOM      6  C4  UNL d   1       0.693  -5.994   2.314  0.00  0.00    -0.004 A 
ENDROOT
TORSDOF 0
ENDMDL
