MODEL 1
REMARK minimizedAffinity 1.58797109
REMARK minimizedRMSD -1
REMARK  0 active torsions:
REMARK  status: ('A' for Active; 'I' for Inactive)
ROOT
ATOM      1  C   UNL d   1       3.595   1.698   2.313  0.00  0.00     0.172 C 
ATOM      2  N   UNL d   1       2.383   0.983   1.993  0.00  0.00    -0.070 N 
ATOM      3  C1  UNL d   1       2.307  -0.333   1.620  0.00  0.00    -0.004 A 
ATOM      4  C2  UNL d   1       0.980  -0.635   1.405  0.00  0.00    -0.047 A 
ATOM      5  C3  UNL d   1       0.232   0.540   1.656  0.00  0.00    -0.047 A 
ATOM      6  C4  UNL d   1       1.125   1.526   2.018  0.00  0.00    -0.004 A 
ENDROOT
TORSDOF 0
ENDMDL
