MODEL 1
REMARK minimizedAffinity 2.36806059
REMARK minimizedRMSD -1
REMARK  0 active torsions:
REMARK  status: ('A' for Active; 'I' for Inactive)
ROOT
ATOM      1  C   UNL d   1      -1.394  -0.867   2.945  0.00  0.00     0.172 C 
ATOM      2  N   UNL d   1      -0.540  -0.275   1.942  0.00  0.00    -0.070 N 
ATOM      3  C1  UNL d   1      -0.084   1.016   1.942  0.00  0.00    -0.004 A 
ATOM      4  C2  UNL d   1       0.698   1.188   0.820  0.00  0.00    -0.047 A 
ATOM      5  C3  UNL d   1       0.711  -0.043   0.121  0.00  0.00    -0.047 A 
ATOM      6  C4  UNL d   1      -0.063  -0.931   0.838  0.00  0.00    -0.004 A 
ENDROOT
TORSDOF 0
ENDMDL
