MODEL 1
REMARK minimizedAffinity 2.01783371
REMARK minimizedRMSD -1
REMARK  0 active torsions:
REMARK  status: ('A' for Active; 'I' for Inactive)
ROOT
ATOM      1  C   UNL d   1       1.864  -5.913   2.588  0.00  0.00     0.172 C 
ATOM      2  N   UNL d   1       0.421  -5.947   2.615  0.00  0.00    -0.070 N 
ATOM      3  C1  UNL d   1      -0.398  -5.967   1.518  0.00  0.00    -0.004 A 
ATOM      4  C2  UNL d   1      -1.702  -5.998   1.964  0.00  0.00    -0.047 A 
ATOM      5  C3  UNL d   1      -1.665  -5.995   3.379  0.00  0.00    -0.047 A 
ATOM      6  C4  UNL d   1      -0.338  -5.964   3.755  0.00  0.00    -0.004 A 
ENDROOT
TORSDOF 0
ENDMDL
