MODEL 1
REMARK minimizedAffinity 3.13871288
REMARK minimizedRMSD -1
REMARK  0 active torsions:
REMARK  status: ('A' for Active; 'I' for Inactive)
ROOT
ATOM      1  C   UNL d   1       1.887  -4.519   5.999  0.00  0.00     0.172 C 
ATOM      2  N   UNL d   1       1.512  -4.900   4.658  0.00  0.00    -0.070 N 
ATOM      3  C1  UNL d   1       0.749  -5.986   4.320  0.00  0.00    -0.004 A 
ATOM      4  C2  UNL d   1       0.618  -6.000   2.948  0.00  0.00    -0.047 A 
ATOM      5  C3  UNL d   1       1.329  -4.885   2.444  0.00  0.00    -0.047 A 
ATOM      6  C4  UNL d   1       1.872  -4.221   3.524  0.00  0.00    -0.004 A 
ENDROOT
TORSDOF 0
ENDMDL
