MODEL 1
REMARK minimizedAffinity 5.5990262
REMARK minimizedRMSD -1
REMARK  0 active torsions:
REMARK  status: ('A' for Active; 'I' for Inactive)
ROOT
ATOM      1  C   UNL d   1       0.257  -5.992   1.944  0.00  0.00     0.172 C 
ATOM      2  N   UNL d   1      -1.185  -5.995   1.862  0.00  0.00    -0.070 N 
ATOM      3  C1  UNL d   1      -1.919  -5.995   0.707  0.00  0.00    -0.004 A 
ATOM      4  C2  UNL d   1      -3.253  -5.998   1.054  0.00  0.00    -0.047 A 
ATOM      5  C3  UNL d   1      -3.322  -6.000   2.467  0.00  0.00    -0.047 A 
ATOM      6  C4  UNL d   1      -2.028  -5.998   2.942  0.00  0.00    -0.004 A 
ENDROOT
TORSDOF 0
ENDMDL
