MODEL 1
REMARK minimizedAffinity 2.90279317
REMARK minimizedRMSD -1
REMARK  0 active torsions:
REMARK  status: ('A' for Active; 'I' for Inactive)
ROOT
ATOM      1  C   UNL d   1      -1.589  -2.213  -4.293  0.00  0.00     0.172 C 
ATOM      2  N   UNL d   1      -2.731  -1.822  -3.500  0.00  0.00    -0.070 N 
ATOM      3  C1  UNL d   1      -2.907  -2.086  -2.168  0.00  0.00    -0.004 A 
ATOM      4  C2  UNL d   1      -4.117  -1.548  -1.787  0.00  0.00    -0.047 A 
ATOM      5  C3  UNL d   1      -4.688  -0.939  -2.930  0.00  0.00    -0.047 A 
ATOM      6  C4  UNL d   1      -3.810  -1.124  -3.976  0.00  0.00    -0.004 A 
ENDROOT
TORSDOF 0
ENDMDL
