MODEL 1
REMARK minimizedAffinity 0.891712248
REMARK minimizedRMSD -1
REMARK  0 active torsions:
REMARK  status: ('A' for Active; 'I' for Inactive)
ROOT
ATOM      1  C   UNL d   1       1.525  -6.000   5.931  0.00  0.00     0.172 C 
ATOM      2  N   UNL d   1       1.081  -5.999   4.557  0.00  0.00    -0.070 N 
ATOM      3  C1  UNL d   1      -0.223  -5.997   4.139  0.00  0.00    -0.004 A 
ATOM      4  C2  UNL d   1      -0.225  -5.996   2.761  0.00  0.00    -0.047 A 
ATOM      5  C3  UNL d   1       1.124  -5.998   2.336  0.00  0.00    -0.047 A 
ATOM      6  C4  UNL d   1       1.912  -5.999   3.468  0.00  0.00    -0.004 A 
ENDROOT
TORSDOF 0
ENDMDL
