MODEL 1
REMARK minimizedAffinity 0.929310739
REMARK minimizedRMSD -1
REMARK  0 active torsions:
REMARK  status: ('A' for Active; 'I' for Inactive)
ROOT
ATOM      1  C   UNL d   1       3.810  -6.000   3.011  0.00  0.00     0.172 C 
ATOM      2  N   UNL d   1       2.385  -5.992   3.241  0.00  0.00    -0.070 N 
ATOM      3  C1  UNL d   1       1.419  -6.000   2.270  0.00  0.00    -0.004 A 
ATOM      4  C2  UNL d   1       0.191  -5.989   2.895  0.00  0.00    -0.047 A 
ATOM      5  C3  UNL d   1       0.426  -5.974   4.290  0.00  0.00    -0.047 A 
ATOM      6  C4  UNL d   1       1.793  -5.976   4.476  0.00  0.00    -0.004 A 
ENDROOT
TORSDOF 0
ENDMDL
