MODEL 1
REMARK minimizedAffinity 0.0214623325
REMARK minimizedRMSD -1
REMARK  0 active torsions:
REMARK  status: ('A' for Active; 'I' for Inactive)
ROOT
ATOM      1  C   UNL d   1       3.374  -5.990   2.992  0.00  0.00     0.172 C 
ATOM      2  N   UNL d   1       1.960  -5.994   3.283  0.00  0.00    -0.070 N 
ATOM      3  C1  UNL d   1       1.401  -5.997   4.533  0.00  0.00    -0.004 A 
ATOM      4  C2  UNL d   1       0.031  -5.999   4.383  0.00  0.00    -0.047 A 
ATOM      5  C3  UNL d   1      -0.243  -5.999   2.995  0.00  0.00    -0.047 A 
ATOM      6  C4  UNL d   1       0.969  -5.995   2.337  0.00  0.00    -0.004 A 
ENDROOT
TORSDOF 0
ENDMDL
