MODEL 1
REMARK minimizedAffinity 4.68069935
REMARK minimizedRMSD -1
REMARK  0 active torsions:
REMARK  status: ('A' for Active; 'I' for Inactive)
ROOT
ATOM      1  C   UNL d   1      -3.584  -1.007  -2.518  0.00  0.00     0.172 C 
ATOM      2  N   UNL d   1      -2.782  -1.727  -3.478  0.00  0.00    -0.070 N 
ATOM      3  C1  UNL d   1      -1.997  -1.162  -4.447  0.00  0.00    -0.004 A 
ATOM      4  C2  UNL d   1      -1.398  -2.182  -5.154  0.00  0.00    -0.047 A 
ATOM      5  C3  UNL d   1      -1.839  -3.403  -4.590  0.00  0.00    -0.047 A 
ATOM      6  C4  UNL d   1      -2.695  -3.092  -3.555  0.00  0.00    -0.004 A 
ENDROOT
TORSDOF 0
ENDMDL
