MODEL 1
REMARK minimizedAffinity 10.8875999
REMARK minimizedRMSD -1
REMARK  2 active torsions:
REMARK  status: ('A' for Active; 'I' for Inactive)
REMARK    1  A    between atoms: C1_2  and  C2_3 
REMARK    2  A    between atoms: C2_3  and  C3_4 
ROOT
ATOM      1  C3  UNL d   1      -2.344  -4.184  -5.881  0.00  0.00    -0.075 A 
ATOM      2  C4  UNL d   1      -0.967  -4.435  -5.808  0.00  0.00     0.002 A 
ATOM      3  C5  UNL d   1      -0.055  -3.379  -5.772  0.00  0.00     0.002 A 
ATOM      4  C6  UNL d   1      -0.508  -2.062  -5.821  0.00  0.00    -0.004 A 
ATOM      5  C7  UNL d   1      -1.874  -1.801  -5.911  0.00  0.00     0.002 A 
ATOM      6  C8  UNL d   1      -2.788  -2.856  -5.941  0.00  0.00     0.002 A 
ENDROOT
BRANCH   1   7
ATOM      7  C2  UNL d   1      -3.337  -5.321  -5.890  0.00  0.00     0.056 C 
BRANCH   7   8
ATOM      8  C1  UNL d   1      -4.799  -4.873  -5.994  0.00  0.00     0.007 C 
ATOM      9  C   UNL d   1      -5.792  -5.981  -5.669  0.00  0.00     0.009 C 
ENDBRANCH   7   8
ENDBRANCH   1   7
TORSDOF 2
ENDMDL
