MODEL 1
REMARK minimizedAffinity 5.14006042
REMARK minimizedRMSD -1
REMARK  2 active torsions:
REMARK  status: ('A' for Active; 'I' for Inactive)
REMARK    1  A    between atoms: C1_2  and  C2_3 
REMARK    2  A    between atoms: C2_3  and  C3_4 
ROOT
ATOM      1  C3  UNL d   1       0.003   3.688  -0.742  0.00  0.00    -0.075 A 
ATOM      2  C4  UNL d   1      -0.368   4.853  -0.055  0.00  0.00     0.002 A 
ATOM      3  C5  UNL d   1      -0.743   5.999  -0.756  0.00  0.00     0.002 A 
ATOM      4  C6  UNL d   1      -0.742   5.999  -2.149  0.00  0.00    -0.004 A 
ATOM      5  C7  UNL d   1      -0.360   4.853  -2.842  0.00  0.00     0.002 A 
ATOM      6  C8  UNL d   1       0.012   3.703  -2.143  0.00  0.00     0.002 A 
ENDROOT
BRANCH   1   7
ATOM      7  C2  UNL d   1       0.381   2.434   0.011  0.00  0.00     0.056 C 
BRANCH   7   8
ATOM      8  C1  UNL d   1      -0.305   2.294   1.374  0.00  0.00     0.007 C 
ATOM      9  C   UNL d   1       0.652   1.895   2.489  0.00  0.00     0.009 C 
ENDBRANCH   7   8
ENDBRANCH   1   7
TORSDOF 2
ENDMDL
