MODEL 1
REMARK minimizedAffinity 2.69953704
REMARK minimizedRMSD -1
REMARK  2 active torsions:
REMARK  status: ('A' for Active; 'I' for Inactive)
REMARK    1  A    between atoms: C1_2  and  C2_3 
REMARK    2  A    between atoms: C2_3  and  C3_4 
ROOT
ATOM      1  C3  UNL d   1      -0.445  -4.969  -4.255  0.00  0.00    -0.075 A 
ATOM      2  C4  UNL d   1      -1.397  -5.994  -4.160  0.00  0.00     0.002 A 
ATOM      3  C5  UNL d   1      -2.522  -5.994  -4.987  0.00  0.00     0.002 A 
ATOM      4  C6  UNL d   1      -2.713  -4.967  -5.908  0.00  0.00    -0.004 A 
ATOM      5  C7  UNL d   1      -1.781  -3.935  -5.999  0.00  0.00     0.002 A 
ATOM      6  C8  UNL d   1      -0.653  -3.935  -5.176  0.00  0.00     0.002 A 
ENDROOT
BRANCH   1   7
ATOM      7  C2  UNL d   1       0.789  -4.979  -3.384  0.00  0.00     0.056 C 
BRANCH   7   8
ATOM      8  C1  UNL d   1       0.492  -5.057  -1.882  0.00  0.00     0.007 C 
ATOM      9  C   UNL d   1       0.802  -3.763  -1.142  0.00  0.00     0.009 C 
ENDBRANCH   7   8
ENDBRANCH   1   7
TORSDOF 2
ENDMDL
