MODEL 1
REMARK minimizedAffinity -2.11437511
REMARK minimizedRMSD -1
REMARK  2 active torsions:
REMARK  status: ('A' for Active; 'I' for Inactive)
REMARK    1  A    between atoms: C1_2  and  C2_3 
REMARK    2  A    between atoms: C2_3  and  C3_4 
ROOT
ATOM      1  C3  UNL d   1      -3.291  -2.951   5.247  0.00  0.00    -0.075 A 
ATOM      2  C4  UNL d   1      -3.670  -2.238   4.101  0.00  0.00     0.002 A 
ATOM      3  C5  UNL d   1      -5.012  -2.158   3.728  0.00  0.00     0.002 A 
ATOM      4  C6  UNL d   1      -5.989  -2.797   4.489  0.00  0.00    -0.004 A 
ATOM      5  C7  UNL d   1      -5.621  -3.522   5.621  0.00  0.00     0.002 A 
ATOM      6  C8  UNL d   1      -4.280  -3.600   5.999  0.00  0.00     0.002 A 
ENDROOT
BRANCH   1   7
ATOM      7  C2  UNL d   1      -1.843  -3.017   5.673  0.00  0.00     0.056 C 
BRANCH   7   8
ATOM      8  C1  UNL d   1      -1.211  -1.648   5.948  0.00  0.00     0.007 C 
ATOM      9  C   UNL d   1       0.309  -1.662   5.868  0.00  0.00     0.009 C 
ENDBRANCH   7   8
ENDBRANCH   1   7
TORSDOF 2
ENDMDL
