MODEL 1
REMARK minimizedAffinity -1.04821837
REMARK minimizedRMSD -1
REMARK  0 active torsions:
REMARK  status: ('A' for Active; 'I' for Inactive)
ROOT
ATOM      1  N1  IND d   1       3.296   4.639   1.941  0.00  0.00    -0.196 N 
ATOM      2  C2  IND d   1       4.516   4.959   2.468  0.00  0.00     0.054 A 
ATOM      3  C3  IND d   1       5.318   5.483   1.513  0.00  0.00    -0.031 A 
ATOM      4  C4  IND d   1       4.799   5.999  -0.956  0.00  0.00     0.051 A 
ATOM      5  C5  IND d   1       3.829   5.848  -1.907  0.00  0.00    -0.031 A 
ATOM      6  C6  IND d   1       2.607   5.278  -1.618  0.00  0.00     0.015 A 
ATOM      7  C7  IND d   1       2.303   4.845  -0.358  0.00  0.00    -0.016 A 
ATOM      8  C8  IND d   1       3.287   4.990   0.609  0.00  0.00    -0.047 A 
ATOM      9  C9  IND d   1       4.546   5.529   0.312  0.00  0.00    -0.096 A 
ATOM     10  HN1 IND d   1       2.644   4.279   2.370  0.00  0.00     0.298 HD
ENDROOT
TORSDOF 0
ENDMDL
