MODEL 1
REMARK minimizedAffinity 12.6741371
REMARK minimizedRMSD -1
REMARK  0 active torsions:
REMARK  status: ('A' for Active; 'I' for Inactive)
ROOT
ATOM      1  N1  IND d   1       1.927  -5.714   3.455  0.00  0.00    -0.196 N 
ATOM      2  C2  IND d   1       2.181  -5.690   2.112  0.00  0.00     0.054 A 
ATOM      3  C3  IND d   1       3.512  -5.742   1.883  0.00  0.00    -0.031 A 
ATOM      4  C4  IND d   1       5.451  -5.975   3.560  0.00  0.00     0.051 A 
ATOM      5  C5  IND d   1       5.720  -6.000   4.900  0.00  0.00    -0.031 A 
ATOM      6  C6  IND d   1       4.717  -5.932   5.846  0.00  0.00     0.015 A 
ATOM      7  C7  IND d   1       3.402  -5.848   5.485  0.00  0.00    -0.016 A 
ATOM      8  C8  IND d   1       3.126  -5.816   4.125  0.00  0.00    -0.047 A 
ATOM      9  C9  IND d   1       4.143  -5.841   3.161  0.00  0.00    -0.096 A 
ATOM     10  HN1 IND d   1       1.150  -5.673   3.819  0.00  0.00     0.298 HD
ENDROOT
TORSDOF 0
ENDMDL
