MODEL 1
REMARK minimizedAffinity 5.3696146
REMARK minimizedRMSD -1
REMARK  0 active torsions:
REMARK  status: ('A' for Active; 'I' for Inactive)
ROOT
ATOM      1  N1  IND d   1       0.922  -0.229  -1.298  0.00  0.00    -0.196 N 
ATOM      2  C2  IND d   1       1.696  -1.352  -1.392  0.00  0.00     0.054 A 
ATOM      3  C3  IND d   1       2.580  -1.230  -2.408  0.00  0.00    -0.031 A 
ATOM      4  C4  IND d   1       3.001   0.766  -3.979  0.00  0.00     0.051 A 
ATOM      5  C5  IND d   1       2.519   2.003  -4.301  0.00  0.00    -0.031 A 
ATOM      6  C6  IND d   1       1.460   2.572  -3.624  0.00  0.00     0.015 A 
ATOM      7  C7  IND d   1       0.849   1.927  -2.587  0.00  0.00    -0.016 A 
ATOM      8  C8  IND d   1       1.331   0.667  -2.261  0.00  0.00    -0.047 A 
ATOM      9  C9  IND d   1       2.378   0.067  -2.972  0.00  0.00    -0.096 A 
ATOM     10  HN1 IND d   1       0.287  -0.104  -0.732  0.00  0.00     0.298 HD
ENDROOT
TORSDOF 0
ENDMDL
