MODEL 1
REMARK minimizedAffinity 1.15633035
REMARK minimizedRMSD -1
REMARK  0 active torsions:
REMARK  status: ('A' for Active; 'I' for Inactive)
ROOT
ATOM      1  N1  IND d   1       4.633   4.204  -3.945  0.00  0.00    -0.196 N 
ATOM      2  C2  IND d   1       3.444   4.125  -3.274  0.00  0.00     0.054 A 
ATOM      3  C3  IND d   1       2.939   2.874  -3.358  0.00  0.00    -0.031 A 
ATOM      4  C4  IND d   1       3.942   0.775  -4.460  0.00  0.00     0.051 A 
ATOM      5  C5  IND d   1       4.993   0.360  -5.228  0.00  0.00    -0.031 A 
ATOM      6  C6  IND d   1       6.000   1.221  -5.613  0.00  0.00     0.015 A 
ATOM      7  C7  IND d   1       5.998   2.534  -5.233  0.00  0.00    -0.016 A 
ATOM      8  C8  IND d   1       4.929   2.961  -4.459  0.00  0.00    -0.047 A 
ATOM      9  C9  IND d   1       3.882   2.101  -4.101  0.00  0.00    -0.096 A 
ATOM     10  HN1 IND d   1       5.114   4.911  -4.032  0.00  0.00     0.298 HD
ENDROOT
TORSDOF 0
ENDMDL
