MODEL 1
REMARK minimizedAffinity 11.7311001
REMARK minimizedRMSD -1
REMARK  0 active torsions:
REMARK  status: ('A' for Active; 'I' for Inactive)
ROOT
ATOM      1  N1  IND d   1      -1.393  -1.801  -2.184  0.00  0.00    -0.196 N 
ATOM      2  C2  IND d   1      -1.865  -1.104  -1.107  0.00  0.00     0.054 A 
ATOM      3  C3  IND d   1      -0.843  -0.723  -0.309  0.00  0.00    -0.031 A 
ATOM      4  C4  IND d   1       1.691  -1.047  -0.629  0.00  0.00     0.051 A 
ATOM      5  C5  IND d   1       2.605  -1.655  -1.443  0.00  0.00    -0.031 A 
ATOM      6  C6  IND d   1       2.225  -2.355  -2.571  0.00  0.00     0.015 A 
ATOM      7  C7  IND d   1       0.912  -2.463  -2.933  0.00  0.00    -0.016 A 
ATOM      8  C8  IND d   1      -0.019  -1.853  -2.105  0.00  0.00    -0.047 A 
ATOM      9  C9  IND d   1       0.357  -1.177  -0.937  0.00  0.00    -0.096 A 
ATOM     10  HN1 IND d   1      -1.874  -2.149  -2.807  0.00  0.00     0.298 HD
ENDROOT
TORSDOF 0
ENDMDL
