MODEL 1
REMARK minimizedAffinity 10.5656385
REMARK minimizedRMSD -1
REMARK  0 active torsions:
REMARK  status: ('A' for Active; 'I' for Inactive)
ROOT
ATOM      1  N1  IND d   1       2.699  -1.734  -1.525  0.00  0.00    -0.196 N 
ATOM      2  C2  IND d   1       1.975  -2.636  -0.797  0.00  0.00     0.054 A 
ATOM      3  C3  IND d   1       0.795  -2.097  -0.418  0.00  0.00    -0.031 A 
ATOM      4  C4  IND d   1      -0.198   0.214  -0.968  0.00  0.00     0.051 A 
ATOM      5  C5  IND d   1       0.107   1.402  -1.572  0.00  0.00    -0.031 A 
ATOM      6  C6  IND d   1       1.314   1.608  -2.207  0.00  0.00     0.015 A 
ATOM      7  C7  IND d   1       2.262   0.626  -2.271  0.00  0.00    -0.016 A 
ATOM      8  C8  IND d   1       1.959  -0.579  -1.652  0.00  0.00    -0.047 A 
ATOM      9  C9  IND d   1       0.752  -0.779  -0.970  0.00  0.00    -0.096 A 
ATOM     10  HN1 IND d   1       3.485  -1.865  -1.848  0.00  0.00     0.298 HD
ENDROOT
TORSDOF 0
ENDMDL
