MODEL 1
REMARK minimizedAffinity 8.54318619
REMARK minimizedRMSD -1
REMARK  0 active torsions:
REMARK  status: ('A' for Active; 'I' for Inactive)
ROOT
ATOM      1  N1  IND d   1       3.376  -1.690   3.016  0.00  0.00    -0.196 N 
ATOM      2  C2  IND d   1       4.712  -1.771   3.292  0.00  0.00     0.054 A 
ATOM      3  C3  IND d   1       5.329  -2.579   2.400  0.00  0.00    -0.031 A 
ATOM      4  C4  IND d   1       4.358  -3.789   0.346  0.00  0.00     0.051 A 
ATOM      5  C5  IND d   1       3.179  -4.046  -0.295  0.00  0.00    -0.031 A 
ATOM      6  C6  IND d   1       1.981  -3.518   0.142  0.00  0.00     0.015 A 
ATOM      7  C7  IND d   1       1.920  -2.700   1.235  0.00  0.00    -0.016 A 
ATOM      8  C8  IND d   1       3.114  -2.443   1.892  0.00  0.00    -0.047 A 
ATOM      9  C9  IND d   1       4.326  -3.010   1.479  0.00  0.00    -0.096 A 
ATOM     10  HN1 IND d   1       2.796  -1.244   3.468  0.00  0.00     0.298 HD
ENDROOT
TORSDOF 0
ENDMDL
