MODEL 1
REMARK minimizedAffinity -0.746907115
REMARK minimizedRMSD -1
REMARK  0 active torsions:
REMARK  status: ('A' for Active; 'I' for Inactive)
ROOT
ATOM      1  N1  IND d   1       1.220   0.762  -2.073  0.00  0.00    -0.196 N 
ATOM      2  C2  IND d   1       0.089   1.089  -1.379  0.00  0.00     0.054 A 
ATOM      3  C3  IND d   1      -0.210   0.121  -0.484  0.00  0.00    -0.031 A 
ATOM      4  C4  IND d   1       1.074  -2.037   0.082  0.00  0.00     0.051 A 
ATOM      5  C5  IND d   1       2.147  -2.786  -0.312  0.00  0.00    -0.031 A 
ATOM      6  C6  IND d   1       2.984  -2.382  -1.331  0.00  0.00     0.015 A 
ATOM      7  C7  IND d   1       2.785  -1.202  -1.991  0.00  0.00    -0.016 A 
ATOM      8  C8  IND d   1       1.693  -0.442  -1.598  0.00  0.00    -0.047 A 
ATOM      9  C9  IND d   1       0.815  -0.867  -0.593  0.00  0.00    -0.096 A 
ATOM     10  HN1 IND d   1       1.577   1.229  -2.701  0.00  0.00     0.298 HD
ENDROOT
TORSDOF 0
ENDMDL
