MODEL 1
REMARK minimizedAffinity 11.0966434
REMARK minimizedRMSD -1
REMARK  0 active torsions:
REMARK  status: ('A' for Active; 'I' for Inactive)
ROOT
ATOM      1  N1  IND d   1      -1.445  -0.584  -1.030  0.00  0.00    -0.196 N 
ATOM      2  C2  IND d   1      -1.079  -1.654  -1.798  0.00  0.00     0.054 A 
ATOM      3  C3  IND d   1       0.209  -1.534  -2.189  0.00  0.00    -0.031 A 
ATOM      4  C4  IND d   1       1.934   0.284  -1.600  0.00  0.00     0.051 A 
ATOM      5  C5  IND d   1       2.058   1.483  -0.957  0.00  0.00    -0.031 A 
ATOM      6  C6  IND d   1       0.999   2.066  -0.290  0.00  0.00     0.015 A 
ATOM      7  C7  IND d   1      -0.225   1.461  -0.231  0.00  0.00    -0.016 A 
ATOM      8  C8  IND d   1      -0.356   0.247  -0.889  0.00  0.00    -0.047 A 
ATOM      9  C9  IND d   1       0.703  -0.329  -1.603  0.00  0.00    -0.096 A 
ATOM     10  HN1 IND d   1      -2.225  -0.452  -0.693  0.00  0.00     0.298 HD
ENDROOT
TORSDOF 0
ENDMDL
