MODEL 1
REMARK minimizedAffinity 12.4624424
REMARK minimizedRMSD -1
REMARK  0 active torsions:
REMARK  status: ('A' for Active; 'I' for Inactive)
ROOT
ATOM      1  N1  IND d   1       1.482   2.641   2.265  0.00  0.00    -0.196 N 
ATOM      2  C2  IND d   1       2.733   2.290   1.839  0.00  0.00     0.054 A 
ATOM      3  C3  IND d   1       2.713   1.986   0.522  0.00  0.00    -0.031 A 
ATOM      4  C4  IND d   1       0.760   2.096  -1.153  0.00  0.00     0.051 A 
ATOM      5  C5  IND d   1      -0.585   2.327  -1.225  0.00  0.00    -0.031 A 
ATOM      6  C6  IND d   1      -1.324   2.684  -0.116  0.00  0.00     0.015 A 
ATOM      7  C7  IND d   1      -0.741   2.835   1.110  0.00  0.00    -0.016 A 
ATOM      8  C8  IND d   1       0.623   2.595   1.189  0.00  0.00    -0.047 A 
ATOM      9  C9  IND d   1       1.371   2.191   0.076  0.00  0.00    -0.096 A 
ATOM     10  HN1 IND d   1       1.268   2.854   3.070  0.00  0.00     0.298 HD
ENDROOT
TORSDOF 0
ENDMDL
