MODEL 1
REMARK minimizedAffinity 13.8408327
REMARK minimizedRMSD -1
REMARK  0 active torsions:
REMARK  status: ('A' for Active; 'I' for Inactive)
ROOT
ATOM      1  N1  IND d   1      -1.152   1.016  -0.693  0.00  0.00    -0.196 N 
ATOM      2  C2  IND d   1      -2.128   0.068  -0.565  0.00  0.00     0.054 A 
ATOM      3  C3  IND d   1      -1.617  -1.166  -0.779  0.00  0.00    -0.031 A 
ATOM      4  C4  IND d   1       0.813  -1.870  -1.250  0.00  0.00     0.051 A 
ATOM      5  C5  IND d   1       2.056  -1.356  -1.493  0.00  0.00    -0.031 A 
ATOM      6  C6  IND d   1       2.298   0.003  -1.479  0.00  0.00     0.015 A 
ATOM      7  C7  IND d   1       1.305   0.901  -1.209  0.00  0.00    -0.016 A 
ATOM      8  C8  IND d   1       0.040   0.383  -0.968  0.00  0.00    -0.047 A 
ATOM      9  C9  IND d   1      -0.221  -0.993  -1.023  0.00  0.00    -0.096 A 
ATOM     10  HN1 IND d   1      -1.263   1.865  -0.614  0.00  0.00     0.298 HD
ENDROOT
TORSDOF 0
ENDMDL
