MODEL 1
REMARK minimizedAffinity 6.56673479
REMARK minimizedRMSD -1
REMARK  0 active torsions:
REMARK  status: ('A' for Active; 'I' for Inactive)
ROOT
ATOM      1  N1  IND d   1       0.237   1.242  -1.016  0.00  0.00    -0.196 N 
ATOM      2  C2  IND d   1       0.551   2.454  -1.564  0.00  0.00     0.054 A 
ATOM      3  C3  IND d   1       1.684   2.360  -2.295  0.00  0.00    -0.031 A 
ATOM      4  C4  IND d   1       3.129   0.294  -2.814  0.00  0.00     0.051 A 
ATOM      5  C5  IND d   1       3.263  -1.032  -2.508  0.00  0.00    -0.031 A 
ATOM      6  C6  IND d   1       2.375  -1.681  -1.674  0.00  0.00     0.015 A 
ATOM      7  C7  IND d   1       1.310  -1.028  -1.122  0.00  0.00    -0.016 A 
ATOM      8  C8  IND d   1       1.175   0.319  -1.425  0.00  0.00    -0.047 A 
ATOM      9  C9  IND d   1       2.096   0.993  -2.237  0.00  0.00    -0.096 A 
ATOM     10  HN1 IND d   1      -0.434   1.082  -0.502  0.00  0.00     0.298 HD
ENDROOT
TORSDOF 0
ENDMDL
