MODEL 1
REMARK minimizedAffinity 7.47893333
REMARK minimizedRMSD -1
REMARK  0 active torsions:
REMARK  status: ('A' for Active; 'I' for Inactive)
ROOT
ATOM      1  N1  IND d   1       3.139  -3.912  -0.031  0.00  0.00    -0.196 N 
ATOM      2  C2  IND d   1       2.110  -4.582   0.570  0.00  0.00     0.054 A 
ATOM      3  C3  IND d   1       0.925  -4.029   0.227  0.00  0.00    -0.031 A 
ATOM      4  C4  IND d   1       0.434  -2.085  -1.388  0.00  0.00     0.051 A 
ATOM      5  C5  IND d   1       1.054  -1.135  -2.150  0.00  0.00    -0.031 A 
ATOM      6  C6  IND d   1       2.428  -1.062  -2.249  0.00  0.00     0.015 A 
ATOM      7  C7  IND d   1       3.237  -1.948  -1.595  0.00  0.00    -0.016 A 
ATOM      8  C8  IND d   1       2.611  -2.910  -0.815  0.00  0.00    -0.047 A 
ATOM      9  C9  IND d   1       1.218  -2.962  -0.677  0.00  0.00    -0.096 A 
ATOM     10  HN1 IND d   1       3.975  -4.088   0.064  0.00  0.00     0.298 HD
ENDROOT
TORSDOF 0
ENDMDL
