MODEL 1
REMARK minimizedAffinity 4.32634401
REMARK minimizedRMSD -1
REMARK  0 active torsions:
REMARK  status: ('A' for Active; 'I' for Inactive)
ROOT
ATOM      1  N1  IND d   1       0.472  -1.950  -0.781  0.00  0.00    -0.196 N 
ATOM      2  C2  IND d   1       0.943  -1.708  -2.041  0.00  0.00     0.054 A 
ATOM      3  C3  IND d   1       2.037  -2.462  -2.288  0.00  0.00    -0.031 A 
ATOM      4  C4  IND d   1       3.170  -4.235  -0.805  0.00  0.00     0.051 A 
ATOM      5  C5  IND d   1       3.124  -4.781   0.447  0.00  0.00    -0.031 A 
ATOM      6  C6  IND d   1       2.170  -4.406   1.372  0.00  0.00     0.015 A 
ATOM      7  C7  IND d   1       1.216  -3.475   1.073  0.00  0.00    -0.016 A 
ATOM      8  C8  IND d   1       1.265  -2.913  -0.195  0.00  0.00    -0.047 A 
ATOM      9  C9  IND d   1       2.256  -3.258  -1.122  0.00  0.00    -0.096 A 
ATOM     10  HN1 IND d   1      -0.204  -1.566  -0.415  0.00  0.00     0.298 HD
ENDROOT
TORSDOF 0
ENDMDL
