MODEL 1
REMARK minimizedAffinity -1.96435893
REMARK minimizedRMSD -1
REMARK  0 active torsions:
REMARK  status: ('A' for Active; 'I' for Inactive)
ROOT
ATOM      1  N1  IND d   1      -0.723   0.667  -0.913  0.00  0.00    -0.196 N 
ATOM      2  C2  IND d   1      -0.210   1.738  -1.589  0.00  0.00     0.054 A 
ATOM      3  C3  IND d   1       1.018   1.446  -2.072  0.00  0.00    -0.031 A 
ATOM      4  C4  IND d   1       2.337  -0.762  -1.958  0.00  0.00     0.051 A 
ATOM      5  C5  IND d   1       2.296  -2.014  -1.413  0.00  0.00    -0.031 A 
ATOM      6  C6  IND d   1       1.223  -2.447  -0.660  0.00  0.00     0.015 A 
ATOM      7  C7  IND d   1       0.142  -1.643  -0.433  0.00  0.00    -0.016 A 
ATOM      8  C8  IND d   1       0.184  -0.368  -0.979  0.00  0.00    -0.047 A 
ATOM      9  C9  IND d   1       1.288   0.091  -1.708  0.00  0.00    -0.096 A 
ATOM     10  HN1 IND d   1      -1.484   0.643  -0.513  0.00  0.00     0.298 HD
ENDROOT
TORSDOF 0
ENDMDL
