MODEL 1
REMARK minimizedAffinity 1.58604622
REMARK minimizedRMSD -1
REMARK  0 active torsions:
REMARK  status: ('A' for Active; 'I' for Inactive)
ROOT
ATOM      1  N1  IND d   1       1.221   1.023  -2.551  0.00  0.00    -0.196 N 
ATOM      2  C2  IND d   1       1.876   2.217  -2.669  0.00  0.00     0.054 A 
ATOM      3  C3  IND d   1       3.155   2.095  -2.248  0.00  0.00    -0.031 A 
ATOM      4  C4  IND d   1       4.414   0.007  -1.424  0.00  0.00     0.051 A 
ATOM      5  C5  IND d   1       4.226  -1.310  -1.108  0.00  0.00    -0.031 A 
ATOM      6  C6  IND d   1       3.003  -1.929  -1.264  0.00  0.00     0.015 A 
ATOM      7  C7  IND d   1       1.920  -1.255  -1.753  0.00  0.00    -0.016 A 
ATOM      8  C8  IND d   1       2.105   0.084  -2.068  0.00  0.00    -0.047 A 
ATOM      9  C9  IND d   1       3.333   0.729  -1.872  0.00  0.00    -0.096 A 
ATOM     10  HN1 IND d   1       0.396   0.882  -2.747  0.00  0.00     0.298 HD
ENDROOT
TORSDOF 0
ENDMDL
