MODEL 1
REMARK minimizedAffinity 7.73485851
REMARK minimizedRMSD -1
REMARK  0 active torsions:
REMARK  status: ('A' for Active; 'I' for Inactive)
ROOT
ATOM      1  N1  IND d   1       0.990   0.764  -2.322  0.00  0.00    -0.196 N 
ATOM      2  C2  IND d   1       0.332   1.471  -1.355  0.00  0.00     0.054 A 
ATOM      3  C3  IND d   1       0.313   0.776  -0.195  0.00  0.00    -0.031 A 
ATOM      4  C4  IND d   1       1.388  -1.494   0.368  0.00  0.00     0.051 A 
ATOM      5  C5  IND d   1       2.063  -2.537  -0.201  0.00  0.00    -0.031 A 
ATOM      6  C6  IND d   1       2.424  -2.532  -1.532  0.00  0.00     0.015 A 
ATOM      7  C7  IND d   1       2.133  -1.474  -2.345  0.00  0.00    -0.016 A 
ATOM      8  C8  IND d   1       1.442  -0.415  -1.773  0.00  0.00    -0.047 A 
ATOM      9  C9  IND d   1       1.035  -0.434  -0.432  0.00  0.00    -0.096 A 
ATOM     10  HN1 IND d   1       1.103   1.015  -3.137  0.00  0.00     0.298 HD
ENDROOT
TORSDOF 0
ENDMDL
