MODEL 1
REMARK minimizedAffinity 11.3617325
REMARK minimizedRMSD -1
REMARK  0 active torsions:
REMARK  status: ('A' for Active; 'I' for Inactive)
ROOT
ATOM      1  N1  IND d   1      -2.414  -0.626  -0.360  0.00  0.00    -0.196 N 
ATOM      2  C2  IND d   1      -1.630  -0.736   0.754  0.00  0.00     0.054 A 
ATOM      3  C3  IND d   1      -2.369  -1.140   1.811  0.00  0.00    -0.031 A 
ATOM      4  C4  IND d   1      -4.860  -1.779   1.917  0.00  0.00     0.051 A 
ATOM      5  C5  IND d   1      -5.999  -1.804   1.161  0.00  0.00    -0.031 A 
ATOM      6  C6  IND d   1      -6.000  -1.434  -0.168  0.00  0.00     0.015 A 
ATOM      7  C7  IND d   1      -4.855  -1.033  -0.797  0.00  0.00    -0.016 A 
ATOM      8  C8  IND d   1      -3.699  -0.999  -0.030  0.00  0.00    -0.047 A 
ATOM      9  C9  IND d   1      -3.700  -1.333   1.330  0.00  0.00    -0.096 A 
ATOM     10  HN1 IND d   1      -2.150  -0.368  -1.137  0.00  0.00     0.298 HD
ENDROOT
TORSDOF 0
ENDMDL
