MODEL 1
REMARK minimizedAffinity -1.91958928
REMARK minimizedRMSD -1
REMARK  0 active torsions:
REMARK  status: ('A' for Active; 'I' for Inactive)
ROOT
ATOM      1  N1  IND d   1       3.108  -3.335  -0.276  0.00  0.00    -0.196 N 
ATOM      2  C2  IND d   1       2.110  -3.999   0.382  0.00  0.00     0.054 A 
ATOM      3  C3  IND d   1       0.956  -3.298   0.315  0.00  0.00    -0.031 A 
ATOM      4  C4  IND d   1       0.451  -1.089  -0.906  0.00  0.00     0.051 A 
ATOM      5  C5  IND d   1       1.054  -0.088  -1.615  0.00  0.00    -0.031 A 
ATOM      6  C6  IND d   1       2.399  -0.121  -1.923  0.00  0.00     0.015 A 
ATOM      7  C7  IND d   1       3.192  -1.165  -1.541  0.00  0.00    -0.016 A 
ATOM      8  C8  IND d   1       2.585  -2.180  -0.815  0.00  0.00    -0.047 A 
ATOM      9  C9  IND d   1       1.230  -2.132  -0.463  0.00  0.00    -0.096 A 
ATOM     10  HN1 IND d   1       3.925  -3.595  -0.343  0.00  0.00     0.298 HD
ENDROOT
TORSDOF 0
ENDMDL
