MODEL 1
REMARK minimizedAffinity -3.66817951
REMARK minimizedRMSD -1
REMARK  1 active torsions:
REMARK  status: ('A' for Active; 'I' for Inactive)
REMARK    1  A    between atoms: N_2  and  C1_3 
ROOT
ATOM      1  C1  UNL d   1      -2.889   3.102  -3.553  0.00  0.00     0.143 A 
ATOM      2  C2  UNL d   1      -2.704   4.084  -2.574  0.00  0.00    -0.057 A 
ATOM      3  C3  UNL d   1      -2.453   5.417  -2.921  0.00  0.00     0.033 A 
ATOM      4  C4  UNL d   1      -2.354   5.787  -4.258  0.00  0.00    -0.042 A 
ATOM      5  C5  UNL d   1      -2.510   4.824  -5.248  0.00  0.00     0.033 A 
ATOM      6  C6  UNL d   1      -2.767   3.495  -4.895  0.00  0.00    -0.057 A 
ENDROOT
BRANCH   1   7
ATOM      7  N   UNL d   1      -3.043   1.742  -3.272  0.00  0.00    -0.732 N 
ATOM      8  C   UNL d   1      -2.231   1.102  -2.260  0.00  0.00     0.284 C 
ATOM      9  H3  UNL d   1      -4.020   1.455  -3.265  0.00  0.00     0.395 HD
ENDBRANCH   1   7
TORSDOF 1
ENDMDL
