MODEL 1
REMARK minimizedAffinity -0.435150504
REMARK minimizedRMSD -1
REMARK  1 active torsions:
REMARK  status: ('A' for Active; 'I' for Inactive)
REMARK    1  A    between atoms: N_2  and  C1_3 
ROOT
ATOM      1  C1  UNL d   1      -2.128   4.572  -4.925  0.00  0.00     0.143 A 
ATOM      2  C2  UNL d   1      -2.477   3.479  -4.126  0.00  0.00    -0.057 A 
ATOM      3  C3  UNL d   1      -3.299   3.634  -3.002  0.00  0.00     0.033 A 
ATOM      4  C4  UNL d   1      -3.763   4.894  -2.641  0.00  0.00    -0.042 A 
ATOM      5  C5  UNL d   1      -3.407   5.999  -3.407  0.00  0.00     0.033 A 
ATOM      6  C6  UNL d   1      -2.592   5.837  -4.531  0.00  0.00    -0.057 A 
ENDROOT
BRANCH   1   7
ATOM      7  N   UNL d   1      -1.235   4.498  -5.997  0.00  0.00    -0.732 N 
ATOM      8  C   UNL d   1      -0.001   5.255  -5.983  0.00  0.00     0.284 C 
ATOM      9  H3  UNL d   1      -1.137   3.551  -6.357  0.00  0.00     0.395 HD
ENDBRANCH   1   7
TORSDOF 1
ENDMDL
