MODEL 1
REMARK minimizedAffinity -4.31329727
REMARK minimizedRMSD -1
REMARK  1 active torsions:
REMARK  status: ('A' for Active; 'I' for Inactive)
REMARK    1  A    between atoms: N_2  and  C1_3 
ROOT
ATOM      1  C1  UNL d   1      -0.269  -1.335   1.886  0.00  0.00     0.143 A 
ATOM      2  C2  UNL d   1      -1.193  -1.489   0.847  0.00  0.00    -0.057 A 
ATOM      3  C3  UNL d   1      -2.499  -0.999   0.959  0.00  0.00     0.033 A 
ATOM      4  C4  UNL d   1      -2.915  -0.369   2.127  0.00  0.00    -0.042 A 
ATOM      5  C5  UNL d   1      -2.021  -0.226   3.182  0.00  0.00     0.033 A 
ATOM      6  C6  UNL d   1      -0.715  -0.712   3.062  0.00  0.00    -0.057 A 
ENDROOT
BRANCH   1   7
ATOM      7  N   UNL d   1       1.015  -1.887   1.874  0.00  0.00    -0.732 N 
ATOM      8  C   UNL d   1       1.481  -2.644   0.732  0.00  0.00     0.284 C 
ATOM      9  H3  UNL d   1       1.711  -1.259   2.269  0.00  0.00     0.395 HD
ENDBRANCH   1   7
TORSDOF 1
ENDMDL
