MODEL 1
REMARK minimizedAffinity 5.28802538
REMARK minimizedRMSD -1
REMARK  1 active torsions:
REMARK  status: ('A' for Active; 'I' for Inactive)
REMARK    1  A    between atoms: N_2  and  C1_3 
ROOT
ATOM      1  C1  UNL d   1      -3.762   4.638  -1.553  0.00  0.00     0.143 A 
ATOM      2  C2  UNL d   1      -3.431   3.365  -1.074  0.00  0.00    -0.057 A 
ATOM      3  C3  UNL d   1      -4.372   2.576  -0.402  0.00  0.00     0.033 A 
ATOM      4  C4  UNL d   1      -5.656   3.058  -0.171  0.00  0.00    -0.042 A 
ATOM      5  C5  UNL d   1      -5.999   4.330  -0.616  0.00  0.00     0.033 A 
ATOM      6  C6  UNL d   1      -5.057   5.111  -1.293  0.00  0.00    -0.057 A 
ENDROOT
BRANCH   1   7
ATOM      7  N   UNL d   1      -2.843   5.510  -2.142  0.00  0.00    -0.732 N 
ATOM      8  C   UNL d   1      -2.720   5.590  -3.581  0.00  0.00     0.284 C 
ATOM      9  H3  UNL d   1      -2.806   6.411  -1.670  0.00  0.00     0.395 HD
ENDBRANCH   1   7
TORSDOF 1
ENDMDL
