MODEL 1
REMARK minimizedAffinity 1.15424311
REMARK minimizedRMSD -1
REMARK  1 active torsions:
REMARK  status: ('A' for Active; 'I' for Inactive)
REMARK    1  A    between atoms: N_2  and  C1_3 
ROOT
ATOM      1  C1  UNL d   1      -3.667   3.507  -2.285  0.00  0.00     0.143 A 
ATOM      2  C2  UNL d   1      -3.644   2.541  -3.297  0.00  0.00    -0.057 A 
ATOM      3  C3  UNL d   1      -3.342   2.882  -4.621  0.00  0.00     0.033 A 
ATOM      4  C4  UNL d   1      -3.085   4.205  -4.963  0.00  0.00    -0.042 A 
ATOM      5  C5  UNL d   1      -3.127   5.187  -3.979  0.00  0.00     0.033 A 
ATOM      6  C6  UNL d   1      -3.423   4.839  -2.657  0.00  0.00    -0.057 A 
ENDROOT
BRANCH   1   7
ATOM      7  N   UNL d   1      -4.057   3.247  -0.969  0.00  0.00    -0.732 N 
ATOM      8  C   UNL d   1      -5.450   3.033  -0.642  0.00  0.00     0.284 C 
ATOM      9  H3  UNL d   1      -3.416   2.617  -0.492  0.00  0.00     0.395 HD
ENDBRANCH   1   7
TORSDOF 1
ENDMDL
