MODEL 1
REMARK minimizedAffinity -1.34104431
REMARK minimizedRMSD -1
REMARK  1 active torsions:
REMARK  status: ('A' for Active; 'I' for Inactive)
REMARK    1  A    between atoms: N_2  and  C1_3 
ROOT
ATOM      1  C1  UNL d   1      -1.842  -1.056   0.643  0.00  0.00     0.143 A 
ATOM      2  C2  UNL d   1      -0.499  -1.212   1.001  0.00  0.00    -0.057 A 
ATOM      3  C3  UNL d   1      -0.040  -0.854   2.274  0.00  0.00     0.033 A 
ATOM      4  C4  UNL d   1      -0.915  -0.305   3.206  0.00  0.00    -0.042 A 
ATOM      5  C5  UNL d   1      -2.249  -0.118   2.864  0.00  0.00     0.033 A 
ATOM      6  C6  UNL d   1      -2.703  -0.484   1.593  0.00  0.00    -0.057 A 
ENDROOT
BRANCH   1   7
ATOM      7  N   UNL d   1      -2.339  -1.301  -0.639  0.00  0.00    -0.732 N 
ATOM      8  C   UNL d   1      -2.427  -0.234  -1.612  0.00  0.00     0.284 C 
ATOM      9  H3  UNL d   1      -2.011  -2.186  -1.020  0.00  0.00     0.395 HD
ENDBRANCH   1   7
TORSDOF 1
ENDMDL
