MODEL 1
REMARK minimizedAffinity 2.32229137
REMARK minimizedRMSD -1
REMARK  1 active torsions:
REMARK  status: ('A' for Active; 'I' for Inactive)
REMARK    1  A    between atoms: N_2  and  C1_3 
ROOT
ATOM      1  C1  UNL d   1       0.776  -1.798  -2.141  0.00  0.00     0.143 A 
ATOM      2  C2  UNL d   1      -0.500  -1.391  -1.736  0.00  0.00    -0.057 A 
ATOM      3  C3  UNL d   1      -0.802  -1.188  -0.384  0.00  0.00     0.033 A 
ATOM      4  C4  UNL d   1       0.161  -1.417   0.592  0.00  0.00    -0.042 A 
ATOM      5  C5  UNL d   1       1.429  -1.846   0.214  0.00  0.00     0.033 A 
ATOM      6  C6  UNL d   1       1.727  -2.041  -1.138  0.00  0.00    -0.057 A 
ENDROOT
BRANCH   1   7
ATOM      7  N   UNL d   1       1.110  -2.112  -3.461  0.00  0.00    -0.732 N 
ATOM      8  C   UNL d   1       1.573  -1.084  -4.368  0.00  0.00     0.284 C 
ATOM      9  H3  UNL d   1       1.616  -2.991  -3.535  0.00  0.00     0.395 HD
ENDBRANCH   1   7
TORSDOF 1
ENDMDL
