MODEL 1
REMARK minimizedAffinity -3.43613482
REMARK minimizedRMSD -1
REMARK  1 active torsions:
REMARK  status: ('A' for Active; 'I' for Inactive)
REMARK    1  A    between atoms: N_2  and  C1_3 
ROOT
ATOM      1  C1  UNL d   1      -2.098   3.754  -4.175  0.00  0.00     0.143 A 
ATOM      2  C2  UNL d   1      -1.902   2.412  -3.834  0.00  0.00    -0.057 A 
ATOM      3  C3  UNL d   1      -2.312   1.911  -2.593  0.00  0.00     0.033 A 
ATOM      4  C4  UNL d   1      -2.902   2.753  -1.656  0.00  0.00    -0.042 A 
ATOM      5  C5  UNL d   1      -3.084   4.097  -1.964  0.00  0.00     0.033 A 
ATOM      6  C6  UNL d   1      -2.678   4.590  -3.208  0.00  0.00    -0.057 A 
ENDROOT
BRANCH   1   7
ATOM      7  N   UNL d   1      -1.623   4.335  -5.354  0.00  0.00    -0.732 N 
ATOM      8  C   UNL d   1      -0.205   4.366  -5.641  0.00  0.00     0.284 C 
ATOM      9  H3  UNL d   1      -2.206   4.112  -6.158  0.00  0.00     0.395 HD
ENDBRANCH   1   7
TORSDOF 1
ENDMDL
