MODEL 1
REMARK minimizedAffinity 2.95892477
REMARK minimizedRMSD -1
REMARK  0 active torsions:
REMARK  status: ('A' for Active; 'I' for Inactive)
ROOT
ATOM      1  C4' PXY d   1       1.470   0.090   0.536  0.00  0.00     0.077 C 
ATOM      2  C1' PXY d   1      -3.396   1.855   3.110  0.00  0.00     0.077 C 
ATOM      3  C1  PXY d   1      -2.127   1.385   2.427  0.00  0.00    -0.082 A 
ATOM      4  C2  PXY d   1      -0.981   1.405   3.089  0.00  0.00     0.003 A 
ATOM      5  C3  PXY d   1       0.181   1.014   2.476  0.00  0.00     0.003 A 
ATOM      6  C4  PXY d   1       0.162   0.547   1.189  0.00  0.00    -0.082 A 
ATOM      7  C5  PXY d   1      -1.004   0.512   0.510  0.00  0.00     0.003 A 
ATOM      8  C6  PXY d   1      -2.166   0.953   1.137  0.00  0.00     0.003 A 
ENDROOT
TORSDOF 0
ENDMDL
