MODEL 1
REMARK minimizedAffinity 3.30629301
REMARK minimizedRMSD -1
REMARK  0 active torsions:
REMARK  status: ('A' for Active; 'I' for Inactive)
ROOT
ATOM      1  C4' PXY d   1      -2.205   2.305   3.103  0.00  0.00     0.077 C 
ATOM      2  C1' PXY d   1       2.522  -0.499   1.314  0.00  0.00     0.077 C 
ATOM      3  C1  PXY d   1       1.289   0.239   1.794  0.00  0.00    -0.082 A 
ATOM      4  C2  PXY d   1       0.104  -0.069   1.291  0.00  0.00     0.003 A 
ATOM      5  C3  PXY d   1      -1.017   0.610   1.691  0.00  0.00     0.003 A 
ATOM      6  C4  PXY d   1      -0.934   1.580   2.654  0.00  0.00    -0.082 A 
ATOM      7  C5  PXY d   1       0.270   1.893   3.180  0.00  0.00     0.003 A 
ATOM      8  C6  PXY d   1       1.402   1.220   2.731  0.00  0.00     0.003 A 
ENDROOT
TORSDOF 0
ENDMDL
