MODEL 1
REMARK minimizedAffinity 1.18467176
REMARK minimizedRMSD -1
REMARK  0 active torsions:
REMARK  status: ('A' for Active; 'I' for Inactive)
ROOT
ATOM      1  C4' PXY d   1      -4.317   0.650   5.818  0.00  0.00     0.077 C 
ATOM      2  C1' PXY d   1       0.252   2.447   2.767  0.00  0.00     0.077 C 
ATOM      3  C1  PXY d   1      -0.947   1.988   3.573  0.00  0.00    -0.082 A 
ATOM      4  C2  PXY d   1      -1.154   0.694   3.757  0.00  0.00     0.003 A 
ATOM      5  C3  PXY d   1      -2.251   0.260   4.456  0.00  0.00     0.003 A 
ATOM      6  C4  PXY d   1      -3.115   1.160   5.019  0.00  0.00    -0.082 A 
ATOM      7  C5  PXY d   1      -2.904   2.482   4.845  0.00  0.00     0.003 A 
ATOM      8  C6  PXY d   1      -1.808   2.902   4.097  0.00  0.00     0.003 A 
ENDROOT
TORSDOF 0
ENDMDL
