MODEL 1
REMARK minimizedAffinity 3.42428565
REMARK minimizedRMSD -1
REMARK  0 active torsions:
REMARK  status: ('A' for Active; 'I' for Inactive)
ROOT
ATOM      1  C4' PXY d   1      -4.343   1.756   1.777  0.00  0.00     0.077 C 
ATOM      2  C1' PXY d   1       1.290   0.503   2.114  0.00  0.00     0.077 C 
ATOM      3  C1  PXY d   1      -0.188   0.833   2.039  0.00  0.00    -0.082 A 
ATOM      4  C2  PXY d   1      -0.892   0.443   0.988  0.00  0.00     0.003 A 
ATOM      5  C3  PXY d   1      -2.222   0.761   0.889  0.00  0.00     0.003 A 
ATOM      6  C4  PXY d   1      -2.850   1.438   1.900  0.00  0.00    -0.082 A 
ATOM      7  C5  PXY d   1      -2.141   1.829   2.980  0.00  0.00     0.003 A 
ATOM      8  C6  PXY d   1      -0.782   1.533   3.042  0.00  0.00     0.003 A 
ENDROOT
TORSDOF 0
ENDMDL
