MODEL 1
REMARK minimizedAffinity 10.2298431
REMARK minimizedRMSD -1
REMARK  0 active torsions:
REMARK  status: ('A' for Active; 'I' for Inactive)
ROOT
ATOM      1  C4' PXY d   1       2.488  -0.271   2.019  0.00  0.00     0.077 C 
ATOM      2  C1' PXY d   1      -2.994   1.512   1.594  0.00  0.00     0.077 C 
ATOM      3  C1  PXY d   1      -1.561   1.034   1.712  0.00  0.00    -0.082 A 
ATOM      4  C2  PXY d   1      -0.570   1.906   1.612  0.00  0.00     0.003 A 
ATOM      5  C3  PXY d   1       0.733   1.486   1.685  0.00  0.00     0.003 A 
ATOM      6  C4  PXY d   1       1.025   0.168   1.915  0.00  0.00    -0.082 A 
ATOM      7  C5  PXY d   1       0.020  -0.726   2.029  0.00  0.00     0.003 A 
ATOM      8  C6  PXY d   1      -1.296  -0.286   1.911  0.00  0.00     0.003 A 
ENDROOT
TORSDOF 0
ENDMDL
