MODEL 1
REMARK minimizedAffinity 11.2365608
REMARK minimizedRMSD -1
REMARK  0 active torsions:
REMARK  status: ('A' for Active; 'I' for Inactive)
ROOT
ATOM      1  C4' PXY d   1       5.321   1.878   0.722  0.00  0.00     0.077 C 
ATOM      2  C1' PXY d   1       0.946  -1.495   2.426  0.00  0.00     0.077 C 
ATOM      3  C1  PXY d   1       2.100  -0.613   1.990  0.00  0.00    -0.082 A 
ATOM      4  C2  PXY d   1       1.883   0.372   1.134  0.00  0.00     0.003 A 
ATOM      5  C3  PXY d   1       2.921   1.159   0.705  0.00  0.00     0.003 A 
ATOM      6  C4  PXY d   1       4.184   0.969   1.197  0.00  0.00    -0.082 A 
ATOM      7  C5  PXY d   1       4.411  -0.028   2.079  0.00  0.00     0.003 A 
ATOM      8  C6  PXY d   1       3.352  -0.841   2.471  0.00  0.00     0.003 A 
ENDROOT
TORSDOF 0
ENDMDL
