MODEL 1
REMARK minimizedAffinity 2.34946299
REMARK minimizedRMSD -1
REMARK  0 active torsions:
REMARK  status: ('A' for Active; 'I' for Inactive)
ROOT
ATOM      1  C4' PXY d   1       6.000  -0.186   2.983  0.00  0.00     0.077 C 
ATOM      2  C1' PXY d   1       0.823   0.334   0.464  0.00  0.00     0.077 C 
ATOM      3  C1  PXY d   1       2.187   0.200   1.113  0.00  0.00    -0.082 A 
ATOM      4  C2  PXY d   1       2.304  -0.449   2.260  0.00  0.00     0.003 A 
ATOM      5  C3  PXY d   1       3.524  -0.552   2.877  0.00  0.00     0.003 A 
ATOM      6  C4  PXY d   1       4.645  -0.033   2.287  0.00  0.00    -0.082 A 
ATOM      7  C5  PXY d   1       4.536   0.621   1.111  0.00  0.00     0.003 A 
ATOM      8  C6  PXY d   1       3.281   0.751   0.522  0.00  0.00     0.003 A 
ENDROOT
TORSDOF 0
ENDMDL
