MODEL 1
REMARK minimizedAffinity 13.309804
REMARK minimizedRMSD -1
REMARK  0 active torsions:
REMARK  status: ('A' for Active; 'I' for Inactive)
ROOT
ATOM      1  C4' PXY d   1      -3.925   1.805   6.000  0.00  0.00     0.077 C 
ATOM      2  C1' PXY d   1      -3.782  -3.973   5.862  0.00  0.00     0.077 C 
ATOM      3  C1  PXY d   1      -3.807  -2.457   5.902  0.00  0.00    -0.082 A 
ATOM      4  C2  PXY d   1      -4.966  -1.825   5.991  0.00  0.00     0.003 A 
ATOM      5  C3  PXY d   1      -5.009  -0.454   5.997  0.00  0.00     0.003 A 
ATOM      6  C4  PXY d   1      -3.851   0.276   5.965  0.00  0.00    -0.082 A 
ATOM      7  C5  PXY d   1      -2.664  -0.363   5.886  0.00  0.00     0.003 A 
ATOM      8  C6  PXY d   1      -2.644  -1.754   5.840  0.00  0.00     0.003 A 
ENDROOT
TORSDOF 0
ENDMDL
