MODEL 1
REMARK minimizedAffinity 8.92496014
REMARK minimizedRMSD -1
REMARK  0 active torsions:
REMARK  status: ('A' for Active; 'I' for Inactive)
ROOT
ATOM      1  C4' PXY d   1      -2.185  -0.891   6.000  0.00  0.00     0.077 C 
ATOM      2  C1' PXY d   1      -5.234  -4.888   3.148  0.00  0.00     0.077 C 
ATOM      3  C1  PXY d   1      -4.442  -3.842   3.907  0.00  0.00    -0.082 A 
ATOM      4  C2  PXY d   1      -3.793  -2.902   3.239  0.00  0.00     0.003 A 
ATOM      5  C3  PXY d   1      -3.045  -1.967   3.908  0.00  0.00     0.003 A 
ATOM      6  C4  PXY d   1      -3.005  -1.962   5.276  0.00  0.00    -0.082 A 
ATOM      7  C5  PXY d   1      -3.674  -2.911   5.965  0.00  0.00     0.003 A 
ATOM      8  C6  PXY d   1      -4.393  -3.876   5.266  0.00  0.00     0.003 A 
ENDROOT
TORSDOF 0
ENDMDL
