MODEL 1
REMARK minimizedAffinity 10.0291872
REMARK minimizedRMSD -1
REMARK  0 active torsions:
REMARK  status: ('A' for Active; 'I' for Inactive)
ROOT
ATOM      1  C4' PXY d   1      -3.821   5.975   6.000  0.00  0.00     0.077 C 
ATOM      2  C1' PXY d   1       0.834   3.832   3.326  0.00  0.00     0.077 C 
ATOM      3  C1  PXY d   1      -0.386   4.384   4.035  0.00  0.00    -0.082 A 
ATOM      4  C2  PXY d   1      -1.202   5.204   3.392  0.00  0.00     0.003 A 
ATOM      5  C3  PXY d   1      -2.293   5.738   4.029  0.00  0.00     0.003 A 
ATOM      6  C4  PXY d   1      -2.582   5.386   5.320  0.00  0.00    -0.082 A 
ATOM      7  C5  PXY d   1      -1.760   4.542   5.980  0.00  0.00     0.003 A 
ATOM      8  C6  PXY d   1      -0.635   4.044   5.329  0.00  0.00     0.003 A 
ENDROOT
TORSDOF 0
ENDMDL
