MODEL 1
REMARK minimizedAffinity 13.797617
REMARK minimizedRMSD -1
REMARK  0 active torsions:
REMARK  status: ('A' for Active; 'I' for Inactive)
ROOT
ATOM      1  C4' PXY d   1       1.643   1.688   0.220  0.00  0.00     0.077 C 
ATOM      2  C1' PXY d   1       2.665  -2.942   3.525  0.00  0.00     0.077 C 
ATOM      3  C1  PXY d   1       2.392  -1.736   2.649  0.00  0.00    -0.082 A 
ATOM      4  C2  PXY d   1       3.060  -0.613   2.856  0.00  0.00     0.003 A 
ATOM      5  C3  PXY d   1       2.804   0.498   2.094  0.00  0.00     0.003 A 
ATOM      6  C4  PXY d   1       1.892   0.442   1.074  0.00  0.00    -0.082 A 
ATOM      7  C5  PXY d   1       1.214  -0.703   0.849  0.00  0.00     0.003 A 
ATOM      8  C6  PXY d   1       1.459  -1.807   1.661  0.00  0.00     0.003 A 
ENDROOT
TORSDOF 0
ENDMDL
