MODEL 1
REMARK minimizedAffinity 6.58027458
REMARK minimizedRMSD -1
REMARK  0 active torsions:
REMARK  status: ('A' for Active; 'I' for Inactive)
ROOT
ATOM      1  C4' PXY d   1      -5.630   0.373   2.631  0.00  0.00     0.077 C 
ATOM      2  C1' PXY d   1      -4.564   4.947   6.000  0.00  0.00     0.077 C 
ATOM      3  C1  PXY d   1      -4.840   3.739   5.126  0.00  0.00    -0.082 A 
ATOM      4  C2  PXY d   1      -4.861   3.876   3.810  0.00  0.00     0.003 A 
ATOM      5  C3  PXY d   1      -5.140   2.801   3.006  0.00  0.00     0.003 A 
ATOM      6  C4  PXY d   1      -5.347   1.562   3.552  0.00  0.00    -0.082 A 
ATOM      7  C5  PXY d   1      -5.317   1.413   4.893  0.00  0.00     0.003 A 
ATOM      8  C6  PXY d   1      -5.073   2.525   5.694  0.00  0.00     0.003 A 
ENDROOT
TORSDOF 0
ENDMDL
