MODEL 1
REMARK minimizedAffinity 6.60244942
REMARK minimizedRMSD -1
REMARK  0 active torsions:
REMARK  status: ('A' for Active; 'I' for Inactive)
ROOT
ATOM      1  C4' PXY d   1      -5.812   5.332   6.000  0.00  0.00     0.077 C 
ATOM      2  C1' PXY d   1      -0.275   3.678   5.869  0.00  0.00     0.077 C 
ATOM      3  C1  PXY d   1      -1.731   4.100   5.898  0.00  0.00    -0.082 A 
ATOM      4  C2  PXY d   1      -2.040   5.386   5.861  0.00  0.00     0.003 A 
ATOM      5  C3  PXY d   1      -3.350   5.787   5.920  0.00  0.00     0.003 A 
ATOM      6  C4  PXY d   1      -4.357   4.860   5.962  0.00  0.00    -0.082 A 
ATOM      7  C5  PXY d   1      -4.050   3.545   5.989  0.00  0.00     0.003 A 
ATOM      8  C6  PXY d   1      -2.713   3.160   5.971  0.00  0.00     0.003 A 
ENDROOT
TORSDOF 0
ENDMDL
