MODEL 1
REMARK minimizedAffinity 6.49261045
REMARK minimizedRMSD -1
REMARK  0 active torsions:
REMARK  status: ('A' for Active; 'I' for Inactive)
ROOT
ATOM      1  C4' PXY d   1       2.623  -3.319   3.327  0.00  0.00     0.077 C 
ATOM      2  C1' PXY d   1       2.444   1.671   0.414  0.00  0.00     0.077 C 
ATOM      3  C1  PXY d   1       2.504   0.364   1.181  0.00  0.00    -0.082 A 
ATOM      4  C2  PXY d   1       1.625  -0.589   0.918  0.00  0.00     0.003 A 
ATOM      5  C3  PXY d   1       1.644  -1.765   1.623  0.00  0.00     0.003 A 
ATOM      6  C4  PXY d   1       2.606  -1.988   2.572  0.00  0.00    -0.082 A 
ATOM      7  C5  PXY d   1       3.513  -1.024   2.838  0.00  0.00     0.003 A 
ATOM      8  C6  PXY d   1       3.451   0.178   2.140  0.00  0.00     0.003 A 
ENDROOT
TORSDOF 0
ENDMDL
