MODEL 1
REMARK minimizedAffinity 7.69657755
REMARK minimizedRMSD -1
REMARK  0 active torsions:
REMARK  status: ('A' for Active; 'I' for Inactive)
ROOT
ATOM      1  C4' PXY d   1       3.552   2.363  -5.999  0.00  0.00     0.077 C 
ATOM      2  C1' PXY d   1       2.253  -2.299  -2.839  0.00  0.00     0.077 C 
ATOM      3  C1  PXY d   1       2.588  -1.082  -3.678  0.00  0.00    -0.082 A 
ATOM      4  C2  PXY d   1       3.577  -0.284  -3.308  0.00  0.00     0.003 A 
ATOM      5  C3  PXY d   1       3.872   0.838  -4.037  0.00  0.00     0.003 A 
ATOM      6  C4  PXY d   1       3.184   1.118  -5.188  0.00  0.00    -0.082 A 
ATOM      7  C5  PXY d   1       2.182   0.303  -5.578  0.00  0.00     0.003 A 
ATOM      8  C6  PXY d   1       1.870  -0.809  -4.801  0.00  0.00     0.003 A 
ENDROOT
TORSDOF 0
ENDMDL
