MODEL 1
REMARK minimizedAffinity 0.731921017
REMARK minimizedRMSD -1
REMARK  0 active torsions:
REMARK  status: ('A' for Active; 'I' for Inactive)
ROOT
ATOM      1  C4' PXY d   1       5.782   0.326   2.409  0.00  0.00     0.077 C 
ATOM      2  C1' PXY d   1       0.646  -2.260   1.816  0.00  0.00     0.077 C 
ATOM      3  C1  PXY d   1       1.990  -1.574   1.962  0.00  0.00    -0.082 A 
ATOM      4  C2  PXY d   1       3.009  -2.236   2.485  0.00  0.00     0.003 A 
ATOM      5  C3  PXY d   1       4.223  -1.620   2.654  0.00  0.00     0.003 A 
ATOM      6  C4  PXY d   1       4.409  -0.330   2.234  0.00  0.00    -0.082 A 
ATOM      7  C5  PXY d   1       3.377   0.348   1.689  0.00  0.00     0.003 A 
ATOM      8  C6  PXY d   1       2.142  -0.281   1.564  0.00  0.00     0.003 A 
ENDROOT
TORSDOF 0
ENDMDL
