MODEL 1
REMARK minimizedAffinity 12.5696259
REMARK minimizedRMSD -1
REMARK  0 active torsions:
REMARK  status: ('A' for Active; 'I' for Inactive)
ROOT
ATOM      1  C4' PXY d   1       1.909   1.768   0.090  0.00  0.00     0.077 C 
ATOM      2  C1' PXY d   1       5.976  -0.508   3.510  0.00  0.00     0.077 C 
ATOM      3  C1  PXY d   1       4.918   0.099   2.610  0.00  0.00    -0.082 A 
ATOM      4  C2  PXY d   1       3.641  -0.170   2.829  0.00  0.00     0.003 A 
ATOM      5  C3  PXY d   1       2.673   0.344   2.005  0.00  0.00     0.003 A 
ATOM      6  C4  PXY d   1       3.011   1.185   0.979  0.00  0.00    -0.082 A 
ATOM      7  C5  PXY d   1       4.311   1.473   0.756  0.00  0.00     0.003 A 
ATOM      8  C6  PXY d   1       5.281   0.908   1.578  0.00  0.00     0.003 A 
ENDROOT
TORSDOF 0
ENDMDL
