MODEL 1
REMARK minimizedAffinity -2.47540116
REMARK minimizedRMSD -1
REMARK  0 active torsions:
REMARK  status: ('A' for Active; 'I' for Inactive)
ROOT
ATOM      1  C4' PXY d   1      -3.166   5.985   5.977  0.00  0.00     0.077 C 
ATOM      2  C1' PXY d   1      -5.999   0.946   5.951  0.00  0.00     0.077 C 
ATOM      3  C1  PXY d   1      -5.267   2.274   5.953  0.00  0.00    -0.082 A 
ATOM      4  C2  PXY d   1      -3.944   2.291   5.918  0.00  0.00     0.003 A 
ATOM      5  C3  PXY d   1      -3.265   3.482   5.951  0.00  0.00     0.003 A 
ATOM      6  C4  PXY d   1      -3.948   4.668   5.967  0.00  0.00    -0.082 A 
ATOM      7  C5  PXY d   1      -5.298   4.659   5.992  0.00  0.00     0.003 A 
ATOM      8  C6  PXY d   1      -5.967   3.439   5.999  0.00  0.00     0.003 A 
ENDROOT
TORSDOF 0
ENDMDL
