MODEL 1
REMARK minimizedAffinity 8.73534966
REMARK minimizedRMSD -1
REMARK  0 active torsions:
REMARK  status: ('A' for Active; 'I' for Inactive)
ROOT
ATOM      1  C4' PXY d   1       2.542   2.085  -5.822  0.00  0.00     0.077 C 
ATOM      2  C1' PXY d   1       3.320  -2.515  -2.409  0.00  0.00     0.077 C 
ATOM      3  C1  PXY d   1       3.112  -1.316  -3.313  0.00  0.00    -0.082 A 
ATOM      4  C2  PXY d   1       3.799  -0.207  -3.097  0.00  0.00     0.003 A 
ATOM      5  C3  PXY d   1       3.600   0.897  -3.886  0.00  0.00     0.003 A 
ATOM      6  C4  PXY d   1       2.726   0.847  -4.939  0.00  0.00    -0.082 A 
ATOM      7  C5  PXY d   1       2.029  -0.285  -5.173  0.00  0.00     0.003 A 
ATOM      8  C6  PXY d   1       2.216  -1.381  -4.335  0.00  0.00     0.003 A 
ENDROOT
TORSDOF 0
ENDMDL
