MODEL 1
REMARK minimizedAffinity -1.57251537
REMARK minimizedRMSD -1
REMARK  0 active torsions:
REMARK  status: ('A' for Active; 'I' for Inactive)
ROOT
ATOM      1  C4' PXY d   1      -2.891  -1.146   5.999  0.00  0.00     0.077 C 
ATOM      2  C1' PXY d   1      -4.379  -5.426   2.410  0.00  0.00     0.077 C 
ATOM      3  C1  PXY d   1      -3.982  -4.297   3.341  0.00  0.00    -0.082 A 
ATOM      4  C2  PXY d   1      -3.932  -4.513   4.646  0.00  0.00     0.003 A 
ATOM      5  C3  PXY d   1      -3.606  -3.495   5.505  0.00  0.00     0.003 A 
ATOM      6  C4  PXY d   1      -3.277  -2.258   5.021  0.00  0.00    -0.082 A 
ATOM      7  C5  PXY d   1      -3.316  -2.033   3.690  0.00  0.00     0.003 A 
ATOM      8  C6  PXY d   1      -3.689  -3.068   2.838  0.00  0.00     0.003 A 
ENDROOT
TORSDOF 0
ENDMDL
