MODEL 1
REMARK minimizedAffinity 0.630124688
REMARK minimizedRMSD -1
REMARK  0 active torsions:
REMARK  status: ('A' for Active; 'I' for Inactive)
ROOT
ATOM      1  C   UNL d   1       3.819   2.575   2.555  0.00  0.00     0.172 C 
ATOM      2  N   UNL d   1       4.485   1.549   3.322  0.00  0.00    -0.070 N 
ATOM      3  C1  UNL d   1       5.532   1.748   4.182  0.00  0.00    -0.004 A 
ATOM      4  C2  UNL d   1       5.880   0.525   4.714  0.00  0.00    -0.047 A 
ATOM      5  C3  UNL d   1       5.012  -0.443   4.154  0.00  0.00    -0.047 A 
ATOM      6  C4  UNL d   1       4.159   0.218   3.296  0.00  0.00    -0.004 A 
ENDROOT
TORSDOF 0
ENDMDL
