MODEL 1
REMARK minimizedAffinity 2.58138156
REMARK minimizedRMSD -1
REMARK  0 active torsions:
REMARK  status: ('A' for Active; 'I' for Inactive)
ROOT
ATOM      1  C   UNL d   1       4.093   2.650   3.168  0.00  0.00     0.172 C 
ATOM      2  N   UNL d   1       4.869   1.700   3.931  0.00  0.00    -0.070 N 
ATOM      3  C1  UNL d   1       5.293   0.476   3.486  0.00  0.00    -0.004 A 
ATOM      4  C2  UNL d   1       6.000  -0.122   4.507  0.00  0.00    -0.047 A 
ATOM      5  C3  UNL d   1       6.000   0.773   5.603  0.00  0.00    -0.047 A 
ATOM      6  C4  UNL d   1       5.293   1.893   5.219  0.00  0.00    -0.004 A 
ENDROOT
TORSDOF 0
ENDMDL
