MODEL 1
REMARK minimizedAffinity -2.81801558
REMARK minimizedRMSD -1
REMARK  0 active torsions:
REMARK  status: ('A' for Active; 'I' for Inactive)
ROOT
ATOM      1  C   UNL d   1      -2.955  -0.722   0.753  0.00  0.00     0.172 C 
ATOM      2  N   UNL d   1      -2.903   0.706   0.551  0.00  0.00    -0.070 N 
ATOM      3  C1  UNL d   1      -3.620   1.408  -0.382  0.00  0.00    -0.004 A 
ATOM      4  C2  UNL d   1      -3.291   2.740  -0.253  0.00  0.00    -0.047 A 
ATOM      5  C3  UNL d   1      -2.342   2.843   0.792  0.00  0.00    -0.047 A 
ATOM      6  C4  UNL d   1      -2.120   1.569   1.272  0.00  0.00    -0.004 A 
ENDROOT
TORSDOF 0
ENDMDL
