MODEL 1
REMARK minimizedAffinity -3.31276226
REMARK minimizedRMSD -1
REMARK  0 active torsions:
REMARK  status: ('A' for Active; 'I' for Inactive)
ROOT
ATOM      1  C   UNL d   1      -2.580   3.060   1.072  0.00  0.00     0.172 C 
ATOM      2  N   UNL d   1      -2.553   1.632   1.284  0.00  0.00    -0.070 N 
ATOM      3  C1  UNL d   1      -2.720   1.000   2.487  0.00  0.00    -0.004 A 
ATOM      4  C2  UNL d   1      -2.626  -0.358   2.268  0.00  0.00    -0.047 A 
ATOM      5  C3  UNL d   1      -2.394  -0.548   0.885  0.00  0.00    -0.047 A 
ATOM      6  C4  UNL d   1      -2.353   0.700   0.300  0.00  0.00    -0.004 A 
ENDROOT
TORSDOF 0
ENDMDL
