MODEL 1
REMARK minimizedAffinity 2.10082173
REMARK minimizedRMSD -1
REMARK  0 active torsions:
REMARK  status: ('A' for Active; 'I' for Inactive)
ROOT
ATOM      1  C   UNL d   1      -1.513  -1.454   0.106  0.00  0.00     0.172 C 
ATOM      2  N   UNL d   1      -1.203  -0.126  -0.369  0.00  0.00    -0.070 N 
ATOM      3  C1  UNL d   1      -1.612   1.045   0.212  0.00  0.00    -0.004 A 
ATOM      4  C2  UNL d   1      -1.110   2.086  -0.538  0.00  0.00    -0.047 A 
ATOM      5  C3  UNL d   1      -0.374   1.521  -1.607  0.00  0.00    -0.047 A 
ATOM      6  C4  UNL d   1      -0.448   0.150  -1.478  0.00  0.00    -0.004 A 
ENDROOT
TORSDOF 0
ENDMDL
