MODEL 1
REMARK minimizedAffinity -2.69240761
REMARK minimizedRMSD -1
REMARK  0 active torsions:
REMARK  status: ('A' for Active; 'I' for Inactive)
ROOT
ATOM      1  C   UNL d   1      -2.817   0.096   2.990  0.00  0.00     0.172 C 
ATOM      2  N   UNL d   1      -3.026   0.897   1.806  0.00  0.00    -0.070 N 
ATOM      3  C1  UNL d   1      -2.990   0.439   0.516  0.00  0.00    -0.004 A 
ATOM      4  C2  UNL d   1      -3.238   1.507  -0.318  0.00  0.00    -0.047 A 
ATOM      5  C3  UNL d   1      -3.429   2.647   0.499  0.00  0.00    -0.047 A 
ATOM      6  C4  UNL d   1      -3.292   2.241   1.809  0.00  0.00    -0.004 A 
ENDROOT
TORSDOF 0
ENDMDL
