MODEL 1
REMARK minimizedAffinity -2.84852958
REMARK minimizedRMSD -1
REMARK  0 active torsions:
REMARK  status: ('A' for Active; 'I' for Inactive)
ROOT
ATOM      1  C   UNL d   1      -2.550   0.499   2.826  0.00  0.00     0.172 C 
ATOM      2  N   UNL d   1      -2.963   1.330   1.719  0.00  0.00    -0.070 N 
ATOM      3  C1  UNL d   1      -3.399   0.879   0.502  0.00  0.00    -0.004 A 
ATOM      4  C2  UNL d   1      -3.696   1.979  -0.274  0.00  0.00    -0.047 A 
ATOM      5  C3  UNL d   1      -3.427   3.130   0.504  0.00  0.00    -0.047 A 
ATOM      6  C4  UNL d   1      -2.975   2.699   1.733  0.00  0.00    -0.004 A 
ENDROOT
TORSDOF 0
ENDMDL
