MODEL 1
REMARK minimizedAffinity -0.759360313
REMARK minimizedRMSD -1
REMARK  0 active torsions:
REMARK  status: ('A' for Active; 'I' for Inactive)
ROOT
ATOM      1  C   UNL d   1       3.106  -1.042   2.662  0.00  0.00     0.172 C 
ATOM      2  N   UNL d   1       4.122  -0.055   2.940  0.00  0.00    -0.070 N 
ATOM      3  C1  UNL d   1       5.314  -0.293   3.571  0.00  0.00    -0.004 A 
ATOM      4  C2  UNL d   1       5.999   0.901   3.642  0.00  0.00    -0.047 A 
ATOM      5  C3  UNL d   1       5.191   1.890   3.034  0.00  0.00    -0.047 A 
ATOM      6  C4  UNL d   1       4.035   1.271   2.608  0.00  0.00    -0.004 A 
ENDROOT
TORSDOF 0
ENDMDL
