MODEL 1
REMARK minimizedAffinity -1.91727674
REMARK minimizedRMSD -1
REMARK  0 active torsions:
REMARK  status: ('A' for Active; 'I' for Inactive)
ROOT
ATOM      1  C   UNL d   1      -2.695   1.981   0.181  0.00  0.00     0.172 C 
ATOM      2  N   UNL d   1      -2.547   0.931   1.161  0.00  0.00    -0.070 N 
ATOM      3  C1  UNL d   1      -1.953  -0.284   0.947  0.00  0.00    -0.004 A 
ATOM      4  C2  UNL d   1      -2.012  -0.997   2.124  0.00  0.00    -0.047 A 
ATOM      5  C3  UNL d   1      -2.666  -0.183   3.080  0.00  0.00    -0.047 A 
ATOM      6  C4  UNL d   1      -2.986   1.005   2.457  0.00  0.00    -0.004 A 
ENDROOT
TORSDOF 0
ENDMDL
