MODEL 1
REMARK minimizedAffinity 3.03621435
REMARK minimizedRMSD -1
REMARK  0 active torsions:
REMARK  status: ('A' for Active; 'I' for Inactive)
ROOT
ATOM      1  C   UNL d   1      -4.296   5.616   1.889  0.00  0.00     0.172 C 
ATOM      2  N   UNL d   1      -4.713   5.721   3.268  0.00  0.00    -0.070 N 
ATOM      3  C1  UNL d   1      -3.899   5.585   4.361  0.00  0.00    -0.004 A 
ATOM      4  C2  UNL d   1      -4.674   5.755   5.487  0.00  0.00    -0.047 A 
ATOM      5  C3  UNL d   1      -6.000   6.000   5.057  0.00  0.00    -0.047 A 
ATOM      6  C4  UNL d   1      -5.995   5.973   3.678  0.00  0.00    -0.004 A 
ENDROOT
TORSDOF 0
ENDMDL
