MODEL 1
REMARK minimizedAffinity -0.935809255
REMARK minimizedRMSD -1
REMARK  0 active torsions:
REMARK  status: ('A' for Active; 'I' for Inactive)
ROOT
ATOM      1  C   UNL d   1       3.756   2.263   1.728  0.00  0.00     0.172 C 
ATOM      2  N   UNL d   1       4.668   1.873   2.777  0.00  0.00    -0.070 N 
ATOM      3  C1  UNL d   1       5.170   2.699   3.747  0.00  0.00    -0.004 A 
ATOM      4  C2  UNL d   1       6.000   1.950   4.552  0.00  0.00    -0.047 A 
ATOM      5  C3  UNL d   1       5.998   0.627   4.048  0.00  0.00    -0.047 A 
ATOM      6  C4  UNL d   1       5.166   0.608   2.949  0.00  0.00    -0.004 A 
ENDROOT
TORSDOF 0
ENDMDL
