MODEL 1
REMARK minimizedAffinity -0.166095272
REMARK minimizedRMSD -1
REMARK  0 active torsions:
REMARK  status: ('A' for Active; 'I' for Inactive)
ROOT
ATOM      1  C   UNL d   1      -3.345  -0.494   0.547  0.00  0.00     0.172 C 
ATOM      2  N   UNL d   1      -3.163  -0.474   1.980  0.00  0.00    -0.070 N 
ATOM      3  C1  UNL d   1      -3.301   0.624   2.786  0.00  0.00    -0.004 A 
ATOM      4  C2  UNL d   1      -3.046   0.231   4.082  0.00  0.00    -0.047 A 
ATOM      5  C3  UNL d   1      -2.743  -1.151   4.053  0.00  0.00    -0.047 A 
ATOM      6  C4  UNL d   1      -2.822  -1.562   2.739  0.00  0.00    -0.004 A 
ENDROOT
TORSDOF 0
ENDMDL
