MODEL 1
REMARK minimizedAffinity 1.54265952
REMARK minimizedRMSD -1
REMARK  0 active torsions:
REMARK  status: ('A' for Active; 'I' for Inactive)
ROOT
ATOM      1  C   UNL d   1       5.995   4.047   3.938  0.00  0.00     0.172 C 
ATOM      2  N   UNL d   1       5.633   2.676   3.669  0.00  0.00    -0.070 N 
ATOM      3  C1  UNL d   1       4.876   2.243   2.613  0.00  0.00    -0.004 A 
ATOM      4  C2  UNL d   1       4.758   0.873   2.712  0.00  0.00    -0.047 A 
ATOM      5  C3  UNL d   1       5.467   0.469   3.867  0.00  0.00    -0.047 A 
ATOM      6  C4  UNL d   1       5.999   1.605   4.441  0.00  0.00    -0.004 A 
ENDROOT
TORSDOF 0
ENDMDL
