MODEL 1
REMARK minimizedAffinity 6.6198101
REMARK minimizedRMSD -1
REMARK  0 active torsions:
REMARK  status: ('A' for Active; 'I' for Inactive)
ROOT
ATOM      1  C   UNL d   1       4.116   2.292   2.449  0.00  0.00     0.172 C 
ATOM      2  N   UNL d   1       4.878   1.389   3.279  0.00  0.00    -0.070 N 
ATOM      3  C1  UNL d   1       5.277   0.127   2.929  0.00  0.00    -0.004 A 
ATOM      4  C2  UNL d   1       5.978  -0.404   3.990  0.00  0.00    -0.047 A 
ATOM      5  C3  UNL d   1       6.000   0.572   5.014  0.00  0.00    -0.047 A 
ATOM      6  C4  UNL d   1       5.311   1.672   4.547  0.00  0.00    -0.004 A 
ENDROOT
TORSDOF 0
ENDMDL
