MODEL 1
REMARK minimizedAffinity -1.04891241
REMARK minimizedRMSD -1
REMARK  0 active torsions:
REMARK  status: ('A' for Active; 'I' for Inactive)
ROOT
ATOM      1  C   UNL d   1       4.110   2.649   2.626  0.00  0.00     0.172 C 
ATOM      2  N   UNL d   1       4.879   1.725   3.425  0.00  0.00    -0.070 N 
ATOM      3  C1  UNL d   1       5.299   1.939   4.711  0.00  0.00    -0.004 A 
ATOM      4  C2  UNL d   1       5.999   0.824   5.118  0.00  0.00    -0.047 A 
ATOM      5  C3  UNL d   1       6.000  -0.092   4.039  0.00  0.00    -0.047 A 
ATOM      6  C4  UNL d   1       5.300   0.491   3.004  0.00  0.00    -0.004 A 
ENDROOT
TORSDOF 0
ENDMDL
