MODEL 1
REMARK minimizedAffinity -1.66236103
REMARK minimizedRMSD -1
REMARK  0 active torsions:
REMARK  status: ('A' for Active; 'I' for Inactive)
ROOT
ATOM      1  C   UNL d   1       5.999   4.997   4.118  0.00  0.00     0.172 C 
ATOM      2  N   UNL d   1       5.639   3.599   4.165  0.00  0.00    -0.070 N 
ATOM      3  C1  UNL d   1       6.000   2.715   5.146  0.00  0.00    -0.004 A 
ATOM      4  C2  UNL d   1       5.460   1.487   4.826  0.00  0.00    -0.047 A 
ATOM      5  C3  UNL d   1       4.751   1.640   3.611  0.00  0.00    -0.047 A 
ATOM      6  C4  UNL d   1       4.879   2.957   3.224  0.00  0.00    -0.004 A 
ENDROOT
TORSDOF 0
ENDMDL
