MODEL 1
REMARK minimizedAffinity -1.7681551
REMARK minimizedRMSD -1
REMARK  0 active torsions:
REMARK  status: ('A' for Active; 'I' for Inactive)
ROOT
ATOM      1  C   UNL d   1       3.010  -1.321   1.461  0.00  0.00     0.172 C 
ATOM      2  N   UNL d   1       3.708  -0.256   2.142  0.00  0.00    -0.070 N 
ATOM      3  C1  UNL d   1       3.375   1.071   2.100  0.00  0.00    -0.004 A 
ATOM      4  C2  UNL d   1       4.281   1.759   2.877  0.00  0.00    -0.047 A 
ATOM      5  C3  UNL d   1       5.192   0.812   3.404  0.00  0.00    -0.047 A 
ATOM      6  C4  UNL d   1       4.813  -0.428   2.933  0.00  0.00    -0.004 A 
ENDROOT
TORSDOF 0
ENDMDL
