MODEL 1
REMARK minimizedAffinity -1.84230149
REMARK minimizedRMSD -1
REMARK  0 active torsions:
REMARK  status: ('A' for Active; 'I' for Inactive)
ROOT
ATOM      1  C   UNL d   1      -2.243  -1.647   0.545  0.00  0.00     0.172 C 
ATOM      2  N   UNL d   1      -2.607  -1.112   1.836  0.00  0.00    -0.070 N 
ATOM      3  C1  UNL d   1      -3.772  -1.372   2.508  0.00  0.00    -0.004 A 
ATOM      4  C2  UNL d   1      -3.736  -0.677   3.698  0.00  0.00    -0.047 A 
ATOM      5  C3  UNL d   1      -2.509   0.026   3.742  0.00  0.00    -0.047 A 
ATOM      6  C4  UNL d   1      -1.829  -0.262   2.577  0.00  0.00    -0.004 A 
ENDROOT
TORSDOF 0
ENDMDL
