MODEL 1
REMARK minimizedAffinity -2.11116385
REMARK minimizedRMSD -1
REMARK  3 active torsions:
REMARK  status: ('A' for Active; 'I' for Inactive)
REMARK    1  A    between atoms: C3'_2  and  C2'_3 
REMARK    2  A    between atoms: C2'_3  and  C1'_4 
REMARK    3  A    between atoms: C1'_4  and  C1_5 
ROOT
ATOM      1  C1  N4B d   1       0.377  -0.174   0.141  0.00  0.00    -0.075 A 
ATOM      2  C2  N4B d   1      -0.068  -0.998   1.198  0.00  0.00     0.002 A 
ATOM      3  C3  N4B d   1      -0.615  -0.434   2.325  0.00  0.00     0.002 A 
ATOM      4  C4  N4B d   1      -0.709   0.946   2.424  0.00  0.00    -0.004 A 
ATOM      5  C5  N4B d   1      -0.301   1.734   1.388  0.00  0.00     0.002 A 
ATOM      6  C6  N4B d   1       0.247   1.181   0.248  0.00  0.00     0.002 A 
ENDROOT
BRANCH   1   7
ATOM      7  C1' N4B d   1       1.060  -0.740  -1.074  0.00  0.00     0.057 C 
BRANCH   7   8
ATOM      8  C2' N4B d   1       0.671  -2.207  -1.229  0.00  0.00     0.009 C 
BRANCH   8   9
ATOM      9  C3' N4B d   1       0.392  -2.571  -2.677  0.00  0.00     0.004 C 
ATOM     10  C4' N4B d   1      -0.763  -3.516  -2.827  0.00  0.00     0.003 C 
ENDBRANCH   8   9
ENDBRANCH   7   8
ENDBRANCH   1   7
TORSDOF 3
ENDMDL
