MODEL 1
REMARK minimizedAffinity -2.73023486
REMARK minimizedRMSD -1
REMARK  3 active torsions:
REMARK  status: ('A' for Active; 'I' for Inactive)
REMARK    1  A    between atoms: C3'_2  and  C2'_3 
REMARK    2  A    between atoms: C2'_3  and  C1'_4 
REMARK    3  A    between atoms: C1'_4  and  C1_5 
ROOT
ATOM      1  C1  N4B d   1       0.660  -1.185  -0.451  0.00  0.00    -0.075 A 
ATOM      2  C2  N4B d   1      -0.149  -1.675   0.598  0.00  0.00     0.002 A 
ATOM      3  C3  N4B d   1      -0.508  -0.848   1.633  0.00  0.00     0.002 A 
ATOM      4  C4  N4B d   1      -0.055   0.463   1.652  0.00  0.00    -0.004 A 
ATOM      5  C5  N4B d   1       0.705   0.936   0.623  0.00  0.00     0.002 A 
ATOM      6  C6  N4B d   1       1.070   0.117  -0.427  0.00  0.00     0.002 A 
ENDROOT
BRANCH   1   7
ATOM      7  C1' N4B d   1       1.149  -2.075  -1.560  0.00  0.00     0.057 C 
BRANCH   7   8
ATOM      8  C2' N4B d   1       0.067  -2.180  -2.631  0.00  0.00     0.009 C 
BRANCH   8   9
ATOM      9  C3' N4B d   1      -0.620  -3.535  -2.614  0.00  0.00     0.004 C 
ATOM     10  C4' N4B d   1       0.111  -4.547  -1.782  0.00  0.00     0.003 C 
ENDBRANCH   8   9
ENDBRANCH   7   8
ENDBRANCH   1   7
TORSDOF 3
ENDMDL
