MODEL 1
REMARK minimizedAffinity -4.84927368
REMARK minimizedRMSD -1
REMARK  3 active torsions:
REMARK  status: ('A' for Active; 'I' for Inactive)
REMARK    1  A    between atoms: C3'_2  and  C2'_3 
REMARK    2  A    between atoms: C2'_3  and  C1'_4 
REMARK    3  A    between atoms: C1'_4  and  C1_5 
ROOT
ATOM      1  C1  N4B d   1       1.126  -1.726  -1.517  0.00  0.00    -0.075 A 
ATOM      2  C2  N4B d   1       1.123  -3.015  -0.939  0.00  0.00     0.002 A 
ATOM      3  C3  N4B d   1       0.573  -4.072  -1.621  0.00  0.00     0.002 A 
ATOM      4  C4  N4B d   1       0.005  -3.863  -2.869  0.00  0.00    -0.004 A 
ATOM      5  C5  N4B d   1       0.035  -2.620  -3.431  0.00  0.00     0.002 A 
ATOM      6  C6  N4B d   1       0.588  -1.549  -2.759  0.00  0.00     0.002 A 
ENDROOT
BRANCH   1   7
ATOM      7  C1' N4B d   1       1.638  -0.523  -0.773  0.00  0.00     0.057 C 
BRANCH   7   8
ATOM      8  C2' N4B d   1       0.456   0.331  -0.326  0.00  0.00     0.009 C 
BRANCH   8   9
ATOM      9  C3' N4B d   1      -0.241  -0.256   0.890  0.00  0.00     0.004 C 
ATOM     10  C4' N4B d   1       0.709  -0.575   2.005  0.00  0.00     0.003 C 
ENDBRANCH   8   9
ENDBRANCH   7   8
ENDBRANCH   1   7
TORSDOF 3
ENDMDL
