MODEL 1
REMARK minimizedAffinity -5.61931276
REMARK minimizedRMSD -1
REMARK  3 active torsions:
REMARK  status: ('A' for Active; 'I' for Inactive)
REMARK    1  A    between atoms: C3'_2  and  C2'_3 
REMARK    2  A    between atoms: C2'_3  and  C1'_4 
REMARK    3  A    between atoms: C1'_4  and  C1_5 
ROOT
ATOM      1  C1  N4B d   1       0.417  -0.116   0.341  0.00  0.00    -0.075 A 
ATOM      2  C2  N4B d   1       0.210  -1.101   1.332  0.00  0.00     0.002 A 
ATOM      3  C3  N4B d   1      -0.498  -0.795   2.468  0.00  0.00     0.002 A 
ATOM      4  C4  N4B d   1      -0.991   0.490   2.643  0.00  0.00    -0.004 A 
ATOM      5  C5  N4B d   1      -0.808   1.429   1.670  0.00  0.00     0.002 A 
ATOM      6  C6  N4B d   1      -0.102   1.133   0.522  0.00  0.00     0.002 A 
ENDROOT
BRANCH   1   7
ATOM      7  C1' N4B d   1       1.257  -0.380  -0.878  0.00  0.00     0.057 C 
BRANCH   7   8
ATOM      8  C2' N4B d   1       1.163  -1.860  -1.240  0.00  0.00     0.009 C 
BRANCH   8   9
ATOM      9  C3' N4B d   1       0.412  -2.079  -2.542  0.00  0.00     0.004 C 
ATOM     10  C4' N4B d   1      -0.410  -3.333  -2.535  0.00  0.00     0.003 C 
ENDBRANCH   8   9
ENDBRANCH   7   8
ENDBRANCH   1   7
TORSDOF 3
ENDMDL
