MODEL 1
REMARK minimizedAffinity 3.65898848
REMARK minimizedRMSD -1
REMARK  3 active torsions:
REMARK  status: ('A' for Active; 'I' for Inactive)
REMARK    1  A    between atoms: C3'_2  and  C2'_3 
REMARK    2  A    between atoms: C2'_3  and  C1'_4 
REMARK    3  A    between atoms: C1'_4  and  C1_5 
ROOT
ATOM      1  C1  N4B d   1      -0.075  -0.703   0.484  0.00  0.00    -0.075 A 
ATOM      2  C2  N4B d   1      -1.212   0.043   0.863  0.00  0.00     0.002 A 
ATOM      3  C3  N4B d   1      -1.349   0.474   2.160  0.00  0.00     0.002 A 
ATOM      4  C4  N4B d   1      -0.375   0.156   3.095  0.00  0.00    -0.004 A 
ATOM      5  C5  N4B d   1       0.733  -0.542   2.714  0.00  0.00     0.002 A 
ATOM      6  C6  N4B d   1       0.886  -0.979   1.414  0.00  0.00     0.002 A 
ENDROOT
BRANCH   1   7
ATOM      7  C1' N4B d   1       0.078  -1.269  -0.902  0.00  0.00     0.057 C 
BRANCH   7   8
ATOM      8  C2' N4B d   1       0.857  -2.579  -0.825  0.00  0.00     0.009 C 
BRANCH   8   9
ATOM      9  C3' N4B d   1       0.025  -3.763  -1.286  0.00  0.00     0.004 C 
ATOM     10  C4' N4B d   1      -0.297  -3.712  -2.750  0.00  0.00     0.003 C 
ENDBRANCH   8   9
ENDBRANCH   7   8
ENDBRANCH   1   7
TORSDOF 3
ENDMDL
