MODEL 1
REMARK minimizedAffinity -4.04365349
REMARK minimizedRMSD -1
REMARK  3 active torsions:
REMARK  status: ('A' for Active; 'I' for Inactive)
REMARK    1  A    between atoms: C3'_2  and  C2'_3 
REMARK    2  A    between atoms: C2'_3  and  C1'_4 
REMARK    3  A    between atoms: C1'_4  and  C1_5 
ROOT
ATOM      1  C1  N4B d   1       0.110  -0.240   0.173  0.00  0.00    -0.075 A 
ATOM      2  C2  N4B d   1      -0.347  -0.495   1.484  0.00  0.00     0.002 A 
ATOM      3  C3  N4B d   1      -0.749   0.545   2.286  0.00  0.00     0.002 A 
ATOM      4  C4  N4B d   1      -0.685   1.845   1.806  0.00  0.00    -0.004 A 
ATOM      5  C5  N4B d   1      -0.267   2.080   0.529  0.00  0.00     0.002 A 
ATOM      6  C6  N4B d   1       0.137   1.044  -0.289  0.00  0.00     0.002 A 
ENDROOT
BRANCH   1   7
ATOM      7  C1' N4B d   1       0.641  -1.336  -0.711  0.00  0.00     0.057 C 
BRANCH   7   8
ATOM      8  C2' N4B d   1      -0.148  -1.352  -2.017  0.00  0.00     0.009 C 
BRANCH   8   9
ATOM      9  C3' N4B d   1      -0.533  -2.762  -2.431  0.00  0.00     0.004 C 
ATOM     10  C4' N4B d   1       0.345  -3.809  -1.813  0.00  0.00     0.003 C 
ENDBRANCH   8   9
ENDBRANCH   7   8
ENDBRANCH   1   7
TORSDOF 3
ENDMDL
