MODEL 1
REMARK minimizedAffinity -4.77327204
REMARK minimizedRMSD -1
REMARK  3 active torsions:
REMARK  status: ('A' for Active; 'I' for Inactive)
REMARK    1  A    between atoms: C3'_2  and  C2'_3 
REMARK    2  A    between atoms: C2'_3  and  C1'_4 
REMARK    3  A    between atoms: C1'_4  and  C1_5 
ROOT
ATOM      1  C1  N4B d   1       0.035  -0.140   0.443  0.00  0.00    -0.075 A 
ATOM      2  C2  N4B d   1      -0.281   1.234   0.514  0.00  0.00     0.002 A 
ATOM      3  C3  N4B d   1      -0.964   1.727   1.599  0.00  0.00     0.002 A 
ATOM      4  C4  N4B d   1      -1.355   0.864   2.612  0.00  0.00    -0.004 A 
ATOM      5  C5  N4B d   1      -1.024  -0.457   2.548  0.00  0.00     0.002 A 
ATOM      6  C6  N4B d   1      -0.335  -0.965   1.465  0.00  0.00     0.002 A 
ENDROOT
BRANCH   1   7
ATOM      7  C1' N4B d   1       0.704  -0.740  -0.764  0.00  0.00     0.057 C 
BRANCH   7   8
ATOM      8  C2' N4B d   1       0.983  -2.217  -0.499  0.00  0.00     0.009 C 
BRANCH   8   9
ATOM      9  C3' N4B d   1       0.341  -3.112  -1.545  0.00  0.00     0.004 C 
ATOM     10  C4' N4B d   1       0.779  -2.781  -2.941  0.00  0.00     0.003 C 
ENDBRANCH   8   9
ENDBRANCH   7   8
ENDBRANCH   1   7
TORSDOF 3
ENDMDL
