MODEL 1
REMARK minimizedAffinity -4.59947586
REMARK minimizedRMSD -1
REMARK  3 active torsions:
REMARK  status: ('A' for Active; 'I' for Inactive)
REMARK    1  A    between atoms: C3'_2  and  C2'_3 
REMARK    2  A    between atoms: C2'_3  and  C1'_4 
REMARK    3  A    between atoms: C1'_4  and  C1_5 
ROOT
ATOM      1  C1  N4B d   1       0.018  -0.361   0.101  0.00  0.00    -0.075 A 
ATOM      2  C2  N4B d   1      -0.730   0.833   0.192  0.00  0.00     0.002 A 
ATOM      3  C3  N4B d   1      -1.127   1.302   1.420  0.00  0.00     0.002 A 
ATOM      4  C4  N4B d   1      -0.806   0.587   2.564  0.00  0.00    -0.004 A 
ATOM      5  C5  N4B d   1      -0.062  -0.552   2.469  0.00  0.00     0.002 A 
ATOM      6  C6  N4B d   1       0.348  -1.033   1.242  0.00  0.00     0.002 A 
ENDROOT
BRANCH   1   7
ATOM      7  C1' N4B d   1       0.401  -0.959  -1.226  0.00  0.00     0.057 C 
BRANCH   7   8
ATOM      8  C2' N4B d   1      -0.826  -1.615  -1.852  0.00  0.00     0.009 C 
BRANCH   8   9
ATOM      9  C3' N4B d   1      -0.854  -3.115  -1.610  0.00  0.00     0.004 C 
ATOM     10  C4' N4B d   1       0.504  -3.743  -1.699  0.00  0.00     0.003 C 
ENDBRANCH   8   9
ENDBRANCH   7   8
ENDBRANCH   1   7
TORSDOF 3
ENDMDL
