MODEL 1
REMARK minimizedAffinity -1.15608907
REMARK minimizedRMSD -1
REMARK  3 active torsions:
REMARK  status: ('A' for Active; 'I' for Inactive)
REMARK    1  A    between atoms: C3'_2  and  C2'_3 
REMARK    2  A    between atoms: C2'_3  and  C1'_4 
REMARK    3  A    between atoms: C1'_4  and  C1_5 
ROOT
ATOM      1  C1  N4B d   1      -0.407  -0.387   0.674  0.00  0.00    -0.075 A 
ATOM      2  C2  N4B d   1      -1.420   0.554   0.960  0.00  0.00     0.002 A 
ATOM      3  C3  N4B d   1      -1.596   1.003   2.246  0.00  0.00     0.002 A 
ATOM      4  C4  N4B d   1      -0.788   0.513   3.260  0.00  0.00    -0.004 A 
ATOM      5  C5  N4B d   1       0.205  -0.377   2.971  0.00  0.00     0.002 A 
ATOM      6  C6  N4B d   1       0.396  -0.834   1.683  0.00  0.00     0.002 A 
ENDROOT
BRANCH   1   7
ATOM      7  C1' N4B d   1      -0.232  -0.972  -0.701  0.00  0.00     0.057 C 
BRANCH   7   8
ATOM      8  C2' N4B d   1      -0.761  -2.403  -0.708  0.00  0.00     0.009 C 
BRANCH   8   9
ATOM      9  C3' N4B d   1      -0.361  -3.151  -1.968  0.00  0.00     0.004 C 
ATOM     10  C4' N4B d   1       0.691  -4.189  -1.719  0.00  0.00     0.003 C 
ENDBRANCH   8   9
ENDBRANCH   7   8
ENDBRANCH   1   7
TORSDOF 3
ENDMDL
