MODEL 1
REMARK minimizedAffinity -3.68707705
REMARK minimizedRMSD -1
REMARK  0 active torsions:
REMARK  status: ('A' for Active; 'I' for Inactive)
ROOT
ATOM      1  C   UNL d   1       1.550  -0.648   3.119  0.00  0.00     0.077 C 
ATOM      2  C1  UNL d   1       0.534  -0.334   2.061  0.00  0.00    -0.074 A 
ATOM      3  C2  UNL d   1      -0.717   0.193   2.399  0.00  0.00    -0.005 A 
ATOM      4  C3  UNL d   1      -1.648   0.489   1.403  0.00  0.00     0.006 A 
ATOM      5  C4  UNL d   1      -1.338   0.262   0.062  0.00  0.00    -0.005 A 
ATOM      6  C5  UNL d   1      -0.092  -0.263  -0.295  0.00  0.00    -0.074 A 
ATOM      7  C6  UNL d   1       0.261  -0.504  -1.733  0.00  0.00     0.077 C 
ATOM      8  C7  UNL d   1       0.841  -0.552   0.710  0.00  0.00    -0.001 A 
ENDROOT
TORSDOF 0
ENDMDL
