MODEL 1
REMARK minimizedAffinity -4.79824495
REMARK minimizedRMSD -1
REMARK  0 active torsions:
REMARK  status: ('A' for Active; 'I' for Inactive)
ROOT
ATOM      1  C   UNL d   1       0.457  -0.362  -1.620  0.00  0.00     0.077 C 
ATOM      2  C1  UNL d   1       0.521  -0.378  -0.122  0.00  0.00    -0.074 A 
ATOM      3  C2  UNL d   1       1.703  -0.721   0.543  0.00  0.00    -0.005 A 
ATOM      4  C3  UNL d   1       1.750  -0.722   1.937  0.00  0.00     0.006 A 
ATOM      5  C4  UNL d   1       0.618  -0.380   2.679  0.00  0.00    -0.005 A 
ATOM      6  C5  UNL d   1      -0.571  -0.033   2.031  0.00  0.00    -0.074 A 
ATOM      7  C6  UNL d   1      -1.794   0.347   2.813  0.00  0.00     0.077 C 
ATOM      8  C7  UNL d   1      -0.609  -0.028   0.630  0.00  0.00    -0.001 A 
ENDROOT
TORSDOF 0
ENDMDL
