MODEL 1
REMARK minimizedAffinity -4.93989515
REMARK minimizedRMSD -1
REMARK  0 active torsions:
REMARK  status: ('A' for Active; 'I' for Inactive)
ROOT
ATOM      1  C   UNL d   1       0.333  -0.114  -1.514  0.00  0.00     0.077 C 
ATOM      2  C1  UNL d   1      -0.192   0.204  -0.145  0.00  0.00    -0.074 A 
ATOM      3  C2  UNL d   1      -1.555   0.435   0.066  0.00  0.00    -0.005 A 
ATOM      4  C3  UNL d   1      -2.030   0.720   1.346  0.00  0.00     0.006 A 
ATOM      5  C4  UNL d   1      -1.148   0.777   2.426  0.00  0.00    -0.005 A 
ATOM      6  C5  UNL d   1       0.218   0.548   2.235  0.00  0.00    -0.074 A 
ATOM      7  C6  UNL d   1       1.178   0.596   3.386  0.00  0.00     0.077 C 
ATOM      8  C7  UNL d   1       0.687   0.255   0.946  0.00  0.00    -0.001 A 
ENDROOT
TORSDOF 0
ENDMDL
