MODEL 1
REMARK minimizedAffinity -4.77570629
REMARK minimizedRMSD -1
REMARK  0 active torsions:
REMARK  status: ('A' for Active; 'I' for Inactive)
ROOT
ATOM      1  C   UNL d   1       0.472  -0.226  -1.171  0.00  0.00     0.077 C 
ATOM      2  C1  UNL d   1       0.214   0.086   0.273  0.00  0.00    -0.074 A 
ATOM      3  C2  UNL d   1      -1.042   0.533   0.698  0.00  0.00    -0.005 A 
ATOM      4  C3  UNL d   1      -1.270   0.810   2.046  0.00  0.00     0.006 A 
ATOM      5  C4  UNL d   1      -0.248   0.643   2.980  0.00  0.00    -0.005 A 
ATOM      6  C5  UNL d   1       1.014   0.197   2.574  0.00  0.00    -0.074 A 
ATOM      7  C6  UNL d   1       2.121   0.003   3.567  0.00  0.00     0.077 C 
ATOM      8  C7  UNL d   1       1.234  -0.086   1.219  0.00  0.00    -0.001 A 
ENDROOT
TORSDOF 0
ENDMDL
