MODEL 1
REMARK minimizedAffinity -3.96111798
REMARK minimizedRMSD -1
REMARK  0 active torsions:
REMARK  status: ('A' for Active; 'I' for Inactive)
ROOT
ATOM      1  C   UNL d   1       2.069  -0.852   3.314  0.00  0.00     0.077 C 
ATOM      2  C1  UNL d   1       0.932  -0.548   2.385  0.00  0.00    -0.074 A 
ATOM      3  C2  UNL d   1      -0.291  -0.079   2.876  0.00  0.00    -0.005 A 
ATOM      4  C3  UNL d   1      -1.337   0.209   2.000  0.00  0.00     0.006 A 
ATOM      5  C4  UNL d   1      -1.172   0.031   0.625  0.00  0.00    -0.005 A 
ATOM      6  C5  UNL d   1       0.044  -0.436   0.116  0.00  0.00    -0.074 A 
ATOM      7  C6  UNL d   1       0.242  -0.623  -1.359  0.00  0.00     0.077 C 
ATOM      8  C7  UNL d   1       1.093  -0.716   1.003  0.00  0.00    -0.001 A 
ENDROOT
TORSDOF 0
ENDMDL
