MODEL 1
REMARK minimizedAffinity -5.02189827
REMARK minimizedRMSD -1
REMARK  0 active torsions:
REMARK  status: ('A' for Active; 'I' for Inactive)
ROOT
ATOM      1  C   UNL d   1       1.917  -0.788   3.433  0.00  0.00     0.077 C 
ATOM      2  C1  UNL d   1       0.820  -0.415   2.481  0.00  0.00    -0.074 A 
ATOM      3  C2  UNL d   1      -0.344   0.212   2.937  0.00  0.00    -0.005 A 
ATOM      4  C3  UNL d   1      -1.353   0.562   2.039  0.00  0.00     0.006 A 
ATOM      5  C4  UNL d   1      -1.208   0.288   0.679  0.00  0.00    -0.005 A 
ATOM      6  C5  UNL d   1      -0.050  -0.338   0.204  0.00  0.00    -0.074 A 
ATOM      7  C6  UNL d   1       0.126  -0.630  -1.256  0.00  0.00     0.077 C 
ATOM      8  C7  UNL d   1       0.961  -0.679   1.112  0.00  0.00    -0.001 A 
ENDROOT
TORSDOF 0
ENDMDL
