MODEL 1
REMARK minimizedAffinity -2.0010035
REMARK minimizedRMSD -1
REMARK  0 active torsions:
REMARK  status: ('A' for Active; 'I' for Inactive)
ROOT
ATOM      1  C   UNL d   1       1.232  -0.785   3.474  0.00  0.00     0.077 C 
ATOM      2  C1  UNL d   1       0.233  -0.485   2.396  0.00  0.00    -0.074 A 
ATOM      3  C2  UNL d   1      -0.969   0.164   2.691  0.00  0.00    -0.005 A 
ATOM      4  C3  UNL d   1      -1.885   0.445   1.677  0.00  0.00     0.006 A 
ATOM      5  C4  UNL d   1      -1.607   0.081   0.359  0.00  0.00    -0.005 A 
ATOM      6  C5  UNL d   1      -0.408  -0.569   0.044  0.00  0.00    -0.074 A 
ATOM      7  C6  UNL d   1      -0.090  -0.959  -1.368  0.00  0.00     0.077 C 
ATOM      8  C7  UNL d   1       0.509  -0.841   1.068  0.00  0.00    -0.001 A 
ENDROOT
TORSDOF 0
ENDMDL
