MODEL 1
REMARK minimizedAffinity -2.52252865
REMARK minimizedRMSD -1
REMARK  0 active torsions:
REMARK  status: ('A' for Active; 'I' for Inactive)
ROOT
ATOM      1  C   UNL d   1       0.150  -0.612  -2.445  0.00  0.00     0.077 C 
ATOM      2  C1  UNL d   1       0.470  -0.474  -0.986  0.00  0.00    -0.074 A 
ATOM      3  C2  UNL d   1       1.610  -1.074  -0.441  0.00  0.00    -0.005 A 
ATOM      4  C3  UNL d   1       1.901  -0.930   0.915  0.00  0.00     0.006 A 
ATOM      5  C4  UNL d   1       1.055  -0.186   1.740  0.00  0.00    -0.005 A 
ATOM      6  C5  UNL d   1      -0.089   0.422   1.212  0.00  0.00    -0.074 A 
ATOM      7  C6  UNL d   1      -1.002   1.233   2.082  0.00  0.00     0.077 C 
ATOM      8  C7  UNL d   1      -0.370   0.278  -0.153  0.00  0.00    -0.001 A 
ENDROOT
TORSDOF 0
ENDMDL
