MODEL 1
REMARK minimizedAffinity 0.697826803
REMARK minimizedRMSD -1
REMARK  0 active torsions:
REMARK  status: ('A' for Active; 'I' for Inactive)
ROOT
ATOM      1  C   UNL d   1       0.151  -0.043  -2.461  0.00  0.00     0.077 C 
ATOM      2  C1  UNL d   1       0.480  -0.206  -1.006  0.00  0.00    -0.074 A 
ATOM      3  C2  UNL d   1       1.041  -1.393  -0.525  0.00  0.00    -0.005 A 
ATOM      4  C3  UNL d   1       1.350  -1.526   0.829  0.00  0.00     0.006 A 
ATOM      5  C4  UNL d   1       1.102  -0.475   1.713  0.00  0.00    -0.005 A 
ATOM      6  C5  UNL d   1       0.543   0.719   1.249  0.00  0.00    -0.074 A 
ATOM      7  C6  UNL d   1       0.279   1.862   2.184  0.00  0.00     0.077 C 
ATOM      8  C7  UNL d   1       0.241   0.848  -0.113  0.00  0.00    -0.001 A 
ENDROOT
TORSDOF 0
ENDMDL
