MODEL 1
REMARK minimizedAffinity -5.79557228
REMARK minimizedRMSD -1
REMARK  0 active torsions:
REMARK  status: ('A' for Active; 'I' for Inactive)
ROOT
ATOM      1  C   UNL d   1       2.102   0.471   3.476  0.00  0.00     0.077 C 
ATOM      2  C1  UNL d   1       0.880   0.362   2.615  0.00  0.00    -0.074 A 
ATOM      3  C2  UNL d   1      -0.381   0.715   3.108  0.00  0.00    -0.005 A 
ATOM      4  C3  UNL d   1      -1.508   0.618   2.292  0.00  0.00     0.006 A 
ATOM      5  C4  UNL d   1      -1.386   0.168   0.977  0.00  0.00    -0.005 A 
ATOM      6  C5  UNL d   1      -0.134  -0.189   0.466  0.00  0.00    -0.074 A 
ATOM      7  C6  UNL d   1       0.016  -0.665  -0.948  0.00  0.00     0.077 C 
ATOM      8  C7  UNL d   1       0.995  -0.081   1.290  0.00  0.00    -0.001 A 
ENDROOT
TORSDOF 0
ENDMDL
