MODEL 1
REMARK minimizedAffinity -2.94706535
REMARK minimizedRMSD -1
REMARK  0 active torsions:
REMARK  status: ('A' for Active; 'I' for Inactive)
ROOT
ATOM      1  C   UNL d   1      -1.331  -0.530  -0.340  0.00  0.00     0.077 C 
ATOM      2  C1  UNL d   1      -0.985  -0.188   1.079  0.00  0.00    -0.074 A 
ATOM      3  C2  UNL d   1      -1.690   0.802   1.772  0.00  0.00    -0.005 A 
ATOM      4  C3  UNL d   1      -1.364   1.103   3.094  0.00  0.00     0.006 A 
ATOM      5  C4  UNL d   1      -0.332   0.418   3.736  0.00  0.00    -0.005 A 
ATOM      6  C5  UNL d   1       0.384  -0.575   3.060  0.00  0.00    -0.074 A 
ATOM      7  C6  UNL d   1       1.490  -1.327   3.738  0.00  0.00     0.077 C 
ATOM      8  C7  UNL d   1       0.046  -0.876   1.734  0.00  0.00    -0.001 A 
ENDROOT
TORSDOF 0
ENDMDL
