MODEL 1
REMARK minimizedAffinity 11.2098942
REMARK minimizedRMSD -1
REMARK  3 active torsions:
REMARK  status: ('A' for Active; 'I' for Inactive)
REMARK    1  A    between atoms: C3'_2  and  C2'_3 
REMARK    2  A    between atoms: C2'_3  and  C1'_4 
REMARK    3  A    between atoms: C1'_4  and  C1_5 
ROOT
ATOM      1  C1  N4B d   1       0.371   3.267   0.245  0.00  0.00    -0.075 A 
ATOM      2  C2  N4B d   1       0.795   3.936  -0.923  0.00  0.00     0.002 A 
ATOM      3  C3  N4B d   1       0.628   5.295  -1.035  0.00  0.00     0.002 A 
ATOM      4  C4  N4B d   1       0.023   5.999  -0.004  0.00  0.00    -0.004 A 
ATOM      5  C5  N4B d   1      -0.361   5.348   1.132  0.00  0.00     0.002 A 
ATOM      6  C6  N4B d   1      -0.195   3.984   1.260  0.00  0.00     0.002 A 
ENDROOT
BRANCH   1   7
ATOM      7  C1' N4B d   1       0.455   1.771   0.378  0.00  0.00     0.057 C 
BRANCH   7   8
ATOM      8  C2' N4B d   1       0.406   1.141  -1.011  0.00  0.00     0.009 C 
BRANCH   8   9
ATOM      9  C3' N4B d   1      -0.715   0.124  -1.135  0.00  0.00     0.004 C 
ATOM     10  C4' N4B d   1      -0.884  -0.388  -2.534  0.00  0.00     0.003 C 
ENDBRANCH   8   9
ENDBRANCH   7   8
ENDBRANCH   1   7
TORSDOF 3
ENDMDL
