MODEL 1
REMARK minimizedAffinity 5.32791901
REMARK minimizedRMSD -1
REMARK  3 active torsions:
REMARK  status: ('A' for Active; 'I' for Inactive)
REMARK    1  A    between atoms: C3'_2  and  C2'_3 
REMARK    2  A    between atoms: C2'_3  and  C1'_4 
REMARK    3  A    between atoms: C1'_4  and  C1_5 
ROOT
ATOM      1  C1  N4B d   1       4.095  -2.053  -0.710  0.00  0.00    -0.075 A 
ATOM      2  C2  N4B d   1       3.726  -2.988   0.282  0.00  0.00     0.002 A 
ATOM      3  C3  N4B d   1       4.480  -4.120   0.472  0.00  0.00     0.002 A 
ATOM      4  C4  N4B d   1       5.591  -4.347  -0.327  0.00  0.00    -0.004 A 
ATOM      5  C5  N4B d   1       5.955  -3.426  -1.265  0.00  0.00     0.002 A 
ATOM      6  C6  N4B d   1       5.208  -2.282  -1.465  0.00  0.00     0.002 A 
ENDROOT
BRANCH   1   7
ATOM      7  C1' N4B d   1       3.253  -0.843  -1.013  0.00  0.00     0.057 C 
BRANCH   7   8
ATOM      8  C2' N4B d   1       1.781  -1.196  -0.818  0.00  0.00     0.009 C 
BRANCH   8   9
ATOM      9  C3' N4B d   1       0.874  -0.003  -1.067  0.00  0.00     0.004 C 
ATOM     10  C4' N4B d   1      -0.304  -0.340  -1.931  0.00  0.00     0.003 C 
ENDBRANCH   8   9
ENDBRANCH   7   8
ENDBRANCH   1   7
TORSDOF 3
ENDMDL
