MODEL 1
REMARK minimizedAffinity 2.12675095
REMARK minimizedRMSD -1
REMARK  3 active torsions:
REMARK  status: ('A' for Active; 'I' for Inactive)
REMARK    1  A    between atoms: C3'_2  and  C2'_3 
REMARK    2  A    between atoms: C2'_3  and  C1'_4 
REMARK    3  A    between atoms: C1'_4  and  C1_5 
ROOT
ATOM      1  C1  N4B d   1       0.103   3.648   0.913  0.00  0.00    -0.075 A 
ATOM      2  C2  N4B d   1      -0.364   4.810   1.565  0.00  0.00     0.002 A 
ATOM      3  C3  N4B d   1      -0.544   5.972   0.854  0.00  0.00     0.002 A 
ATOM      4  C4  N4B d   1      -0.247   6.000  -0.500  0.00  0.00    -0.004 A 
ATOM      5  C5  N4B d   1       0.180   4.866  -1.128  0.00  0.00     0.002 A 
ATOM      6  C6  N4B d   1       0.361   3.691  -0.427  0.00  0.00     0.002 A 
ENDROOT
BRANCH   1   7
ATOM      7  C1' N4B d   1       0.396   2.379   1.665  0.00  0.00     0.057 C 
BRANCH   7   8
ATOM      8  C2' N4B d   1      -0.112   2.516   3.097  0.00  0.00     0.009 C 
BRANCH   8   9
ATOM      9  C3' N4B d   1       0.845   1.899   4.101  0.00  0.00     0.004 C 
ATOM     10  C4' N4B d   1       0.566   0.447   4.353  0.00  0.00     0.003 C 
ENDBRANCH   8   9
ENDBRANCH   7   8
ENDBRANCH   1   7
TORSDOF 3
ENDMDL
