MODEL 1
REMARK minimizedAffinity 11.622817
REMARK minimizedRMSD -1
REMARK  3 active torsions:
REMARK  status: ('A' for Active; 'I' for Inactive)
REMARK    1  A    between atoms: C3'_2  and  C2'_3 
REMARK    2  A    between atoms: C2'_3  and  C1'_4 
REMARK    3  A    between atoms: C1'_4  and  C1_5 
ROOT
ATOM      1  C1  N4B d   1      -3.998   0.104   3.748  0.00  0.00    -0.075 A 
ATOM      2  C2  N4B d   1      -4.979   0.707   4.566  0.00  0.00     0.002 A 
ATOM      3  C3  N4B d   1      -5.877  -0.074   5.250  0.00  0.00     0.002 A 
ATOM      4  C4  N4B d   1      -5.827  -1.454   5.117  0.00  0.00    -0.004 A 
ATOM      5  C5  N4B d   1      -4.861  -2.029   4.345  0.00  0.00     0.002 A 
ATOM      6  C6  N4B d   1      -3.949  -1.256   3.655  0.00  0.00     0.002 A 
ENDROOT
BRANCH   1   7
ATOM      7  C1' N4B d   1      -3.049   0.921   2.914  0.00  0.00     0.057 C 
BRANCH   7   8
ATOM      8  C2' N4B d   1      -2.289   1.885   3.819  0.00  0.00     0.009 C 
BRANCH   8   9
ATOM      9  C3' N4B d   1      -0.797   1.602   3.826  0.00  0.00     0.004 C 
ATOM     10  C4' N4B d   1      -0.016   2.585   3.006  0.00  0.00     0.003 C 
ENDBRANCH   8   9
ENDBRANCH   7   8
ENDBRANCH   1   7
TORSDOF 3
ENDMDL
