MODEL 1
REMARK minimizedAffinity 12.1621618
REMARK minimizedRMSD -1
REMARK  3 active torsions:
REMARK  status: ('A' for Active; 'I' for Inactive)
REMARK    1  A    between atoms: C3'_2  and  C2'_3 
REMARK    2  A    between atoms: C2'_3  and  C1'_4 
REMARK    3  A    between atoms: C1'_4  and  C1_5 
ROOT
ATOM      1  C1  N4B d   1       0.105   3.300   0.655  0.00  0.00    -0.075 A 
ATOM      2  C2  N4B d   1       0.658   4.143  -0.334  0.00  0.00     0.002 A 
ATOM      3  C3  N4B d   1       0.346   5.480  -0.349  0.00  0.00     0.002 A 
ATOM      4  C4  N4B d   1      -0.529   5.991   0.598  0.00  0.00    -0.004 A 
ATOM      5  C5  N4B d   1      -1.039   5.175   1.565  0.00  0.00     0.002 A 
ATOM      6  C6  N4B d   1      -0.731   3.830   1.595  0.00  0.00     0.002 A 
ENDROOT
BRANCH   1   7
ATOM      7  C1' N4B d   1       0.350   1.816   0.661  0.00  0.00     0.057 C 
BRANCH   7   8
ATOM      8  C2' N4B d   1      -0.515   1.162  -0.413  0.00  0.00     0.009 C 
BRANCH   8   9
ATOM      9  C3' N4B d   1       0.267   0.151  -1.235  0.00  0.00     0.004 C 
ATOM     10  C4' N4B d   1      -0.535  -0.427  -2.362  0.00  0.00     0.003 C 
ENDBRANCH   8   9
ENDBRANCH   7   8
ENDBRANCH   1   7
TORSDOF 3
ENDMDL
