MODEL 1
REMARK minimizedAffinity 7.11637259
REMARK minimizedRMSD -1
REMARK  3 active torsions:
REMARK  status: ('A' for Active; 'I' for Inactive)
REMARK    1  A    between atoms: C3'_2  and  C2'_3 
REMARK    2  A    between atoms: C2'_3  and  C1'_4 
REMARK    3  A    between atoms: C1'_4  and  C1_5 
ROOT
ATOM      1  C1  N4B d   1       0.209   3.562   0.877  0.00  0.00    -0.075 A 
ATOM      2  C2  N4B d   1      -0.354   4.709   1.478  0.00  0.00     0.002 A 
ATOM      3  C3  N4B d   1      -0.322   5.914   0.819  0.00  0.00     0.002 A 
ATOM      4  C4  N4B d   1       0.281   5.999  -0.426  0.00  0.00    -0.004 A 
ATOM      5  C5  N4B d   1       0.800   4.881  -1.010  0.00  0.00     0.002 A 
ATOM      6  C6  N4B d   1       0.771   3.663  -0.362  0.00  0.00     0.002 A 
ENDROOT
BRANCH   1   7
ATOM      7  C1' N4B d   1       0.274   2.241   1.595  0.00  0.00     0.057 C 
BRANCH   7   8
ATOM      8  C2' N4B d   1       0.097   2.476   3.092  0.00  0.00     0.009 C 
BRANCH   8   9
ATOM      9  C3' N4B d   1       1.402   2.310   3.852  0.00  0.00     0.004 C 
ATOM     10  C4' N4B d   1       2.477   3.236   3.369  0.00  0.00     0.003 C 
ENDBRANCH   8   9
ENDBRANCH   7   8
ENDBRANCH   1   7
TORSDOF 3
ENDMDL
