MODEL 1
REMARK minimizedAffinity -2.14063191
REMARK minimizedRMSD -1
REMARK  1 active torsions:
REMARK  status: ('A' for Active; 'I' for Inactive)
REMARK    1  A    between atoms: C1_2  and  C2_3 
ROOT
ATOM      1  C2  UNL d   1       1.685   1.494   0.378  0.00  0.00    -0.073 A 
ATOM      2  C3  UNL d   1       0.441   1.783  -0.193  0.00  0.00    -0.002 A 
ATOM      3  C4  UNL d   1      -0.705   1.834   0.603  0.00  0.00     0.004 A 
ATOM      4  C5  UNL d   1      -0.617   1.604   1.976  0.00  0.00    -0.004 A 
ATOM      5  C6  UNL d   1       0.619   1.326   2.567  0.00  0.00    -0.075 A 
ATOM      6  C7  UNL d   1       0.731   1.075   4.042  0.00  0.00     0.076 C 
ATOM      7  C8  UNL d   1       1.765   1.274   1.761  0.00  0.00     0.001 A 
ENDROOT
BRANCH   1   8
ATOM      8  C1  UNL d   1       2.926   1.444  -0.475  0.00  0.00     0.053 C 
ATOM      9  C   UNL d   1       4.082   0.763   0.239  0.00  0.00     0.018 C 
ENDBRANCH   1   8
TORSDOF 1
ENDMDL
