MODEL 1
REMARK minimizedAffinity 1.0786047
REMARK minimizedRMSD -1
REMARK  1 active torsions:
REMARK  status: ('A' for Active; 'I' for Inactive)
REMARK    1  A    between atoms: C1_2  and  C2_3 
ROOT
ATOM      1  C2  UNL d   1       1.806  -0.026  -0.284  0.00  0.00    -0.073 A 
ATOM      2  C3  UNL d   1       2.939   0.700  -0.667  0.00  0.00    -0.002 A 
ATOM      3  C4  UNL d   1       3.190   1.957  -0.116  0.00  0.00     0.004 A 
ATOM      4  C5  UNL d   1       2.316   2.497   0.827  0.00  0.00    -0.004 A 
ATOM      5  C6  UNL d   1       1.185   1.781   1.232  0.00  0.00    -0.075 A 
ATOM      6  C7  UNL d   1       0.234   2.349   2.244  0.00  0.00     0.076 C 
ATOM      7  C8  UNL d   1       0.938   0.521   0.672  0.00  0.00     0.001 A 
ENDROOT
BRANCH   1   8
ATOM      8  C1  UNL d   1       1.534  -1.387  -0.872  0.00  0.00     0.053 C 
ATOM      9  C   UNL d   1       1.978  -2.507   0.056  0.00  0.00     0.018 C 
ENDBRANCH   1   8
TORSDOF 1
ENDMDL
