MODEL 1
REMARK minimizedAffinity 1.86944413
REMARK minimizedRMSD -1
REMARK  1 active torsions:
REMARK  status: ('A' for Active; 'I' for Inactive)
REMARK    1  A    between atoms: C1_2  and  C2_3 
ROOT
ATOM      1  C2  UNL d   1       0.546   0.941   0.611  0.00  0.00    -0.073 A 
ATOM      2  C3  UNL d   1      -0.004   1.626  -0.478  0.00  0.00    -0.002 A 
ATOM      3  C4  UNL d   1      -0.473   0.922  -1.589  0.00  0.00     0.004 A 
ATOM      4  C5  UNL d   1      -0.403  -0.470  -1.619  0.00  0.00    -0.004 A 
ATOM      5  C6  UNL d   1       0.132  -1.173  -0.535  0.00  0.00    -0.075 A 
ATOM      6  C7  UNL d   1       0.216  -2.671  -0.552  0.00  0.00     0.076 C 
ATOM      7  C8  UNL d   1       0.603  -0.460   0.576  0.00  0.00     0.001 A 
ENDROOT
BRANCH   1   8
ATOM      8  C1  UNL d   1       1.047   1.695   1.815  0.00  0.00     0.053 C 
ATOM      9  C   UNL d   1      -0.079   2.397   2.558  0.00  0.00     0.018 C 
ENDBRANCH   1   8
TORSDOF 1
ENDMDL
