MODEL 1
REMARK minimizedAffinity 0.34596321
REMARK minimizedRMSD -1
REMARK  1 active torsions:
REMARK  status: ('A' for Active; 'I' for Inactive)
REMARK    1  A    between atoms: C1_2  and  C2_3 
ROOT
ATOM      1  C2  UNL d   1       4.267   0.383  -1.451  0.00  0.00    -0.073 A 
ATOM      2  C3  UNL d   1       4.741  -0.134  -2.661  0.00  0.00    -0.002 A 
ATOM      3  C4  UNL d   1       4.362  -1.411  -3.079  0.00  0.00     0.004 A 
ATOM      4  C5  UNL d   1       3.501  -2.179  -2.295  0.00  0.00    -0.004 A 
ATOM      5  C6  UNL d   1       3.007  -1.674  -1.088  0.00  0.00    -0.075 A 
ATOM      6  C7  UNL d   1       2.082  -2.489  -0.233  0.00  0.00     0.076 C 
ATOM      7  C8  UNL d   1       3.394  -0.393  -0.674  0.00  0.00     0.001 A 
ENDROOT
BRANCH   1   8
ATOM      8  C1  UNL d   1       4.668   1.764  -0.999  0.00  0.00     0.053 C 
ATOM      9  C   UNL d   1       3.507   2.517  -0.370  0.00  0.00     0.018 C 
ENDBRANCH   1   8
TORSDOF 1
ENDMDL
