MODEL 1
REMARK minimizedAffinity -4.90025473
REMARK minimizedRMSD -1
REMARK  1 active torsions:
REMARK  status: ('A' for Active; 'I' for Inactive)
REMARK    1  A    between atoms: C3_4  and  O_7 
ROOT
ATOM      1  C   UNL d   1      -0.901   2.599   0.101  0.00  0.00    -0.033 A 
ATOM      2  C1  UNL d   1      -0.228   1.529  -0.492  0.00  0.00     0.039 A 
ATOM      3  C2  UNL d   1      -0.226   0.276   0.124  0.00  0.00    -0.080 A 
ATOM      4  C3  UNL d   1      -0.901   0.106   1.329  0.00  0.00     0.150 A 
ATOM      5  C4  UNL d   1      -1.577   1.166   1.923  0.00  0.00    -0.007 A 
ATOM      6  C5  UNL d   1      -1.577   2.417   1.308  0.00  0.00     0.039 A 
ENDROOT
BRANCH   4   7
ATOM      7  O   UNL d   1      -0.924  -1.098   1.970  0.00  0.00    -0.526 OA
ATOM      8  H5  UNL d   1      -0.391  -1.729   1.458  0.00  0.00     0.418 HD
ENDBRANCH   4   7
TORSDOF 1
ENDMDL
