MODEL 1
REMARK minimizedAffinity -1.64173985
REMARK minimizedRMSD -1
REMARK  1 active torsions:
REMARK  status: ('A' for Active; 'I' for Inactive)
REMARK    1  A    between atoms: C3_4  and  O_7 
ROOT
ATOM      1  C   UNL d   1       1.229  -0.902  -0.375  0.00  0.00    -0.033 A 
ATOM      2  C1  UNL d   1       0.697   0.314  -0.810  0.00  0.00     0.039 A 
ATOM      3  C2  UNL d   1      -0.256   0.978  -0.036  0.00  0.00    -0.080 A 
ATOM      4  C3  UNL d   1      -0.668   0.418   1.170  0.00  0.00     0.150 A 
ATOM      5  C4  UNL d   1      -0.139  -0.790   1.612  0.00  0.00    -0.007 A 
ATOM      6  C5  UNL d   1       0.812  -1.453   0.837  0.00  0.00     0.039 A 
ENDROOT
BRANCH   4   7
ATOM      7  O   UNL d   1      -1.599   1.027   1.957  0.00  0.00    -0.526 OA
ATOM      8  H5  UNL d   1      -1.896   1.838   1.511  0.00  0.00     0.418 HD
ENDBRANCH   4   7
TORSDOF 1
ENDMDL
