MODEL 1
REMARK minimizedAffinity -2.94885278
REMARK minimizedRMSD -1
REMARK  1 active torsions:
REMARK  status: ('A' for Active; 'I' for Inactive)
REMARK    1  A    between atoms: C3_4  and  O_7 
ROOT
ATOM      1  C   UNL d   1      -0.047  -1.271   0.294  0.00  0.00    -0.033 A 
ATOM      2  C1  UNL d   1      -0.788  -0.176   0.741  0.00  0.00     0.039 A 
ATOM      3  C2  UNL d   1      -0.617   1.076   0.147  0.00  0.00    -0.080 A 
ATOM      4  C3  UNL d   1       0.297   1.219  -0.893  0.00  0.00     0.150 A 
ATOM      5  C4  UNL d   1       1.037   0.132  -1.347  0.00  0.00    -0.007 A 
ATOM      6  C5  UNL d   1       0.865  -1.117  -0.752  0.00  0.00     0.039 A 
ENDROOT
BRANCH   4   7
ATOM      7  O   UNL d   1       0.503   2.422  -1.500  0.00  0.00    -0.526 OA
ATOM      8  H5  UNL d   1      -0.055   3.087  -1.064  0.00  0.00     0.418 HD
ENDBRANCH   4   7
TORSDOF 1
ENDMDL
