MODEL 1
REMARK minimizedAffinity -4.03025436
REMARK minimizedRMSD -1
REMARK  1 active torsions:
REMARK  status: ('A' for Active; 'I' for Inactive)
REMARK    1  A    between atoms: C3_4  and  O_7 
ROOT
ATOM      1  C   UNL d   1       0.529  -0.614   0.183  0.00  0.00    -0.033 A 
ATOM      2  C1  UNL d   1       0.029   0.271  -0.774  0.00  0.00     0.039 A 
ATOM      3  C2  UNL d   1      -0.891   1.254  -0.406  0.00  0.00    -0.080 A 
ATOM      4  C3  UNL d   1      -1.302   1.342   0.922  0.00  0.00     0.150 A 
ATOM      5  C4  UNL d   1      -0.805   0.466   1.881  0.00  0.00    -0.007 A 
ATOM      6  C5  UNL d   1       0.113  -0.515   1.511  0.00  0.00     0.039 A 
ENDROOT
BRANCH   4   7
ATOM      7  O   UNL d   1      -2.202   2.282   1.328  0.00  0.00    -0.526 OA
ATOM      8  H5  UNL d   1      -2.480   2.797   0.552  0.00  0.00     0.418 HD
ENDBRANCH   4   7
TORSDOF 1
ENDMDL
