MODEL 1
REMARK minimizedAffinity -4.15032578
REMARK minimizedRMSD -1
REMARK  1 active torsions:
REMARK  status: ('A' for Active; 'I' for Inactive)
REMARK    1  A    between atoms: C3_4  and  O_7 
ROOT
ATOM      1  C   UNL d   1       0.503  -0.356   0.179  0.00  0.00    -0.033 A 
ATOM      2  C1  UNL d   1       0.072   0.591  -0.752  0.00  0.00     0.039 A 
ATOM      3  C2  UNL d   1      -0.948   1.484  -0.420  0.00  0.00    -0.080 A 
ATOM      4  C3  UNL d   1      -1.527   1.422   0.844  0.00  0.00     0.150 A 
ATOM      5  C4  UNL d   1      -1.100   0.484   1.778  0.00  0.00    -0.007 A 
ATOM      6  C5  UNL d   1      -0.082  -0.409   1.445  0.00  0.00     0.039 A 
ENDROOT
BRANCH   4   7
ATOM      7  O   UNL d   1      -2.529   2.270   1.212  0.00  0.00    -0.526 OA
ATOM      8  H5  UNL d   1      -2.740   2.844   0.456  0.00  0.00     0.418 HD
ENDBRANCH   4   7
TORSDOF 1
ENDMDL
