MODEL 1
REMARK minimizedAffinity -3.53679848
REMARK minimizedRMSD -1
REMARK  1 active torsions:
REMARK  status: ('A' for Active; 'I' for Inactive)
REMARK    1  A    between atoms: C3_4  and  O_7 
ROOT
ATOM      1  C   UNL d   1       0.488  -0.375  -0.351  0.00  0.00    -0.033 A 
ATOM      2  C1  UNL d   1       0.022   0.770  -1.000  0.00  0.00     0.039 A 
ATOM      3  C2  UNL d   1      -0.970   1.555  -0.409  0.00  0.00    -0.080 A 
ATOM      4  C3  UNL d   1      -1.486   1.186   0.830  0.00  0.00     0.150 A 
ATOM      5  C4  UNL d   1      -1.024   0.048   1.484  0.00  0.00    -0.007 A 
ATOM      6  C5  UNL d   1      -0.034  -0.735   0.892  0.00  0.00     0.039 A 
ENDROOT
BRANCH   4   7
ATOM      7  O   UNL d   1      -2.459   1.918   1.444  0.00  0.00    -0.526 OA
ATOM      8  H5  UNL d   1      -2.700   2.658   0.863  0.00  0.00     0.418 HD
ENDBRANCH   4   7
TORSDOF 1
ENDMDL
