MODEL 1
REMARK minimizedAffinity -4.07879543
REMARK minimizedRMSD -1
REMARK  1 active torsions:
REMARK  status: ('A' for Active; 'I' for Inactive)
REMARK    1  A    between atoms: C3_4  and  O_7 
ROOT
ATOM      1  C   UNL d   1       0.566   0.152  -1.083  0.00  0.00    -0.033 A 
ATOM      2  C1  UNL d   1       0.306  -0.697  -0.005  0.00  0.00     0.039 A 
ATOM      3  C2  UNL d   1      -0.470  -0.249   1.066  0.00  0.00    -0.080 A 
ATOM      4  C3  UNL d   1      -0.979   1.046   1.047  0.00  0.00     0.150 A 
ATOM      5  C4  UNL d   1      -0.727   1.896  -0.025  0.00  0.00    -0.007 A 
ATOM      6  C5  UNL d   1       0.049   1.447  -1.093  0.00  0.00     0.039 A 
ENDROOT
BRANCH   4   7
ATOM      7  O   UNL d   1      -1.737   1.529   2.072  0.00  0.00    -0.526 OA
ATOM      8  H5  UNL d   1      -1.804   0.841   2.756  0.00  0.00     0.418 HD
ENDBRANCH   4   7
TORSDOF 1
ENDMDL
