MODEL 1
REMARK minimizedAffinity -5.51312256
REMARK minimizedRMSD -1
REMARK  1 active torsions:
REMARK  status: ('A' for Active; 'I' for Inactive)
REMARK    1  A    between atoms: C3_4  and  O_7 
ROOT
ATOM      1  C   UNL d   1      -1.194   2.936   0.023  0.00  0.00    -0.033 A 
ATOM      2  C1  UNL d   1      -1.531   2.491   1.303  0.00  0.00     0.039 A 
ATOM      3  C2  UNL d   1      -1.172   1.206   1.714  0.00  0.00    -0.080 A 
ATOM      4  C3  UNL d   1      -0.476   0.378   0.838  0.00  0.00     0.150 A 
ATOM      5  C4  UNL d   1      -0.133   0.817  -0.437  0.00  0.00    -0.007 A 
ATOM      6  C5  UNL d   1      -0.494   2.100  -0.846  0.00  0.00     0.039 A 
ENDROOT
BRANCH   4   7
ATOM      7  O   UNL d   1      -0.108  -0.886   1.193  0.00  0.00    -0.526 OA
ATOM      8  H5  UNL d   1      -0.437  -1.061   2.090  0.00  0.00     0.418 HD
ENDBRANCH   4   7
TORSDOF 1
ENDMDL
