MODEL 1
REMARK minimizedAffinity -5.43659496
REMARK minimizedRMSD -1
REMARK  1 active torsions:
REMARK  status: ('A' for Active; 'I' for Inactive)
REMARK    1  A    between atoms: C3_4  and  O_7 
ROOT
ATOM      1  C   UNL d   1      -1.140   2.918   1.103  0.00  0.00    -0.033 A 
ATOM      2  C1  UNL d   1      -1.285   1.657   1.686  0.00  0.00     0.039 A 
ATOM      3  C2  UNL d   1      -0.622   0.555   1.143  0.00  0.00    -0.080 A 
ATOM      4  C3  UNL d   1       0.183   0.727   0.020  0.00  0.00     0.150 A 
ATOM      5  C4  UNL d   1       0.335   1.981  -0.563  0.00  0.00    -0.007 A 
ATOM      6  C5  UNL d   1      -0.329   3.080  -0.020  0.00  0.00     0.039 A 
ENDROOT
BRANCH   4   7
ATOM      7  O   UNL d   1       0.846  -0.320  -0.548  0.00  0.00    -0.526 OA
ATOM      8  H5  UNL d   1       0.624  -1.128  -0.057  0.00  0.00     0.418 HD
ENDBRANCH   4   7
TORSDOF 1
ENDMDL
