MODEL 1
REMARK minimizedAffinity -4.27634668
REMARK minimizedRMSD -1
REMARK  1 active torsions:
REMARK  status: ('A' for Active; 'I' for Inactive)
REMARK    1  A    between atoms: C3_4  and  O_7 
ROOT
ATOM      1  C   UNL d   1       0.560   0.195   0.080  0.00  0.00    -0.033 A 
ATOM      2  C1  UNL d   1      -0.214   1.161  -0.566  0.00  0.00     0.039 A 
ATOM      3  C2  UNL d   1      -1.406   1.603   0.010  0.00  0.00    -0.080 A 
ATOM      4  C3  UNL d   1      -1.812   1.073   1.231  0.00  0.00     0.150 A 
ATOM      5  C4  UNL d   1      -1.044   0.113   1.882  0.00  0.00    -0.007 A 
ATOM      6  C5  UNL d   1       0.146  -0.328   1.305  0.00  0.00     0.039 A 
ENDROOT
BRANCH   4   7
ATOM      7  O   UNL d   1      -2.971   1.469   1.831  0.00  0.00    -0.526 OA
ATOM      8  H5  UNL d   1      -3.411   2.115   1.253  0.00  0.00     0.418 HD
ENDBRANCH   4   7
TORSDOF 1
ENDMDL
