MODEL 1
REMARK minimizedAffinity -4.38694096
REMARK minimizedRMSD -1
REMARK  1 active torsions:
REMARK  status: ('A' for Active; 'I' for Inactive)
REMARK    1  A    between atoms: C3_4  and  O_7 
ROOT
ATOM      1  C   UNL d   1       1.005  -0.704   0.120  0.00  0.00    -0.033 A 
ATOM      2  C1  UNL d   1       0.586   0.309  -0.744  0.00  0.00     0.039 A 
ATOM      3  C2  UNL d   1      -0.418   1.195  -0.349  0.00  0.00    -0.080 A 
ATOM      4  C3  UNL d   1      -0.993   1.058   0.911  0.00  0.00     0.150 A 
ATOM      5  C4  UNL d   1      -0.578   0.054   1.779  0.00  0.00    -0.007 A 
ATOM      6  C5  UNL d   1       0.425  -0.831   1.383  0.00  0.00     0.039 A 
ENDROOT
BRANCH   4   7
ATOM      7  O   UNL d   1      -1.980   1.896   1.339  0.00  0.00    -0.526 OA
ATOM      8  H5  UNL d   1      -2.184   2.521   0.624  0.00  0.00     0.418 HD
ENDBRANCH   4   7
TORSDOF 1
ENDMDL
