MODEL 1
REMARK minimizedAffinity -3.91206741
REMARK minimizedRMSD -1
REMARK  1 active torsions:
REMARK  status: ('A' for Active; 'I' for Inactive)
REMARK    1  A    between atoms: C3_4  and  O_7 
ROOT
ATOM      1  C   UNL d   1       0.546  -0.022   0.558  0.00  0.00    -0.033 A 
ATOM      2  C1  UNL d   1       0.083  -0.124   1.872  0.00  0.00     0.039 A 
ATOM      3  C2  UNL d   1      -0.967   0.686   2.309  0.00  0.00    -0.080 A 
ATOM      4  C3  UNL d   1      -1.546   1.591   1.423  0.00  0.00     0.150 A 
ATOM      5  C4  UNL d   1      -1.092   1.695   0.113  0.00  0.00    -0.007 A 
ATOM      6  C5  UNL d   1      -0.043   0.887  -0.322  0.00  0.00     0.039 A 
ENDROOT
BRANCH   4   7
ATOM      7  O   UNL d   1      -2.570   2.406   1.805  0.00  0.00    -0.526 OA
ATOM      8  H5  UNL d   1      -2.758   2.243   2.745  0.00  0.00     0.418 HD
ENDBRANCH   4   7
TORSDOF 1
ENDMDL
