MODEL 1
REMARK minimizedAffinity -4.6335907
REMARK minimizedRMSD -1
REMARK  1 active torsions:
REMARK  status: ('A' for Active; 'I' for Inactive)
REMARK    1  A    between atoms: C3_4  and  O_7 
ROOT
ATOM      1  C   UNL d   1       0.250   0.415  -0.478  0.00  0.00    -0.033 A 
ATOM      2  C1  UNL d   1      -0.030  -0.105   0.787  0.00  0.00     0.039 A 
ATOM      3  C2  UNL d   1      -1.044   0.456   1.566  0.00  0.00    -0.080 A 
ATOM      4  C3  UNL d   1      -1.769   1.535   1.069  0.00  0.00     0.150 A 
ATOM      5  C4  UNL d   1      -1.498   2.056  -0.192  0.00  0.00    -0.007 A 
ATOM      6  C5  UNL d   1      -0.485   1.495  -0.968  0.00  0.00     0.039 A 
ENDROOT
BRANCH   4   7
ATOM      7  O   UNL d   1      -2.765   2.119   1.795  0.00  0.00    -0.526 OA
ATOM      8  H5  UNL d   1      -2.820   1.673   2.656  0.00  0.00     0.418 HD
ENDBRANCH   4   7
TORSDOF 1
ENDMDL
