MODEL 1
REMARK minimizedAffinity 7.35442686
REMARK minimizedRMSD -1
REMARK  3 active torsions:
REMARK  status: ('A' for Active; 'I' for Inactive)
REMARK    1  A    between atoms: C3'_2  and  C2'_3 
REMARK    2  A    between atoms: C2'_3  and  C1'_4 
REMARK    3  A    between atoms: C1'_4  and  C1_5 
ROOT
ATOM      1  C1  N4B d   1      -1.862   2.122   1.788  0.00  0.00    -0.075 A 
ATOM      2  C2  N4B d   1      -1.409   1.632   3.033  0.00  0.00     0.002 A 
ATOM      3  C3  N4B d   1      -0.062   1.552   3.291  0.00  0.00     0.002 A 
ATOM      4  C4  N4B d   1       0.846   1.938   2.317  0.00  0.00    -0.004 A 
ATOM      5  C5  N4B d   1       0.401   2.434   1.127  0.00  0.00     0.002 A 
ATOM      6  C6  N4B d   1      -0.950   2.524   0.856  0.00  0.00     0.002 A 
ENDROOT
BRANCH   1   7
ATOM      7  C1' N4B d   1      -3.322   2.147   1.428  0.00  0.00     0.057 C 
BRANCH   7   8
ATOM      8  C2' N4B d   1      -3.798   0.721   1.168  0.00  0.00     0.009 C 
BRANCH   8   9
ATOM      9  C3' N4B d   1      -3.986   0.447  -0.315  0.00  0.00     0.004 C 
ATOM     10  C4' N4B d   1      -5.316  -0.172  -0.627  0.00  0.00     0.003 C 
ENDBRANCH   8   9
ENDBRANCH   7   8
ENDBRANCH   1   7
TORSDOF 3
ENDMDL
