MODEL 1
REMARK minimizedAffinity 4.44810534
REMARK minimizedRMSD -1
REMARK  3 active torsions:
REMARK  status: ('A' for Active; 'I' for Inactive)
REMARK    1  A    between atoms: C3'_2  and  C2'_3 
REMARK    2  A    between atoms: C2'_3  and  C1'_4 
REMARK    3  A    between atoms: C1'_4  and  C1_5 
ROOT
ATOM      1  C1  N4B d   1       4.030   0.496  -0.411  0.00  0.00    -0.075 A 
ATOM      2  C2  N4B d   1       5.039   1.088   0.381  0.00  0.00     0.002 A 
ATOM      3  C3  N4B d   1       6.000   1.873  -0.207  0.00  0.00     0.002 A 
ATOM      4  C4  N4B d   1       5.984   2.065  -1.580  0.00  0.00    -0.004 A 
ATOM      5  C5  N4B d   1       4.992   1.510  -2.334  0.00  0.00     0.002 A 
ATOM      6  C6  N4B d   1       4.017   0.722  -1.757  0.00  0.00     0.002 A 
ENDROOT
BRANCH   1   7
ATOM      7  C1' N4B d   1       3.008  -0.440   0.174  0.00  0.00     0.057 C 
BRANCH   7   8
ATOM      8  C2' N4B d   1       2.834  -1.636  -0.757  0.00  0.00     0.009 C 
BRANCH   8   9
ATOM      9  C3' N4B d   1       2.238  -2.834  -0.037  0.00  0.00     0.004 C 
ATOM     10  C4' N4B d   1       1.089  -3.446  -0.781  0.00  0.00     0.003 C 
ENDBRANCH   8   9
ENDBRANCH   7   8
ENDBRANCH   1   7
TORSDOF 3
ENDMDL
