MODEL 1
REMARK minimizedAffinity 7.95139027
REMARK minimizedRMSD -1
REMARK  0 active torsions:
REMARK  status: ('A' for Active; 'I' for Inactive)
ROOT
ATOM      1  C   UNL d   1       2.788  -0.388   3.167  0.00  0.00     0.020 A 
ATOM      2  C1  UNL d   1       1.937   0.540   2.567  0.00  0.00     0.020 A 
ATOM      3  C2  UNL d   1       2.290   1.125   1.349  0.00  0.00     0.034 A 
ATOM      4  C3  UNL d   1       3.497   0.784   0.728  0.00  0.00     0.017 A 
ATOM      5  C4  UNL d   1       4.350  -0.147   1.331  0.00  0.00     0.017 A 
ATOM      6  C5  UNL d   1       3.992  -0.730   2.550  0.00  0.00     0.034 A 
ATOM      7 Cl   UNL d   1       5.855  -0.618   0.624  0.00  0.00    -0.070 Cl
ATOM      8 Cl1  UNL d   1       3.869   1.547  -0.778  0.00  0.00    -0.070 Cl
ENDROOT
TORSDOF 0
ENDMDL
