MODEL 1
REMARK minimizedAffinity 1.05565047
REMARK minimizedRMSD -1
REMARK  0 active torsions:
REMARK  status: ('A' for Active; 'I' for Inactive)
ROOT
ATOM      1  C   UNL d   1       5.176  -0.765   1.127  0.00  0.00     0.020 A 
ATOM      2  C1  UNL d   1       5.821  -0.475  -0.075  0.00  0.00     0.020 A 
ATOM      3  C2  UNL d   1       5.249   0.428  -0.974  0.00  0.00     0.034 A 
ATOM      4  C3  UNL d   1       4.029   1.044  -0.672  0.00  0.00     0.017 A 
ATOM      5  C4  UNL d   1       3.382   0.752   0.534  0.00  0.00     0.017 A 
ATOM      6  C5  UNL d   1       3.960  -0.152   1.431  0.00  0.00     0.034 A 
ATOM      7 Cl   UNL d   1       1.875   1.473   0.976  0.00  0.00    -0.070 Cl
ATOM      8 Cl1  UNL d   1       3.379   2.151  -1.830  0.00  0.00    -0.070 Cl
ENDROOT
TORSDOF 0
ENDMDL
