MODEL 1
REMARK minimizedAffinity 11.0599957
REMARK minimizedRMSD -1
REMARK  0 active torsions:
REMARK  status: ('A' for Active; 'I' for Inactive)
ROOT
ATOM      1  C   UNL d   1       4.454  -1.108   0.632  0.00  0.00     0.020 A 
ATOM      2  C1  UNL d   1       5.763  -1.061   1.111  0.00  0.00     0.020 A 
ATOM      3  C2  UNL d   1       6.000  -0.970   2.485  0.00  0.00     0.034 A 
ATOM      4  C3  UNL d   1       4.927  -0.926   3.383  0.00  0.00     0.017 A 
ATOM      5  C4  UNL d   1       3.615  -0.974   2.900  0.00  0.00     0.017 A 
ATOM      6  C5  UNL d   1       3.383  -1.065   1.524  0.00  0.00     0.034 A 
ATOM      7 Cl   UNL d   1       2.240  -0.924   3.947  0.00  0.00    -0.070 Cl
ATOM      8 Cl1  UNL d   1       5.295  -0.814   5.068  0.00  0.00    -0.070 Cl
ENDROOT
TORSDOF 0
ENDMDL
