MODEL 1
REMARK minimizedAffinity 7.65965366
REMARK minimizedRMSD -1
REMARK  0 active torsions:
REMARK  status: ('A' for Active; 'I' for Inactive)
ROOT
ATOM      1  C   UNL d   1      -5.758  -0.021   5.527  0.00  0.00     0.020 A 
ATOM      2  C1  UNL d   1      -5.039  -0.390   4.391  0.00  0.00     0.020 A 
ATOM      3  C2  UNL d   1      -4.263   0.556   3.718  0.00  0.00     0.034 A 
ATOM      4  C3  UNL d   1      -4.204   1.876   4.181  0.00  0.00     0.017 A 
ATOM      5  C4  UNL d   1      -4.926   2.245   5.321  0.00  0.00     0.017 A 
ATOM      6  C5  UNL d   1      -5.702   1.294   5.991  0.00  0.00     0.034 A 
ATOM      7 Cl   UNL d   1      -4.902   3.854   5.952  0.00  0.00    -0.070 Cl
ATOM      8 Cl1  UNL d   1      -3.223   2.993   3.299  0.00  0.00    -0.070 Cl
ENDROOT
TORSDOF 0
ENDMDL
