MODEL 1
REMARK minimizedAffinity 15.8494539
REMARK minimizedRMSD -1
REMARK  0 active torsions:
REMARK  status: ('A' for Active; 'I' for Inactive)
ROOT
ATOM      1  C   UNL d   1      -5.815  -2.857  -3.564  0.00  0.00     0.020 A 
ATOM      2  C1  UNL d   1      -5.567  -3.009  -4.928  0.00  0.00     0.020 A 
ATOM      3  C2  UNL d   1      -4.255  -2.988  -5.406  0.00  0.00     0.034 A 
ATOM      4  C3  UNL d   1      -3.186  -2.815  -4.520  0.00  0.00     0.017 A 
ATOM      5  C4  UNL d   1      -3.435  -2.662  -3.152  0.00  0.00     0.017 A 
ATOM      6  C5  UNL d   1      -4.751  -2.684  -2.678  0.00  0.00     0.034 A 
ATOM      7 Cl   UNL d   1      -2.167  -2.445  -1.997  0.00  0.00    -0.070 Cl
ATOM      8 Cl1  UNL d   1      -1.589  -2.800  -5.181  0.00  0.00    -0.070 Cl
ENDROOT
TORSDOF 0
ENDMDL
