MODEL 1
REMARK minimizedAffinity 16.1072769
REMARK minimizedRMSD -1
REMARK  0 active torsions:
REMARK  status: ('A' for Active; 'I' for Inactive)
ROOT
ATOM      1  C   UNL d   1       1.124   0.231   1.981  0.00  0.00     0.020 A 
ATOM      2  C1  UNL d   1       0.935   1.414   1.267  0.00  0.00     0.020 A 
ATOM      3  C2  UNL d   1       1.981   1.948   0.512  0.00  0.00     0.034 A 
ATOM      4  C3  UNL d   1       3.221   1.300   0.470  0.00  0.00     0.017 A 
ATOM      5  C4  UNL d   1       3.410   0.113   1.187  0.00  0.00     0.017 A 
ATOM      6  C5  UNL d   1       2.359  -0.418   1.941  0.00  0.00     0.034 A 
ATOM      7 Cl   UNL d   1       4.911  -0.743   1.183  0.00  0.00    -0.070 Cl
ATOM      8 Cl1  UNL d   1       4.470   2.017  -0.485  0.00  0.00    -0.070 Cl
ENDROOT
TORSDOF 0
ENDMDL
