MODEL 1
REMARK minimizedAffinity 17.5523739
REMARK minimizedRMSD -1
REMARK  0 active torsions:
REMARK  status: ('A' for Active; 'I' for Inactive)
ROOT
ATOM      1  C   UNL d   1      -0.946  -2.500  -3.856  0.00  0.00     0.020 A 
ATOM      2  C1  UNL d   1      -0.390  -1.875  -2.741  0.00  0.00     0.020 A 
ATOM      3  C2  UNL d   1      -1.135  -1.749  -1.567  0.00  0.00     0.034 A 
ATOM      4  C3  UNL d   1      -2.441  -2.249  -1.505  0.00  0.00     0.017 A 
ATOM      5  C4  UNL d   1      -2.999  -2.876  -2.625  0.00  0.00     0.017 A 
ATOM      6  C5  UNL d   1      -2.248  -3.000  -3.798  0.00  0.00     0.034 A 
ATOM      7 Cl   UNL d   1      -4.603  -3.518  -2.625  0.00  0.00    -0.070 Cl
ATOM      8 Cl1  UNL d   1      -3.305  -2.059  -0.021  0.00  0.00    -0.070 Cl
ENDROOT
TORSDOF 0
ENDMDL
