MODEL 1
REMARK minimizedAffinity 4.87226105
REMARK minimizedRMSD -1
REMARK  0 active torsions:
REMARK  status: ('A' for Active; 'I' for Inactive)
ROOT
ATOM      1  C   UNL d   1      -4.691   3.024   5.616  0.00  0.00     0.020 A 
ATOM      2  C1  UNL d   1      -4.165   3.176   4.334  0.00  0.00     0.020 A 
ATOM      3  C2  UNL d   1      -4.200   2.109   3.434  0.00  0.00     0.034 A 
ATOM      4  C3  UNL d   1      -4.762   0.885   3.815  0.00  0.00     0.017 A 
ATOM      5  C4  UNL d   1      -5.290   0.734   5.103  0.00  0.00     0.017 A 
ATOM      6  C5  UNL d   1      -5.252   1.806   6.000  0.00  0.00     0.034 A 
ATOM      7 Cl   UNL d   1      -6.000  -0.746   5.646  0.00  0.00    -0.070 Cl
ATOM      8 Cl1  UNL d   1      -4.773  -0.392   2.651  0.00  0.00    -0.070 Cl
ENDROOT
TORSDOF 0
ENDMDL
