MODEL 1
REMARK minimizedAffinity 12.8565693
REMARK minimizedRMSD -1
REMARK  0 active torsions:
REMARK  status: ('A' for Active; 'I' for Inactive)
ROOT
ATOM      1  C   UNL d   1       1.954   1.786   0.929  0.00  0.00     0.020 A 
ATOM      2  C1  UNL d   1       0.731   1.998   1.565  0.00  0.00     0.020 A 
ATOM      3  C2  UNL d   1       0.425   1.305   2.738  0.00  0.00     0.034 A 
ATOM      4  C3  UNL d   1       1.342   0.397   3.279  0.00  0.00     0.017 A 
ATOM      5  C4  UNL d   1       2.569   0.185   2.641  0.00  0.00     0.017 A 
ATOM      6  C5  UNL d   1       2.871   0.882   1.466  0.00  0.00     0.034 A 
ATOM      7 Cl   UNL d   1       3.752  -0.919   3.248  0.00  0.00    -0.070 Cl
ATOM      8 Cl1  UNL d   1       0.897  -0.425   4.732  0.00  0.00    -0.070 Cl
ENDROOT
TORSDOF 0
ENDMDL
