MODEL 1
REMARK minimizedAffinity 5.53194904
REMARK minimizedRMSD -1
REMARK  0 active torsions:
REMARK  status: ('A' for Active; 'I' for Inactive)
ROOT
ATOM      1  C   UNL d   1      -4.800   3.413   5.446  0.00  0.00     0.020 A 
ATOM      2  C1  UNL d   1      -4.395   3.443   4.112  0.00  0.00     0.020 A 
ATOM      3  C2  UNL d   1      -4.481   2.290   3.329  0.00  0.00     0.034 A 
ATOM      4  C3  UNL d   1      -4.974   1.101   3.880  0.00  0.00     0.017 A 
ATOM      5  C4  UNL d   1      -5.380   1.072   5.219  0.00  0.00     0.017 A 
ATOM      6  C5  UNL d   1      -5.291   2.230   5.998  0.00  0.00     0.034 A 
ATOM      7 Cl   UNL d   1      -5.999  -0.358   5.969  0.00  0.00    -0.070 Cl
ATOM      8 Cl1  UNL d   1      -5.053  -0.287   2.855  0.00  0.00    -0.070 Cl
ENDROOT
TORSDOF 0
ENDMDL
