MODEL 1
REMARK minimizedAffinity 9.90715885
REMARK minimizedRMSD -1
REMARK  0 active torsions:
REMARK  status: ('A' for Active; 'I' for Inactive)
ROOT
ATOM      1  C   UNL d   1      -2.756  -3.440  -1.302  0.00  0.00     0.020 A 
ATOM      2  C1  UNL d   1      -2.755  -2.272  -2.064  0.00  0.00     0.020 A 
ATOM      3  C2  UNL d   1      -3.766  -2.051  -3.002  0.00  0.00     0.034 A 
ATOM      4  C3  UNL d   1      -4.781  -2.997  -3.180  0.00  0.00     0.017 A 
ATOM      5  C4  UNL d   1      -4.781  -4.169  -2.414  0.00  0.00     0.017 A 
ATOM      6  C5  UNL d   1      -3.766  -4.386  -1.477  0.00  0.00     0.034 A 
ATOM      7 Cl   UNL d   1      -6.000  -5.384  -2.577  0.00  0.00    -0.070 Cl
ATOM      8 Cl1  UNL d   1      -6.000  -2.658  -4.357  0.00  0.00    -0.070 Cl
ENDROOT
TORSDOF 0
ENDMDL
