MODEL 1
REMARK minimizedAffinity 1.57009208
REMARK minimizedRMSD -1
REMARK  0 active torsions:
REMARK  status: ('A' for Active; 'I' for Inactive)
ROOT
ATOM      1  C   UNL d   1      -4.878  -0.907   3.440  0.00  0.00     0.020 A 
ATOM      2  C1  UNL d   1      -5.762  -0.958   4.517  0.00  0.00     0.020 A 
ATOM      3  C2  UNL d   1      -5.992   0.184   5.286  0.00  0.00     0.034 A 
ATOM      4  C3  UNL d   1      -5.338   1.383   4.979  0.00  0.00     0.017 A 
ATOM      5  C4  UNL d   1      -4.451   1.434   3.898  0.00  0.00     0.017 A 
ATOM      6  C5  UNL d   1      -4.224   0.287   3.131  0.00  0.00     0.034 A 
ATOM      7 Cl   UNL d   1      -3.607   2.876   3.458  0.00  0.00    -0.070 Cl
ATOM      8 Cl1  UNL d   1      -5.671   2.757   5.973  0.00  0.00    -0.070 Cl
ENDROOT
TORSDOF 0
ENDMDL
