MODEL 1
REMARK minimizedAffinity 21.5987587
REMARK minimizedRMSD -1
REMARK  0 active torsions:
REMARK  status: ('A' for Active; 'I' for Inactive)
ROOT
ATOM      1  C   UNL d   1      -2.324  -3.678  -2.224  0.00  0.00     0.020 A 
ATOM      2  C1  UNL d   1      -2.499  -2.362  -2.648  0.00  0.00     0.020 A 
ATOM      3  C2  UNL d   1      -1.877  -1.916  -3.816  0.00  0.00     0.034 A 
ATOM      4  C3  UNL d   1      -1.078  -2.788  -4.564  0.00  0.00     0.017 A 
ATOM      5  C4  UNL d   1      -0.903  -4.109  -4.138  0.00  0.00     0.017 A 
ATOM      6  C5  UNL d   1      -1.528  -4.550  -2.967  0.00  0.00     0.034 A 
ATOM      7 Cl   UNL d   1       0.068  -5.244  -5.009  0.00  0.00    -0.070 Cl
ATOM      8 Cl1  UNL d   1      -0.339  -2.169  -5.999  0.00  0.00    -0.070 Cl
ENDROOT
TORSDOF 0
ENDMDL
