MODEL 1
REMARK minimizedAffinity 3.36670566
REMARK minimizedRMSD -1
REMARK  0 active torsions:
REMARK  status: ('A' for Active; 'I' for Inactive)
ROOT
ATOM      1  C   UNL d   1      -5.833   5.718   0.252  0.00  0.00     0.020 A 
ATOM      2  C1  UNL d   1      -5.995   5.912  -1.120  0.00  0.00     0.020 A 
ATOM      3  C2  UNL d   1      -4.875   5.996  -1.950  0.00  0.00     0.034 A 
ATOM      4  C3  UNL d   1      -3.588   5.886  -1.409  0.00  0.00     0.017 A 
ATOM      5  C4  UNL d   1      -3.427   5.692  -0.033  0.00  0.00     0.017 A 
ATOM      6  C5  UNL d   1      -4.552   5.608   0.794  0.00  0.00     0.034 A 
ATOM      7 Cl   UNL d   1      -1.872   5.547   0.707  0.00  0.00    -0.070 Cl
ATOM      8 Cl1  UNL d   1      -2.249   5.999  -2.495  0.00  0.00    -0.070 Cl
ENDROOT
TORSDOF 0
ENDMDL
