MODEL 1
REMARK minimizedAffinity 12.4316874
REMARK minimizedRMSD -1
REMARK  0 active torsions:
REMARK  status: ('A' for Active; 'I' for Inactive)
ROOT
ATOM      1  C   UNL d   1      -5.180   2.484   5.997  0.00  0.00     0.020 A 
ATOM      2  C1  UNL d   1      -5.571   1.146   5.954  0.00  0.00     0.020 A 
ATOM      3  C2  UNL d   1      -5.191   0.342   4.877  0.00  0.00     0.034 A 
ATOM      4  C3  UNL d   1      -4.419   0.875   3.839  0.00  0.00     0.017 A 
ATOM      5  C4  UNL d   1      -4.027   2.218   3.883  0.00  0.00     0.017 A 
ATOM      6  C5  UNL d   1      -4.410   3.018   4.964  0.00  0.00     0.034 A 
ATOM      7 Cl   UNL d   1      -3.074   2.947   2.639  0.00  0.00    -0.070 Cl
ATOM      8 Cl1  UNL d   1      -3.986  -0.177   2.539  0.00  0.00    -0.070 Cl
ENDROOT
TORSDOF 0
ENDMDL
