MODEL 1
REMARK minimizedAffinity 18.0164108
REMARK minimizedRMSD -1
REMARK  0 active torsions:
REMARK  status: ('A' for Active; 'I' for Inactive)
ROOT
ATOM      1  C   UNL d   1       2.383   0.824   1.368  0.00  0.00     0.020 A 
ATOM      2  C1  UNL d   1       1.915   2.137   1.392  0.00  0.00     0.020 A 
ATOM      3  C2  UNL d   1       0.849   2.483   2.226  0.00  0.00     0.034 A 
ATOM      4  C3  UNL d   1       0.249   1.515   3.039  0.00  0.00     0.017 A 
ATOM      5  C4  UNL d   1       0.719   0.197   3.014  0.00  0.00     0.017 A 
ATOM      6  C5  UNL d   1       1.787  -0.144   2.178  0.00  0.00     0.034 A 
ATOM      7 Cl   UNL d   1       0.029  -1.052   3.989  0.00  0.00    -0.070 Cl
ATOM      8 Cl1  UNL d   1      -1.064   2.013   4.046  0.00  0.00    -0.070 Cl
ENDROOT
TORSDOF 0
ENDMDL
