MODEL 1
REMARK minimizedAffinity 6.34964895
REMARK minimizedRMSD -1
REMARK  0 active torsions:
REMARK  status: ('A' for Active; 'I' for Inactive)
ROOT
ATOM      1  C   UNL d   1       2.346   4.711  -5.356  0.00  0.00     0.020 A 
ATOM      2  C1  UNL d   1       2.386   5.079  -4.012  0.00  0.00     0.020 A 
ATOM      3  C2  UNL d   1       3.058   4.276  -3.088  0.00  0.00     0.034 A 
ATOM      4  C3  UNL d   1       3.694   3.102  -3.507  0.00  0.00     0.017 A 
ATOM      5  C4  UNL d   1       3.653   2.733  -4.857  0.00  0.00     0.017 A 
ATOM      6  C5  UNL d   1       2.978   3.541  -5.777  0.00  0.00     0.034 A 
ATOM      7 Cl   UNL d   1       4.413   1.298  -5.449  0.00  0.00    -0.070 Cl
ATOM      8 Cl1  UNL d   1       4.507   2.157  -2.310  0.00  0.00    -0.070 Cl
ENDROOT
TORSDOF 0
ENDMDL
