MODEL 1
REMARK minimizedAffinity 7.07512236
REMARK minimizedRMSD -1
REMARK  2 active torsions:
REMARK  status: ('A' for Active; 'I' for Inactive)
REMARK    1  A    between atoms: C2'_3  and  C1'_4 
REMARK    2  A    between atoms: C1'_4  and  C1_5 
ROOT
ATOM      1  C1  I4B d   1      -0.641   1.738   2.448  0.00  0.00    -0.075 A 
ATOM      2  C2  I4B d   1      -1.176   0.566   1.975  0.00  0.00     0.003 A 
ATOM      3  C3  I4B d   1      -0.647  -0.679   2.394  0.00  0.00     0.002 A 
ATOM      4  C4  I4B d   1       0.442  -0.705   3.241  0.00  0.00    -0.004 A 
ATOM      5  C5  I4B d   1       0.969   0.484   3.737  0.00  0.00     0.002 A 
ATOM      6  C6  I4B d   1       0.417   1.713   3.348  0.00  0.00     0.003 A 
ENDROOT
BRANCH   1   7
ATOM      7  C1' I4B d   1      -1.202   3.035   1.960  0.00  0.00     0.060 C 
BRANCH   7   8
ATOM      8  C2' I4B d   1      -0.075   3.821   1.321  0.00  0.00    -0.013 C 
ATOM      9  C4' I4B d   1       0.033   3.520  -0.151  0.00  0.00     0.013 C 
ATOM     10  C3' I4B d   1      -0.335   5.279   1.557  0.00  0.00     0.013 C 
ENDBRANCH   7   8
ENDBRANCH   1   7
TORSDOF 2
ENDMDL
