MODEL 1
REMARK minimizedAffinity 9.08089924
REMARK minimizedRMSD -1
REMARK  2 active torsions:
REMARK  status: ('A' for Active; 'I' for Inactive)
REMARK    1  A    between atoms: C2'_3  and  C1'_4 
REMARK    2  A    between atoms: C1'_4  and  C1_5 
ROOT
ATOM      1  C1  I4B d   1      -0.548  -2.519  -4.620  0.00  0.00    -0.075 A 
ATOM      2  C2  I4B d   1       0.301  -1.491  -4.946  0.00  0.00     0.003 A 
ATOM      3  C3  I4B d   1       0.431  -0.374  -4.085  0.00  0.00     0.002 A 
ATOM      4  C4  I4B d   1      -0.339  -0.303  -2.942  0.00  0.00    -0.004 A 
ATOM      5  C5  I4B d   1      -1.182  -1.357  -2.602  0.00  0.00     0.002 A 
ATOM      6  C6  I4B d   1      -1.278  -2.478  -3.439  0.00  0.00     0.003 A 
ENDROOT
BRANCH   1   7
ATOM      7  C1' I4B d   1      -0.685  -3.668  -5.567  0.00  0.00     0.060 C 
BRANCH   7   8
ATOM      8  C2' I4B d   1      -1.817  -4.547  -5.074  0.00  0.00    -0.013 C 
ATOM      9  C4' I4B d   1      -3.006  -4.473  -5.995  0.00  0.00     0.013 C 
ATOM     10  C3' I4B d   1      -1.300  -5.951  -4.969  0.00  0.00     0.013 C 
ENDBRANCH   7   8
ENDBRANCH   1   7
TORSDOF 2
ENDMDL
