MODEL 1
REMARK minimizedAffinity 10.5668669
REMARK minimizedRMSD -1
REMARK  2 active torsions:
REMARK  status: ('A' for Active; 'I' for Inactive)
REMARK    1  A    between atoms: C2'_3  and  C1'_4 
REMARK    2  A    between atoms: C1'_4  and  C1_5 
ROOT
ATOM      1  C1  I4B d   1       1.152  -1.419   3.675  0.00  0.00    -0.075 A 
ATOM      2  C2  I4B d   1       0.282  -1.532   2.620  0.00  0.00     0.003 A 
ATOM      3  C3  I4B d   1      -0.537  -0.437   2.251  0.00  0.00     0.002 A 
ATOM      4  C4  I4B d   1      -0.492   0.726   2.993  0.00  0.00    -0.004 A 
ATOM      5  C5  I4B d   1       0.407   0.846   4.049  0.00  0.00     0.002 A 
ATOM      6  C6  I4B d   1       1.243  -0.228   4.385  0.00  0.00     0.003 A 
ENDROOT
BRANCH   1   7
ATOM      7  C1' I4B d   1       1.979  -2.605   4.058  0.00  0.00     0.060 C 
BRANCH   7   8
ATOM      8  C2' I4B d   1       1.919  -2.750   5.565  0.00  0.00    -0.013 C 
ATOM      9  C4' I4B d   1       0.630  -3.394   6.000  0.00  0.00     0.013 C 
ATOM     10  C3' I4B d   1       3.104  -3.561   5.999  0.00  0.00     0.013 C 
ENDBRANCH   7   8
ENDBRANCH   1   7
TORSDOF 2
ENDMDL
