MODEL 1
REMARK minimizedAffinity 9.65990925
REMARK minimizedRMSD -1
REMARK  2 active torsions:
REMARK  status: ('A' for Active; 'I' for Inactive)
REMARK    1  A    between atoms: C2'_3  and  C1'_4 
REMARK    2  A    between atoms: C1'_4  and  C1_5 
ROOT
ATOM      1  C1  I4B d   1       1.075   1.399   3.502  0.00  0.00    -0.075 A 
ATOM      2  C2  I4B d   1       0.800   2.363   4.440  0.00  0.00     0.003 A 
ATOM      3  C3  I4B d   1       1.832   3.206   4.918  0.00  0.00     0.002 A 
ATOM      4  C4  I4B d   1       3.124   3.019   4.472  0.00  0.00    -0.004 A 
ATOM      5  C5  I4B d   1       3.397   2.056   3.504  0.00  0.00     0.002 A 
ATOM      6  C6  I4B d   1       2.363   1.249   3.007  0.00  0.00     0.003 A 
ENDROOT
BRANCH   1   7
ATOM      7  C1' I4B d   1      -0.032   0.503   3.044  0.00  0.00     0.060 C 
BRANCH   7   8
ATOM      8  C2' I4B d   1       0.591  -0.712   2.388  0.00  0.00    -0.013 C 
ATOM      9  C4' I4B d   1       0.945  -1.761   3.409  0.00  0.00     0.013 C 
ATOM     10  C3' I4B d   1      -0.382  -1.245   1.379  0.00  0.00     0.013 C 
ENDBRANCH   7   8
ENDBRANCH   1   7
TORSDOF 2
ENDMDL
