MODEL 1
REMARK minimizedAffinity 11.3565063
REMARK minimizedRMSD -1
REMARK  2 active torsions:
REMARK  status: ('A' for Active; 'I' for Inactive)
REMARK    1  A    between atoms: C2'_3  and  C1'_4 
REMARK    2  A    between atoms: C1'_4  and  C1_5 
ROOT
ATOM      1  C1  I4B d   1       1.590  -1.040   3.881  0.00  0.00    -0.075 A 
ATOM      2  C2  I4B d   1       1.038  -1.802   2.883  0.00  0.00     0.003 A 
ATOM      3  C3  I4B d   1       0.157  -1.215   1.942  0.00  0.00     0.002 A 
ATOM      4  C4  I4B d   1      -0.182   0.116   2.068  0.00  0.00    -0.004 A 
ATOM      5  C5  I4B d   1       0.397   0.893   3.067  0.00  0.00     0.002 A 
ATOM      6  C6  I4B d   1       1.298   0.315   3.973  0.00  0.00     0.003 A 
ENDROOT
BRANCH   1   7
ATOM      7  C1' I4B d   1       2.491  -1.699   4.877  0.00  0.00     0.060 C 
BRANCH   7   8
ATOM      8  C2' I4B d   1       2.143  -3.173   4.917  0.00  0.00    -0.013 C 
ATOM      9  C4' I4B d   1       3.049  -3.922   5.859  0.00  0.00     0.013 C 
ATOM     10  C3' I4B d   1       0.708  -3.299   5.332  0.00  0.00     0.013 C 
ENDBRANCH   7   8
ENDBRANCH   1   7
TORSDOF 2
ENDMDL
