MODEL 1
REMARK minimizedAffinity 17.2831669
REMARK minimizedRMSD -1
REMARK  2 active torsions:
REMARK  status: ('A' for Active; 'I' for Inactive)
REMARK    1  A    between atoms: C2'_3  and  C1'_4 
REMARK    2  A    between atoms: C1'_4  and  C1_5 
ROOT
ATOM      1  C1  I4B d   1      -0.494  -2.650  -4.528  0.00  0.00    -0.075 A 
ATOM      2  C2  I4B d   1       0.301  -1.594  -4.900  0.00  0.00     0.003 A 
ATOM      3  C3  I4B d   1       0.490  -0.500  -4.021  0.00  0.00     0.002 A 
ATOM      4  C4  I4B d   1      -0.170  -0.479  -2.810  0.00  0.00    -0.004 A 
ATOM      5  C5  I4B d   1      -0.957  -1.561  -2.425  0.00  0.00     0.002 A 
ATOM      6  C6  I4B d   1      -1.111  -2.658  -3.284  0.00  0.00     0.003 A 
ENDROOT
BRANCH   1   7
ATOM      7  C1' I4B d   1      -0.698  -3.773  -5.494  0.00  0.00     0.060 C 
BRANCH   7   8
ATOM      8  C2' I4B d   1      -1.875  -4.597  -5.010  0.00  0.00    -0.013 C 
ATOM      9  C4' I4B d   1      -3.009  -4.561  -6.000  0.00  0.00     0.013 C 
ATOM     10  C3' I4B d   1      -1.397  -6.000  -4.785  0.00  0.00     0.013 C 
ENDBRANCH   7   8
ENDBRANCH   1   7
TORSDOF 2
ENDMDL
