MODEL 1
REMARK minimizedAffinity 9.5105114
REMARK minimizedRMSD -1
REMARK  2 active torsions:
REMARK  status: ('A' for Active; 'I' for Inactive)
REMARK    1  A    between atoms: C2'_3  and  C1'_4 
REMARK    2  A    between atoms: C1'_4  and  C1_5 
ROOT
ATOM      1  C1  I4B d   1      -0.878  -0.137   2.665  0.00  0.00    -0.075 A 
ATOM      2  C2  I4B d   1      -0.487   0.680   3.698  0.00  0.00     0.003 A 
ATOM      3  C3  I4B d   1       0.864   0.698   4.119  0.00  0.00     0.002 A 
ATOM      4  C4  I4B d   1       1.775  -0.147   3.519  0.00  0.00    -0.004 A 
ATOM      5  C5  I4B d   1       1.382  -0.957   2.457  0.00  0.00     0.002 A 
ATOM      6  C6  I4B d   1       0.049  -0.943   2.019  0.00  0.00     0.003 A 
ENDROOT
BRANCH   1   7
ATOM      7  C1' I4B d   1      -2.320  -0.155   2.268  0.00  0.00     0.060 C 
BRANCH   7   8
ATOM      8  C2' I4B d   1      -2.802  -1.590   2.325  0.00  0.00    -0.013 C 
ATOM      9  C4' I4B d   1      -3.913  -1.753   3.329  0.00  0.00     0.013 C 
ATOM     10  C3' I4B d   1      -3.253  -1.983   0.950  0.00  0.00     0.013 C 
ENDBRANCH   7   8
ENDBRANCH   1   7
TORSDOF 2
ENDMDL
