MODEL 1
REMARK minimizedAffinity 14.492651
REMARK minimizedRMSD -1
REMARK  2 active torsions:
REMARK  status: ('A' for Active; 'I' for Inactive)
REMARK    1  A    between atoms: C2'_3  and  C1'_4 
REMARK    2  A    between atoms: C1'_4  and  C1_5 
ROOT
ATOM      1  C1  I4B d   1       3.769   0.094  -4.964  0.00  0.00    -0.075 A 
ATOM      2  C2  I4B d   1       4.885  -0.480  -5.520  0.00  0.00     0.003 A 
ATOM      3  C3  I4B d   1       5.941   0.333  -6.000  0.00  0.00     0.002 A 
ATOM      4  C4  I4B d   1       5.817   1.707  -5.951  0.00  0.00    -0.004 A 
ATOM      5  C5  I4B d   1       4.694   2.286  -5.366  0.00  0.00     0.002 A 
ATOM      6  C6  I4B d   1       3.669   1.475  -4.858  0.00  0.00     0.003 A 
ENDROOT
BRANCH   1   7
ATOM      7  C1' I4B d   1       2.659  -0.793  -4.497  0.00  0.00     0.060 C 
BRANCH   7   8
ATOM      8  C2' I4B d   1       1.374   0.009  -4.530  0.00  0.00    -0.013 C 
ATOM      9  C4' I4B d   1       0.749  -0.018  -5.900  0.00  0.00     0.013 C 
ATOM     10  C3' I4B d   1       0.446  -0.561  -3.500  0.00  0.00     0.013 C 
ENDBRANCH   7   8
ENDBRANCH   1   7
TORSDOF 2
ENDMDL
