MODEL 1
REMARK minimizedAffinity 8.348526
REMARK minimizedRMSD -1
REMARK  2 active torsions:
REMARK  status: ('A' for Active; 'I' for Inactive)
REMARK    1  A    between atoms: C2'_3  and  C1'_4 
REMARK    2  A    between atoms: C1'_4  and  C1_5 
ROOT
ATOM      1  C1  I4B d   1       0.855  -0.538   3.253  0.00  0.00    -0.075 A 
ATOM      2  C2  I4B d   1       0.175  -1.303   2.338  0.00  0.00     0.003 A 
ATOM      3  C3  I4B d   1      -1.014  -0.814   1.744  0.00  0.00     0.002 A 
ATOM      4  C4  I4B d   1      -1.510   0.415   2.129  0.00  0.00    -0.004 A 
ATOM      5  C5  I4B d   1      -0.807   1.198   3.040  0.00  0.00     0.002 A 
ATOM      6  C6  I4B d   1       0.390   0.724   3.597  0.00  0.00     0.003 A 
ENDROOT
BRANCH   1   7
ATOM      7  C1' I4B d   1       2.089  -1.099   3.886  0.00  0.00     0.060 C 
BRANCH   7   8
ATOM      8  C2' I4B d   1       1.805  -2.537   4.269  0.00  0.00    -0.013 C 
ATOM      9  C4' I4B d   1       2.757  -3.016   5.333  0.00  0.00     0.013 C 
ATOM     10  C3' I4B d   1       0.383  -2.618   4.739  0.00  0.00     0.013 C 
ENDBRANCH   7   8
ENDBRANCH   1   7
TORSDOF 2
ENDMDL
