MODEL 1
REMARK minimizedAffinity 0.628673136
REMARK minimizedRMSD -1
REMARK  0 active torsions:
REMARK  status: ('A' for Active; 'I' for Inactive)
ROOT
ATOM      1  C   UNL d   1      -1.669   0.004   1.037  0.00  0.00     0.124 A 
ATOM      2  C1  UNL d   1      -1.592  -0.857  -0.048  0.00  0.00     0.062 A 
ATOM      3  C2  UNL d   1      -0.639  -0.649  -1.041  0.00  0.00     0.162 A 
ATOM      4  C3  UNL d   1       0.247   0.425  -0.952  0.00  0.00    -0.034 A 
ATOM      5  C4  UNL d   1       0.163   1.287   0.142  0.00  0.00     0.162 A 
ATOM      6  C5  UNL d   1      -0.792   1.075   1.132  0.00  0.00     0.062 A 
ATOM      7  F   UNL d   1      -0.864   1.909   2.180  0.00  0.00    -0.097 F 
ATOM      8  F1  UNL d   1       0.999   2.330   0.259  0.00  0.00    -0.096 F 
ATOM      9  I   UNL d   1       1.673   0.739  -2.434  0.00  0.00    -0.060 I 
ATOM     10  F2  UNL d   1      -0.588  -1.498  -2.079  0.00  0.00    -0.096 F 
ATOM     11  F3  UNL d   1      -2.439  -1.892  -0.142  0.00  0.00    -0.097 F 
ATOM     12  F4  UNL d   1      -2.588  -0.198   1.991  0.00  0.00    -0.092 F 
ENDROOT
TORSDOF 0
ENDMDL
