MODEL 1
REMARK minimizedAffinity -2.72064495
REMARK minimizedRMSD -1
REMARK  0 active torsions:
REMARK  status: ('A' for Active; 'I' for Inactive)
ROOT
ATOM      1  C   UNL d   1      -0.216   0.305   2.193  0.00  0.00     0.124 A 
ATOM      2  C1  UNL d   1      -1.237   0.743   1.362  0.00  0.00     0.062 A 
ATOM      3  C2  UNL d   1      -1.131   0.590  -0.017  0.00  0.00     0.162 A 
ATOM      4  C3  UNL d   1       0.001  -0.004  -0.575  0.00  0.00    -0.034 A 
ATOM      5  C4  UNL d   1       1.024  -0.441   0.268  0.00  0.00     0.162 A 
ATOM      6  C5  UNL d   1       0.914  -0.287   1.646  0.00  0.00     0.062 A 
ATOM      7  F   UNL d   1       1.902  -0.711   2.447  0.00  0.00    -0.097 F 
ATOM      8  F1  UNL d   1       2.127  -1.017  -0.235  0.00  0.00    -0.096 F 
ATOM      9  I   UNL d   1       0.163  -0.234  -2.637  0.00  0.00    -0.060 I 
ATOM     10  F2  UNL d   1      -2.134   1.023  -0.797  0.00  0.00    -0.096 F 
ATOM     11  F3  UNL d   1      -2.329   1.316   1.889  0.00  0.00    -0.097 F 
ATOM     12  F4  UNL d   1      -0.320   0.454   3.520  0.00  0.00    -0.092 F 
ENDROOT
TORSDOF 0
ENDMDL
