MODEL 1
REMARK minimizedAffinity -0.395517856
REMARK minimizedRMSD -1
REMARK  0 active torsions:
REMARK  status: ('A' for Active; 'I' for Inactive)
ROOT
ATOM      1  C   UNL d   1      -0.548   0.284   2.012  0.00  0.00     0.124 A 
ATOM      2  C1  UNL d   1      -1.459   0.862   1.138  0.00  0.00     0.062 A 
ATOM      3  C2  UNL d   1      -1.247   0.799  -0.236  0.00  0.00     0.162 A 
ATOM      4  C3  UNL d   1      -0.119   0.156  -0.746  0.00  0.00    -0.034 A 
ATOM      5  C4  UNL d   1       0.793  -0.422   0.139  0.00  0.00     0.162 A 
ATOM      6  C5  UNL d   1       0.577  -0.357   1.512  0.00  0.00     0.062 A 
ATOM      7  F   UNL d   1       1.458  -0.916   2.355  0.00  0.00    -0.097 F 
ATOM      8  F1  UNL d   1       1.888  -1.049  -0.317  0.00  0.00    -0.096 F 
ATOM      9  I   UNL d   1       0.201   0.060  -2.800  0.00  0.00    -0.060 I 
ATOM     10  F2  UNL d   1      -2.144   1.366  -1.057  0.00  0.00    -0.096 F 
ATOM     11  F3  UNL d   1      -2.546   1.483   1.619  0.00  0.00    -0.097 F 
ATOM     12  F4  UNL d   1      -0.754   0.347   3.334  0.00  0.00    -0.092 F 
ENDROOT
TORSDOF 0
ENDMDL
