MODEL 1
REMARK minimizedAffinity 0.530477524
REMARK minimizedRMSD -1
REMARK  0 active torsions:
REMARK  status: ('A' for Active; 'I' for Inactive)
ROOT
ATOM      1  C   UNL d   1       0.151  -0.298   2.422  0.00  0.00     0.124 A 
ATOM      2  C1  UNL d   1       1.257  -0.717   1.694  0.00  0.00     0.062 A 
ATOM      3  C2  UNL d   1       1.186  -0.818   0.308  0.00  0.00     0.162 A 
ATOM      4  C3  UNL d   1       0.004  -0.499  -0.361  0.00  0.00    -0.034 A 
ATOM      5  C4  UNL d   1      -1.104  -0.080   0.377  0.00  0.00     0.162 A 
ATOM      6  C5  UNL d   1      -1.028   0.019   1.762  0.00  0.00     0.062 A 
ATOM      7  F   UNL d   1      -2.097   0.424   2.463  0.00  0.00    -0.097 F 
ATOM      8  F1  UNL d   1      -2.256   0.234  -0.234  0.00  0.00    -0.096 F 
ATOM      9  I   UNL d   1      -0.106  -0.649  -2.434  0.00  0.00    -0.060 I 
ATOM     10  F2  UNL d   1       2.270  -1.225  -0.369  0.00  0.00    -0.096 F 
ATOM     11  F3  UNL d   1       2.397  -1.026   2.329  0.00  0.00    -0.097 F 
ATOM     12  F4  UNL d   1       0.222  -0.203   3.755  0.00  0.00    -0.092 F 
ENDROOT
TORSDOF 0
ENDMDL
