MODEL 1
REMARK minimizedAffinity 2.08338022
REMARK minimizedRMSD -1
REMARK  0 active torsions:
REMARK  status: ('A' for Active; 'I' for Inactive)
ROOT
ATOM      1  C   UNL d   1      -0.222   0.177   2.251  0.00  0.00     0.124 A 
ATOM      2  C1  UNL d   1       0.879  -0.457   1.694  0.00  0.00     0.062 A 
ATOM      3  C2  UNL d   1       0.967  -0.628   0.316  0.00  0.00     0.162 A 
ATOM      4  C3  UNL d   1      -0.050  -0.161  -0.517  0.00  0.00    -0.034 A 
ATOM      5  C4  UNL d   1      -1.156   0.475   0.050  0.00  0.00     0.162 A 
ATOM      6  C5  UNL d   1      -1.239   0.643   1.429  0.00  0.00     0.062 A 
ATOM      7  F   UNL d   1      -2.304   1.256   1.964  0.00  0.00    -0.097 F 
ATOM      8  F1  UNL d   1      -2.152   0.936  -0.721  0.00  0.00    -0.096 F 
ATOM      9  I   UNL d   1       0.076  -0.414  -2.579  0.00  0.00    -0.060 I 
ATOM     10  F2  UNL d   1       2.043  -1.244  -0.195  0.00  0.00    -0.096 F 
ATOM     11  F3  UNL d   1       1.862  -0.909   2.486  0.00  0.00    -0.097 F 
ATOM     12  F4  UNL d   1      -0.304   0.339   3.578  0.00  0.00    -0.092 F 
ENDROOT
TORSDOF 0
ENDMDL
