MODEL 1
REMARK minimizedAffinity 3.88693571
REMARK minimizedRMSD -1
REMARK  0 active torsions:
REMARK  status: ('A' for Active; 'I' for Inactive)
ROOT
ATOM      1  C   UNL d   1      -0.331   0.028   1.770  0.00  0.00     0.124 A 
ATOM      2  C1  UNL d   1      -1.427   0.301   0.964  0.00  0.00     0.062 A 
ATOM      3  C2  UNL d   1      -1.321   0.201  -0.420  0.00  0.00     0.162 A 
ATOM      4  C3  UNL d   1      -0.113  -0.175  -1.007  0.00  0.00    -0.034 A 
ATOM      5  C4  UNL d   1       0.986  -0.448  -0.190  0.00  0.00     0.162 A 
ATOM      6  C5  UNL d   1       0.874  -0.346   1.193  0.00  0.00     0.062 A 
ATOM      7  F   UNL d   1       1.934  -0.611   1.970  0.00  0.00    -0.097 F 
ATOM      8  F1  UNL d   1       2.162  -0.812  -0.722  0.00  0.00    -0.096 F 
ATOM      9  I   UNL d   1       0.050  -0.326  -3.077  0.00  0.00    -0.060 I 
ATOM     10  F2  UNL d   1      -2.397   0.471  -1.174  0.00  0.00    -0.096 F 
ATOM     11  F3  UNL d   1      -2.593   0.664   1.520  0.00  0.00    -0.097 F 
ATOM     12  F4  UNL d   1      -0.436   0.126   3.102  0.00  0.00    -0.092 F 
ENDROOT
TORSDOF 0
ENDMDL
