MODEL 1
REMARK minimizedAffinity 0.657247126
REMARK minimizedRMSD -1
REMARK  0 active torsions:
REMARK  status: ('A' for Active; 'I' for Inactive)
ROOT
ATOM      1  C   UNL d   1       1.172   0.694   2.097  0.00  0.00     0.124 A 
ATOM      2  C1  UNL d   1      -0.063   1.224   2.441  0.00  0.00     0.062 A 
ATOM      3  C2  UNL d   1      -1.199   0.882   1.713  0.00  0.00     0.162 A 
ATOM      4  C3  UNL d   1      -1.104   0.004   0.633  0.00  0.00    -0.034 A 
ATOM      5  C4  UNL d   1       0.142  -0.524   0.292  0.00  0.00     0.162 A 
ATOM      6  C5  UNL d   1       1.274  -0.179   1.024  0.00  0.00     0.062 A 
ATOM      7  F   UNL d   1       2.467  -0.692   0.690  0.00  0.00    -0.097 F 
ATOM      8  F1  UNL d   1       0.269  -1.371  -0.740  0.00  0.00    -0.096 F 
ATOM      9  I   UNL d   1      -2.800  -0.509  -0.459  0.00  0.00    -0.060 I 
ATOM     10  F2  UNL d   1      -2.380   1.410   2.067  0.00  0.00    -0.096 F 
ATOM     11  F3  UNL d   1      -0.164   2.069   3.478  0.00  0.00    -0.097 F 
ATOM     12  F4  UNL d   1       2.264   1.025   2.799  0.00  0.00    -0.092 F 
ENDROOT
TORSDOF 0
ENDMDL
