MODEL 1
REMARK minimizedAffinity 2.97564816
REMARK minimizedRMSD -1
REMARK  0 active torsions:
REMARK  status: ('A' for Active; 'I' for Inactive)
ROOT
ATOM      1  C   UNL d   1      -0.135  -1.170  -4.700  0.00  0.00     0.124 A 
ATOM      2  C1  UNL d   1       0.680  -0.123  -4.291  0.00  0.00     0.062 A 
ATOM      3  C2  UNL d   1       0.993   0.034  -2.944  0.00  0.00     0.162 A 
ATOM      4  C3  UNL d   1       0.492  -0.858  -1.996  0.00  0.00    -0.034 A 
ATOM      5  C4  UNL d   1      -0.328  -1.907  -2.415  0.00  0.00     0.162 A 
ATOM      6  C5  UNL d   1      -0.638  -2.060  -3.763  0.00  0.00     0.062 A 
ATOM      7  F   UNL d   1      -1.426  -3.072  -4.156  0.00  0.00    -0.097 F 
ATOM      8  F1  UNL d   1      -0.827  -2.783  -1.530  0.00  0.00    -0.096 F 
ATOM      9  I   UNL d   1       0.958  -0.626   0.019  0.00  0.00    -0.060 I 
ATOM     10  F2  UNL d   1       1.783   1.054  -2.577  0.00  0.00    -0.096 F 
ATOM     11  F3  UNL d   1       1.166   0.739  -5.195  0.00  0.00    -0.097 F 
ATOM     12  F4  UNL d   1      -0.436  -1.318  -5.997  0.00  0.00    -0.092 F 
ENDROOT
TORSDOF 0
ENDMDL
