MODEL 1
REMARK minimizedAffinity 12.1438599
REMARK minimizedRMSD -1
REMARK  0 active torsions:
REMARK  status: ('A' for Active; 'I' for Inactive)
ROOT
ATOM      1  C4' PXY d   1       5.221  -5.824  -0.273  0.00  0.00     0.077 C 
ATOM      2  C1' PXY d   1      -0.040  -3.605  -1.174  0.00  0.00     0.077 C 
ATOM      3  C1  PXY d   1       1.345  -4.175  -0.939  0.00  0.00    -0.082 A 
ATOM      4  C2  PXY d   1       1.569  -5.461  -1.157  0.00  0.00     0.003 A 
ATOM      5  C3  PXY d   1       2.807  -5.999  -0.920  0.00  0.00     0.003 A 
ATOM      6  C4  PXY d   1       3.841  -5.203  -0.505  0.00  0.00    -0.082 A 
ATOM      7  C5  PXY d   1       3.624  -3.888  -0.290  0.00  0.00     0.003 A 
ATOM      8  C6  PXY d   1       2.349  -3.369  -0.498  0.00  0.00     0.003 A 
ENDROOT
TORSDOF 0
ENDMDL
