MODEL 1
REMARK minimizedAffinity 5.96428585
REMARK minimizedRMSD -1
REMARK  0 active torsions:
REMARK  status: ('A' for Active; 'I' for Inactive)
ROOT
ATOM      1  C4' PXY d   1      -1.862   4.229  -2.076  0.00  0.00     0.077 C 
ATOM      2  C1' PXY d   1       2.267   2.549   1.604  0.00  0.00     0.077 C 
ATOM      3  C1  PXY d   1       1.192   3.000   0.635  0.00  0.00    -0.082 A 
ATOM      4  C2  PXY d   1      -0.074   2.699   0.877  0.00  0.00     0.003 A 
ATOM      5  C3  PXY d   1      -1.055   3.071  -0.006  0.00  0.00     0.003 A 
ATOM      6  C4  PXY d   1      -0.744   3.803  -1.120  0.00  0.00    -0.082 A 
ATOM      7  C5  PXY d   1       0.544   4.123  -1.368  0.00  0.00     0.003 A 
ATOM      8  C6  PXY d   1       1.530   3.701  -0.481  0.00  0.00     0.003 A 
ENDROOT
TORSDOF 0
ENDMDL
