MODEL 1
REMARK minimizedAffinity 2.09119678
REMARK minimizedRMSD -1
REMARK  0 active torsions:
REMARK  status: ('A' for Active; 'I' for Inactive)
ROOT
ATOM      1  C4' PXY d   1      -2.727   5.832   2.198  0.00  0.00     0.077 C 
ATOM      2  C1' PXY d   1      -0.055   2.783  -1.923  0.00  0.00     0.077 C 
ATOM      3  C1  PXY d   1      -0.752   3.594  -0.848  0.00  0.00    -0.082 A 
ATOM      4  C2  PXY d   1      -0.914   3.077   0.359  0.00  0.00     0.003 A 
ATOM      5  C3  PXY d   1      -1.571   3.784   1.334  0.00  0.00     0.003 A 
ATOM      6  C4  PXY d   1      -2.020   5.053   1.085  0.00  0.00    -0.082 A 
ATOM      7  C5  PXY d   1      -1.850   5.591  -0.141  0.00  0.00     0.003 A 
ATOM      8  C6  PXY d   1      -1.217   4.842  -1.128  0.00  0.00     0.003 A 
ENDROOT
TORSDOF 0
ENDMDL
