MODEL 1
REMARK minimizedAffinity 10.7977619
REMARK minimizedRMSD -1
REMARK  0 active torsions:
REMARK  status: ('A' for Active; 'I' for Inactive)
ROOT
ATOM      1  C4' PXY d   1       5.636  -3.285  -0.646  0.00  0.00     0.077 C 
ATOM      2  C1' PXY d   1       4.086  -6.000  -5.508  0.00  0.00     0.077 C 
ATOM      3  C1  PXY d   1       4.485  -5.296  -4.226  0.00  0.00    -0.082 A 
ATOM      4  C2  PXY d   1       4.842  -4.023  -4.263  0.00  0.00     0.003 A 
ATOM      5  C3  PXY d   1       5.237  -3.380  -3.118  0.00  0.00     0.003 A 
ATOM      6  C4  PXY d   1       5.216  -4.033  -1.914  0.00  0.00    -0.082 A 
ATOM      7  C5  PXY d   1       4.843  -5.329  -1.867  0.00  0.00     0.003 A 
ATOM      8  C6  PXY d   1       4.485  -5.975  -3.047  0.00  0.00     0.003 A 
ENDROOT
TORSDOF 0
ENDMDL
