MODEL 1
REMARK minimizedAffinity 4.08745623
REMARK minimizedRMSD -1
REMARK  0 active torsions:
REMARK  status: ('A' for Active; 'I' for Inactive)
ROOT
ATOM      1  C4' PXY d   1       2.991   4.298   0.032  0.00  0.00     0.077 C 
ATOM      2  C1' PXY d   1      -2.124   5.215  -2.502  0.00  0.00     0.077 C 
ATOM      3  C1  PXY d   1      -0.777   4.978  -1.848  0.00  0.00    -0.082 A 
ATOM      4  C2  PXY d   1      -0.684   4.149  -0.821  0.00  0.00     0.003 A 
ATOM      5  C3  PXY d   1       0.520   3.948  -0.198  0.00  0.00     0.003 A 
ATOM      6  C4  PXY d   1       1.652   4.561  -0.665  0.00  0.00    -0.082 A 
ATOM      7  C5  PXY d   1       1.569   5.399  -1.719  0.00  0.00     0.003 A 
ATOM      8  C6  PXY d   1       0.329   5.622  -2.312  0.00  0.00     0.003 A 
ENDROOT
TORSDOF 0
ENDMDL
