MODEL 1
REMARK minimizedAffinity 2.78359056
REMARK minimizedRMSD -1
REMARK  0 active torsions:
REMARK  status: ('A' for Active; 'I' for Inactive)
ROOT
ATOM      1  C4' PXY d   1       0.373   2.874   0.811  0.00  0.00     0.077 C 
ATOM      2  C1' PXY d   1       1.106  -1.159   4.888  0.00  0.00     0.077 C 
ATOM      3  C1  PXY d   1       0.901  -0.102   3.820  0.00  0.00    -0.082 A 
ATOM      4  C2  PXY d   1       1.850   0.115   2.924  0.00  0.00     0.003 A 
ATOM      5  C3  PXY d   1       1.694   1.088   1.971  0.00  0.00     0.003 A 
ATOM      6  C4  PXY d   1       0.533   1.811   1.902  0.00  0.00    -0.082 A 
ATOM      7  C5  PXY d   1      -0.445   1.588   2.806  0.00  0.00     0.003 A 
ATOM      8  C6  PXY d   1      -0.250   0.623   3.790  0.00  0.00     0.003 A 
ENDROOT
TORSDOF 0
ENDMDL
