MODEL 1
REMARK minimizedAffinity 11.1151762
REMARK minimizedRMSD -1
REMARK  0 active torsions:
REMARK  status: ('A' for Active; 'I' for Inactive)
ROOT
ATOM      1  C4' PXY d   1      -5.813   2.598  -0.759  0.00  0.00     0.077 C 
ATOM      2  C1' PXY d   1      -5.997   0.164  -5.999  0.00  0.00     0.077 C 
ATOM      3  C1  PXY d   1      -5.943   0.813  -4.630  0.00  0.00    -0.082 A 
ATOM      4  C2  PXY d   1      -6.000   0.057  -3.545  0.00  0.00     0.003 A 
ATOM      5  C3  PXY d   1      -5.984   0.629  -2.299  0.00  0.00     0.003 A 
ATOM      6  C4  PXY d   1      -5.855   1.986  -2.161  0.00  0.00    -0.082 A 
ATOM      7  C5  PXY d   1      -5.786   2.763  -3.263  0.00  0.00     0.003 A 
ATOM      8  C6  PXY d   1      -5.845   2.166  -4.519  0.00  0.00     0.003 A 
ENDROOT
TORSDOF 0
ENDMDL
