MODEL 1
REMARK minimizedAffinity 5.20535231
REMARK minimizedRMSD -1
REMARK  0 active torsions:
REMARK  status: ('A' for Active; 'I' for Inactive)
ROOT
ATOM      1  C4' PXY d   1       1.143  -2.780   6.000  0.00  0.00     0.077 C 
ATOM      2  C1' PXY d   1      -0.141   1.632   2.493  0.00  0.00     0.077 C 
ATOM      3  C1  PXY d   1       0.185   0.478   3.420  0.00  0.00    -0.082 A 
ATOM      4  C2  PXY d   1       1.431   0.044   3.510  0.00  0.00     0.003 A 
ATOM      5  C3  PXY d   1       1.738  -1.020   4.319  0.00  0.00     0.003 A 
ATOM      6  C4  PXY d   1       0.769  -1.611   5.084  0.00  0.00    -0.082 A 
ATOM      7  C5  PXY d   1      -0.504  -1.167   5.006  0.00  0.00     0.003 A 
ATOM      8  C6  PXY d   1      -0.802  -0.113   4.147  0.00  0.00     0.003 A 
ENDROOT
TORSDOF 0
ENDMDL
