MODEL 1
REMARK minimizedAffinity 5.75168037
REMARK minimizedRMSD -1
REMARK  0 active torsions:
REMARK  status: ('A' for Active; 'I' for Inactive)
ROOT
ATOM      1  C4' PXY d   1       1.877   2.695   3.056  0.00  0.00     0.077 C 
ATOM      2  C1' PXY d   1      -0.770   4.375  -1.801  0.00  0.00     0.077 C 
ATOM      3  C1  PXY d   1      -0.087   3.930  -0.523  0.00  0.00    -0.082 A 
ATOM      4  C2  PXY d   1       1.010   4.548  -0.118  0.00  0.00     0.003 A 
ATOM      5  C3  PXY d   1       1.659   4.137   1.018  0.00  0.00     0.003 A 
ATOM      6  C4  PXY d   1       1.149   3.117   1.776  0.00  0.00    -0.082 A 
ATOM      7  C5  PXY d   1       0.024   2.488   1.375  0.00  0.00     0.003 A 
ATOM      8  C6  PXY d   1      -0.596   2.893   0.197  0.00  0.00     0.003 A 
ENDROOT
TORSDOF 0
ENDMDL
