MODEL 1
REMARK minimizedAffinity -3.68539643
REMARK minimizedRMSD -1
REMARK  0 active torsions:
REMARK  status: ('A' for Active; 'I' for Inactive)
ROOT
ATOM      1  C   UNL d   1       0.177  -0.121   0.300  0.00  0.00     0.172 C 
ATOM      2  N   UNL d   1      -0.473   1.163   0.177  0.00  0.00    -0.070 N 
ATOM      3  C1  UNL d   1      -1.223   1.774   1.146  0.00  0.00    -0.004 A 
ATOM      4  C2  UNL d   1      -1.665   2.978   0.641  0.00  0.00    -0.047 A 
ATOM      5  C3  UNL d   1      -1.163   3.094  -0.677  0.00  0.00    -0.047 A 
ATOM      6  C4  UNL d   1      -0.428   1.957  -0.938  0.00  0.00    -0.004 A 
ENDROOT
TORSDOF 0
ENDMDL
