MODEL 1
REMARK minimizedAffinity -2.79453278
REMARK minimizedRMSD -1
REMARK  0 active torsions:
REMARK  status: ('A' for Active; 'I' for Inactive)
ROOT
ATOM      1  C   UNL d   1      -1.360   2.383   1.709  0.00  0.00     0.172 C 
ATOM      2  N   UNL d   1      -0.525   1.410   1.046  0.00  0.00    -0.070 N 
ATOM      3  C1  UNL d   1      -0.566   1.098  -0.287  0.00  0.00    -0.004 A 
ATOM      4  C2  UNL d   1       0.384   0.128  -0.523  0.00  0.00    -0.047 A 
ATOM      5  C3  UNL d   1       1.018  -0.153   0.710  0.00  0.00    -0.047 A 
ATOM      6  C4  UNL d   1       0.436   0.655   1.664  0.00  0.00    -0.004 A 
ENDROOT
TORSDOF 0
ENDMDL
