MODEL 1
REMARK minimizedAffinity -2.08416677
REMARK minimizedRMSD -1
REMARK  0 active torsions:
REMARK  status: ('A' for Active; 'I' for Inactive)
ROOT
ATOM      1  C   UNL d   1      -1.841   2.348   1.829  0.00  0.00     0.172 C 
ATOM      2  N   UNL d   1      -0.988   1.328   1.266  0.00  0.00    -0.070 N 
ATOM      3  C1  UNL d   1      -0.959   0.949  -0.050  0.00  0.00    -0.004 A 
ATOM      4  C2  UNL d   1      -0.016  -0.048  -0.181  0.00  0.00    -0.047 A 
ATOM      5  C3  UNL d   1       0.540  -0.277   1.101  0.00  0.00    -0.047 A 
ATOM      6  C4  UNL d   1      -0.080   0.589   1.977  0.00  0.00    -0.004 A 
ENDROOT
TORSDOF 0
ENDMDL
