MODEL 1
REMARK minimizedAffinity -3.87898993
REMARK minimizedRMSD -1
REMARK  0 active torsions:
REMARK  status: ('A' for Active; 'I' for Inactive)
ROOT
ATOM      1  C   UNL d   1       0.271  -0.433  -0.882  0.00  0.00     0.172 C 
ATOM      2  N   UNL d   1      -0.248   0.872  -0.545  0.00  0.00    -0.070 N 
ATOM      3  C1  UNL d   1      -0.609   1.843  -1.441  0.00  0.00    -0.004 A 
ATOM      4  C2  UNL d   1      -1.054   2.933  -0.725  0.00  0.00    -0.047 A 
ATOM      5  C3  UNL d   1      -0.956   2.606   0.649  0.00  0.00    -0.047 A 
ATOM      6  C4  UNL d   1      -0.454   1.325   0.731  0.00  0.00    -0.004 A 
ENDROOT
TORSDOF 0
ENDMDL
