MODEL 1
REMARK minimizedAffinity -4.02246809
REMARK minimizedRMSD -1
REMARK  0 active torsions:
REMARK  status: ('A' for Active; 'I' for Inactive)
ROOT
ATOM      1  C   UNL d   1       0.339  -0.015  -0.735  0.00  0.00     0.172 C 
ATOM      2  N   UNL d   1      -0.266   0.978   0.121  0.00  0.00    -0.070 N 
ATOM      3  C1  UNL d   1      -0.112   1.062   1.479  0.00  0.00    -0.004 A 
ATOM      4  C2  UNL d   1      -0.847   2.140   1.921  0.00  0.00    -0.047 A 
ATOM      5  C3  UNL d   1      -1.466   2.724   0.790  0.00  0.00    -0.047 A 
ATOM      6  C4  UNL d   1      -1.089   1.984  -0.311  0.00  0.00    -0.004 A 
ENDROOT
TORSDOF 0
ENDMDL
