MODEL 1
REMARK minimizedAffinity -3.11942577
REMARK minimizedRMSD -1
REMARK  0 active torsions:
REMARK  status: ('A' for Active; 'I' for Inactive)
ROOT
ATOM      1  C   UNL d   1      -0.066   2.303  -1.748  0.00  0.00     0.172 C 
ATOM      2  N   UNL d   1      -0.202   1.816  -0.396  0.00  0.00    -0.070 N 
ATOM      3  C1  UNL d   1      -0.059   0.513   0.002  0.00  0.00    -0.004 A 
ATOM      4  C2  UNL d   1      -0.265   0.462   1.363  0.00  0.00    -0.047 A 
ATOM      5  C3  UNL d   1      -0.543   1.780   1.799  0.00  0.00    -0.047 A 
ATOM      6  C4  UNL d   1      -0.497   2.597   0.690  0.00  0.00    -0.004 A 
ENDROOT
TORSDOF 0
ENDMDL
