MODEL 1
REMARK minimizedAffinity -2.95667982
REMARK minimizedRMSD -1
REMARK  0 active torsions:
REMARK  status: ('A' for Active; 'I' for Inactive)
ROOT
ATOM      1  C   UNL d   1       1.378   0.407  -0.205  0.00  0.00     0.023 A 
ATOM      2  C1  UNL d   1       0.527   1.348  -0.785  0.00  0.00     0.003 A 
ATOM      3  C2  UNL d   1      -0.565   0.928  -1.548  0.00  0.00     0.048 A 
ATOM      4  C3  UNL d   1      -0.801  -0.435  -1.725  0.00  0.00     0.023 A 
ATOM      5  C4  UNL d   1       0.047  -1.381  -1.145  0.00  0.00     0.048 A 
ATOM      6  C5  UNL d   1       1.138  -0.956  -0.385  0.00  0.00     0.003 A 
ATOM      7  I   UNL d   1      -2.425  -1.063  -2.859  0.00  0.00    -0.146 I 
ENDROOT
TORSDOF 0
ENDMDL
