MODEL 1
REMARK minimizedAffinity 1.0478245
REMARK minimizedRMSD -1
REMARK  0 active torsions:
REMARK  status: ('A' for Active; 'I' for Inactive)
ROOT
ATOM      1  C   UNL d   1      -3.833   5.997  -2.190  0.00  0.00     0.023 A 
ATOM      2  C1  UNL d   1      -2.546   5.997  -1.653  0.00  0.00     0.003 A 
ATOM      3  C2  UNL d   1      -1.435   5.997  -2.499  0.00  0.00     0.048 A 
ATOM      4  C3  UNL d   1      -1.619   5.998  -3.881  0.00  0.00     0.023 A 
ATOM      5  C4  UNL d   1      -2.905   5.999  -4.423  0.00  0.00     0.048 A 
ATOM      6  C5  UNL d   1      -4.012   5.998  -3.573  0.00  0.00     0.003 A 
ATOM      7  I   UNL d   1       0.033   5.999  -5.142  0.00  0.00    -0.146 I 
ENDROOT
TORSDOF 0
ENDMDL
