MODEL 1
REMARK minimizedAffinity 6.99689531
REMARK minimizedRMSD -1
REMARK  0 active torsions:
REMARK  status: ('A' for Active; 'I' for Inactive)
ROOT
ATOM      1  C   UNL d   1       0.816   5.446  -5.578  0.00  0.00     0.023 A 
ATOM      2  C1  UNL d   1       0.795   4.341  -4.728  0.00  0.00     0.003 A 
ATOM      3  C2  UNL d   1       1.993   3.786  -4.272  0.00  0.00     0.048 A 
ATOM      4  C3  UNL d   1       3.208   4.342  -4.669  0.00  0.00     0.023 A 
ATOM      5  C4  UNL d   1       3.234   5.449  -5.519  0.00  0.00     0.048 A 
ATOM      6  C5  UNL d   1       2.034   6.000  -5.974  0.00  0.00     0.003 A 
ATOM      7  I   UNL d   1       4.992   3.519  -3.992  0.00  0.00    -0.146 I 
ENDROOT
TORSDOF 0
ENDMDL
