MODEL 1
REMARK minimizedAffinity 5.02813053
REMARK minimizedRMSD -1
REMARK  0 active torsions:
REMARK  status: ('A' for Active; 'I' for Inactive)
ROOT
ATOM      1  C   UNL d   1       1.641   1.401  -0.602  0.00  0.00     0.023 A 
ATOM      2  C1  UNL d   1       2.086   1.554   0.711  0.00  0.00     0.003 A 
ATOM      3  C2  UNL d   1       1.358   0.998   1.765  0.00  0.00     0.048 A 
ATOM      4  C3  UNL d   1       0.187   0.289   1.499  0.00  0.00     0.023 A 
ATOM      5  C4  UNL d   1      -0.261   0.132   0.186  0.00  0.00     0.048 A 
ATOM      6  C5  UNL d   1       0.469   0.691  -0.864  0.00  0.00     0.003 A 
ATOM      7  I   UNL d   1      -0.897  -0.540   3.066  0.00  0.00    -0.146 I 
ENDROOT
TORSDOF 0
ENDMDL
