MODEL 1
REMARK minimizedAffinity -0.665701389
REMARK minimizedRMSD -1
REMARK  0 active torsions:
REMARK  status: ('A' for Active; 'I' for Inactive)
ROOT
ATOM      1  C   UNL d   1       2.498   5.734  -4.988  0.00  0.00     0.023 A 
ATOM      2  C1  UNL d   1       1.527   5.798  -5.987  0.00  0.00     0.003 A 
ATOM      3  C2  UNL d   1       0.175   5.874  -5.645  0.00  0.00     0.048 A 
ATOM      4  C3  UNL d   1      -0.198   5.886  -4.301  0.00  0.00     0.023 A 
ATOM      5  C4  UNL d   1       0.771   5.823  -3.298  0.00  0.00     0.048 A 
ATOM      6  C5  UNL d   1       2.121   5.746  -3.645  0.00  0.00     0.003 A 
ATOM      7  I   UNL d   1      -2.209   5.999  -3.789  0.00  0.00    -0.146 I 
ENDROOT
TORSDOF 0
ENDMDL
