MODEL 1
REMARK minimizedAffinity 6.27950335
REMARK minimizedRMSD -1
REMARK  0 active torsions:
REMARK  status: ('A' for Active; 'I' for Inactive)
ROOT
ATOM      1  C   UNL d   1       1.917   1.845  -0.439  0.00  0.00     0.023 A 
ATOM      2  C1  UNL d   1       1.124   1.107  -1.317  0.00  0.00     0.003 A 
ATOM      3  C2  UNL d   1       0.452  -0.031  -0.865  0.00  0.00     0.048 A 
ATOM      4  C3  UNL d   1       0.578  -0.425   0.467  0.00  0.00     0.023 A 
ATOM      5  C4  UNL d   1       1.370   0.311   1.349  0.00  0.00     0.048 A 
ATOM      6  C5  UNL d   1       2.040   1.447   0.893  0.00  0.00     0.003 A 
ATOM      7  I   UNL d   1      -0.421  -2.118   1.142  0.00  0.00    -0.146 I 
ENDROOT
TORSDOF 0
ENDMDL
