MODEL 1
REMARK minimizedAffinity -2.89748192
REMARK minimizedRMSD -1
REMARK  0 active torsions:
REMARK  status: ('A' for Active; 'I' for Inactive)
ROOT
ATOM      1  C   UNL d   1      -2.534   5.997  -2.568  0.00  0.00     0.023 A 
ATOM      2  C1  UNL d   1      -1.280   6.000  -1.956  0.00  0.00     0.003 A 
ATOM      3  C2  UNL d   1      -0.122   6.000  -2.736  0.00  0.00     0.048 A 
ATOM      4  C3  UNL d   1      -0.224   5.999  -4.127  0.00  0.00     0.023 A 
ATOM      5  C4  UNL d   1      -1.477   5.997  -4.743  0.00  0.00     0.048 A 
ATOM      6  C5  UNL d   1      -2.632   5.996  -3.959  0.00  0.00     0.003 A 
ATOM      7  I   UNL d   1       1.499   6.000  -5.289  0.00  0.00    -0.146 I 
ENDROOT
TORSDOF 0
ENDMDL
