MODEL 1
REMARK minimizedAffinity 5.40889597
REMARK minimizedRMSD -1
REMARK  0 active torsions:
REMARK  status: ('A' for Active; 'I' for Inactive)
ROOT
ATOM      1  C   UNL d   1       1.770   1.450   0.953  0.00  0.00     0.023 A 
ATOM      2  C1  UNL d   1       1.367   1.952  -0.284  0.00  0.00     0.003 A 
ATOM      3  C2  UNL d   1       0.266   1.397  -0.939  0.00  0.00     0.048 A 
ATOM      4  C3  UNL d   1      -0.428   0.341  -0.351  0.00  0.00     0.023 A 
ATOM      5  C4  UNL d   1      -0.029  -0.165   0.887  0.00  0.00     0.048 A 
ATOM      6  C5  UNL d   1       1.073   0.392   1.538  0.00  0.00     0.003 A 
ATOM      7  I   UNL d   1      -2.068  -0.487  -1.325  0.00  0.00    -0.146 I 
ENDROOT
TORSDOF 0
ENDMDL
