MODEL 1
REMARK minimizedAffinity -1.12463391
REMARK minimizedRMSD -1
REMARK  0 active torsions:
REMARK  status: ('A' for Active; 'I' for Inactive)
ROOT
ATOM      1  C   UNL d   1       3.456   2.100   1.463  0.00  0.00     0.023 A 
ATOM      2  C1  UNL d   1       3.051   1.188   2.439  0.00  0.00     0.003 A 
ATOM      3  C2  UNL d   1       1.718   0.777   2.501  0.00  0.00     0.048 A 
ATOM      4  C3  UNL d   1       0.795   1.280   1.585  0.00  0.00     0.023 A 
ATOM      5  C4  UNL d   1       1.196   2.192   0.607  0.00  0.00     0.048 A 
ATOM      6  C5  UNL d   1       2.529   2.601   0.549  0.00  0.00     0.003 A 
ATOM      7  I   UNL d   1      -1.189   0.670   1.677  0.00  0.00    -0.146 I 
ENDROOT
TORSDOF 0
ENDMDL
