MODEL 1
REMARK minimizedAffinity -2.87217331
REMARK minimizedRMSD -1
REMARK  0 active torsions:
REMARK  status: ('A' for Active; 'I' for Inactive)
ROOT
ATOM      1  C   UNL d   1      -3.138   5.996  -2.464  0.00  0.00     0.023 A 
ATOM      2  C1  UNL d   1      -3.058   5.994  -3.857  0.00  0.00     0.003 A 
ATOM      3  C2  UNL d   1      -1.812   5.996  -4.486  0.00  0.00     0.048 A 
ATOM      4  C3  UNL d   1      -0.649   5.998  -3.717  0.00  0.00     0.023 A 
ATOM      5  C4  UNL d   1      -0.724   5.999  -2.323  0.00  0.00     0.048 A 
ATOM      6  C5  UNL d   1      -1.972   5.998  -1.698  0.00  0.00     0.003 A 
ATOM      7  I   UNL d   1       1.208   6.000  -4.651  0.00  0.00    -0.146 I 
ENDROOT
TORSDOF 0
ENDMDL
