MODEL 1
REMARK minimizedAffinity 0.206140593
REMARK minimizedRMSD -1
REMARK  0 active torsions:
REMARK  status: ('A' for Active; 'I' for Inactive)
ROOT
ATOM      1  C   UNL d   1      -2.084   5.993  -2.050  0.00  0.00     0.023 A 
ATOM      2  C1  UNL d   1      -0.871   5.995  -1.361  0.00  0.00     0.003 A 
ATOM      3  C2  UNL d   1       0.334   5.997  -2.066  0.00  0.00     0.048 A 
ATOM      4  C3  UNL d   1       0.320   5.997  -3.460  0.00  0.00     0.023 A 
ATOM      5  C4  UNL d   1      -0.891   5.996  -4.154  0.00  0.00     0.048 A 
ATOM      6  C5  UNL d   1      -2.094   5.993  -3.445  0.00  0.00     0.003 A 
ATOM      7  I   UNL d   1       2.112   6.000  -4.512  0.00  0.00    -0.146 I 
ENDROOT
TORSDOF 0
ENDMDL
