MODEL 1
REMARK minimizedAffinity 2.56141162
REMARK minimizedRMSD -1
REMARK  0 active torsions:
REMARK  status: ('A' for Active; 'I' for Inactive)
ROOT
ATOM      1  C   UNL d   1      -5.475  -5.104   0.532  0.00  0.00     0.023 A 
ATOM      2  C1  UNL d   1      -5.392  -3.766   0.919  0.00  0.00     0.003 A 
ATOM      3  C2  UNL d   1      -4.740  -2.841   0.101  0.00  0.00     0.048 A 
ATOM      4  C3  UNL d   1      -4.175  -3.260  -1.102  0.00  0.00     0.023 A 
ATOM      5  C4  UNL d   1      -4.256  -4.597  -1.494  0.00  0.00     0.048 A 
ATOM      6  C5  UNL d   1      -4.908  -5.519  -0.673  0.00  0.00     0.003 A 
ATOM      7  I   UNL d   1      -3.204  -1.885  -2.321  0.00  0.00    -0.146 I 
ENDROOT
TORSDOF 0
ENDMDL
