MODEL 1
REMARK minimizedAffinity -3.2385962
REMARK minimizedRMSD -1
REMARK  0 active torsions:
REMARK  status: ('A' for Active; 'I' for Inactive)
ROOT
ATOM      1  C   UNL d   1       1.778   5.988  -5.110  0.00  0.00     0.023 A 
ATOM      2  C1  UNL d   1       0.699   5.989  -5.994  0.00  0.00     0.003 A 
ATOM      3  C2  UNL d   1      -0.608   5.958  -5.504  0.00  0.00     0.048 A 
ATOM      4  C3  UNL d   1      -0.829   5.929  -4.127  0.00  0.00     0.023 A 
ATOM      5  C4  UNL d   1       0.247   5.929  -3.238  0.00  0.00     0.048 A 
ATOM      6  C5  UNL d   1       1.552   5.959  -3.733  0.00  0.00     0.003 A 
ATOM      7  I   UNL d   1      -2.774   5.884  -3.394  0.00  0.00    -0.146 I 
ENDROOT
TORSDOF 0
ENDMDL
