MODEL 1
REMARK minimizedAffinity 1.29110968
REMARK minimizedRMSD -1
REMARK  0 active torsions:
REMARK  status: ('A' for Active; 'I' for Inactive)
ROOT
ATOM      1  C   UNL d   1       0.680   0.903   0.595  0.00  0.00     0.023 A 
ATOM      2  C1  UNL d   1      -0.278  -0.014   0.165  0.00  0.00     0.003 A 
ATOM      3  C2  UNL d   1      -1.241  -0.490   1.057  0.00  0.00     0.048 A 
ATOM      4  C3  UNL d   1      -1.240  -0.044   2.378  0.00  0.00     0.023 A 
ATOM      5  C4  UNL d   1      -0.283   0.874   2.813  0.00  0.00     0.048 A 
ATOM      6  C5  UNL d   1       0.678   1.347   1.918  0.00  0.00     0.003 A 
ATOM      7  I   UNL d   1      -2.672  -0.751   3.708  0.00  0.00    -0.146 I 
ENDROOT
TORSDOF 0
ENDMDL
