MODEL 1
REMARK minimizedAffinity 3.02556157
REMARK minimizedRMSD -1
REMARK  0 active torsions:
REMARK  status: ('A' for Active; 'I' for Inactive)
ROOT
ATOM      1  C   UNL d   1       0.942   1.003   1.940  0.00  0.00     0.023 A 
ATOM      2  C1  UNL d   1       0.272  -0.072   1.356  0.00  0.00     0.003 A 
ATOM      3  C2  UNL d   1       0.261  -0.218  -0.033  0.00  0.00     0.048 A 
ATOM      4  C3  UNL d   1       0.923   0.714  -0.831  0.00  0.00     0.023 A 
ATOM      5  C4  UNL d   1       1.595   1.791  -0.251  0.00  0.00     0.048 A 
ATOM      6  C5  UNL d   1       1.603   1.933   1.138  0.00  0.00     0.003 A 
ATOM      7  I   UNL d   1       0.908   0.499  -2.899  0.00  0.00    -0.146 I 
ENDROOT
TORSDOF 0
ENDMDL
