MODEL 1
REMARK minimizedAffinity -0.0864342749
REMARK minimizedRMSD -1
REMARK  0 active torsions:
REMARK  status: ('A' for Active; 'I' for Inactive)
ROOT
ATOM      1  C   UNL d   1       2.528   5.531  -5.039  0.00  0.00     0.023 A 
ATOM      2  C1  UNL d   1       2.252   5.863  -3.713  0.00  0.00     0.003 A 
ATOM      3  C2  UNL d   1       0.930   5.998  -3.286  0.00  0.00     0.048 A 
ATOM      4  C3  UNL d   1      -0.113   5.799  -4.190  0.00  0.00     0.023 A 
ATOM      5  C4  UNL d   1       0.158   5.465  -5.518  0.00  0.00     0.048 A 
ATOM      6  C5  UNL d   1       1.482   5.332  -5.941  0.00  0.00     0.003 A 
ATOM      7  I   UNL d   1      -2.082   5.999  -3.557  0.00  0.00    -0.146 I 
ENDROOT
TORSDOF 0
ENDMDL
