MODEL 1
REMARK minimizedAffinity -3.30484128
REMARK minimizedRMSD -1
REMARK  0 active torsions:
REMARK  status: ('A' for Active; 'I' for Inactive)
ROOT
ATOM      1  C   UNL d   1      -3.669   5.993  -3.787  0.00  0.00     0.023 A 
ATOM      2  C1  UNL d   1      -3.083   5.839  -5.043  0.00  0.00     0.003 A 
ATOM      3  C2  UNL d   1      -1.699   5.692  -5.156  0.00  0.00     0.048 A 
ATOM      4  C3  UNL d   1      -0.907   5.698  -4.008  0.00  0.00     0.023 A 
ATOM      5  C4  UNL d   1      -1.489   5.851  -2.749  0.00  0.00     0.048 A 
ATOM      6  C5  UNL d   1      -2.873   5.999  -2.641  0.00  0.00     0.003 A 
ATOM      7  I   UNL d   1       1.153   5.479  -4.174  0.00  0.00    -0.146 I 
ENDROOT
TORSDOF 0
ENDMDL
