MODEL 1
REMARK minimizedAffinity -0.0343924314
REMARK minimizedRMSD -1
REMARK  0 active torsions:
REMARK  status: ('A' for Active; 'I' for Inactive)
ROOT
ATOM      1  C   UNL d   1      -5.550   5.957  -1.995  0.00  0.00     0.023 A 
ATOM      2  C1  UNL d   1      -4.471   5.935  -1.111  0.00  0.00     0.003 A 
ATOM      3  C2  UNL d   1      -3.164   5.945  -1.602  0.00  0.00     0.048 A 
ATOM      4  C3  UNL d   1      -2.942   5.977  -2.979  0.00  0.00     0.023 A 
ATOM      5  C4  UNL d   1      -4.019   6.000  -3.867  0.00  0.00     0.048 A 
ATOM      6  C5  UNL d   1      -5.324   5.989  -3.372  0.00  0.00     0.003 A 
ATOM      7  I   UNL d   1      -0.998   5.992  -3.712  0.00  0.00    -0.146 I 
ENDROOT
TORSDOF 0
ENDMDL
