MODEL 1
REMARK minimizedAffinity -2.92036438
REMARK minimizedRMSD -1
REMARK  1 active torsions:
REMARK  status: ('A' for Active; 'I' for Inactive)
REMARK    1  A    between atoms: C1_2  and  C2_3 
ROOT
ATOM      1  C2  UNL d   1      -0.916   0.956  -1.139  0.00  0.00    -0.081 A 
ATOM      2  C3  UNL d   1      -1.582   1.138   0.079  0.00  0.00     0.006 A 
ATOM      3  C4  UNL d   1      -1.204   0.410   1.210  0.00  0.00     0.002 A 
ATOM      4  C5  UNL d   1      -0.149  -0.506   1.143  0.00  0.00    -0.080 A 
ATOM      5  C6  UNL d   1       0.288  -1.272   2.357  0.00  0.00     0.076 C 
ATOM      6  C7  UNL d   1       0.506  -0.701  -0.078  0.00  0.00     0.002 A 
ATOM      7  C8  UNL d   1       0.128   0.027  -1.208  0.00  0.00     0.006 A 
ENDROOT
BRANCH   1   8
ATOM      8  C1  UNL d   1      -1.279   1.787  -2.343  0.00  0.00     0.054 C 
ATOM      9  C   UNL d   1      -0.126   2.686  -2.763  0.00  0.00     0.018 C 
ENDBRANCH   1   8
TORSDOF 1
ENDMDL
