MODEL 1
REMARK minimizedAffinity -4.97232389
REMARK minimizedRMSD -1
REMARK  1 active torsions:
REMARK  status: ('A' for Active; 'I' for Inactive)
REMARK    1  A    between atoms: C1_2  and  C2_3 
ROOT
ATOM      1  C2  UNL d   1       0.185  -0.350  -0.375  0.00  0.00    -0.081 A 
ATOM      2  C3  UNL d   1       1.366  -1.081  -0.556  0.00  0.00     0.006 A 
ATOM      3  C4  UNL d   1       2.031  -1.636   0.540  0.00  0.00     0.002 A 
ATOM      4  C5  UNL d   1       1.523  -1.476   1.834  0.00  0.00    -0.080 A 
ATOM      5  C6  UNL d   1       2.210  -2.092   3.016  0.00  0.00     0.076 C 
ATOM      6  C7  UNL d   1       0.353  -0.731   2.017  0.00  0.00     0.002 A 
ATOM      7  C8  UNL d   1      -0.312  -0.175   0.921  0.00  0.00     0.006 A 
ENDROOT
BRANCH   1   8
ATOM      8  C1  UNL d   1      -0.569   0.194  -1.561  0.00  0.00     0.054 C 
ATOM      9  C   UNL d   1      -0.085   1.588  -1.932  0.00  0.00     0.018 C 
ENDBRANCH   1   8
TORSDOF 1
ENDMDL
