MODEL 1
REMARK minimizedAffinity -3.20369005
REMARK minimizedRMSD -1
REMARK  1 active torsions:
REMARK  status: ('A' for Active; 'I' for Inactive)
REMARK    1  A    between atoms: C1_2  and  C2_3 
ROOT
ATOM      1  C2  UNL d   1      -0.916   0.728  -1.039  0.00  0.00    -0.081 A 
ATOM      2  C3  UNL d   1      -0.045  -0.327  -1.340  0.00  0.00     0.006 A 
ATOM      3  C4  UNL d   1       0.615  -1.013  -0.318  0.00  0.00     0.002 A 
ATOM      4  C5  UNL d   1       0.410  -0.662   1.021  0.00  0.00    -0.080 A 
ATOM      5  C6  UNL d   1       1.089  -1.411   2.129  0.00  0.00     0.076 C 
ATOM      6  C7  UNL d   1      -0.447   0.403   1.320  0.00  0.00     0.002 A 
ATOM      7  C8  UNL d   1      -1.107   1.090   0.299  0.00  0.00     0.006 A 
ENDROOT
BRANCH   1   8
ATOM      8  C1  UNL d   1      -1.679   1.428  -2.135  0.00  0.00     0.054 C 
ATOM      9  C   UNL d   1      -1.238   2.877  -2.277  0.00  0.00     0.018 C 
ENDBRANCH   1   8
TORSDOF 1
ENDMDL
