MODEL 1
REMARK minimizedAffinity -2.95283794
REMARK minimizedRMSD -1
REMARK  1 active torsions:
REMARK  status: ('A' for Active; 'I' for Inactive)
REMARK    1  A    between atoms: C1_2  and  C2_3 
ROOT
ATOM      1  C2  UNL d   1      -0.836   1.465  -1.148  0.00  0.00    -0.081 A 
ATOM      2  C3  UNL d   1      -0.939   2.006   0.140  0.00  0.00     0.006 A 
ATOM      3  C4  UNL d   1      -0.736   1.202   1.264  0.00  0.00     0.002 A 
ATOM      4  C5  UNL d   1      -0.418  -0.153   1.119  0.00  0.00    -0.080 A 
ATOM      5  C6  UNL d   1      -0.167  -1.020   2.317  0.00  0.00     0.076 C 
ATOM      6  C7  UNL d   1      -0.332  -0.697  -0.166  0.00  0.00     0.002 A 
ATOM      7  C8  UNL d   1      -0.536   0.106  -1.291  0.00  0.00     0.006 A 
ENDROOT
BRANCH   1   8
ATOM      8  C1  UNL d   1      -0.991   2.344  -2.363  0.00  0.00     0.054 C 
ATOM      9  C   UNL d   1       0.052   3.452  -2.381  0.00  0.00     0.018 C 
ENDBRANCH   1   8
TORSDOF 1
ENDMDL
