MODEL 1
REMARK minimizedAffinity -3.81922722
REMARK minimizedRMSD -1
REMARK  1 active torsions:
REMARK  status: ('A' for Active; 'I' for Inactive)
REMARK    1  A    between atoms: C1_2  and  C2_3 
ROOT
ATOM      1  C2  UNL d   1      -0.172  -0.432  -0.864  0.00  0.00    -0.081 A 
ATOM      2  C3  UNL d   1      -0.673  -0.491   0.442  0.00  0.00     0.006 A 
ATOM      3  C4  UNL d   1      -0.029  -1.260   1.414  0.00  0.00     0.002 A 
ATOM      4  C5  UNL d   1       1.130  -1.977   1.099  0.00  0.00    -0.080 A 
ATOM      5  C6  UNL d   1       1.849  -2.782   2.140  0.00  0.00     0.076 C 
ATOM      6  C7  UNL d   1       1.621  -1.932  -0.211  0.00  0.00     0.002 A 
ATOM      7  C8  UNL d   1       0.977  -1.164  -1.183  0.00  0.00     0.006 A 
ENDROOT
BRANCH   1   8
ATOM      8  C1  UNL d   1      -0.828   0.448  -1.897  0.00  0.00     0.054 C 
ATOM      9  C   UNL d   1      -0.133   1.798  -1.996  0.00  0.00     0.018 C 
ENDBRANCH   1   8
TORSDOF 1
ENDMDL
