MODEL 1
REMARK minimizedAffinity 1.12195373
REMARK minimizedRMSD -1
REMARK  1 active torsions:
REMARK  status: ('A' for Active; 'I' for Inactive)
REMARK    1  A    between atoms: C1_2  and  C2_3 
ROOT
ATOM      1  C2  UNL d   1       1.399  -1.892   1.165  0.00  0.00    -0.081 A 
ATOM      2  C3  UNL d   1       0.686  -1.703   2.355  0.00  0.00     0.006 A 
ATOM      3  C4  UNL d   1      -0.390  -0.813   2.403  0.00  0.00     0.002 A 
ATOM      4  C5  UNL d   1      -0.776  -0.104   1.260  0.00  0.00    -0.080 A 
ATOM      5  C6  UNL d   1      -1.948   0.831   1.290  0.00  0.00     0.076 C 
ATOM      6  C7  UNL d   1      -0.053  -0.280   0.076  0.00  0.00     0.002 A 
ATOM      7  C8  UNL d   1       1.023  -1.169   0.028  0.00  0.00     0.006 A 
ENDROOT
BRANCH   1   8
ATOM      8  C1  UNL d   1       2.519  -2.898   1.094  0.00  0.00     0.054 C 
ATOM      9  C   UNL d   1       3.224  -2.846  -0.254  0.00  0.00     0.018 C 
ENDBRANCH   1   8
TORSDOF 1
ENDMDL
