MODEL 1
REMARK minimizedAffinity -2.87896848
REMARK minimizedRMSD -1
REMARK  1 active torsions:
REMARK  status: ('A' for Active; 'I' for Inactive)
REMARK    1  A    between atoms: C1_2  and  C2_3 
ROOT
ATOM      1  C2  UNL d   1       1.352  -1.855   1.141  0.00  0.00    -0.081 A 
ATOM      2  C3  UNL d   1       0.605  -1.659   2.308  0.00  0.00     0.006 A 
ATOM      3  C4  UNL d   1      -0.568  -0.901   2.280  0.00  0.00     0.002 A 
ATOM      4  C5  UNL d   1      -1.018  -0.335   1.082  0.00  0.00    -0.080 A 
ATOM      5  C6  UNL d   1      -2.292   0.455   1.032  0.00  0.00     0.076 C 
ATOM      6  C7  UNL d   1      -0.262  -0.516  -0.081  0.00  0.00     0.002 A 
ATOM      7  C8  UNL d   1       0.911  -1.273  -0.053  0.00  0.00     0.006 A 
ENDROOT
BRANCH   1   8
ATOM      8  C1  UNL d   1       2.583  -2.725   1.155  0.00  0.00     0.054 C 
ATOM      9  C   UNL d   1       3.213  -2.816  -0.227  0.00  0.00     0.018 C 
ENDBRANCH   1   8
TORSDOF 1
ENDMDL
