MODEL 1
REMARK minimizedAffinity -1.40957725
REMARK minimizedRMSD -1
REMARK  1 active torsions:
REMARK  status: ('A' for Active; 'I' for Inactive)
REMARK    1  A    between atoms: C1_2  and  C2_3 
ROOT
ATOM      1  C2  UNL d   1       0.072  -1.038   1.377  0.00  0.00    -0.081 A 
ATOM      2  C3  UNL d   1      -1.167  -0.388   1.345  0.00  0.00     0.006 A 
ATOM      3  C4  UNL d   1      -1.557   0.338   0.217  0.00  0.00     0.002 A 
ATOM      4  C5  UNL d   1      -0.718   0.419  -0.900  0.00  0.00    -0.080 A 
ATOM      5  C6  UNL d   1      -1.137   1.170  -2.129  0.00  0.00     0.076 C 
ATOM      6  C7  UNL d   1       0.528  -0.216  -0.861  0.00  0.00     0.002 A 
ATOM      7  C8  UNL d   1       0.918  -0.941   0.267  0.00  0.00     0.006 A 
ENDROOT
BRANCH   1   8
ATOM      8  C1  UNL d   1       0.468  -1.875   2.567  0.00  0.00     0.054 C 
ATOM      9  C   UNL d   1       1.701  -2.715   2.267  0.00  0.00     0.018 C 
ENDBRANCH   1   8
TORSDOF 1
ENDMDL
