MODEL 1
REMARK minimizedAffinity 15.9202223
REMARK minimizedRMSD -1
REMARK  0 active torsions:
REMARK  status: ('A' for Active; 'I' for Inactive)
ROOT
ATOM      1  O1  BZF d   1       0.224   1.739   4.008  0.00  0.00    -0.204 OA
ATOM      2  C2  BZF d   1       0.447   2.356   2.792  0.00  0.00     0.174 A 
ATOM      3  C3  BZF d   1       1.222   1.587   2.001  0.00  0.00    -0.012 A 
ATOM      4  C3A BZF d   1       1.426   0.376   2.735  0.00  0.00    -0.107 A 
ATOM      5  C4  BZF d   1       2.100  -0.781   2.469  0.00  0.00     0.055 A 
ATOM      6  C5  BZF d   1       2.165  -1.742   3.427  0.00  0.00    -0.016 A 
ATOM      7  C6  BZF d   1       1.574  -1.578   4.663  0.00  0.00     0.022 A 
ATOM      8  C7  BZF d   1       0.890  -0.449   4.971  0.00  0.00     0.029 A 
ATOM      9  C7A BZF d   1       0.794   0.511   3.993  0.00  0.00     0.058 A 
ENDROOT
TORSDOF 0
ENDMDL
