MODEL 1
REMARK minimizedAffinity 14.379508
REMARK minimizedRMSD -1
REMARK  0 active torsions:
REMARK  status: ('A' for Active; 'I' for Inactive)
ROOT
ATOM      1  O1  BZF d   1       5.626  -4.720  -1.871  0.00  0.00    -0.204 OA
ATOM      2  C2  BZF d   1       5.041  -5.885  -1.415  0.00  0.00     0.174 A 
ATOM      3  C3  BZF d   1       3.948  -5.614  -0.674  0.00  0.00    -0.012 A 
ATOM      4  C3A BZF d   1       3.790  -4.194  -0.742  0.00  0.00    -0.107 A 
ATOM      5  C4  BZF d   1       2.874  -3.325  -0.221  0.00  0.00     0.055 A 
ATOM      6  C5  BZF d   1       3.046  -1.991  -0.414  0.00  0.00    -0.016 A 
ATOM      7  C6  BZF d   1       4.122  -1.491  -1.117  0.00  0.00     0.022 A 
ATOM      8  C7  BZF d   1       5.054  -2.314  -1.657  0.00  0.00     0.029 A 
ATOM      9  C7A BZF d   1       4.866  -3.665  -1.492  0.00  0.00     0.058 A 
ENDROOT
TORSDOF 0
ENDMDL
