MODEL 1
REMARK minimizedAffinity 1.9557035
REMARK minimizedRMSD -1
REMARK  0 active torsions:
REMARK  status: ('A' for Active; 'I' for Inactive)
ROOT
ATOM      1  O1  BZF d   1      -1.142   3.903   2.558  0.00  0.00    -0.204 OA
ATOM      2  C2  BZF d   1      -1.876   4.991   2.989  0.00  0.00     0.174 A 
ATOM      3  C3  BZF d   1      -1.806   5.999   2.095  0.00  0.00    -0.012 A 
ATOM      4  C3A BZF d   1      -1.052   5.477   0.997  0.00  0.00    -0.107 A 
ATOM      5  C4  BZF d   1      -0.658   5.996  -0.203  0.00  0.00     0.055 A 
ATOM      6  C5  BZF d   1       0.132   5.250  -1.018  0.00  0.00    -0.016 A 
ATOM      7  C6  BZF d   1       0.551   3.985  -0.664  0.00  0.00     0.022 A 
ATOM      8  C7  BZF d   1       0.183   3.425   0.514  0.00  0.00     0.029 A 
ATOM      9  C7A BZF d   1      -0.643   4.164   1.326  0.00  0.00     0.058 A 
ENDROOT
TORSDOF 0
ENDMDL
