MODEL 1
REMARK minimizedAffinity 14.3334084
REMARK minimizedRMSD -1
REMARK  0 active torsions:
REMARK  status: ('A' for Active; 'I' for Inactive)
ROOT
ATOM      1  O1  BZF d   1      -1.110   5.613  -3.572  0.00  0.00    -0.204 OA
ATOM      2  C2  BZF d   1      -0.005   6.000  -4.306  0.00  0.00     0.174 A 
ATOM      3  C3  BZF d   1       1.103   6.000  -3.537  0.00  0.00    -0.012 A 
ATOM      4  C3A BZF d   1       0.679   5.499  -2.266  0.00  0.00    -0.107 A 
ATOM      5  C4  BZF d   1       1.329   5.251  -1.090  0.00  0.00     0.055 A 
ATOM      6  C5  BZF d   1       0.611   4.833  -0.015  0.00  0.00    -0.016 A 
ATOM      7  C6  BZF d   1      -0.756   4.657  -0.077  0.00  0.00     0.022 A 
ATOM      8  C7  BZF d   1      -1.443   4.886  -1.223  0.00  0.00     0.029 A 
ATOM      9  C7A BZF d   1      -0.716   5.277  -2.321  0.00  0.00     0.058 A 
ENDROOT
TORSDOF 0
ENDMDL
