MODEL 1
REMARK minimizedAffinity 7.07576084
REMARK minimizedRMSD -1
REMARK  0 active torsions:
REMARK  status: ('A' for Active; 'I' for Inactive)
ROOT
ATOM      1  O1  BZF d   1      -2.875   2.047  -0.771  0.00  0.00    -0.204 OA
ATOM      2  C2  BZF d   1      -3.834   1.455   0.028  0.00  0.00     0.174 A 
ATOM      3  C3  BZF d   1      -3.393   1.337   1.297  0.00  0.00    -0.012 A 
ATOM      4  C3A BZF d   1      -2.111   1.973   1.311  0.00  0.00    -0.107 A 
ATOM      5  C4  BZF d   1      -1.183   2.193   2.288  0.00  0.00     0.055 A 
ATOM      6  C5  BZF d   1      -0.002   2.779   1.958  0.00  0.00    -0.016 A 
ATOM      7  C6  BZF d   1       0.285   3.153   0.661  0.00  0.00     0.022 A 
ATOM      8  C7  BZF d   1      -0.607   2.960  -0.341  0.00  0.00     0.029 A 
ATOM      9  C7A BZF d   1      -1.814   2.397  -0.004  0.00  0.00     0.058 A 
ENDROOT
TORSDOF 0
ENDMDL
