MODEL 1
REMARK minimizedAffinity 13.0665283
REMARK minimizedRMSD -1
REMARK  0 active torsions:
REMARK  status: ('A' for Active; 'I' for Inactive)
ROOT
ATOM      1  O1  BZF d   1      -3.769  -1.103   0.811  0.00  0.00    -0.204 OA
ATOM      2  C2  BZF d   1      -4.162  -0.027   1.584  0.00  0.00     0.174 A 
ATOM      3  C3  BZF d   1      -3.342   1.026   1.390  0.00  0.00    -0.012 A 
ATOM      4  C3A BZF d   1      -2.432   0.611   0.367  0.00  0.00    -0.107 A 
ATOM      5  C4  BZF d   1      -1.391   1.226  -0.270  0.00  0.00     0.055 A 
ATOM      6  C5  BZF d   1      -0.658   0.519  -1.169  0.00  0.00    -0.016 A 
ATOM      7  C6  BZF d   1      -0.933  -0.803  -1.452  0.00  0.00     0.022 A 
ATOM      8  C7  BZF d   1      -1.958  -1.453  -0.850  0.00  0.00     0.029 A 
ATOM      9  C7A BZF d   1      -2.722  -0.732   0.035  0.00  0.00     0.058 A 
ENDROOT
TORSDOF 0
ENDMDL
