MODEL 1
REMARK minimizedAffinity 11.2528992
REMARK minimizedRMSD -1
REMARK  0 active torsions:
REMARK  status: ('A' for Active; 'I' for Inactive)
ROOT
ATOM      1  O1  BZF d   1      -0.956   3.247   2.374  0.00  0.00    -0.204 OA
ATOM      2  C2  BZF d   1      -0.005   2.255   2.234  0.00  0.00     0.174 A 
ATOM      3  C3  BZF d   1       0.742   2.459   1.130  0.00  0.00    -0.012 A 
ATOM      4  C3A BZF d   1       0.286   3.705   0.593  0.00  0.00    -0.107 A 
ATOM      5  C4  BZF d   1       0.653   4.451  -0.491  0.00  0.00     0.055 A 
ATOM      6  C5  BZF d   1      -0.041   5.583  -0.778  0.00  0.00    -0.016 A 
ATOM      7  C6  BZF d   1      -1.108   5.997  -0.007  0.00  0.00     0.022 A 
ATOM      8  C7  BZF d   1      -1.505   5.293   1.081  0.00  0.00     0.029 A 
ATOM      9  C7A BZF d   1      -0.785   4.166   1.393  0.00  0.00     0.058 A 
ENDROOT
TORSDOF 0
ENDMDL
