MODEL 1
REMARK minimizedAffinity 13.7838087
REMARK minimizedRMSD -1
REMARK  0 active torsions:
REMARK  status: ('A' for Active; 'I' for Inactive)
ROOT
ATOM      1  O1  BZF d   1      -1.376  -0.836  -2.974  0.00  0.00    -0.204 OA
ATOM      2  C2  BZF d   1      -1.353  -0.843  -1.593  0.00  0.00     0.174 A 
ATOM      3  C3  BZF d   1      -1.996   0.234  -1.098  0.00  0.00    -0.012 A 
ATOM      4  C3A BZF d   1      -2.529   0.912  -2.240  0.00  0.00    -0.107 A 
ATOM      5  C4  BZF d   1      -3.280   2.041  -2.395  0.00  0.00     0.055 A 
ATOM      6  C5  BZF d   1      -3.572   2.473  -3.650  0.00  0.00    -0.016 A 
ATOM      7  C6  BZF d   1      -3.126   1.803  -4.770  0.00  0.00     0.022 A 
ATOM      8  C7  BZF d   1      -2.381   0.675  -4.667  0.00  0.00     0.029 A 
ATOM      9  C7A BZF d   1      -2.112   0.218  -3.400  0.00  0.00     0.058 A 
ENDROOT
TORSDOF 0
ENDMDL
