MODEL 1
REMARK minimizedAffinity 10.2797489
REMARK minimizedRMSD -1
REMARK  0 active torsions:
REMARK  status: ('A' for Active; 'I' for Inactive)
ROOT
ATOM      1  O1  BZF d   1      -3.797  -2.300   4.273  0.00  0.00    -0.204 OA
ATOM      2  C2  BZF d   1      -4.966  -2.821   4.794  0.00  0.00     0.174 A 
ATOM      3  C3  BZF d   1      -5.998  -1.975   4.594  0.00  0.00    -0.012 A 
ATOM      4  C3A BZF d   1      -5.457  -0.898   3.822  0.00  0.00    -0.107 A 
ATOM      5  C4  BZF d   1      -5.993   0.242   3.296  0.00  0.00     0.055 A 
ATOM      6  C5  BZF d   1      -5.178   1.122   2.657  0.00  0.00    -0.016 A 
ATOM      7  C6  BZF d   1      -3.823   0.896   2.530  0.00  0.00     0.022 A 
ATOM      8  C7  BZF d   1      -3.246  -0.224   3.030  0.00  0.00     0.029 A 
ATOM      9  C7A BZF d   1      -4.073  -1.130   3.648  0.00  0.00     0.058 A 
ENDROOT
TORSDOF 0
ENDMDL
