MODEL 1
REMARK minimizedAffinity 5.22280025
REMARK minimizedRMSD -1
REMARK  0 active torsions:
REMARK  status: ('A' for Active; 'I' for Inactive)
ROOT
ATOM      1  O1  BZF d   1      -5.602   1.838  -3.724  0.00  0.00    -0.204 OA
ATOM      2  C2  BZF d   1      -5.669   1.098  -4.888  0.00  0.00     0.174 A 
ATOM      3  C3  BZF d   1      -5.881   1.899  -5.952  0.00  0.00    -0.012 A 
ATOM      4  C3A BZF d   1      -5.860   3.231  -5.431  0.00  0.00    -0.107 A 
ATOM      5  C4  BZF d   1      -5.996   4.465  -6.000  0.00  0.00     0.055 A 
ATOM      6  C5  BZF d   1      -5.999   5.564  -5.201  0.00  0.00    -0.016 A 
ATOM      7  C6  BZF d   1      -5.872   5.467  -3.831  0.00  0.00     0.022 A 
ATOM      8  C7  BZF d   1      -5.728   4.265  -3.221  0.00  0.00     0.029 A 
ATOM      9  C7A BZF d   1      -5.693   3.154  -4.028  0.00  0.00     0.058 A 
ENDROOT
TORSDOF 0
ENDMDL
