MODEL 1
REMARK minimizedAffinity 10.3383808
REMARK minimizedRMSD -1
REMARK  0 active torsions:
REMARK  status: ('A' for Active; 'I' for Inactive)
ROOT
ATOM      1  O1  BZF d   1      -4.855   2.092  -4.055  0.00  0.00    -0.204 OA
ATOM      2  C2  BZF d   1      -5.502   1.462  -5.100  0.00  0.00     0.174 A 
ATOM      3  C3  BZF d   1      -5.952   2.363  -5.997  0.00  0.00    -0.012 A 
ATOM      4  C3A BZF d   1      -5.482   3.630  -5.526  0.00  0.00    -0.107 A 
ATOM      5  C4  BZF d   1      -5.593   4.907  -5.998  0.00  0.00     0.055 A 
ATOM      6  C5  BZF d   1      -5.082   5.929  -5.263  0.00  0.00    -0.016 A 
ATOM      7  C6  BZF d   1      -4.459   5.712  -4.051  0.00  0.00     0.022 A 
ATOM      8  C7  BZF d   1      -4.321   4.462  -3.545  0.00  0.00     0.029 A 
ATOM      9  C7A BZF d   1      -4.807   3.424  -4.301  0.00  0.00     0.058 A 
ENDROOT
TORSDOF 0
ENDMDL
