MODEL 1
REMARK minimizedAffinity -4.57566071
REMARK minimizedRMSD -1
REMARK  1 active torsions:
REMARK  status: ('A' for Active; 'I' for Inactive)
REMARK    1  A    between atoms: C1_2  and  C2_3 
ROOT
ATOM      1  C2  UNL d   1       0.184   0.752  -0.065  0.00  0.00    -0.076 A 
ATOM      2  C3  UNL d   1      -0.451  -0.003   0.936  0.00  0.00     0.004 A 
ATOM      3  C4  UNL d   1      -1.377   0.583   1.798  0.00  0.00    -0.003 A 
ATOM      4  C5  UNL d   1      -1.682   1.934   1.673  0.00  0.00     0.000 A 
ATOM      5  C6  UNL d   1      -1.074   2.694   0.675  0.00  0.00     0.000 A 
ATOM      6  C7  UNL d   1      -0.151   2.115  -0.213  0.00  0.00    -0.073 A 
ATOM      7  C8  UNL d   1       0.478   2.984  -1.268  0.00  0.00     0.078 C 
ENDROOT
BRANCH   1   8
ATOM      8  C1  UNL d   1       1.199   0.069  -0.953  0.00  0.00     0.053 C 
ATOM      9  C   UNL d   1       0.883  -1.402  -1.175  0.00  0.00     0.018 C 
ENDBRANCH   1   8
TORSDOF 1
ENDMDL
