MODEL 1
REMARK minimizedAffinity -4.22549629
REMARK minimizedRMSD -1
REMARK  1 active torsions:
REMARK  status: ('A' for Active; 'I' for Inactive)
REMARK    1  A    between atoms: C1_2  and  C2_3 
ROOT
ATOM      1  C2  UNL d   1       0.062   0.014   0.014  0.00  0.00    -0.076 A 
ATOM      2  C3  UNL d   1      -0.179   1.095  -0.851  0.00  0.00     0.004 A 
ATOM      3  C4  UNL d   1      -1.111   2.079  -0.528  0.00  0.00    -0.003 A 
ATOM      4  C5  UNL d   1      -1.818   1.999   0.667  0.00  0.00     0.000 A 
ATOM      5  C6  UNL d   1      -1.579   0.943   1.546  0.00  0.00     0.000 A 
ATOM      6  C7  UNL d   1      -0.631  -0.049   1.243  0.00  0.00    -0.073 A 
ATOM      7  C8  UNL d   1      -0.418  -1.169   2.224  0.00  0.00     0.078 C 
ENDROOT
BRANCH   1   8
ATOM      8  C1  UNL d   1       1.065  -1.038  -0.402  0.00  0.00     0.053 C 
ATOM      9  C   UNL d   1       0.566  -1.894  -1.556  0.00  0.00     0.018 C 
ENDBRANCH   1   8
TORSDOF 1
ENDMDL
