MODEL 1
REMARK minimizedAffinity -4.9395113
REMARK minimizedRMSD -1
REMARK  1 active torsions:
REMARK  status: ('A' for Active; 'I' for Inactive)
REMARK    1  A    between atoms: C1_2  and  C2_3 
ROOT
ATOM      1  C2  UNL d   1       0.057  -0.280  -0.034  0.00  0.00    -0.076 A 
ATOM      2  C3  UNL d   1      -0.537  -1.004   1.015  0.00  0.00     0.004 A 
ATOM      3  C4  UNL d   1      -1.413  -0.387   1.906  0.00  0.00    -0.003 A 
ATOM      4  C5  UNL d   1      -1.710   0.964   1.763  0.00  0.00     0.000 A 
ATOM      5  C6  UNL d   1      -1.144   1.693   0.718  0.00  0.00     0.000 A 
ATOM      6  C7  UNL d   1      -0.271   1.083  -0.199  0.00  0.00    -0.073 A 
ATOM      7  C8  UNL d   1       0.316   1.919  -1.303  0.00  0.00     0.078 C 
ENDROOT
BRANCH   1   8
ATOM      8  C1  UNL d   1       1.021  -0.996  -0.953  0.00  0.00     0.053 C 
ATOM      9  C   UNL d   1       0.323  -1.986  -1.872  0.00  0.00     0.018 C 
ENDBRANCH   1   8
TORSDOF 1
ENDMDL
