MODEL 1
REMARK minimizedAffinity -2.08291292
REMARK minimizedRMSD -1
REMARK  1 active torsions:
REMARK  status: ('A' for Active; 'I' for Inactive)
REMARK    1  A    between atoms: C1_2  and  C2_3 
ROOT
ATOM      1  C2  UNL d   1       0.319  -0.236   0.079  0.00  0.00    -0.076 A 
ATOM      2  C3  UNL d   1      -0.192   0.839  -0.668  0.00  0.00     0.004 A 
ATOM      3  C4  UNL d   1      -0.947   1.840  -0.059  0.00  0.00    -0.003 A 
ATOM      4  C5  UNL d   1      -1.203   1.782   1.306  0.00  0.00     0.000 A 
ATOM      5  C6  UNL d   1      -0.689   0.732   2.066  0.00  0.00     0.000 A 
ATOM      6  C7  UNL d   1       0.088  -0.277   1.471  0.00  0.00    -0.073 A 
ATOM      7  C8  UNL d   1       0.612  -1.389   2.336  0.00  0.00     0.078 C 
ENDROOT
BRANCH   1   8
ATOM      8  C1  UNL d   1       1.109  -1.307  -0.640  0.00  0.00     0.053 C 
ATOM      9  C   UNL d   1       0.261  -2.088  -1.633  0.00  0.00     0.018 C 
ENDBRANCH   1   8
TORSDOF 1
ENDMDL
