MODEL 1
REMARK minimizedAffinity -3.57471704
REMARK minimizedRMSD -1
REMARK  1 active torsions:
REMARK  status: ('A' for Active; 'I' for Inactive)
REMARK    1  A    between atoms: C1_2  and  C2_3 
ROOT
ATOM      1  C2  UNL d   1       0.203   0.127  -0.232  0.00  0.00    -0.076 A 
ATOM      2  C3  UNL d   1      -0.196   1.278  -0.935  0.00  0.00     0.004 A 
ATOM      3  C4  UNL d   1      -1.147   2.148  -0.405  0.00  0.00    -0.003 A 
ATOM      4  C5  UNL d   1      -1.714   1.883   0.837  0.00  0.00     0.000 A 
ATOM      5  C6  UNL d   1      -1.317   0.756   1.556  0.00  0.00     0.000 A 
ATOM      6  C7  UNL d   1      -0.348  -0.123   1.043  0.00  0.00    -0.073 A 
ATOM      7  C8  UNL d   1       0.039  -1.327   1.858  0.00  0.00     0.078 C 
ENDROOT
BRANCH   1   8
ATOM      8  C1  UNL d   1       1.218  -0.794  -0.869  0.00  0.00     0.053 C 
ATOM      9  C   UNL d   1       0.573  -1.995  -1.543  0.00  0.00     0.018 C 
ENDBRANCH   1   8
TORSDOF 1
ENDMDL
