MODEL 1
REMARK minimizedAffinity -6.07763052
REMARK minimizedRMSD -1
REMARK  1 active torsions:
REMARK  status: ('A' for Active; 'I' for Inactive)
REMARK    1  A    between atoms: C1_2  and  C2_3 
ROOT
ATOM      1  C2  UNL d   1      -0.090   0.352  -0.046  0.00  0.00    -0.076 A 
ATOM      2  C3  UNL d   1      -0.613   1.427  -0.786  0.00  0.00     0.004 A 
ATOM      3  C4  UNL d   1      -1.482   2.346  -0.201  0.00  0.00    -0.003 A 
ATOM      4  C5  UNL d   1      -1.842   2.205   1.135  0.00  0.00     0.000 A 
ATOM      5  C6  UNL d   1      -1.319   1.155   1.889  0.00  0.00     0.000 A 
ATOM      6  C7  UNL d   1      -0.429   0.229   1.318  0.00  0.00    -0.073 A 
ATOM      7  C8  UNL d   1       0.100  -0.887   2.176  0.00  0.00     0.078 C 
ENDROOT
BRANCH   1   8
ATOM      8  C1  UNL d   1       0.827  -0.628  -0.742  0.00  0.00     0.053 C 
ATOM      9  C   UNL d   1       0.108  -1.447  -1.802  0.00  0.00     0.018 C 
ENDBRANCH   1   8
TORSDOF 1
ENDMDL
