MODEL 1
REMARK minimizedAffinity -2.34340286
REMARK minimizedRMSD -1
REMARK  1 active torsions:
REMARK  status: ('A' for Active; 'I' for Inactive)
REMARK    1  A    between atoms: C1_2  and  C2_3 
ROOT
ATOM      1  C2  UNL d   1      -0.237  -0.588  -1.076  0.00  0.00    -0.076 A 
ATOM      2  C3  UNL d   1      -0.501  -1.017  -2.388  0.00  0.00     0.004 A 
ATOM      3  C4  UNL d   1       0.052  -2.197  -2.882  0.00  0.00    -0.003 A 
ATOM      4  C5  UNL d   1       0.879  -2.968  -2.071  0.00  0.00     0.000 A 
ATOM      5  C6  UNL d   1       1.137  -2.566  -0.761  0.00  0.00     0.000 A 
ATOM      6  C7  UNL d   1       0.574  -1.387  -0.242  0.00  0.00    -0.073 A 
ATOM      7  C8  UNL d   1       0.892  -0.999   1.176  0.00  0.00     0.078 C 
ENDROOT
BRANCH   1   8
ATOM      8  C1  UNL d   1      -0.843   0.714  -0.604  0.00  0.00     0.053 C 
ATOM      9  C   UNL d   1      -0.189   1.928  -1.246  0.00  0.00     0.018 C 
ENDBRANCH   1   8
TORSDOF 1
ENDMDL
