MODEL 1
REMARK minimizedAffinity 1.25991035
REMARK minimizedRMSD -1
REMARK  1 active torsions:
REMARK  status: ('A' for Active; 'I' for Inactive)
REMARK    1  A    between atoms: C1_2  and  C2_3 
ROOT
ATOM      1  C2  UNL d   1      -0.834   0.613   0.894  0.00  0.00    -0.076 A 
ATOM      2  C3  UNL d   1      -0.623   1.328  -0.298  0.00  0.00     0.004 A 
ATOM      3  C4  UNL d   1       0.121   0.778  -1.341  0.00  0.00    -0.003 A 
ATOM      4  C5  UNL d   1       0.664  -0.495  -1.210  0.00  0.00     0.000 A 
ATOM      5  C6  UNL d   1       0.449  -1.225  -0.041  0.00  0.00     0.000 A 
ATOM      6  C7  UNL d   1      -0.311  -0.692   1.014  0.00  0.00    -0.073 A 
ATOM      7  C8  UNL d   1      -0.506  -1.521   2.254  0.00  0.00     0.078 C 
ENDROOT
BRANCH   1   8
ATOM      8  C1  UNL d   1      -1.626   1.271   2.002  0.00  0.00     0.053 C 
ATOM      9  C   UNL d   1      -2.585   2.330   1.483  0.00  0.00     0.018 C 
ENDBRANCH   1   8
TORSDOF 1
ENDMDL
