MODEL 1
REMARK minimizedAffinity 0.987648368
REMARK minimizedRMSD -1
REMARK  1 active torsions:
REMARK  status: ('A' for Active; 'I' for Inactive)
REMARK    1  A    between atoms: C1_2  and  C2_3 
ROOT
ATOM      1  C2  UNL d   1      -0.317   0.635  -0.618  0.00  0.00    -0.076 A 
ATOM      2  C3  UNL d   1      -1.605   0.842  -0.095  0.00  0.00     0.004 A 
ATOM      3  C4  UNL d   1      -2.266   2.055  -0.275  0.00  0.00    -0.003 A 
ATOM      4  C5  UNL d   1      -1.651   3.082  -0.983  0.00  0.00     0.000 A 
ATOM      5  C6  UNL d   1      -0.380   2.888  -1.524  0.00  0.00     0.000 A 
ATOM      6  C7  UNL d   1       0.294   1.665  -1.365  0.00  0.00    -0.073 A 
ATOM      7  C8  UNL d   1       1.665   1.513  -1.964  0.00  0.00     0.078 C 
ENDROOT
BRANCH   1   8
ATOM      8  C1  UNL d   1       0.363  -0.692  -0.367  0.00  0.00     0.053 C 
ATOM      9  C   UNL d   1       0.525  -0.993   1.115  0.00  0.00     0.018 C 
ENDBRANCH   1   8
TORSDOF 1
ENDMDL
