MODEL 1
REMARK minimizedAffinity -3.11092401
REMARK minimizedRMSD -1
REMARK  1 active torsions:
REMARK  status: ('A' for Active; 'I' for Inactive)
REMARK    1  A    between atoms: C1_2  and  C2_3 
ROOT
ATOM      1  C2  UNL d   1      -0.075   0.199  -0.026  0.00  0.00    -0.076 A 
ATOM      2  C3  UNL d   1      -0.423   1.284  -0.848  0.00  0.00     0.004 A 
ATOM      3  C4  UNL d   1      -1.278   2.286  -0.390  0.00  0.00    -0.003 A 
ATOM      4  C5  UNL d   1      -1.797   2.218   0.898  0.00  0.00     0.000 A 
ATOM      5  C6  UNL d   1      -1.449   1.157   1.733  0.00  0.00     0.000 A 
ATOM      6  C7  UNL d   1      -0.576   0.148   1.293  0.00  0.00    -0.073 A 
ATOM      7  C8  UNL d   1      -0.238  -0.976   2.234  0.00  0.00     0.078 C 
ENDROOT
BRANCH   1   8
ATOM      8  C1  UNL d   1       0.834  -0.872  -0.586  0.00  0.00     0.053 C 
ATOM      9  C   UNL d   1       0.111  -1.810  -1.540  0.00  0.00     0.018 C 
ENDBRANCH   1   8
TORSDOF 1
ENDMDL
