MODEL 1
REMARK minimizedAffinity -1.48196471
REMARK minimizedRMSD -1
REMARK  1 active torsions:
REMARK  status: ('A' for Active; 'I' for Inactive)
REMARK    1  A    between atoms: C1_2  and  C2_3 
ROOT
ATOM      1  C2  UNL d   1      -0.323   0.139  -0.361  0.00  0.00    -0.076 A 
ATOM      2  C3  UNL d   1       0.920   0.675  -0.739  0.00  0.00     0.004 A 
ATOM      3  C4  UNL d   1       1.011   1.946  -1.305  0.00  0.00    -0.003 A 
ATOM      4  C5  UNL d   1      -0.141   2.700  -1.502  0.00  0.00     0.000 A 
ATOM      5  C6  UNL d   1      -1.380   2.191  -1.117  0.00  0.00     0.000 A 
ATOM      6  C7  UNL d   1      -1.487   0.918  -0.530  0.00  0.00    -0.073 A 
ATOM      7  C8  UNL d   1      -2.850   0.416  -0.139  0.00  0.00     0.078 C 
ENDROOT
BRANCH   1   8
ATOM      8  C1  UNL d   1      -0.362  -1.255   0.224  0.00  0.00     0.053 C 
ATOM      9  C   UNL d   1       0.395  -2.265  -0.626  0.00  0.00     0.018 C 
ENDBRANCH   1   8
TORSDOF 1
ENDMDL
