MODEL 1
REMARK minimizedAffinity -2.44700146
REMARK minimizedRMSD -1
REMARK  0 active torsions:
REMARK  status: ('A' for Active; 'I' for Inactive)
ROOT
ATOM      1  C   UNL d   1       2.358  -1.326   1.273  0.00  0.00     0.020 A 
ATOM      2  C1  UNL d   1       2.632  -1.930   0.046  0.00  0.00     0.020 A 
ATOM      3  C2  UNL d   1       1.647  -1.981  -0.943  0.00  0.00     0.034 A 
ATOM      4  C3  UNL d   1       0.383  -1.427  -0.706  0.00  0.00     0.017 A 
ATOM      5  C4  UNL d   1       0.109  -0.822   0.526  0.00  0.00     0.017 A 
ATOM      6  C5  UNL d   1       1.099  -0.774   1.512  0.00  0.00     0.034 A 
ATOM      7 Cl   UNL d   1      -1.426  -0.118   0.891  0.00  0.00    -0.070 Cl
ATOM      8 Cl1  UNL d   1      -0.787  -1.526  -1.974  0.00  0.00    -0.070 Cl
ENDROOT
TORSDOF 0
ENDMDL
