MODEL 1
REMARK minimizedAffinity -4.57366848
REMARK minimizedRMSD -1
REMARK  0 active torsions:
REMARK  status: ('A' for Active; 'I' for Inactive)
ROOT
ATOM      1  C   UNL d   1       2.397   0.267   0.601  0.00  0.00     0.020 A 
ATOM      2  C1  UNL d   1       2.682  -1.034   0.190  0.00  0.00     0.020 A 
ATOM      3  C2  UNL d   1       1.675  -1.829  -0.362  0.00  0.00     0.034 A 
ATOM      4  C3  UNL d   1       0.378  -1.323  -0.504  0.00  0.00     0.017 A 
ATOM      5  C4  UNL d   1       0.093  -0.016  -0.091  0.00  0.00     0.017 A 
ATOM      6  C5  UNL d   1       1.105   0.775   0.461  0.00  0.00     0.034 A 
ATOM      7 Cl   UNL d   1      -1.484   0.678  -0.234  0.00  0.00    -0.070 Cl
ATOM      8 Cl1  UNL d   1      -0.818  -2.360  -1.194  0.00  0.00    -0.070 Cl
ENDROOT
TORSDOF 0
ENDMDL
