MODEL 1
REMARK minimizedAffinity -4.65602446
REMARK minimizedRMSD -1
REMARK  0 active torsions:
REMARK  status: ('A' for Active; 'I' for Inactive)
ROOT
ATOM      1  C   UNL d   1       3.699  -0.287   0.141  0.00  0.00     0.020 A 
ATOM      2  C1  UNL d   1       3.062  -1.524   0.056  0.00  0.00     0.020 A 
ATOM      3  C2  UNL d   1       1.680  -1.587  -0.137  0.00  0.00     0.034 A 
ATOM      4  C3  UNL d   1       0.931  -0.410  -0.245  0.00  0.00     0.017 A 
ATOM      5  C4  UNL d   1       1.571   0.832  -0.159  0.00  0.00     0.017 A 
ATOM      6  C5  UNL d   1       2.954   0.889   0.034  0.00  0.00     0.034 A 
ATOM      7 Cl   UNL d   1       0.713   2.327  -0.283  0.00  0.00    -0.070 Cl
ATOM      8 Cl1  UNL d   1      -0.774  -0.562  -0.482  0.00  0.00    -0.070 Cl
ENDROOT
TORSDOF 0
ENDMDL
