MODEL 1
REMARK minimizedAffinity -4.41678429
REMARK minimizedRMSD -1
REMARK  0 active torsions:
REMARK  status: ('A' for Active; 'I' for Inactive)
ROOT
ATOM      1  C   UNL d   1       2.444  -0.660   1.189  0.00  0.00     0.020 A 
ATOM      2  C1  UNL d   1       2.787  -1.627   0.245  0.00  0.00     0.020 A 
ATOM      3  C2  UNL d   1       1.910  -1.922  -0.801  0.00  0.00     0.034 A 
ATOM      4  C3  UNL d   1       0.687  -1.250  -0.905  0.00  0.00     0.017 A 
ATOM      5  C4  UNL d   1       0.344  -0.280   0.043  0.00  0.00     0.017 A 
ATOM      6  C5  UNL d   1       1.226   0.012   1.089  0.00  0.00     0.034 A 
ATOM      7 Cl   UNL d   1      -1.148   0.592  -0.019  0.00  0.00    -0.070 Cl
ATOM      8 Cl1  UNL d   1      -0.349  -1.666  -2.225  0.00  0.00    -0.070 Cl
ENDROOT
TORSDOF 0
ENDMDL
