MODEL 1
REMARK minimizedAffinity -4.0606308
REMARK minimizedRMSD -1
REMARK  0 active torsions:
REMARK  status: ('A' for Active; 'I' for Inactive)
ROOT
ATOM      1  C   UNL d   1      -1.061   0.207  -0.664  0.00  0.00     0.020 A 
ATOM      2  C1  UNL d   1      -0.742  -1.149  -0.719  0.00  0.00     0.020 A 
ATOM      3  C2  UNL d   1       0.470  -1.603  -0.195  0.00  0.00     0.034 A 
ATOM      4  C3  UNL d   1       1.368  -0.700   0.387  0.00  0.00     0.017 A 
ATOM      5  C4  UNL d   1       1.047   0.661   0.442  0.00  0.00     0.017 A 
ATOM      6  C5  UNL d   1      -0.168   1.110  -0.085  0.00  0.00     0.034 A 
ATOM      7 Cl   UNL d   1       2.103   1.835   1.144  0.00  0.00    -0.070 Cl
ATOM      8 Cl1  UNL d   1       2.848  -1.331   1.016  0.00  0.00    -0.070 Cl
ENDROOT
TORSDOF 0
ENDMDL
