MODEL 1
REMARK minimizedAffinity -5.0123601
REMARK minimizedRMSD -1
REMARK  0 active torsions:
REMARK  status: ('A' for Active; 'I' for Inactive)
ROOT
ATOM      1  C   UNL d   1       2.551  -0.618   1.205  0.00  0.00     0.020 A 
ATOM      2  C1  UNL d   1       2.153   0.719   1.197  0.00  0.00     0.020 A 
ATOM      3  C2  UNL d   1       0.946   1.084   0.598  0.00  0.00     0.034 A 
ATOM      4  C3  UNL d   1       0.132   0.112   0.005  0.00  0.00     0.017 A 
ATOM      5  C4  UNL d   1       0.532  -1.229   0.013  0.00  0.00     0.017 A 
ATOM      6  C5  UNL d   1       1.742  -1.589   0.614  0.00  0.00     0.034 A 
ATOM      7 Cl   UNL d   1      -0.418  -2.485  -0.699  0.00  0.00    -0.070 Cl
ATOM      8 Cl1  UNL d   1      -1.348   0.635  -0.717  0.00  0.00    -0.070 Cl
ENDROOT
TORSDOF 0
ENDMDL
