MODEL 1
REMARK minimizedAffinity 12.0891609
REMARK minimizedRMSD -1
REMARK  1 active torsions:
REMARK  status: ('A' for Active; 'I' for Inactive)
REMARK    1  A    between atoms: C1_2  and  C2_3 
ROOT
ATOM      1  C2  UNL d   1       1.427   0.279   0.127  0.00  0.00    -0.076 A 
ATOM      2  C3  UNL d   1       1.623   0.341   1.517  0.00  0.00     0.004 A 
ATOM      3  C4  UNL d   1       0.631   0.842   2.359  0.00  0.00    -0.003 A 
ATOM      4  C5  UNL d   1      -0.572   1.288   1.825  0.00  0.00     0.000 A 
ATOM      5  C6  UNL d   1      -0.790   1.217   0.449  0.00  0.00     0.000 A 
ATOM      6  C7  UNL d   1       0.193   0.700  -0.412  0.00  0.00    -0.073 A 
ATOM      7  C8  UNL d   1      -0.093   0.653  -1.888  0.00  0.00     0.078 C 
ENDROOT
BRANCH   1   8
ATOM      8  C1  UNL d   1       2.548  -0.249  -0.740  0.00  0.00     0.053 C 
ATOM      9  C   UNL d   1       3.827   0.563  -0.596  0.00  0.00     0.018 C 
ENDBRANCH   1   8
TORSDOF 1
ENDMDL
