MODEL 1
REMARK minimizedAffinity 8.74920368
REMARK minimizedRMSD -1
REMARK  1 active torsions:
REMARK  status: ('A' for Active; 'I' for Inactive)
REMARK    1  A    between atoms: C1_2  and  C2_3 
ROOT
ATOM      1  C2  UNL d   1       3.446  -0.021  -0.026  0.00  0.00    -0.076 A 
ATOM      2  C3  UNL d   1       2.973  -1.340  -0.134  0.00  0.00     0.004 A 
ATOM      3  C4  UNL d   1       3.144  -2.069  -1.310  0.00  0.00    -0.003 A 
ATOM      4  C5  UNL d   1       3.792  -1.491  -2.396  0.00  0.00     0.000 A 
ATOM      5  C6  UNL d   1       4.283  -0.189  -2.300  0.00  0.00     0.000 A 
ATOM      6  C7  UNL d   1       4.133   0.554  -1.116  0.00  0.00    -0.073 A 
ATOM      7  C8  UNL d   1       4.677   1.955  -1.070  0.00  0.00     0.078 C 
ENDROOT
BRANCH   1   8
ATOM      8  C1  UNL d   1       3.207   0.731   1.264  0.00  0.00     0.053 C 
ATOM      9  C   UNL d   1       1.925   0.300   1.960  0.00  0.00     0.018 C 
ENDBRANCH   1   8
TORSDOF 1
ENDMDL
