MODEL 1
REMARK minimizedAffinity 8.95700455
REMARK minimizedRMSD -1
REMARK  1 active torsions:
REMARK  status: ('A' for Active; 'I' for Inactive)
REMARK    1  A    between atoms: C1_2  and  C2_3 
ROOT
ATOM      1  C2  UNL d   1       3.436  -0.181  -0.307  0.00  0.00    -0.076 A 
ATOM      2  C3  UNL d   1       3.630  -1.406   0.354  0.00  0.00     0.004 A 
ATOM      3  C4  UNL d   1       4.900  -1.809   0.762  0.00  0.00    -0.003 A 
ATOM      4  C5  UNL d   1       5.998  -0.992   0.515  0.00  0.00     0.000 A 
ATOM      5  C6  UNL d   1       5.822   0.235  -0.124  0.00  0.00     0.000 A 
ATOM      6  C7  UNL d   1       4.545   0.663  -0.527  0.00  0.00    -0.073 A 
ATOM      7  C8  UNL d   1       4.414   1.992  -1.218  0.00  0.00     0.078 C 
ENDROOT
BRANCH   1   8
ATOM      8  C1  UNL d   1       2.039   0.190  -0.750  0.00  0.00     0.053 C 
ATOM      9  C   UNL d   1       1.071   0.314   0.417  0.00  0.00     0.018 C 
ENDBRANCH   1   8
TORSDOF 1
ENDMDL
