MODEL 1
REMARK minimizedAffinity 12.3902435
REMARK minimizedRMSD -1
REMARK  1 active torsions:
REMARK  status: ('A' for Active; 'I' for Inactive)
REMARK    1  A    between atoms: C1_2  and  C2_3 
ROOT
ATOM      1  C2  UNL d   1       3.787  -1.551  -0.389  0.00  0.00    -0.076 A 
ATOM      2  C3  UNL d   1       3.979  -2.511   0.620  0.00  0.00     0.004 A 
ATOM      3  C4  UNL d   1       5.075  -2.441   1.478  0.00  0.00    -0.003 A 
ATOM      4  C5  UNL d   1       5.997  -1.409   1.342  0.00  0.00     0.000 A 
ATOM      5  C6  UNL d   1       5.813  -0.438   0.358  0.00  0.00     0.000 A 
ATOM      6  C7  UNL d   1       4.705  -0.485  -0.504  0.00  0.00    -0.073 A 
ATOM      7  C8  UNL d   1       4.559   0.585  -1.551  0.00  0.00     0.078 C 
ENDROOT
BRANCH   1   8
ATOM      8  C1  UNL d   1       2.595  -1.694  -1.307  0.00  0.00     0.053 C 
ATOM      9  C   UNL d   1       2.599  -3.012  -2.066  0.00  0.00     0.018 C 
ENDBRANCH   1   8
TORSDOF 1
ENDMDL
