MODEL 1
REMARK minimizedAffinity 9.56716442
REMARK minimizedRMSD -1
REMARK  1 active torsions:
REMARK  status: ('A' for Active; 'I' for Inactive)
REMARK    1  A    between atoms: C1_2  and  C2_3 
ROOT
ATOM      1  C2  UNL d   1       3.977  -0.350  -0.995  0.00  0.00    -0.076 A 
ATOM      2  C3  UNL d   1       5.372  -0.235  -1.126  0.00  0.00     0.004 A 
ATOM      3  C4  UNL d   1       5.999   1.007  -1.049  0.00  0.00    -0.003 A 
ATOM      4  C5  UNL d   1       5.243   2.154  -0.838  0.00  0.00     0.000 A 
ATOM      5  C6  UNL d   1       3.860   2.057  -0.688  0.00  0.00     0.000 A 
ATOM      6  C7  UNL d   1       3.213   0.810  -0.747  0.00  0.00    -0.073 A 
ATOM      7  C8  UNL d   1       1.718   0.764  -0.584  0.00  0.00     0.078 C 
ENDROOT
BRANCH   1   8
ATOM      8  C1  UNL d   1       3.349  -1.720  -1.115  0.00  0.00     0.053 C 
ATOM      9  C   UNL d   1       3.338  -2.233  -2.547  0.00  0.00     0.018 C 
ENDBRANCH   1   8
TORSDOF 1
ENDMDL
