MODEL 1
REMARK minimizedAffinity -1.11639118
REMARK minimizedRMSD -1
REMARK  0 active torsions:
REMARK  status: ('A' for Active; 'I' for Inactive)
ROOT
ATOM      1  O1  BZF d   1      -1.714  -0.597   0.202  0.00  0.00    -0.204 OA
ATOM      2  C2  BZF d   1      -0.601   0.037  -0.316  0.00  0.00     0.174 A 
ATOM      3  C3  BZF d   1      -0.155   0.988   0.530  0.00  0.00    -0.012 A 
ATOM      4  C3A BZF d   1      -0.989   0.883   1.688  0.00  0.00    -0.107 A 
ATOM      5  C4  BZF d   1      -1.029   1.549   2.879  0.00  0.00     0.055 A 
ATOM      6  C5  BZF d   1      -2.015   1.253   3.768  0.00  0.00    -0.016 A 
ATOM      7  C6  BZF d   1      -2.977   0.303   3.495  0.00  0.00     0.022 A 
ATOM      8  C7  BZF d   1      -2.975  -0.387   2.329  0.00  0.00     0.029 A 
ATOM      9  C7A BZF d   1      -1.962  -0.114   1.443  0.00  0.00     0.058 A 
ENDROOT
TORSDOF 0
ENDMDL
