MODEL 1
REMARK minimizedAffinity -4.71559238
REMARK minimizedRMSD -1
REMARK  0 active torsions:
REMARK  status: ('A' for Active; 'I' for Inactive)
ROOT
ATOM      1  O1  BZF d   1      -1.183  -0.420   0.259  0.00  0.00    -0.204 OA
ATOM      2  C2  BZF d   1      -2.071  -1.338  -0.269  0.00  0.00     0.174 A 
ATOM      3  C3  BZF d   1      -3.114  -1.528   0.565  0.00  0.00    -0.012 A 
ATOM      4  C3A BZF d   1      -2.908  -0.607   1.641  0.00  0.00    -0.107 A 
ATOM      5  C4  BZF d   1      -3.614  -0.312   2.772  0.00  0.00     0.055 A 
ATOM      6  C5  BZF d   1      -3.103   0.586   3.654  0.00  0.00    -0.016 A 
ATOM      7  C6  BZF d   1      -1.888   1.203   3.440  0.00  0.00     0.022 A 
ATOM      8  C7  BZF d   1      -1.153   0.946   2.331  0.00  0.00     0.029 A 
ATOM      9  C7A BZF d   1      -1.683   0.063   1.421  0.00  0.00     0.058 A 
ENDROOT
TORSDOF 0
ENDMDL
