MODEL 1
REMARK minimizedAffinity -2.07662368
REMARK minimizedRMSD -1
REMARK  0 active torsions:
REMARK  status: ('A' for Active; 'I' for Inactive)
ROOT
ATOM      1  O1  BZF d   1      -1.526  -3.385  -0.243  0.00  0.00    -0.204 OA
ATOM      2  C2  BZF d   1      -2.867  -3.157  -0.486  0.00  0.00     0.174 A 
ATOM      3  C3  BZF d   1      -3.149  -1.840  -0.414  0.00  0.00    -0.012 A 
ATOM      4  C3A BZF d   1      -1.889  -1.197  -0.197  0.00  0.00    -0.107 A 
ATOM      5  C4  BZF d   1      -1.514   0.108  -0.054  0.00  0.00     0.055 A 
ATOM      6  C5  BZF d   1      -0.214   0.396   0.219  0.00  0.00    -0.016 A 
ATOM      7  C6  BZF d   1       0.734  -0.596   0.362  0.00  0.00     0.022 A 
ATOM      8  C7  BZF d   1       0.410  -1.905   0.225  0.00  0.00     0.029 A 
ATOM      9  C7A BZF d   1      -0.896  -2.197  -0.084  0.00  0.00     0.058 A 
ENDROOT
TORSDOF 0
ENDMDL
