MODEL 1
REMARK minimizedAffinity -4.55741501
REMARK minimizedRMSD -1
REMARK  0 active torsions:
REMARK  status: ('A' for Active; 'I' for Inactive)
ROOT
ATOM      1  O1  BZF d   1      -0.724  -0.083   0.278  0.00  0.00    -0.204 OA
ATOM      2  C2  BZF d   1      -1.952   0.547   0.212  0.00  0.00     0.174 A 
ATOM      3  C3  BZF d   1      -2.937  -0.347  -0.015  0.00  0.00    -0.012 A 
ATOM      4  C3A BZF d   1      -2.294  -1.625  -0.003  0.00  0.00    -0.107 A 
ATOM      5  C4  BZF d   1      -2.747  -2.905  -0.156  0.00  0.00     0.055 A 
ATOM      6  C5  BZF d   1      -1.850  -3.926  -0.164  0.00  0.00    -0.016 A 
ATOM      7  C6  BZF d   1      -0.495  -3.703  -0.028  0.00  0.00     0.022 A 
ATOM      8  C7  BZF d   1       0.000  -2.452   0.131  0.00  0.00     0.029 A 
ATOM      9  C7A BZF d   1      -0.906  -1.421   0.173  0.00  0.00     0.058 A 
ENDROOT
TORSDOF 0
ENDMDL
