MODEL 1
REMARK minimizedAffinity -2.30712914
REMARK minimizedRMSD -1
REMARK  0 active torsions:
REMARK  status: ('A' for Active; 'I' for Inactive)
ROOT
ATOM      1  O1  BZF d   1       0.729  -1.994  -0.345  0.00  0.00    -0.204 OA
ATOM      2  C2  BZF d   1       1.927  -2.288  -0.967  0.00  0.00     0.174 A 
ATOM      3  C3  BZF d   1       2.513  -1.166  -1.433  0.00  0.00    -0.012 A 
ATOM      4  C3A BZF d   1       1.671  -0.094  -0.998  0.00  0.00    -0.107 A 
ATOM      5  C4  BZF d   1       1.731   1.263  -1.137  0.00  0.00     0.055 A 
ATOM      6  C5  BZF d   1       0.711   2.022  -0.658  0.00  0.00    -0.016 A 
ATOM      7  C6  BZF d   1      -0.386   1.458  -0.040  0.00  0.00     0.022 A 
ATOM      8  C7  BZF d   1      -0.488   0.117   0.126  0.00  0.00     0.029 A 
ATOM      9  C7A BZF d   1       0.557  -0.651  -0.328  0.00  0.00     0.058 A 
ENDROOT
TORSDOF 0
ENDMDL
