MODEL 1
REMARK minimizedAffinity -1.56828356
REMARK minimizedRMSD -1
REMARK  0 active torsions:
REMARK  status: ('A' for Active; 'I' for Inactive)
ROOT
ATOM      1  O1  BZF d   1       2.672  -1.953  -2.806  0.00  0.00    -0.204 OA
ATOM      2  C2  BZF d   1       1.834  -3.032  -3.012  0.00  0.00     0.174 A 
ATOM      3  C3  BZF d   1       1.013  -3.208  -1.957  0.00  0.00    -0.012 A 
ATOM      4  C3A BZF d   1       1.295  -2.119  -1.074  0.00  0.00    -0.107 A 
ATOM      5  C4  BZF d   1       0.791  -1.736   0.136  0.00  0.00     0.055 A 
ATOM      6  C5  BZF d   1       1.336  -0.664   0.769  0.00  0.00    -0.016 A 
ATOM      7  C6  BZF d   1       2.387   0.044   0.225  0.00  0.00     0.022 A 
ATOM      8  C7  BZF d   1       2.918  -0.295  -0.976  0.00  0.00     0.029 A 
ATOM      9  C7A BZF d   1       2.348  -1.358  -1.633  0.00  0.00     0.058 A 
ENDROOT
TORSDOF 0
ENDMDL
