MODEL 1
REMARK minimizedAffinity -4.35272741
REMARK minimizedRMSD -1
REMARK  0 active torsions:
REMARK  status: ('A' for Active; 'I' for Inactive)
ROOT
ATOM      1  O1  BZF d   1       2.510  -1.684  -1.321  0.00  0.00    -0.204 OA
ATOM      2  C2  BZF d   1       3.464  -0.805  -1.798  0.00  0.00     0.174 A 
ATOM      3  C3  BZF d   1       3.044   0.470  -1.675  0.00  0.00    -0.012 A 
ATOM      4  C3A BZF d   1       1.785   0.388  -0.999  0.00  0.00    -0.107 A 
ATOM      5  C4  BZF d   1       0.884   1.323  -0.576  0.00  0.00     0.055 A 
ATOM      6  C5  BZF d   1      -0.282   0.910  -0.014  0.00  0.00    -0.016 A 
ATOM      7  C6  BZF d   1      -0.581  -0.429   0.136  0.00  0.00     0.022 A 
ATOM      8  C7  BZF d   1       0.284  -1.393  -0.263  0.00  0.00     0.029 A 
ATOM      9  C7A BZF d   1       1.477  -0.978  -0.802  0.00  0.00     0.058 A 
ENDROOT
TORSDOF 0
ENDMDL
