MODEL 1
REMARK minimizedAffinity -0.972446084
REMARK minimizedRMSD -1
REMARK  0 active torsions:
REMARK  status: ('A' for Active; 'I' for Inactive)
ROOT
ATOM      1  O1  BZF d   1      -3.655  -0.249   5.027  0.00  0.00    -0.204 OA
ATOM      2  C2  BZF d   1      -4.172  -1.218   4.190  0.00  0.00     0.174 A 
ATOM      3  C3  BZF d   1      -3.576  -1.173   2.981  0.00  0.00    -0.012 A 
ATOM      4  C3A BZF d   1      -2.563  -0.170   3.098  0.00  0.00    -0.107 A 
ATOM      5  C4  BZF d   1      -1.625   0.323   2.236  0.00  0.00     0.055 A 
ATOM      6  C5  BZF d   1      -0.835   1.353   2.638  0.00  0.00    -0.016 A 
ATOM      7  C6  BZF d   1      -0.958   1.916   3.891  0.00  0.00     0.022 A 
ATOM      8  C7  BZF d   1      -1.870   1.458   4.783  0.00  0.00     0.029 A 
ATOM      9  C7A BZF d   1      -2.648   0.396   4.391  0.00  0.00     0.058 A 
ENDROOT
TORSDOF 0
ENDMDL
