MODEL 1
REMARK minimizedAffinity 2.50452709
REMARK minimizedRMSD -1
REMARK  0 active torsions:
REMARK  status: ('A' for Active; 'I' for Inactive)
ROOT
ATOM      1  O1  BZF d   1       3.826   5.961  -5.121  0.00  0.00    -0.204 OA
ATOM      2  C2  BZF d   1       2.455   5.963  -5.293  0.00  0.00     0.174 A 
ATOM      3  C3  BZF d   1       1.823   5.921  -4.102  0.00  0.00    -0.012 A 
ATOM      4  C3A BZF d   1       2.864   5.986  -3.122  0.00  0.00    -0.107 A 
ATOM      5  C4  BZF d   1       2.868   5.999  -1.757  0.00  0.00     0.055 A 
ATOM      6  C5  BZF d   1       4.058   5.994  -1.100  0.00  0.00    -0.016 A 
ATOM      7  C6  BZF d   1       5.260   5.970  -1.775  0.00  0.00     0.022 A 
ATOM      8  C7  BZF d   1       5.307   5.961  -3.130  0.00  0.00     0.029 A 
ATOM      9  C7A BZF d   1       4.107   6.000  -3.797  0.00  0.00     0.058 A 
ENDROOT
TORSDOF 0
ENDMDL
