MODEL 1
REMARK minimizedAffinity 0.814446568
REMARK minimizedRMSD -1
REMARK  0 active torsions:
REMARK  status: ('A' for Active; 'I' for Inactive)
ROOT
ATOM      1  O1  BZF d   1       5.023   2.689   5.187  0.00  0.00    -0.204 OA
ATOM      2  C2  BZF d   1       4.141   1.921   4.450  0.00  0.00     0.174 A 
ATOM      3  C3  BZF d   1       3.719   2.592   3.359  0.00  0.00    -0.012 A 
ATOM      4  C3A BZF d   1       4.450   3.823   3.368  0.00  0.00    -0.107 A 
ATOM      5  C4  BZF d   1       4.480   4.903   2.533  0.00  0.00     0.055 A 
ATOM      6  C5  BZF d   1       5.249   5.973   2.865  0.00  0.00    -0.016 A 
ATOM      7  C6  BZF d   1       5.994   6.000   4.025  0.00  0.00     0.022 A 
ATOM      8  C7  BZF d   1       6.000   4.950   4.883  0.00  0.00     0.029 A 
ATOM      9  C7A BZF d   1       5.250   3.853   4.533  0.00  0.00     0.058 A 
ENDROOT
TORSDOF 0
ENDMDL
