MODEL 1
REMARK minimizedAffinity -5.13580894
REMARK minimizedRMSD -1
REMARK  0 active torsions:
REMARK  status: ('A' for Active; 'I' for Inactive)
ROOT
ATOM      1  O1  BZF d   1       5.584   1.925   5.434  0.00  0.00    -0.204 OA
ATOM      2  C2  BZF d   1       5.342   0.739   4.768  0.00  0.00     0.174 A 
ATOM      3  C3  BZF d   1       5.121   0.962   3.457  0.00  0.00    -0.012 A 
ATOM      4  C3A BZF d   1       5.322   2.367   3.276  0.00  0.00    -0.107 A 
ATOM      5  C4  BZF d   1       5.262   3.192   2.189  0.00  0.00     0.055 A 
ATOM      6  C5  BZF d   1       5.440   4.528   2.363  0.00  0.00    -0.016 A 
ATOM      7  C6  BZF d   1       5.675   5.073   3.608  0.00  0.00     0.022 A 
ATOM      8  C7  BZF d   1       5.748   4.295   4.715  0.00  0.00     0.029 A 
ATOM      9  C7A BZF d   1       5.602   2.941   4.538  0.00  0.00     0.058 A 
ENDROOT
TORSDOF 0
ENDMDL
