MODEL 1
REMARK minimizedAffinity 1.69635379
REMARK minimizedRMSD -1
REMARK  0 active torsions:
REMARK  status: ('A' for Active; 'I' for Inactive)
ROOT
ATOM      1  O1  BZF d   1      -1.438   0.770   5.319  0.00  0.00    -0.204 OA
ATOM      2  C2  BZF d   1      -1.044   1.862   4.571  0.00  0.00     0.174 A 
ATOM      3  C3  BZF d   1      -1.275   1.652   3.259  0.00  0.00    -0.012 A 
ATOM      4  C3A BZF d   1      -1.935   0.384   3.192  0.00  0.00    -0.107 A 
ATOM      5  C4  BZF d   1      -2.432  -0.362   2.162  0.00  0.00     0.055 A 
ATOM      6  C5  BZF d   1      -2.950  -1.591   2.426  0.00  0.00    -0.016 A 
ATOM      7  C6  BZF d   1      -2.982  -2.105   3.706  0.00  0.00     0.022 A 
ATOM      8  C7  BZF d   1      -2.505  -1.400   4.760  0.00  0.00     0.029 A 
ATOM      9  C7A BZF d   1      -2.011  -0.145   4.501  0.00  0.00     0.058 A 
ENDROOT
TORSDOF 0
ENDMDL
