MODEL 1
REMARK minimizedAffinity -1.97870076
REMARK minimizedRMSD -1
REMARK  0 active torsions:
REMARK  status: ('A' for Active; 'I' for Inactive)
ROOT
ATOM      1  O1  BZF d   1       5.575   0.816   3.742  0.00  0.00    -0.204 OA
ATOM      2  C2  BZF d   1       5.629   1.546   4.914  0.00  0.00     0.174 A 
ATOM      3  C3  BZF d   1       5.740   0.730   5.982  0.00  0.00    -0.012 A 
ATOM      4  C3A BZF d   1       5.849  -0.589   5.437  0.00  0.00    -0.107 A 
ATOM      5  C4  BZF d   1       5.999  -1.826   5.996  0.00  0.00     0.055 A 
ATOM      6  C5  BZF d   1       5.999  -2.919   5.189  0.00  0.00    -0.016 A 
ATOM      7  C6  BZF d   1       5.846  -2.813   3.822  0.00  0.00     0.022 A 
ATOM      8  C7  BZF d   1       5.699  -1.607   3.222  0.00  0.00     0.029 A 
ATOM      9  C7A BZF d   1       5.732  -0.498   4.031  0.00  0.00     0.058 A 
ENDROOT
TORSDOF 0
ENDMDL
