MODEL 1
REMARK minimizedAffinity -2.22346449
REMARK minimizedRMSD -1
REMARK  0 active torsions:
REMARK  status: ('A' for Active; 'I' for Inactive)
ROOT
ATOM      1  O1  BZF d   1       4.813  -0.041   5.999  0.00  0.00    -0.204 OA
ATOM      2  C2  BZF d   1       5.474  -1.011   5.271  0.00  0.00     0.174 A 
ATOM      3  C3  BZF d   1       5.997  -0.489   4.142  0.00  0.00    -0.012 A 
ATOM      4  C3A BZF d   1       5.719   0.913   4.212  0.00  0.00    -0.107 A 
ATOM      5  C4  BZF d   1       6.000   1.968   3.391  0.00  0.00     0.055 A 
ATOM      6  C5  BZF d   1       5.524   3.199   3.712  0.00  0.00    -0.016 A 
ATOM      7  C6  BZF d   1       4.760   3.411   4.842  0.00  0.00     0.022 A 
ATOM      8  C7  BZF d   1       4.460   2.396   5.689  0.00  0.00     0.029 A 
ATOM      9  C7A BZF d   1       4.967   1.157   5.384  0.00  0.00     0.058 A 
ENDROOT
TORSDOF 0
ENDMDL
