MODEL 1
REMARK minimizedAffinity -4.52806711
REMARK minimizedRMSD -1
REMARK  0 active torsions:
REMARK  status: ('A' for Active; 'I' for Inactive)
ROOT
ATOM      1  O1  BZF d   1       5.974  -1.566   5.041  0.00  0.00    -0.204 OA
ATOM      2  C2  BZF d   1       5.649  -2.667   4.271  0.00  0.00     0.174 A 
ATOM      3  C3  BZF d   1       5.231  -2.287   3.046  0.00  0.00    -0.012 A 
ATOM      4  C3A BZF d   1       5.385  -0.864   3.020  0.00  0.00    -0.107 A 
ATOM      5  C4  BZF d   1       5.152   0.088   2.070  0.00  0.00     0.055 A 
ATOM      6  C5  BZF d   1       5.337   1.397   2.387  0.00  0.00    -0.016 A 
ATOM      7  C6  BZF d   1       5.749   1.788   3.644  0.00  0.00     0.022 A 
ATOM      8  C7  BZF d   1       5.998   0.879   4.618  0.00  0.00     0.029 A 
ATOM      9  C7A BZF d   1       5.843  -0.446   4.291  0.00  0.00     0.058 A 
ENDROOT
TORSDOF 0
ENDMDL
