MODEL 1
REMARK minimizedAffinity -0.453320175
REMARK minimizedRMSD -1
REMARK  0 active torsions:
REMARK  status: ('A' for Active; 'I' for Inactive)
ROOT
ATOM      1  O1  BZF d   1       4.113   5.957   0.435  0.00  0.00    -0.204 OA
ATOM      2  C2  BZF d   1       3.666   4.946  -0.393  0.00  0.00     0.174 A 
ATOM      3  C3  BZF d   1       4.004   3.738   0.102  0.00  0.00    -0.012 A 
ATOM      4  C3A BZF d   1       4.625   4.008   1.362  0.00  0.00    -0.107 A 
ATOM      5  C4  BZF d   1       5.159   3.213   2.335  0.00  0.00     0.055 A 
ATOM      6  C5  BZF d   1       5.753   3.794   3.411  0.00  0.00    -0.016 A 
ATOM      7  C6  BZF d   1       5.835   5.165   3.543  0.00  0.00     0.022 A 
ATOM      8  C7  BZF d   1       5.315   5.994   2.606  0.00  0.00     0.029 A 
ATOM      9  C7A BZF d   1       4.685   5.410   1.534  0.00  0.00     0.058 A 
ENDROOT
TORSDOF 0
ENDMDL
