MODEL 1
REMARK minimizedAffinity 5.18684101
REMARK minimizedRMSD -1
REMARK  0 active torsions:
REMARK  status: ('A' for Active; 'I' for Inactive)
ROOT
ATOM      1  C   UNL d   1       2.265   2.262   4.140  0.00  0.00     0.077 C 
ATOM      2  C1  UNL d   1       2.187   0.918   3.480  0.00  0.00    -0.074 A 
ATOM      3  C2  UNL d   1       2.440   0.772   2.112  0.00  0.00    -0.005 A 
ATOM      4  C3  UNL d   1       2.372  -0.486   1.514  0.00  0.00     0.006 A 
ATOM      5  C4  UNL d   1       2.051  -1.610   2.277  0.00  0.00    -0.005 A 
ATOM      6  C5  UNL d   1       1.795  -1.484   3.646  0.00  0.00    -0.074 A 
ATOM      7  C6  UNL d   1       1.458  -2.683   4.482  0.00  0.00     0.077 C 
ATOM      8  C7  UNL d   1       1.872  -0.217   4.241  0.00  0.00    -0.001 A 
ENDROOT
TORSDOF 0
ENDMDL
