MODEL 1
REMARK minimizedAffinity 1.44725502
REMARK minimizedRMSD -1
REMARK  0 active torsions:
REMARK  status: ('A' for Active; 'I' for Inactive)
ROOT
ATOM      1  C   UNL d   1       2.634   2.020  -0.322  0.00  0.00     0.077 C 
ATOM      2  C1  UNL d   1       2.605   1.380   1.034  0.00  0.00    -0.074 A 
ATOM      3  C2  UNL d   1       2.900   2.118   2.184  0.00  0.00    -0.005 A 
ATOM      4  C3  UNL d   1       2.859   1.511   3.439  0.00  0.00     0.006 A 
ATOM      5  C4  UNL d   1       2.525   0.161   3.556  0.00  0.00    -0.005 A 
ATOM      6  C5  UNL d   1       2.226  -0.593   2.417  0.00  0.00    -0.074 A 
ATOM      7  C6  UNL d   1       1.855  -2.042   2.526  0.00  0.00     0.077 C 
ATOM      8  C7  UNL d   1       2.262   0.026   1.160  0.00  0.00    -0.001 A 
ENDROOT
TORSDOF 0
ENDMDL
