MODEL 1
REMARK minimizedAffinity 2.36400557
REMARK minimizedRMSD -1
REMARK  0 active torsions:
REMARK  status: ('A' for Active; 'I' for Inactive)
ROOT
ATOM      1  C   UNL d   1       2.007  -2.160   3.395  0.00  0.00     0.077 C 
ATOM      2  C1  UNL d   1       2.251  -0.681   3.349  0.00  0.00    -0.074 A 
ATOM      3  C2  UNL d   1       2.294   0.077   4.524  0.00  0.00    -0.005 A 
ATOM      4  C3  UNL d   1       2.531   1.450   4.467  0.00  0.00     0.006 A 
ATOM      5  C4  UNL d   1       2.727   2.079   3.236  0.00  0.00    -0.005 A 
ATOM      6  C5  UNL d   1       2.688   1.337   2.051  0.00  0.00    -0.074 A 
ATOM      7  C6  UNL d   1       2.907   1.996   0.721  0.00  0.00     0.077 C 
ATOM      8  C7  UNL d   1       2.457  -0.043   2.118  0.00  0.00    -0.001 A 
ENDROOT
TORSDOF 0
ENDMDL
