MODEL 1
REMARK minimizedAffinity 8.12056637
REMARK minimizedRMSD -1
REMARK  0 active torsions:
REMARK  status: ('A' for Active; 'I' for Inactive)
ROOT
ATOM      1  C   UNL d   1      -3.734   0.096  -4.063  0.00  0.00     0.077 C 
ATOM      2  C1  UNL d   1      -4.518   1.329  -3.725  0.00  0.00    -0.074 A 
ATOM      3  C2  UNL d   1      -4.910   2.227  -4.723  0.00  0.00    -0.005 A 
ATOM      4  C3  UNL d   1      -5.647   3.365  -4.395  0.00  0.00     0.006 A 
ATOM      5  C4  UNL d   1      -6.000   3.615  -3.069  0.00  0.00    -0.005 A 
ATOM      6  C5  UNL d   1      -5.618   2.728  -2.058  0.00  0.00    -0.074 A 
ATOM      7  C6  UNL d   1      -5.997   2.977  -0.628  0.00  0.00     0.077 C 
ATOM      8  C7  UNL d   1      -4.883   1.583  -2.396  0.00  0.00    -0.001 A 
ENDROOT
TORSDOF 0
ENDMDL
