MODEL 1
REMARK minimizedAffinity 4.81254673
REMARK minimizedRMSD -1
REMARK  0 active torsions:
REMARK  status: ('A' for Active; 'I' for Inactive)
ROOT
ATOM      1  C   UNL d   1       1.715  -1.243   2.807  0.00  0.00     0.077 C 
ATOM      2  C1  UNL d   1       2.107  -2.174   3.916  0.00  0.00    -0.074 A 
ATOM      3  C2  UNL d   1       3.392  -2.135   4.466  0.00  0.00    -0.005 A 
ATOM      4  C3  UNL d   1       3.739  -3.000   5.504  0.00  0.00     0.006 A 
ATOM      5  C4  UNL d   1       2.806  -3.912   6.000  0.00  0.00    -0.005 A 
ATOM      6  C5  UNL d   1       1.516  -3.965   5.462  0.00  0.00    -0.074 A 
ATOM      7  C6  UNL d   1       0.499  -4.932   5.990  0.00  0.00     0.077 C 
ATOM      8  C7  UNL d   1       1.173  -3.087   4.425  0.00  0.00    -0.001 A 
ENDROOT
TORSDOF 0
ENDMDL
