MODEL 1
REMARK minimizedAffinity 0.462409288
REMARK minimizedRMSD -1
REMARK  0 active torsions:
REMARK  status: ('A' for Active; 'I' for Inactive)
ROOT
ATOM      1  C   UNL d   1       1.395  -2.222   2.407  0.00  0.00     0.077 C 
ATOM      2  C1  UNL d   1       0.636  -1.986   1.135  0.00  0.00    -0.074 A 
ATOM      3  C2  UNL d   1      -0.522  -1.201   1.124  0.00  0.00    -0.005 A 
ATOM      4  C3  UNL d   1      -1.212  -0.983  -0.069  0.00  0.00     0.006 A 
ATOM      5  C4  UNL d   1      -0.752  -1.546  -1.260  0.00  0.00    -0.005 A 
ATOM      6  C5  UNL d   1       0.404  -2.333  -1.268  0.00  0.00    -0.074 A 
ATOM      7  C6  UNL d   1       0.918  -2.937  -2.541  0.00  0.00     0.077 C 
ATOM      8  C7  UNL d   1       1.096  -2.542  -0.067  0.00  0.00    -0.001 A 
ENDROOT
TORSDOF 0
ENDMDL
