MODEL 1
REMARK minimizedAffinity 5.99948454
REMARK minimizedRMSD -1
REMARK  0 active torsions:
REMARK  status: ('A' for Active; 'I' for Inactive)
ROOT
ATOM      1  C   UNL d   1      -5.997   3.330  -0.504  0.00  0.00     0.077 C 
ATOM      2  C1  UNL d   1      -5.623   2.937  -1.903  0.00  0.00    -0.074 A 
ATOM      3  C2  UNL d   1      -6.000   3.724  -2.996  0.00  0.00    -0.005 A 
ATOM      4  C3  UNL d   1      -5.636   3.350  -4.290  0.00  0.00     0.006 A 
ATOM      5  C4  UNL d   1      -4.895   2.188  -4.503  0.00  0.00    -0.005 A 
ATOM      6  C5  UNL d   1      -4.509   1.388  -3.422  0.00  0.00    -0.074 A 
ATOM      7  C6  UNL d   1      -3.703   0.141  -3.633  0.00  0.00     0.077 C 
ATOM      8  C7  UNL d   1      -4.872   1.774  -2.125  0.00  0.00    -0.001 A 
ENDROOT
TORSDOF 0
ENDMDL
