MODEL 1
REMARK minimizedAffinity 9.81237316
REMARK minimizedRMSD -1
REMARK  0 active torsions:
REMARK  status: ('A' for Active; 'I' for Inactive)
ROOT
ATOM      1  C   UNL d   1       3.178  -2.488   4.106  0.00  0.00     0.077 C 
ATOM      2  C1  UNL d   1       2.924  -1.187   3.404  0.00  0.00    -0.074 A 
ATOM      3  C2  UNL d   1       2.534  -0.050   4.119  0.00  0.00    -0.005 A 
ATOM      4  C3  UNL d   1       2.310   1.156   3.454  0.00  0.00     0.006 A 
ATOM      5  C4  UNL d   1       2.475   1.237   2.071  0.00  0.00    -0.005 A 
ATOM      6  C5  UNL d   1       2.866   0.110   1.340  0.00  0.00    -0.074 A 
ATOM      7  C6  UNL d   1       3.057   0.182  -0.146  0.00  0.00     0.077 C 
ATOM      8  C7  UNL d   1       3.095  -1.096   2.016  0.00  0.00    -0.001 A 
ENDROOT
TORSDOF 0
ENDMDL
