MODEL 1
REMARK minimizedAffinity 2.78249216
REMARK minimizedRMSD -1
REMARK  0 active torsions:
REMARK  status: ('A' for Active; 'I' for Inactive)
ROOT
ATOM      1  C   UNL d   1       2.611   2.272   0.808  0.00  0.00     0.077 C 
ATOM      2  C1  UNL d   1       2.092   0.958   1.312  0.00  0.00    -0.074 A 
ATOM      3  C2  UNL d   1       0.898   0.420   0.821  0.00  0.00    -0.005 A 
ATOM      4  C3  UNL d   1       0.433  -0.808   1.293  0.00  0.00     0.006 A 
ATOM      5  C4  UNL d   1       1.157  -1.509   2.258  0.00  0.00    -0.005 A 
ATOM      6  C5  UNL d   1       2.353  -0.988   2.759  0.00  0.00    -0.074 A 
ATOM      7  C6  UNL d   1       3.148  -1.734   3.790  0.00  0.00     0.077 C 
ATOM      8  C7  UNL d   1       2.817   0.243   2.276  0.00  0.00    -0.001 A 
ENDROOT
TORSDOF 0
ENDMDL
