MODEL 1
REMARK minimizedAffinity 7.24048328
REMARK minimizedRMSD -1
REMARK  0 active torsions:
REMARK  status: ('A' for Active; 'I' for Inactive)
ROOT
ATOM      1  C   UNL d   1       1.721   2.761   1.409  0.00  0.00     0.077 C 
ATOM      2  C1  UNL d   1       2.338   1.398   1.515  0.00  0.00    -0.074 A 
ATOM      3  C2  UNL d   1       3.410   1.028   0.696  0.00  0.00    -0.005 A 
ATOM      4  C3  UNL d   1       3.979  -0.240   0.813  0.00  0.00     0.006 A 
ATOM      5  C4  UNL d   1       3.484  -1.149   1.748  0.00  0.00    -0.005 A 
ATOM      6  C5  UNL d   1       2.413  -0.797   2.576  0.00  0.00    -0.074 A 
ATOM      7  C6  UNL d   1       1.875  -1.759   3.593  0.00  0.00     0.077 C 
ATOM      8  C7  UNL d   1       1.851   0.481   2.458  0.00  0.00    -0.001 A 
ENDROOT
TORSDOF 0
ENDMDL
