MODEL 1
REMARK minimizedAffinity 20.7724209
REMARK minimizedRMSD -1
REMARK  0 active torsions:
REMARK  status: ('A' for Active; 'I' for Inactive)
ROOT
ATOM      1  C   UNL d   1      -0.289  -1.016   2.254  0.00  0.00    -0.002 A 
ATOM      2  C1  UNL d   1      -0.300   0.283   2.743  0.00  0.00     0.010 A 
ATOM      3  C2  UNL d   1       0.407   0.612   3.901  0.00  0.00     0.041 A 
ATOM      4  C3  UNL d   1       1.134  -0.395   4.565  0.00  0.00    -0.075 A 
ATOM      5  S   UNL d   1       2.075  -0.224   6.000  0.00  0.00     0.015 SA
ATOM      6  C4  UNL d   1       2.515  -1.871   5.997  0.00  0.00     0.022 A 
ATOM      7  C5  UNL d   1       1.966  -2.549   4.935  0.00  0.00     0.026 A 
ATOM      8  C6  UNL d   1       1.162  -1.710   4.092  0.00  0.00    -0.082 A 
ATOM      9  C7  UNL d   1       0.434  -2.012   2.915  0.00  0.00     0.045 A 
ENDROOT
TORSDOF 0
ENDMDL
