MODEL 1
REMARK minimizedAffinity 6.29138851
REMARK minimizedRMSD -1
REMARK  0 active torsions:
REMARK  status: ('A' for Active; 'I' for Inactive)
ROOT
ATOM      1  C   UNL d   1      -1.470  -4.408  -5.345  0.00  0.00    -0.002 A 
ATOM      2  C1  UNL d   1      -0.814  -5.449  -5.987  0.00  0.00     0.010 A 
ATOM      3  C2  UNL d   1       0.348  -5.999  -5.443  0.00  0.00     0.041 A 
ATOM      4  C3  UNL d   1       0.844  -5.482  -4.230  0.00  0.00    -0.075 A 
ATOM      5  S   UNL d   1       2.250  -6.000  -3.377  0.00  0.00     0.015 SA
ATOM      6  C4  UNL d   1       2.013  -4.851  -2.140  0.00  0.00     0.022 A 
ATOM      7  C5  UNL d   1       0.894  -4.083  -2.357  0.00  0.00     0.026 A 
ATOM      8  C6  UNL d   1       0.201  -4.434  -3.565  0.00  0.00    -0.082 A 
ATOM      9  C7  UNL d   1      -0.974  -3.897  -4.142  0.00  0.00     0.045 A 
ENDROOT
TORSDOF 0
ENDMDL
