MODEL 1
REMARK minimizedAffinity -1.01129663
REMARK minimizedRMSD -1
REMARK  0 active torsions:
REMARK  status: ('A' for Active; 'I' for Inactive)
ROOT
ATOM      1  C   UNL d   1      -1.470  -0.763  -3.089  0.00  0.00    -0.002 A 
ATOM      2  C1  UNL d   1      -0.704  -0.018  -3.975  0.00  0.00     0.010 A 
ATOM      3  C2  UNL d   1       0.688  -0.124  -3.974  0.00  0.00     0.041 A 
ATOM      4  C3  UNL d   1       1.304  -1.002  -3.060  0.00  0.00    -0.075 A 
ATOM      5  S   UNL d   1       2.993  -1.296  -2.878  0.00  0.00     0.015 SA
ATOM      6  C4  UNL d   1       2.738  -2.418  -1.621  0.00  0.00     0.022 A 
ATOM      7  C5  UNL d   1       1.403  -2.576  -1.333  0.00  0.00     0.026 A 
ATOM      8  C6  UNL d   1       0.554  -1.763  -2.158  0.00  0.00    -0.082 A 
ATOM      9  C7  UNL d   1      -0.855  -1.632  -2.184  0.00  0.00     0.045 A 
ENDROOT
TORSDOF 0
ENDMDL
