MODEL 1
REMARK minimizedAffinity 10.0396299
REMARK minimizedRMSD -1
REMARK  0 active torsions:
REMARK  status: ('A' for Active; 'I' for Inactive)
ROOT
ATOM      1  C   UNL d   1       0.746  -1.377   2.191  0.00  0.00    -0.002 A 
ATOM      2  C1  UNL d   1       0.171  -0.504   3.104  0.00  0.00     0.010 A 
ATOM      3  C2  UNL d   1       0.859  -0.133   4.261  0.00  0.00     0.041 A 
ATOM      4  C3  UNL d   1       2.148  -0.656   4.485  0.00  0.00    -0.075 A 
ATOM      5  S   UNL d   1       3.178  -0.340   5.831  0.00  0.00     0.015 SA
ATOM      6  C4  UNL d   1       4.406  -1.355   5.225  0.00  0.00     0.022 A 
ATOM      7  C5  UNL d   1       4.055  -1.929   4.026  0.00  0.00     0.026 A 
ATOM      8  C6  UNL d   1       2.748  -1.535   3.579  0.00  0.00    -0.082 A 
ATOM      9  C7  UNL d   1       2.025  -1.893   2.417  0.00  0.00     0.045 A 
ENDROOT
TORSDOF 0
ENDMDL
