MODEL 1
REMARK minimizedAffinity 9.56530666
REMARK minimizedRMSD -1
REMARK  0 active torsions:
REMARK  status: ('A' for Active; 'I' for Inactive)
ROOT
ATOM      1  C   UNL d   1       1.767  -3.579  -2.086  0.00  0.00    -0.002 A 
ATOM      2  C1  UNL d   1       0.546  -3.874  -2.675  0.00  0.00     0.010 A 
ATOM      3  C2  UNL d   1       0.182  -3.285  -3.888  0.00  0.00     0.041 A 
ATOM      4  C3  UNL d   1       1.076  -2.388  -4.505  0.00  0.00    -0.075 A 
ATOM      5  S   UNL d   1       0.843  -1.548  -5.993  0.00  0.00     0.015 SA
ATOM      6  C4  UNL d   1       2.360  -0.779  -5.882  0.00  0.00     0.022 A 
ATOM      7  C5  UNL d   1       3.040  -1.142  -4.744  0.00  0.00     0.026 A 
ATOM      8  C6  UNL d   1       2.312  -2.076  -3.932  0.00  0.00    -0.082 A 
ATOM      9  C7  UNL d   1       2.651  -2.689  -2.701  0.00  0.00     0.045 A 
ENDROOT
TORSDOF 0
ENDMDL
