MODEL 1
REMARK minimizedAffinity 6.38994598
REMARK minimizedRMSD -1
REMARK  0 active torsions:
REMARK  status: ('A' for Active; 'I' for Inactive)
ROOT
ATOM      1  C   UNL d   1       1.915  -1.349   4.050  0.00  0.00    -0.002 A 
ATOM      2  C1  UNL d   1       1.350  -2.582   4.343  0.00  0.00     0.010 A 
ATOM      3  C2  UNL d   1       0.080  -2.912   3.866  0.00  0.00     0.041 A 
ATOM      4  C3  UNL d   1      -0.619  -1.973   3.081  0.00  0.00    -0.075 A 
ATOM      5  S   UNL d   1      -2.186  -2.159   2.388  0.00  0.00     0.015 SA
ATOM      6  C4  UNL d   1      -2.142  -0.606   1.687  0.00  0.00     0.022 A 
ATOM      7  C5  UNL d   1      -0.967   0.052   1.965  0.00  0.00     0.026 A 
ATOM      8  C6  UNL d   1      -0.070  -0.725   2.772  0.00  0.00    -0.082 A 
ATOM      9  C7  UNL d   1       1.220  -0.421   3.271  0.00  0.00     0.045 A 
ENDROOT
TORSDOF 0
ENDMDL
