MODEL 1
REMARK minimizedAffinity 11.8296766
REMARK minimizedRMSD -1
REMARK  0 active torsions:
REMARK  status: ('A' for Active; 'I' for Inactive)
ROOT
ATOM      1  C   UNL d   1      -1.802   4.130  -2.334  0.00  0.00    -0.002 A 
ATOM      2  C1  UNL d   1      -1.120   5.334  -2.435  0.00  0.00     0.010 A 
ATOM      3  C2  UNL d   1      -0.646   5.980  -1.292  0.00  0.00     0.041 A 
ATOM      4  C3  UNL d   1      -0.869   5.389  -0.033  0.00  0.00    -0.075 A 
ATOM      5  S   UNL d   1      -0.378   5.999   1.503  0.00  0.00     0.015 SA
ATOM      6  C4  UNL d   1      -1.062   4.674   2.331  0.00  0.00     0.022 A 
ATOM      7  C5  UNL d   1      -1.654   3.780   1.471  0.00  0.00     0.026 A 
ATOM      8  C6  UNL d   1      -1.552   4.176   0.095  0.00  0.00    -0.082 A 
ATOM      9  C7  UNL d   1      -2.022   3.547  -1.083  0.00  0.00     0.045 A 
ENDROOT
TORSDOF 0
ENDMDL
