MODEL 1
REMARK minimizedAffinity 14.5203562
REMARK minimizedRMSD -1
REMARK  0 active torsions:
REMARK  status: ('A' for Active; 'I' for Inactive)
ROOT
ATOM      1  C   UNL d   1      -2.656   0.541   1.278  0.00  0.00    -0.002 A 
ATOM      2  C1  UNL d   1      -3.153  -0.723   1.568  0.00  0.00     0.010 A 
ATOM      3  C2  UNL d   1      -2.354  -1.670   2.211  0.00  0.00     0.041 A 
ATOM      4  C3  UNL d   1      -1.035  -1.322   2.564  0.00  0.00    -0.075 A 
ATOM      5  S   UNL d   1       0.126  -2.318   3.359  0.00  0.00     0.015 SA
ATOM      6  C4  UNL d   1       1.308  -1.090   3.334  0.00  0.00     0.022 A 
ATOM      7  C5  UNL d   1       0.845   0.058   2.737  0.00  0.00     0.026 A 
ATOM      8  C6  UNL d   1      -0.513  -0.056   2.284  0.00  0.00    -0.082 A 
ATOM      9  C7  UNL d   1      -1.348   0.882   1.630  0.00  0.00     0.045 A 
ENDROOT
TORSDOF 0
ENDMDL
