MODEL 1
REMARK minimizedAffinity 7.27263975
REMARK minimizedRMSD -1
REMARK  0 active torsions:
REMARK  status: ('A' for Active; 'I' for Inactive)
ROOT
ATOM      1  C   UNL d   1       1.826  -3.737  -2.884  0.00  0.00    -0.002 A 
ATOM      2  C1  UNL d   1       1.538  -5.056  -3.203  0.00  0.00     0.010 A 
ATOM      3  C2  UNL d   1       0.313  -5.622  -2.845  0.00  0.00     0.041 A 
ATOM      4  C3  UNL d   1      -0.627  -4.831  -2.154  0.00  0.00    -0.075 A 
ATOM      5  S   UNL d   1      -2.193  -5.311  -1.614  0.00  0.00     0.015 SA
ATOM      6  C4  UNL d   1      -2.515  -3.776  -0.948  0.00  0.00     0.022 A 
ATOM      7  C5  UNL d   1      -1.465  -2.907  -1.123  0.00  0.00     0.026 A 
ATOM      8  C6  UNL d   1      -0.360  -3.500  -1.822  0.00  0.00    -0.082 A 
ATOM      9  C7  UNL d   1       0.892  -2.956  -2.199  0.00  0.00     0.045 A 
ENDROOT
TORSDOF 0
ENDMDL
