MODEL 1
REMARK minimizedAffinity -4.72037315
REMARK minimizedRMSD -1
REMARK  1 active torsions:
REMARK  status: ('A' for Active; 'I' for Inactive)
REMARK    1  A    between atoms: C3_4  and  O_7 
ROOT
ATOM      1  C   UNL d   1      -0.023   0.353  -0.109  0.00  0.00    -0.033 A 
ATOM      2  C1  UNL d   1       0.255  -0.988   0.164  0.00  0.00     0.039 A 
ATOM      3  C2  UNL d   1       1.507  -1.357   0.658  0.00  0.00    -0.080 A 
ATOM      4  C3  UNL d   1       2.472  -0.377   0.874  0.00  0.00     0.150 A 
ATOM      5  C4  UNL d   1       2.201   0.961   0.608  0.00  0.00    -0.007 A 
ATOM      6  C5  UNL d   1       0.950   1.328   0.114  0.00  0.00     0.039 A 
ENDROOT
BRANCH   4   7
ATOM      7  O   UNL d   1       3.711  -0.689   1.351  0.00  0.00    -0.526 OA
ATOM      8  H5  UNL d   1       3.764  -1.653   1.461  0.00  0.00     0.418 HD
ENDBRANCH   4   7
TORSDOF 1
ENDMDL
