MODEL 1
REMARK minimizedAffinity -4.25130653
REMARK minimizedRMSD -1
REMARK  1 active torsions:
REMARK  status: ('A' for Active; 'I' for Inactive)
REMARK    1  A    between atoms: C3_4  and  O_7 
ROOT
ATOM      1  C   UNL d   1      -0.360   0.406  -0.121  0.00  0.00    -0.033 A 
ATOM      2  C1  UNL d   1       0.100  -0.884   0.151  0.00  0.00     0.039 A 
ATOM      3  C2  UNL d   1       1.444  -1.096   0.464  0.00  0.00    -0.080 A 
ATOM      4  C3  UNL d   1       2.316  -0.011   0.502  0.00  0.00     0.150 A 
ATOM      5  C4  UNL d   1       1.863   1.277   0.237  0.00  0.00    -0.007 A 
ATOM      6  C5  UNL d   1       0.521   1.487  -0.077  0.00  0.00     0.039 A 
ENDROOT
BRANCH   4   7
ATOM      7  O   UNL d   1       3.638  -0.169   0.798  0.00  0.00    -0.526 OA
ATOM      8  H5  UNL d   1       3.812  -1.116   0.931  0.00  0.00     0.418 HD
ENDBRANCH   4   7
TORSDOF 1
ENDMDL
