MODEL 1
REMARK minimizedAffinity -5.16332436
REMARK minimizedRMSD -1
REMARK  1 active torsions:
REMARK  status: ('A' for Active; 'I' for Inactive)
REMARK    1  A    between atoms: C3_4  and  O_7 
ROOT
ATOM      1  C   UNL d   1       3.086  -1.508   1.668  0.00  0.00    -0.033 A 
ATOM      2  C1  UNL d   1       1.818  -1.911   2.092  0.00  0.00     0.039 A 
ATOM      3  C2  UNL d   1       0.681  -1.257   1.614  0.00  0.00    -0.080 A 
ATOM      4  C3  UNL d   1       0.824  -0.205   0.714  0.00  0.00     0.150 A 
ATOM      5  C4  UNL d   1       2.084   0.199   0.285  0.00  0.00    -0.007 A 
ATOM      6  C5  UNL d   1       3.219  -0.454   0.764  0.00  0.00     0.039 A 
ENDROOT
BRANCH   4   7
ATOM      7  O   UNL d   1      -0.256   0.467   0.224  0.00  0.00    -0.526 OA
ATOM      8  H5  UNL d   1      -1.058   0.097   0.630  0.00  0.00     0.418 HD
ENDBRANCH   4   7
TORSDOF 1
ENDMDL
