MODEL 1
REMARK minimizedAffinity -3.75875163
REMARK minimizedRMSD -1
REMARK  1 active torsions:
REMARK  status: ('A' for Active; 'I' for Inactive)
REMARK    1  A    between atoms: C3_4  and  O_7 
ROOT
ATOM      1  C   UNL d   1      -0.249  -0.635   0.538  0.00  0.00    -0.033 A 
ATOM      2  C1  UNL d   1       0.304   0.560   0.074  0.00  0.00     0.039 A 
ATOM      3  C2  UNL d   1       1.683   0.766   0.143  0.00  0.00    -0.080 A 
ATOM      4  C3  UNL d   1       2.497  -0.230   0.675  0.00  0.00     0.150 A 
ATOM      5  C4  UNL d   1       1.953  -1.425   1.136  0.00  0.00    -0.007 A 
ATOM      6  C5  UNL d   1       0.575  -1.628   1.068  0.00  0.00     0.039 A 
ENDROOT
BRANCH   4   7
ATOM      7  O   UNL d   1       3.848  -0.074   0.767  0.00  0.00    -0.526 OA
ATOM      8  H5  UNL d   1       4.078   0.811   0.438  0.00  0.00     0.418 HD
ENDBRANCH   4   7
TORSDOF 1
ENDMDL
