MODEL 1
REMARK minimizedAffinity -5.43794489
REMARK minimizedRMSD -1
REMARK  1 active torsions:
REMARK  status: ('A' for Active; 'I' for Inactive)
REMARK    1  A    between atoms: C3_4  and  O_7 
ROOT
ATOM      1  C   UNL d   1       0.303   1.108   0.493  0.00  0.00    -0.033 A 
ATOM      2  C1  UNL d   1       1.139   1.793   1.376  0.00  0.00     0.039 A 
ATOM      3  C2  UNL d   1       2.411   1.294   1.666  0.00  0.00    -0.080 A 
ATOM      4  C3  UNL d   1       2.833   0.111   1.066  0.00  0.00     0.150 A 
ATOM      5  C4  UNL d   1       2.007  -0.575   0.182  0.00  0.00    -0.007 A 
ATOM      6  C5  UNL d   1       0.737  -0.075  -0.106  0.00  0.00     0.039 A 
ENDROOT
BRANCH   4   7
ATOM      7  O   UNL d   1       4.064  -0.418   1.321  0.00  0.00    -0.526 OA
ATOM      8  H5  UNL d   1       4.513   0.147   1.971  0.00  0.00     0.418 HD
ENDBRANCH   4   7
TORSDOF 1
ENDMDL
