MODEL 1
REMARK minimizedAffinity -4.63960409
REMARK minimizedRMSD -1
REMARK  1 active torsions:
REMARK  status: ('A' for Active; 'I' for Inactive)
REMARK    1  A    between atoms: C3_4  and  O_7 
ROOT
ATOM      1  C   UNL d   1       2.866  -0.381   1.029  0.00  0.00    -0.033 A 
ATOM      2  C1  UNL d   1       2.508   0.885   0.562  0.00  0.00     0.039 A 
ATOM      3  C2  UNL d   1       1.230   1.104   0.044  0.00  0.00    -0.080 A 
ATOM      4  C3  UNL d   1       0.321   0.051  -0.001  0.00  0.00     0.150 A 
ATOM      5  C4  UNL d   1       0.670  -1.212   0.466  0.00  0.00    -0.007 A 
ATOM      6  C5  UNL d   1       1.947  -1.429   0.982  0.00  0.00     0.039 A 
ENDROOT
BRANCH   4   7
ATOM      7  O   UNL d   1      -0.936   0.215  -0.503  0.00  0.00    -0.526 OA
ATOM      8  H5  UNL d   1      -1.026   1.131  -0.814  0.00  0.00     0.418 HD
ENDBRANCH   4   7
TORSDOF 1
ENDMDL
