MODEL 1
REMARK minimizedAffinity -3.6345768
REMARK minimizedRMSD -1
REMARK  1 active torsions:
REMARK  status: ('A' for Active; 'I' for Inactive)
REMARK    1  A    between atoms: C3_4  and  O_7 
ROOT
ATOM      1  C   UNL d   1       2.424   1.181  -0.324  0.00  0.00    -0.033 A 
ATOM      2  C1  UNL d   1       1.034   1.305  -0.276  0.00  0.00     0.039 A 
ATOM      3  C2  UNL d   1       0.259   0.288   0.285  0.00  0.00    -0.080 A 
ATOM      4  C3  UNL d   1       0.886  -0.846   0.795  0.00  0.00     0.150 A 
ATOM      5  C4  UNL d   1       2.270  -0.974   0.754  0.00  0.00    -0.007 A 
ATOM      6  C5  UNL d   1       3.042   0.042   0.193  0.00  0.00     0.039 A 
ENDROOT
BRANCH   4   7
ATOM      7  O   UNL d   1       0.172  -1.867   1.348  0.00  0.00    -0.526 OA
ATOM      8  H5  UNL d   1      -0.774  -1.653   1.281  0.00  0.00     0.418 HD
ENDBRANCH   4   7
TORSDOF 1
ENDMDL
