MODEL 1
REMARK minimizedAffinity -3.23232794
REMARK minimizedRMSD -1
REMARK  1 active torsions:
REMARK  status: ('A' for Active; 'I' for Inactive)
REMARK    1  A    between atoms: C3_4  and  O_7 
ROOT
ATOM      1  C   UNL d   1      -0.684  -0.456   0.480  0.00  0.00    -0.033 A 
ATOM      2  C1  UNL d   1       0.155  -1.439   1.009  0.00  0.00     0.039 A 
ATOM      3  C2  UNL d   1       1.528  -1.207   1.108  0.00  0.00    -0.080 A 
ATOM      4  C3  UNL d   1       2.049   0.010   0.678  0.00  0.00     0.150 A 
ATOM      5  C4  UNL d   1       1.218   0.995   0.154  0.00  0.00    -0.007 A 
ATOM      6  C5  UNL d   1      -0.153   0.762   0.054  0.00  0.00     0.039 A 
ENDROOT
BRANCH   4   7
ATOM      7  O   UNL d   1       3.383   0.281   0.750  0.00  0.00    -0.526 OA
ATOM      8  H5  UNL d   1       3.836  -0.502   1.106  0.00  0.00     0.418 HD
ENDBRANCH   4   7
TORSDOF 1
ENDMDL
