MODEL 1
REMARK minimizedAffinity -3.2669611
REMARK minimizedRMSD -1
REMARK  1 active torsions:
REMARK  status: ('A' for Active; 'I' for Inactive)
REMARK    1  A    between atoms: C3_4  and  O_7 
ROOT
ATOM      1  C   UNL d   1      -0.587  -0.301   0.421  0.00  0.00    -0.033 A 
ATOM      2  C1  UNL d   1       0.186   0.856   0.312  0.00  0.00     0.039 A 
ATOM      3  C2  UNL d   1       1.580   0.770   0.325  0.00  0.00    -0.080 A 
ATOM      4  C3  UNL d   1       2.186  -0.477   0.448  0.00  0.00     0.150 A 
ATOM      5  C4  UNL d   1       1.422  -1.634   0.553  0.00  0.00    -0.007 A 
ATOM      6  C5  UNL d   1       0.031  -1.547   0.540  0.00  0.00     0.039 A 
ENDROOT
BRANCH   4   7
ATOM      7  O   UNL d   1       3.543  -0.611   0.470  0.00  0.00    -0.526 OA
ATOM      8  H5  UNL d   1       3.940   0.275   0.418  0.00  0.00     0.418 HD
ENDBRANCH   4   7
TORSDOF 1
ENDMDL
