MODEL 1
REMARK minimizedAffinity -4.91024256
REMARK minimizedRMSD -1
REMARK  0 active torsions:
REMARK  status: ('A' for Active; 'I' for Inactive)
ROOT
ATOM      1  C4' PXY d   1      -1.660  -0.319   0.966  0.00  0.00     0.077 C 
ATOM      2  C1' PXY d   1       2.859  -1.848  -2.299  0.00  0.00     0.077 C 
ATOM      3  C1  PXY d   1       1.682  -1.443  -1.434  0.00  0.00    -0.082 A 
ATOM      4  C2  PXY d   1       0.522  -2.062  -1.576  0.00  0.00     0.003 A 
ATOM      5  C3  PXY d   1      -0.562  -1.686  -0.824  0.00  0.00     0.003 A 
ATOM      6  C4  PXY d   1      -0.442  -0.702   0.120  0.00  0.00    -0.082 A 
ATOM      7  C5  PXY d   1       0.742  -0.073   0.279  0.00  0.00     0.003 A 
ATOM      8  C6  PXY d   1       1.818  -0.441  -0.523  0.00  0.00     0.003 A 
ENDROOT
TORSDOF 0
ENDMDL
