MODEL 1
REMARK minimizedAffinity -4.36542749
REMARK minimizedRMSD -1
REMARK  0 active torsions:
REMARK  status: ('A' for Active; 'I' for Inactive)
ROOT
ATOM      1  C4' PXY d   1      -2.412   1.188   2.940  0.00  0.00     0.077 C 
ATOM      2  C1' PXY d   1      -0.474  -2.207  -1.317  0.00  0.00     0.077 C 
ATOM      3  C1  PXY d   1      -0.992  -1.314  -0.208  0.00  0.00    -0.082 A 
ATOM      4  C2  PXY d   1      -0.146  -0.810   0.676  0.00  0.00     0.003 A 
ATOM      5  C3  PXY d   1      -0.603  -0.026   1.704  0.00  0.00     0.003 A 
ATOM      6  C4  PXY d   1      -1.932   0.289   1.798  0.00  0.00    -0.082 A 
ATOM      7  C5  PXY d   1      -2.800  -0.213   0.894  0.00  0.00     0.003 A 
ATOM      8  C6  PXY d   1      -2.322  -1.040  -0.118  0.00  0.00     0.003 A 
ENDROOT
TORSDOF 0
ENDMDL
