MODEL 1
REMARK minimizedAffinity -6.21550655
REMARK minimizedRMSD -1
REMARK  0 active torsions:
REMARK  status: ('A' for Active; 'I' for Inactive)
ROOT
ATOM      1  C4' PXY d   1      -0.702  -2.048  -0.380  0.00  0.00     0.077 C 
ATOM      2  C1' PXY d   1      -3.420   2.322   2.253  0.00  0.00     0.077 C 
ATOM      3  C1  PXY d   1      -2.718   1.168   1.563  0.00  0.00    -0.082 A 
ATOM      4  C2  PXY d   1      -1.396   1.101   1.584  0.00  0.00     0.003 A 
ATOM      5  C3  PXY d   1      -0.744   0.082   0.938  0.00  0.00     0.003 A 
ATOM      6  C4  PXY d   1      -1.453  -0.907   0.310  0.00  0.00    -0.082 A 
ATOM      7  C5  PXY d   1      -2.802  -0.851   0.294  0.00  0.00     0.003 A 
ATOM      8  C6  PXY d   1      -3.444   0.214   0.920  0.00  0.00     0.003 A 
ENDROOT
TORSDOF 0
ENDMDL
