MODEL 1
REMARK minimizedAffinity -4.69312525
REMARK minimizedRMSD -1
REMARK  0 active torsions:
REMARK  status: ('A' for Active; 'I' for Inactive)
ROOT
ATOM      1  C4' PXY d   1       0.128  -0.807   1.877  0.00  0.00     0.077 C 
ATOM      2  C1' PXY d   1      -5.400   0.868   1.655  0.00  0.00     0.077 C 
ATOM      3  C1  PXY d   1      -3.954   0.417   1.709  0.00  0.00    -0.082 A 
ATOM      4  C2  PXY d   1      -3.111   1.018   2.533  0.00  0.00     0.003 A 
ATOM      5  C3  PXY d   1      -1.793   0.644   2.571  0.00  0.00     0.003 A 
ATOM      6  C4  PXY d   1      -1.343  -0.391   1.796  0.00  0.00    -0.082 A 
ATOM      7  C5  PXY d   1      -2.199  -1.017   0.961  0.00  0.00     0.003 A 
ATOM      8  C6  PXY d   1      -3.525  -0.595   0.907  0.00  0.00     0.003 A 
ENDROOT
TORSDOF 0
ENDMDL
