MODEL 1
REMARK minimizedAffinity -4.82502937
REMARK minimizedRMSD -1
REMARK  0 active torsions:
REMARK  status: ('A' for Active; 'I' for Inactive)
ROOT
ATOM      1  C4' PXY d   1      -2.289  -0.517   0.785  0.00  0.00     0.077 C 
ATOM      2  C1' PXY d   1       2.801  -2.488  -1.117  0.00  0.00     0.077 C 
ATOM      3  C1  PXY d   1       1.472  -1.968  -0.607  0.00  0.00    -0.082 A 
ATOM      4  C2  PXY d   1       0.347  -2.412  -1.143  0.00  0.00     0.003 A 
ATOM      5  C3  PXY d   1      -0.863  -1.928  -0.716  0.00  0.00     0.003 A 
ATOM      6  C4  PXY d   1      -0.924  -1.021   0.308  0.00  0.00    -0.082 A 
ATOM      7  C5  PXY d   1       0.219  -0.572   0.867  0.00  0.00     0.003 A 
ATOM      8  C6  PXY d   1       1.439  -1.044   0.391  0.00  0.00     0.003 A 
ENDROOT
TORSDOF 0
ENDMDL
