MODEL 1
REMARK minimizedAffinity -5.89781904
REMARK minimizedRMSD -1
REMARK  0 active torsions:
REMARK  status: ('A' for Active; 'I' for Inactive)
ROOT
ATOM      1  C4' PXY d   1       0.242  -1.562  -1.230  0.00  0.00     0.077 C 
ATOM      2  C1' PXY d   1      -2.259   1.107   3.247  0.00  0.00     0.077 C 
ATOM      3  C1  PXY d   1      -1.615   0.403   2.069  0.00  0.00    -0.082 A 
ATOM      4  C2  PXY d   1      -0.347   0.031   2.142  0.00  0.00     0.003 A 
ATOM      5  C3  PXY d   1       0.260  -0.579   1.075  0.00  0.00     0.003 A 
ATOM      6  C4  PXY d   1      -0.452  -0.857  -0.061  0.00  0.00    -0.082 A 
ATOM      7  C5  PXY d   1      -1.749  -0.490  -0.140  0.00  0.00     0.003 A 
ATOM      8  C6  PXY d   1      -2.335   0.164   0.940  0.00  0.00     0.003 A 
ENDROOT
TORSDOF 0
ENDMDL
