MODEL 1
REMARK minimizedAffinity -0.468238771
REMARK minimizedRMSD -1
REMARK  0 active torsions:
REMARK  status: ('A' for Active; 'I' for Inactive)
ROOT
ATOM      1  C4' PXY d   1      -0.602  -1.634  -1.727  0.00  0.00     0.077 C 
ATOM      2  C1' PXY d   1      -2.729  -0.445   3.515  0.00  0.00     0.077 C 
ATOM      3  C1  PXY d   1      -2.180  -0.766   2.139  0.00  0.00    -0.082 A 
ATOM      4  C2  PXY d   1      -0.948  -0.399   1.824  0.00  0.00     0.003 A 
ATOM      5  C3  PXY d   1      -0.447  -0.653   0.574  0.00  0.00     0.003 A 
ATOM      6  C4  PXY d   1      -1.195  -1.338  -0.346  0.00  0.00    -0.082 A 
ATOM      7  C5  PXY d   1      -2.448  -1.726  -0.029  0.00  0.00     0.003 A 
ATOM      8  C6  PXY d   1      -2.953  -1.422   1.232  0.00  0.00     0.003 A 
ENDROOT
TORSDOF 0
ENDMDL
