MODEL 1
REMARK minimizedAffinity -1.99241793
REMARK minimizedRMSD -1
REMARK  0 active torsions:
REMARK  status: ('A' for Active; 'I' for Inactive)
ROOT
ATOM      1  C4' PXY d   1       0.718  -1.600   2.130  0.00  0.00     0.077 C 
ATOM      2  C1' PXY d   1      -4.143   0.725   0.038  0.00  0.00     0.077 C 
ATOM      3  C1  PXY d   1      -2.869   0.107   0.577  0.00  0.00    -0.082 A 
ATOM      4  C2  PXY d   1      -2.540   0.287   1.846  0.00  0.00     0.003 A 
ATOM      5  C3  PXY d   1      -1.375  -0.239   2.342  0.00  0.00     0.003 A 
ATOM      6  C4  PXY d   1      -0.564  -1.002   1.545  0.00  0.00    -0.082 A 
ATOM      7  C5  PXY d   1      -0.898  -1.199   0.252  0.00  0.00     0.003 A 
ATOM      8  C6  PXY d   1      -2.064  -0.622  -0.243  0.00  0.00     0.003 A 
ENDROOT
TORSDOF 0
ENDMDL
