MODEL 1
REMARK minimizedAffinity -2.67305398
REMARK minimizedRMSD -1
REMARK  0 active torsions:
REMARK  status: ('A' for Active; 'I' for Inactive)
ROOT
ATOM      1  C4' PXY d   1       0.107  -1.818  -2.492  0.00  0.00     0.077 C 
ATOM      2  C1' PXY d   1      -2.185  -0.178   2.556  0.00  0.00     0.077 C 
ATOM      3  C1  PXY d   1      -1.581  -0.620   1.237  0.00  0.00    -0.082 A 
ATOM      4  C2  PXY d   1      -1.175   0.290   0.367  0.00  0.00     0.003 A 
ATOM      5  C3  PXY d   1      -0.655  -0.091  -0.844  0.00  0.00     0.003 A 
ATOM      6  C4  PXY d   1      -0.501  -1.418  -1.144  0.00  0.00    -0.082 A 
ATOM      7  C5  PXY d   1      -0.903  -2.353  -0.257  0.00  0.00     0.003 A 
ATOM      8  C6  PXY d   1      -1.465  -1.945   0.949  0.00  0.00     0.003 A 
ENDROOT
TORSDOF 0
ENDMDL
