MODEL 1
REMARK minimizedAffinity 0.0474816859
REMARK minimizedRMSD -1
REMARK  0 active torsions:
REMARK  status: ('A' for Active; 'I' for Inactive)
ROOT
ATOM      1  C4' PXY d   1      -0.755  -1.304  -1.655  0.00  0.00     0.077 C 
ATOM      2  C1' PXY d   1      -1.680   1.185   3.480  0.00  0.00     0.077 C 
ATOM      3  C1  PXY d   1      -1.436   0.521   2.139  0.00  0.00    -0.082 A 
ATOM      4  C2  PXY d   1      -0.975   1.238   1.127  0.00  0.00     0.003 A 
ATOM      5  C3  PXY d   1      -0.779   0.661  -0.101  0.00  0.00     0.003 A 
ATOM      6  C4  PXY d   1      -1.007  -0.677  -0.281  0.00  0.00    -0.082 A 
ATOM      7  C5  PXY d   1      -1.468  -1.419   0.749  0.00  0.00     0.003 A 
ATOM      8  C6  PXY d   1      -1.699  -0.804   1.976  0.00  0.00     0.003 A 
ENDROOT
TORSDOF 0
ENDMDL
