MODEL 1
REMARK minimizedAffinity -3.94534254
REMARK minimizedRMSD -1
REMARK  0 active torsions:
REMARK  status: ('A' for Active; 'I' for Inactive)
ROOT
ATOM      1  C4' PXY d   1       1.467  -1.188   2.050  0.00  0.00     0.077 C 
ATOM      2  C1' PXY d   1      -4.018   0.062   0.718  0.00  0.00     0.077 C 
ATOM      3  C1  PXY d   1      -2.580  -0.275   1.058  0.00  0.00    -0.082 A 
ATOM      4  C2  PXY d   1      -2.090   0.064   2.240  0.00  0.00     0.003 A 
ATOM      5  C3  PXY d   1      -0.782  -0.205   2.552  0.00  0.00     0.003 A 
ATOM      6  C4  PXY d   1       0.017  -0.876   1.666  0.00  0.00    -0.082 A 
ATOM      7  C5  PXY d   1      -0.478  -1.235   0.463  0.00  0.00     0.003 A 
ATOM      8  C6  PXY d   1      -1.796  -0.916   0.149  0.00  0.00     0.003 A 
ENDROOT
TORSDOF 0
ENDMDL
