MODEL 1
REMARK minimizedAffinity -0.490573764
REMARK minimizedRMSD -1
REMARK  0 active torsions:
REMARK  status: ('A' for Active; 'I' for Inactive)
ROOT
ATOM      1  C   UNL d   1       6.000   3.434   4.124  0.00  0.00     0.172 C 
ATOM      2  N   UNL d   1       5.287   2.207   3.856  0.00  0.00    -0.070 N 
ATOM      3  C1  UNL d   1       5.181   1.142   4.711  0.00  0.00    -0.004 A 
ATOM      4  C2  UNL d   1       4.424   0.174   4.088  0.00  0.00    -0.047 A 
ATOM      5  C3  UNL d   1       4.064   0.673   2.814  0.00  0.00    -0.047 A 
ATOM      6  C4  UNL d   1       4.612   1.933   2.696  0.00  0.00    -0.004 A 
ENDROOT
TORSDOF 0
ENDMDL
