MODEL 1
REMARK minimizedAffinity -0.0691412538
REMARK minimizedRMSD -1
REMARK  0 active torsions:
REMARK  status: ('A' for Active; 'I' for Inactive)
ROOT
ATOM      1  C   UNL d   1       4.438   2.644   2.634  0.00  0.00     0.172 C 
ATOM      2  N   UNL d   1       5.073   1.688   3.511  0.00  0.00    -0.070 N 
ATOM      3  C1  UNL d   1       5.423   1.912   4.816  0.00  0.00    -0.004 A 
ATOM      4  C2  UNL d   1       6.000   0.758   5.301  0.00  0.00    -0.047 A 
ATOM      5  C3  UNL d   1       5.998  -0.191   4.252  0.00  0.00    -0.047 A 
ATOM      6  C4  UNL d   1       5.418   0.411   3.155  0.00  0.00    -0.004 A 
ENDROOT
TORSDOF 0
ENDMDL
