MODEL 1
REMARK minimizedAffinity -2.41205072
REMARK minimizedRMSD -1
REMARK  0 active torsions:
REMARK  status: ('A' for Active; 'I' for Inactive)
ROOT
ATOM      1  C   UNL d   1       4.801   1.692   3.000  0.00  0.00     0.172 C 
ATOM      2  N   UNL d   1       4.966   0.824   4.142  0.00  0.00    -0.070 N 
ATOM      3  C1  UNL d   1       4.122  -0.193   4.500  0.00  0.00    -0.004 A 
ATOM      4  C2  UNL d   1       4.626  -0.778   5.642  0.00  0.00    -0.047 A 
ATOM      5  C3  UNL d   1       5.813  -0.087   5.982  0.00  0.00    -0.047 A 
ATOM      6  C4  UNL d   1       6.000   0.899   5.038  0.00  0.00    -0.004 A 
ENDROOT
TORSDOF 0
ENDMDL
