MODEL 1
REMARK minimizedAffinity 2.85046864
REMARK minimizedRMSD -1
REMARK  0 active torsions:
REMARK  status: ('A' for Active; 'I' for Inactive)
ROOT
ATOM      1  C   UNL d   1       2.729  -0.836   4.518  0.00  0.00     0.172 C 
ATOM      2  N   UNL d   1       4.059  -0.312   4.717  0.00  0.00    -0.070 N 
ATOM      3  C1  UNL d   1       4.788  -0.400   5.873  0.00  0.00    -0.004 A 
ATOM      4  C2  UNL d   1       6.000   0.219   5.657  0.00  0.00    -0.047 A 
ATOM      5  C3  UNL d   1       5.999   0.697   4.325  0.00  0.00    -0.047 A 
ATOM      6  C4  UNL d   1       4.786   0.355   3.766  0.00  0.00    -0.004 A 
ENDROOT
TORSDOF 0
ENDMDL
