MODEL 1
REMARK minimizedAffinity 1.95932722
REMARK minimizedRMSD -1
REMARK  0 active torsions:
REMARK  status: ('A' for Active; 'I' for Inactive)
ROOT
ATOM      1  C   UNL d   1      -2.426  -1.851   0.901  0.00  0.00     0.172 C 
ATOM      2  N   UNL d   1      -2.854  -1.297   2.164  0.00  0.00    -0.070 N 
ATOM      3  C1  UNL d   1      -4.037  -1.572   2.797  0.00  0.00    -0.004 A 
ATOM      4  C2  UNL d   1      -4.067  -0.849   3.969  0.00  0.00    -0.047 A 
ATOM      5  C3  UNL d   1      -2.861  -0.113   4.043  0.00  0.00    -0.047 A 
ATOM      6  C4  UNL d   1      -2.129  -0.409   2.913  0.00  0.00    -0.004 A 
ENDROOT
TORSDOF 0
ENDMDL
