MODEL 1
REMARK minimizedAffinity 3.30888629
REMARK minimizedRMSD -1
REMARK  0 active torsions:
REMARK  status: ('A' for Active; 'I' for Inactive)
ROOT
ATOM      1  C   UNL d   1       4.126   2.771   2.313  0.00  0.00     0.172 C 
ATOM      2  N   UNL d   1       4.741   1.743   3.119  0.00  0.00    -0.070 N 
ATOM      3  C1  UNL d   1       4.520   0.397   3.001  0.00  0.00    -0.004 A 
ATOM      4  C2  UNL d   1       5.291  -0.242   3.948  0.00  0.00    -0.047 A 
ATOM      5  C3  UNL d   1       6.000   0.755   4.660  0.00  0.00    -0.047 A 
ATOM      6  C4  UNL d   1       5.640   1.974   4.126  0.00  0.00    -0.004 A 
ENDROOT
TORSDOF 0
ENDMDL
