MODEL 1
REMARK minimizedAffinity -3.20279408
REMARK minimizedRMSD -1
REMARK  0 active torsions:
REMARK  status: ('A' for Active; 'I' for Inactive)
ROOT
ATOM      1  C   UNL d   1      -2.431   2.404   1.925  0.00  0.00     0.172 C 
ATOM      2  N   UNL d   1      -2.958   1.118   1.535  0.00  0.00    -0.070 N 
ATOM      3  C1  UNL d   1      -3.637   0.851   0.376  0.00  0.00    -0.004 A 
ATOM      4  C2  UNL d   1      -3.968  -0.487   0.379  0.00  0.00    -0.047 A 
ATOM      5  C3  UNL d   1      -3.471  -1.043   1.581  0.00  0.00    -0.047 A 
ATOM      6  C4  UNL d   1      -2.850  -0.028   2.278  0.00  0.00    -0.004 A 
ENDROOT
TORSDOF 0
ENDMDL
