MODEL 1
REMARK minimizedAffinity -0.582693875
REMARK minimizedRMSD -1
REMARK  0 active torsions:
REMARK  status: ('A' for Active; 'I' for Inactive)
ROOT
ATOM      1  C   UNL d   1       3.662   2.536   2.369  0.00  0.00     0.172 C 
ATOM      2  N   UNL d   1       4.376   1.832   3.408  0.00  0.00    -0.070 N 
ATOM      3  C1  UNL d   1       5.485   2.292   4.067  0.00  0.00    -0.004 A 
ATOM      4  C2  UNL d   1       5.862   1.331   4.980  0.00  0.00    -0.047 A 
ATOM      5  C3  UNL d   1       4.949   0.257   4.865  0.00  0.00    -0.047 A 
ATOM      6  C4  UNL d   1       4.039   0.593   3.885  0.00  0.00    -0.004 A 
ENDROOT
TORSDOF 0
ENDMDL
