MODEL 1
REMARK minimizedAffinity 0.0763973296
REMARK minimizedRMSD -1
REMARK  0 active torsions:
REMARK  status: ('A' for Active; 'I' for Inactive)
ROOT
ATOM      1  C   UNL d   1       2.511   2.997  -5.966  0.00  0.00     0.172 C 
ATOM      2  N   UNL d   1       3.894   2.704  -5.672  0.00  0.00    -0.070 N 
ATOM      3  C1  UNL d   1       4.549   1.543  -5.988  0.00  0.00    -0.004 A 
ATOM      4  C2  UNL d   1       5.848   1.656  -5.540  0.00  0.00    -0.047 A 
ATOM      5  C3  UNL d   1       5.977   2.929  -4.934  0.00  0.00    -0.047 A 
ATOM      6  C4  UNL d   1       4.753   3.556  -5.030  0.00  0.00    -0.004 A 
ENDROOT
TORSDOF 0
ENDMDL
