MODEL 1
REMARK minimizedAffinity -2.78116179
REMARK minimizedRMSD -1
REMARK  0 active torsions:
REMARK  status: ('A' for Active; 'I' for Inactive)
ROOT
ATOM      1  C   UNL d   1       2.935  -0.133   2.184  0.00  0.00     0.172 C 
ATOM      2  N   UNL d   1       4.082  -0.160   3.062  0.00  0.00    -0.070 N 
ATOM      3  C1  UNL d   1       4.698  -1.287   3.536  0.00  0.00    -0.004 A 
ATOM      4  C2  UNL d   1       5.746  -0.889   4.338  0.00  0.00    -0.047 A 
ATOM      5  C3  UNL d   1       5.760   0.526   4.346  0.00  0.00    -0.047 A 
ATOM      6  C4  UNL d   1       4.719   0.951   3.548  0.00  0.00    -0.004 A 
ENDROOT
TORSDOF 0
ENDMDL
