MODEL 1
REMARK minimizedAffinity 1.01246941
REMARK minimizedRMSD -1
REMARK  0 active torsions:
REMARK  status: ('A' for Active; 'I' for Inactive)
ROOT
ATOM      1  C   UNL d   1      -3.384   0.810  -0.249  0.00  0.00     0.172 C 
ATOM      2  N   UNL d   1      -3.206   2.111   0.353  0.00  0.00    -0.070 N 
ATOM      3  C1  UNL d   1      -3.752   3.282  -0.102  0.00  0.00    -0.004 A 
ATOM      4  C2  UNL d   1      -3.347   4.292   0.743  0.00  0.00    -0.047 A 
ATOM      5  C3  UNL d   1      -2.528   3.708   1.740  0.00  0.00    -0.047 A 
ATOM      6  C4  UNL d   1      -2.458   2.357   1.474  0.00  0.00    -0.004 A 
ENDROOT
TORSDOF 0
ENDMDL
