MODEL 1
REMARK minimizedAffinity -0.667123199
REMARK minimizedRMSD -1
REMARK  0 active torsions:
REMARK  status: ('A' for Active; 'I' for Inactive)
ROOT
ATOM      1  C   UNL d   1      -5.999  -1.569   3.013  0.00  0.00     0.172 C 
ATOM      2  N   UNL d   1      -4.815  -0.747   3.102  0.00  0.00    -0.070 N 
ATOM      3  C1  UNL d   1      -4.116  -0.236   2.042  0.00  0.00    -0.004 A 
ATOM      4  C2  UNL d   1      -3.057   0.490   2.544  0.00  0.00    -0.047 A 
ATOM      5  C3  UNL d   1      -3.122   0.411   3.956  0.00  0.00    -0.047 A 
ATOM      6  C4  UNL d   1      -4.220  -0.360   4.274  0.00  0.00    -0.004 A 
ENDROOT
TORSDOF 0
ENDMDL
