MODEL 1
REMARK minimizedAffinity -2.83578444
REMARK minimizedRMSD -1
REMARK  0 active torsions:
REMARK  status: ('A' for Active; 'I' for Inactive)
ROOT
ATOM      1  C   UNL d   1       0.820  -4.930   1.098  0.00  0.00     0.172 C 
ATOM      2  N   UNL d   1       0.817  -3.519   0.791  0.00  0.00    -0.070 N 
ATOM      3  C1  UNL d   1      -0.197  -2.839   0.171  0.00  0.00    -0.004 A 
ATOM      4  C2  UNL d   1       0.184  -1.519   0.063  0.00  0.00    -0.047 A 
ATOM      5  C3  UNL d   1       1.473  -1.402   0.636  0.00  0.00    -0.047 A 
ATOM      6  C4  UNL d   1       1.841  -2.655   1.079  0.00  0.00    -0.004 A 
ENDROOT
TORSDOF 0
ENDMDL
