MODEL 1
REMARK minimizedAffinity -2.45618248
REMARK minimizedRMSD -1
REMARK  0 active torsions:
REMARK  status: ('A' for Active; 'I' for Inactive)
ROOT
ATOM      1  C   UNL d   1       6.000   1.111   4.978  0.00  0.00     0.172 C 
ATOM      2  N   UNL d   1       4.912   0.727   4.110  0.00  0.00    -0.070 N 
ATOM      3  C1  UNL d   1       4.501   1.408   2.995  0.00  0.00    -0.004 A 
ATOM      4  C2  UNL d   1       3.440   0.720   2.447  0.00  0.00    -0.047 A 
ATOM      5  C3  UNL d   1       3.204  -0.413   3.262  0.00  0.00    -0.047 A 
ATOM      6  C4  UNL d   1       4.129  -0.384   4.284  0.00  0.00    -0.004 A 
ENDROOT
TORSDOF 0
ENDMDL
