MODEL 1
REMARK minimizedAffinity 0.271687597
REMARK minimizedRMSD -1
REMARK  0 active torsions:
REMARK  status: ('A' for Active; 'I' for Inactive)
ROOT
ATOM      1  C   UNL d   1       6.000   0.846   5.398  0.00  0.00     0.172 C 
ATOM      2  N   UNL d   1       5.101   0.776   4.269  0.00  0.00    -0.070 N 
ATOM      3  C1  UNL d   1       4.608   1.847   3.574  0.00  0.00    -0.004 A 
ATOM      4  C2  UNL d   1       3.791   1.363   2.576  0.00  0.00    -0.047 A 
ATOM      5  C3  UNL d   1       3.792  -0.049   2.676  0.00  0.00    -0.047 A 
ATOM      6  C4  UNL d   1       4.611  -0.385   3.733  0.00  0.00    -0.004 A 
ENDROOT
TORSDOF 0
ENDMDL
