MODEL 1
REMARK minimizedAffinity -0.561818838
REMARK minimizedRMSD -1
REMARK  0 active torsions:
REMARK  status: ('A' for Active; 'I' for Inactive)
ROOT
ATOM      1  C   UNL d   1      -3.050  -0.692   1.462  0.00  0.00     0.172 C 
ATOM      2  N   UNL d   1      -2.770   0.620   0.927  0.00  0.00    -0.070 N 
ATOM      3  C1  UNL d   1      -2.605   0.923  -0.398  0.00  0.00    -0.004 A 
ATOM      4  C2  UNL d   1      -2.354   2.274  -0.494  0.00  0.00    -0.047 A 
ATOM      5  C3  UNL d   1      -2.368   2.802   0.819  0.00  0.00    -0.047 A 
ATOM      6  C4  UNL d   1      -2.628   1.756   1.679  0.00  0.00    -0.004 A 
ENDROOT
TORSDOF 0
ENDMDL
