MODEL 1
REMARK minimizedAffinity -3.09347892
REMARK minimizedRMSD -1
REMARK  0 active torsions:
REMARK  status: ('A' for Active; 'I' for Inactive)
ROOT
ATOM      1  C   UNL d   1       5.630   0.748   5.727  0.00  0.00     0.172 C 
ATOM      2  N   UNL d   1       4.849   0.527   4.533  0.00  0.00    -0.070 N 
ATOM      3  C1  UNL d   1       4.566   1.467   3.579  0.00  0.00    -0.004 A 
ATOM      4  C2  UNL d   1       3.800   0.862   2.605  0.00  0.00    -0.047 A 
ATOM      5  C3  UNL d   1       3.615  -0.487   2.989  0.00  0.00    -0.047 A 
ATOM      6  C4  UNL d   1       4.275  -0.668   4.186  0.00  0.00    -0.004 A 
ENDROOT
TORSDOF 0
ENDMDL
