MODEL 1
REMARK minimizedAffinity 2.65903568
REMARK minimizedRMSD -1
REMARK  0 active torsions:
REMARK  status: ('A' for Active; 'I' for Inactive)
ROOT
ATOM      1  C   UNL d   1       2.896  -0.728   4.501  0.00  0.00     0.172 C 
ATOM      2  N   UNL d   1       4.158  -0.048   4.327  0.00  0.00    -0.070 N 
ATOM      3  C1  UNL d   1       4.847   0.619   5.305  0.00  0.00    -0.004 A 
ATOM      4  C2  UNL d   1       5.997   1.125   4.740  0.00  0.00    -0.047 A 
ATOM      5  C3  UNL d   1       6.000   0.750   3.375  0.00  0.00    -0.047 A 
ATOM      6  C4  UNL d   1       4.850   0.024   3.147  0.00  0.00    -0.004 A 
ENDROOT
TORSDOF 0
ENDMDL
