MODEL 1
REMARK minimizedAffinity -2.55310082
REMARK minimizedRMSD -1
REMARK  0 active torsions:
REMARK  status: ('A' for Active; 'I' for Inactive)
ROOT
ATOM      1  C   UNL d   1       5.989   0.807   5.303  0.00  0.00     0.172 C 
ATOM      2  N   UNL d   1       4.967   0.582   4.308  0.00  0.00    -0.070 N 
ATOM      3  C1  UNL d   1       4.578   1.477   3.347  0.00  0.00    -0.004 A 
ATOM      4  C2  UNL d   1       3.583   0.887   2.599  0.00  0.00    -0.047 A 
ATOM      5  C3  UNL d   1       3.366  -0.407   3.128  0.00  0.00    -0.047 A 
ATOM      6  C4  UNL d   1       4.236  -0.570   4.185  0.00  0.00    -0.004 A 
ENDROOT
TORSDOF 0
ENDMDL
