MODEL 1
REMARK minimizedAffinity 2.05122328
REMARK minimizedRMSD -1
REMARK  0 active torsions:
REMARK  status: ('A' for Active; 'I' for Inactive)
ROOT
ATOM      1  C   UNL d   1       5.998   1.662  -5.708  0.00  0.00     0.172 C 
ATOM      2  N   UNL d   1       4.776   2.429  -5.654  0.00  0.00    -0.070 N 
ATOM      3  C1  UNL d   1       3.532   1.973  -6.000  0.00  0.00    -0.004 A 
ATOM      4  C2  UNL d   1       2.636   3.003  -5.807  0.00  0.00    -0.047 A 
ATOM      5  C3  UNL d   1       3.368   4.116  -5.330  0.00  0.00    -0.047 A 
ATOM      6  C4  UNL d   1       4.689   3.733  -5.244  0.00  0.00    -0.004 A 
ENDROOT
TORSDOF 0
ENDMDL
