MODEL 1
REMARK minimizedAffinity 6.05797291
REMARK minimizedRMSD -1
REMARK  0 active torsions:
REMARK  status: ('A' for Active; 'I' for Inactive)
ROOT
ATOM      1  C   UNL d   1      -1.863  -0.415   3.450  0.00  0.00     0.023 A 
ATOM      2  C1  UNL d   1      -2.239   0.025   2.181  0.00  0.00     0.003 A 
ATOM      3  C2  UNL d   1      -1.301   0.068   1.148  0.00  0.00     0.048 A 
ATOM      4  C3  UNL d   1       0.013  -0.332   1.391  0.00  0.00     0.023 A 
ATOM      5  C4  UNL d   1       0.394  -0.775   2.658  0.00  0.00     0.048 A 
ATOM      6  C5  UNL d   1      -0.548  -0.815   3.688  0.00  0.00     0.003 A 
ATOM      7  I   UNL d   1       1.412  -0.270  -0.145  0.00  0.00    -0.146 I 
ENDROOT
TORSDOF 0
ENDMDL
