MODEL 1
REMARK minimizedAffinity 9.72815895
REMARK minimizedRMSD -1
REMARK  0 active torsions:
REMARK  status: ('A' for Active; 'I' for Inactive)
ROOT
ATOM      1  C   UNL d   1      -3.476   0.106   1.192  0.00  0.00     0.023 A 
ATOM      2  C1  UNL d   1      -2.478   0.027   2.164  0.00  0.00     0.003 A 
ATOM      3  C2  UNL d   1      -1.134  -0.007   1.786  0.00  0.00     0.048 A 
ATOM      4  C3  UNL d   1      -0.795   0.039   0.434  0.00  0.00     0.023 A 
ATOM      5  C4  UNL d   1      -1.790   0.118  -0.542  0.00  0.00     0.048 A 
ATOM      6  C5  UNL d   1      -3.132   0.151  -0.159  0.00  0.00     0.003 A 
ATOM      7  I   UNL d   1       1.204  -0.011  -0.132  0.00  0.00    -0.146 I 
ENDROOT
TORSDOF 0
ENDMDL
