MODEL 1
REMARK minimizedAffinity 8.64464474
REMARK minimizedRMSD -1
REMARK  0 active torsions:
REMARK  status: ('A' for Active; 'I' for Inactive)
ROOT
ATOM      1  C   UNL d   1      -2.951   0.051   1.916  0.00  0.00     0.023 A 
ATOM      2  C1  UNL d   1      -2.781   0.273   0.549  0.00  0.00     0.003 A 
ATOM      3  C2  UNL d   1      -1.513   0.164  -0.025  0.00  0.00     0.048 A 
ATOM      4  C3  UNL d   1      -0.419  -0.169   0.773  0.00  0.00     0.023 A 
ATOM      5  C4  UNL d   1      -0.584  -0.393   2.140  0.00  0.00     0.048 A 
ATOM      6  C5  UNL d   1      -1.853  -0.282   2.711  0.00  0.00     0.003 A 
ATOM      7  I   UNL d   1       1.469  -0.333  -0.080  0.00  0.00    -0.146 I 
ENDROOT
TORSDOF 0
ENDMDL
