MODEL 1
REMARK minimizedAffinity 6.35220718
REMARK minimizedRMSD -1
REMARK  0 active torsions:
REMARK  status: ('A' for Active; 'I' for Inactive)
ROOT
ATOM      1  C   UNL d   1      -0.302  -0.215  -2.164  0.00  0.00     0.023 A 
ATOM      2  C1  UNL d   1      -0.224  -0.147  -0.773  0.00  0.00     0.003 A 
ATOM      3  C2  UNL d   1       0.731   0.669  -0.164  0.00  0.00     0.048 A 
ATOM      4  C3  UNL d   1       1.606   1.416  -0.953  0.00  0.00     0.023 A 
ATOM      5  C4  UNL d   1       1.532   1.352  -2.345  0.00  0.00     0.048 A 
ATOM      6  C5  UNL d   1       0.575   0.534  -2.949  0.00  0.00     0.003 A 
ATOM      7  I   UNL d   1       3.029   2.632  -0.050  0.00  0.00    -0.146 I 
ENDROOT
TORSDOF 0
ENDMDL
