MODEL 1
REMARK minimizedAffinity -3.80100584
REMARK minimizedRMSD -1
REMARK  0 active torsions:
REMARK  status: ('A' for Active; 'I' for Inactive)
ROOT
ATOM      1  C   UNL d   1      -0.027   0.553   4.526  0.00  0.00     0.023 A 
ATOM      2  C1  UNL d   1       0.629  -0.050   3.452  0.00  0.00     0.003 A 
ATOM      3  C2  UNL d   1       0.046  -0.042   2.183  0.00  0.00     0.048 A 
ATOM      4  C3  UNL d   1      -1.192   0.571   1.995  0.00  0.00     0.023 A 
ATOM      5  C4  UNL d   1      -1.851   1.176   3.066  0.00  0.00     0.048 A 
ATOM      6  C5  UNL d   1      -1.265   1.165   4.333  0.00  0.00     0.003 A 
ATOM      7  I   UNL d   1      -2.061   0.583   0.107  0.00  0.00    -0.146 I 
ENDROOT
TORSDOF 0
ENDMDL
