MODEL 1
REMARK minimizedAffinity 1.19825184
REMARK minimizedRMSD -1
REMARK  0 active torsions:
REMARK  status: ('A' for Active; 'I' for Inactive)
ROOT
ATOM      1  C   UNL d   1      -1.733  -0.296   3.379  0.00  0.00     0.023 A 
ATOM      2  C1  UNL d   1      -2.101   0.317   2.181  0.00  0.00     0.003 A 
ATOM      3  C2  UNL d   1      -1.190   0.391   1.125  0.00  0.00     0.048 A 
ATOM      4  C3  UNL d   1       0.087  -0.150   1.274  0.00  0.00     0.023 A 
ATOM      5  C4  UNL d   1       0.459  -0.765   2.470  0.00  0.00     0.048 A 
ATOM      6  C5  UNL d   1      -0.455  -0.836   3.523  0.00  0.00     0.003 A 
ATOM      7  I   UNL d   1       1.444  -0.040  -0.296  0.00  0.00    -0.146 I 
ENDROOT
TORSDOF 0
ENDMDL
