MODEL 1
REMARK minimizedAffinity 1.55475903
REMARK minimizedRMSD -1
REMARK  0 active torsions:
REMARK  status: ('A' for Active; 'I' for Inactive)
ROOT
ATOM      1  C   UNL d   1      -1.887   0.308   0.630  0.00  0.00     0.023 A 
ATOM      2  C1  UNL d   1      -2.466   0.175   1.892  0.00  0.00     0.003 A 
ATOM      3  C2  UNL d   1      -1.691  -0.236   2.978  0.00  0.00     0.048 A 
ATOM      4  C3  UNL d   1      -0.336  -0.512   2.795  0.00  0.00     0.023 A 
ATOM      5  C4  UNL d   1       0.248  -0.380   1.534  0.00  0.00     0.048 A 
ATOM      6  C5  UNL d   1      -0.532   0.031   0.451  0.00  0.00     0.003 A 
ATOM      7  I   UNL d   1       0.820  -1.125   4.410  0.00  0.00    -0.146 I 
ENDROOT
TORSDOF 0
ENDMDL
