MODEL 1
REMARK minimizedAffinity 1.84503877
REMARK minimizedRMSD -1
REMARK  0 active torsions:
REMARK  status: ('A' for Active; 'I' for Inactive)
ROOT
ATOM      1  C   UNL d   1      -1.458  -0.096   0.609  0.00  0.00     0.023 A 
ATOM      2  C1  UNL d   1      -2.149   0.033   1.814  0.00  0.00     0.003 A 
ATOM      3  C2  UNL d   1      -1.568  -0.411   3.004  0.00  0.00     0.048 A 
ATOM      4  C3  UNL d   1      -0.296  -0.982   2.982  0.00  0.00     0.023 A 
ATOM      5  C4  UNL d   1       0.399  -1.112   1.779  0.00  0.00     0.048 A 
ATOM      6  C5  UNL d   1      -0.186  -0.668   0.591  0.00  0.00     0.003 A 
ATOM      7  I   UNL d   1       0.570  -1.643   4.752  0.00  0.00    -0.146 I 
ENDROOT
TORSDOF 0
ENDMDL
