MODEL 1
REMARK minimizedAffinity -0.617636502
REMARK minimizedRMSD -1
REMARK  0 active torsions:
REMARK  status: ('A' for Active; 'I' for Inactive)
ROOT
ATOM      1  C   UNL d   1      -1.915   0.081   0.243  0.00  0.00     0.023 A 
ATOM      2  C1  UNL d   1      -0.627  -0.446   0.154  0.00  0.00     0.003 A 
ATOM      3  C2  UNL d   1       0.055  -0.827   1.311  0.00  0.00     0.048 A 
ATOM      4  C3  UNL d   1      -0.558  -0.679   2.555  0.00  0.00     0.023 A 
ATOM      5  C4  UNL d   1      -1.848  -0.152   2.649  0.00  0.00     0.048 A 
ATOM      6  C5  UNL d   1      -2.525   0.228   1.489  0.00  0.00     0.003 A 
ATOM      7  I   UNL d   1       0.454  -1.245   4.279  0.00  0.00    -0.146 I 
ENDROOT
TORSDOF 0
ENDMDL
