MODEL 1
REMARK minimizedAffinity 12.9742002
REMARK minimizedRMSD -1
REMARK  0 active torsions:
REMARK  status: ('A' for Active; 'I' for Inactive)
ROOT
ATOM      1  N1  IND d   1      -4.349  -2.442  -4.830  0.00  0.00    -0.196 N 
ATOM      2  C2  IND d   1      -5.528  -2.706  -5.469  0.00  0.00     0.054 A 
ATOM      3  C3  IND d   1      -5.514  -3.956  -5.985  0.00  0.00    -0.031 A 
ATOM      4  C4  IND d   1      -3.702  -5.776  -5.813  0.00  0.00     0.051 A 
ATOM      5  C5  IND d   1      -2.431  -5.991  -5.359  0.00  0.00    -0.031 A 
ATOM      6  C6  IND d   1      -1.721  -5.016  -4.689  0.00  0.00     0.015 A 
ATOM      7  C7  IND d   1      -2.263  -3.787  -4.437  0.00  0.00    -0.016 A 
ATOM      8  C8  IND d   1      -3.550  -3.562  -4.904  0.00  0.00    -0.047 A 
ATOM      9  C9  IND d   1      -4.260  -4.534  -5.621  0.00  0.00    -0.096 A 
ATOM     10  HN1 IND d   1      -4.141  -1.702  -4.446  0.00  0.00     0.298 HD
ENDROOT
TORSDOF 0
ENDMDL
