MODEL 1
REMARK minimizedAffinity 7.37789154
REMARK minimizedRMSD -1
REMARK  0 active torsions:
REMARK  status: ('A' for Active; 'I' for Inactive)
ROOT
ATOM      1  N1  IND d   1       4.168  -3.249  -0.523  0.00  0.00    -0.196 N 
ATOM      2  C2  IND d   1       4.412  -4.411  -1.201  0.00  0.00     0.054 A 
ATOM      3  C3  IND d   1       3.475  -4.604  -2.156  0.00  0.00    -0.031 A 
ATOM      4  C4  IND d   1       1.510  -3.092  -2.848  0.00  0.00     0.051 A 
ATOM      5  C5  IND d   1       0.859  -1.943  -2.496  0.00  0.00    -0.031 A 
ATOM      6  C6  IND d   1       1.288  -1.153  -1.449  0.00  0.00     0.015 A 
ATOM      7  C7  IND d   1       2.396  -1.479  -0.719  0.00  0.00    -0.016 A 
ATOM      8  C8  IND d   1       3.055  -2.648  -1.069  0.00  0.00    -0.047 A 
ATOM      9  C9  IND d   1       2.599  -3.476  -2.103  0.00  0.00    -0.096 A 
ATOM     10  HN1 IND d   1       4.632  -2.945   0.134  0.00  0.00     0.298 HD
ENDROOT
TORSDOF 0
ENDMDL
