MODEL 1
REMARK minimizedAffinity 10.4609394
REMARK minimizedRMSD -1
REMARK  0 active torsions:
REMARK  status: ('A' for Active; 'I' for Inactive)
ROOT
ATOM      1  N1  IND d   1       2.939  -0.852  -0.466  0.00  0.00    -0.196 N 
ATOM      2  C2  IND d   1       2.182   0.072  -1.132  0.00  0.00     0.054 A 
ATOM      3  C3  IND d   1       1.254  -0.544  -1.899  0.00  0.00    -0.031 A 
ATOM      4  C4  IND d   1       0.733  -3.054  -2.134  0.00  0.00     0.051 A 
ATOM      5  C5  IND d   1       1.179  -4.288  -1.751  0.00  0.00    -0.031 A 
ATOM      6  C6  IND d   1       2.255  -4.442  -0.901  0.00  0.00     0.015 A 
ATOM      7  C7  IND d   1       2.920  -3.364  -0.390  0.00  0.00    -0.016 A 
ATOM      8  C8  IND d   1       2.474  -2.110  -0.783  0.00  0.00    -0.047 A 
ATOM      9  C9  IND d   1       1.410  -1.947  -1.679  0.00  0.00    -0.096 A 
ATOM     10  HN1 IND d   1       3.595  -0.677   0.061  0.00  0.00     0.298 HD
ENDROOT
TORSDOF 0
ENDMDL
