MODEL 1
REMARK minimizedAffinity 7.19145679
REMARK minimizedRMSD -1
REMARK  0 active torsions:
REMARK  status: ('A' for Active; 'I' for Inactive)
ROOT
ATOM      1  N1  IND d   1       3.983  -3.098   0.003  0.00  0.00    -0.196 N 
ATOM      2  C2  IND d   1       2.986  -4.003  -0.230  0.00  0.00     0.054 A 
ATOM      3  C3  IND d   1       1.902  -3.386  -0.752  0.00  0.00    -0.031 A 
ATOM      4  C4  IND d   1       1.583  -0.916  -1.403  0.00  0.00     0.051 A 
ATOM      5  C5  IND d   1       2.201   0.302  -1.345  0.00  0.00    -0.031 A 
ATOM      6  C6  IND d   1       3.471   0.451  -0.828  0.00  0.00     0.015 A 
ATOM      7  C7  IND d   1       4.179  -0.619  -0.356  0.00  0.00    -0.016 A 
ATOM      8  C8  IND d   1       3.551  -1.855  -0.407  0.00  0.00    -0.047 A 
ATOM      9  C9  IND d   1       2.246  -2.006  -0.892  0.00  0.00    -0.096 A 
ATOM     10  HN1 IND d   1       4.751  -3.275   0.347  0.00  0.00     0.298 HD
ENDROOT
TORSDOF 0
ENDMDL
