MODEL 1
REMARK minimizedAffinity 12.8950377
REMARK minimizedRMSD -1
REMARK  0 active torsions:
REMARK  status: ('A' for Active; 'I' for Inactive)
ROOT
ATOM      1  N1  IND d   1       3.658  -3.857  -4.738  0.00  0.00    -0.196 N 
ATOM      2  C2  IND d   1       3.573  -3.328  -5.996  0.00  0.00     0.054 A 
ATOM      3  C3  IND d   1       2.793  -2.224  -5.989  0.00  0.00    -0.031 A 
ATOM      4  C4  IND d   1       1.639  -1.047  -4.011  0.00  0.00     0.051 A 
ATOM      5  C5  IND d   1       1.398  -1.178  -2.672  0.00  0.00    -0.031 A 
ATOM      6  C6  IND d   1       1.910  -2.228  -1.938  0.00  0.00     0.015 A 
ATOM      7  C7  IND d   1       2.695  -3.185  -2.516  0.00  0.00    -0.016 A 
ATOM      8  C8  IND d   1       2.937  -3.059  -3.877  0.00  0.00    -0.047 A 
ATOM      9  C9  IND d   1       2.385  -2.019  -4.636  0.00  0.00    -0.096 A 
ATOM     10  HN1 IND d   1       4.089  -4.569  -4.521  0.00  0.00     0.298 HD
ENDROOT
TORSDOF 0
ENDMDL
