MODEL 1
REMARK minimizedAffinity 15.7241592
REMARK minimizedRMSD -1
REMARK  0 active torsions:
REMARK  status: ('A' for Active; 'I' for Inactive)
ROOT
ATOM      1  N1  IND d   1      -0.412  -1.780  -1.873  0.00  0.00    -0.196 N 
ATOM      2  C2  IND d   1      -0.817  -3.076  -2.030  0.00  0.00     0.054 A 
ATOM      3  C3  IND d   1       0.198  -3.923  -1.747  0.00  0.00    -0.031 A 
ATOM      4  C4  IND d   1       2.576  -3.404  -0.909  0.00  0.00     0.051 A 
ATOM      5  C5  IND d   1       3.423  -2.363  -0.648  0.00  0.00    -0.031 A 
ATOM      6  C6  IND d   1       3.026  -1.049  -0.782  0.00  0.00     0.015 A 
ATOM      7  C7  IND d   1       1.758  -0.724  -1.173  0.00  0.00    -0.016 A 
ATOM      8  C8  IND d   1       0.897  -1.778  -1.445  0.00  0.00    -0.047 A 
ATOM      9  C9  IND d   1       1.308  -3.114  -1.352  0.00  0.00    -0.096 A 
ATOM     10  HN1 IND d   1      -0.895  -1.083  -2.016  0.00  0.00     0.298 HD
ENDROOT
TORSDOF 0
ENDMDL
