MODEL 1
REMARK minimizedAffinity 12.2324934
REMARK minimizedRMSD -1
REMARK  0 active torsions:
REMARK  status: ('A' for Active; 'I' for Inactive)
ROOT
ATOM      1  N1  IND d   1      -3.129   1.717   3.425  0.00  0.00    -0.196 N 
ATOM      2  C2  IND d   1      -3.968   0.740   2.967  0.00  0.00     0.054 A 
ATOM      3  C3  IND d   1      -3.258  -0.278   2.431  0.00  0.00    -0.031 A 
ATOM      4  C4  IND d   1      -0.707  -0.597   2.292  0.00  0.00     0.051 A 
ATOM      5  C5  IND d   1       0.474   0.043   2.544  0.00  0.00    -0.031 A 
ATOM      6  C6  IND d   1       0.515   1.298   3.117  0.00  0.00     0.015 A 
ATOM      7  C7  IND d   1      -0.628   1.957   3.471  0.00  0.00    -0.016 A 
ATOM      8  C8  IND d   1      -1.829   1.314   3.210  0.00  0.00    -0.047 A 
ATOM      9  C9  IND d   1      -1.879   0.059   2.589  0.00  0.00    -0.096 A 
ATOM     10  HN1 IND d   1      -3.371   2.458   3.786  0.00  0.00     0.298 HD
ENDROOT
TORSDOF 0
ENDMDL
