MODEL 1
REMARK minimizedAffinity 14.0100527
REMARK minimizedRMSD -1
REMARK  0 active torsions:
REMARK  status: ('A' for Active; 'I' for Inactive)
ROOT
ATOM      1  N1  IND d   1       2.924  -1.357  -0.316  0.00  0.00    -0.196 N 
ATOM      2  C2  IND d   1       2.407  -2.493  -0.876  0.00  0.00     0.054 A 
ATOM      3  C3  IND d   1       1.649  -2.184  -1.951  0.00  0.00    -0.031 A 
ATOM      4  C4  IND d   1       1.200   0.109  -3.032  0.00  0.00     0.051 A 
ATOM      5  C5  IND d   1       1.427   1.446  -2.857  0.00  0.00    -0.031 A 
ATOM      6  C6  IND d   1       2.182   1.925  -1.806  0.00  0.00     0.015 A 
ATOM      7  C7  IND d   1       2.750   1.082  -0.893  0.00  0.00    -0.016 A 
ATOM      8  C8  IND d   1       2.516  -0.275  -1.064  0.00  0.00    -0.047 A 
ATOM      9  C9  IND d   1       1.716  -0.765  -2.105  0.00  0.00    -0.096 A 
ATOM     10  HN1 IND d   1       3.420  -1.325   0.385  0.00  0.00     0.298 HD
ENDROOT
TORSDOF 0
ENDMDL
