MODEL 1
REMARK minimizedAffinity 3.99978352
REMARK minimizedRMSD -1
REMARK  0 active torsions:
REMARK  status: ('A' for Active; 'I' for Inactive)
ROOT
ATOM      1  N1  IND d   1      -4.839  -0.112   2.727  0.00  0.00    -0.196 N 
ATOM      2  C2  IND d   1      -4.835  -1.379   2.213  0.00  0.00     0.054 A 
ATOM      3  C3  IND d   1      -3.578  -1.743   1.872  0.00  0.00    -0.031 A 
ATOM      4  C4  IND d   1      -1.366  -0.459   2.165  0.00  0.00     0.051 A 
ATOM      5  C5  IND d   1      -0.867   0.751   2.556  0.00  0.00    -0.031 A 
ATOM      6  C6  IND d   1      -1.683   1.756   3.036  0.00  0.00     0.015 A 
ATOM      7  C7  IND d   1      -3.033   1.581   3.155  0.00  0.00    -0.016 A 
ATOM      8  C8  IND d   1      -3.544   0.356   2.752  0.00  0.00    -0.047 A 
ATOM      9  C9  IND d   1      -2.726  -0.652   2.224  0.00  0.00    -0.096 A 
ATOM     10  HN1 IND d   1      -5.534   0.320   2.991  0.00  0.00     0.298 HD
ENDROOT
TORSDOF 0
ENDMDL
