MODEL 1
REMARK minimizedAffinity 6.84610033
REMARK minimizedRMSD -1
REMARK  0 active torsions:
REMARK  status: ('A' for Active; 'I' for Inactive)
ROOT
ATOM      1  N1  IND d   1       0.294  -3.062   1.488  0.00  0.00    -0.196 N 
ATOM      2  C2  IND d   1      -0.665  -2.101   1.329  0.00  0.00     0.054 A 
ATOM      3  C3  IND d   1      -0.555  -1.523   0.112  0.00  0.00    -0.031 A 
ATOM      4  C4  IND d   1       1.061  -2.067  -1.817  0.00  0.00     0.051 A 
ATOM      5  C5  IND d   1       2.141  -2.843  -2.130  0.00  0.00    -0.031 A 
ATOM      6  C6  IND d   1       2.670  -3.752  -1.237  0.00  0.00     0.015 A 
ATOM      7  C7  IND d   1       2.129  -3.927   0.005  0.00  0.00    -0.016 A 
ATOM      8  C8  IND d   1       1.036  -3.136   0.330  0.00  0.00    -0.047 A 
ATOM      9  C9  IND d   1       0.521  -2.182  -0.558  0.00  0.00    -0.096 A 
ATOM     10  HN1 IND d   1       0.414  -3.539   2.193  0.00  0.00     0.298 HD
ENDROOT
TORSDOF 0
ENDMDL
