MODEL 1
REMARK minimizedAffinity 12.4917889
REMARK minimizedRMSD -1
REMARK  0 active torsions:
REMARK  status: ('A' for Active; 'I' for Inactive)
ROOT
ATOM      1  N1  IND d   1       1.081   2.420  -1.928  0.00  0.00    -0.196 N 
ATOM      2  C2  IND d   1       1.642   2.888  -0.773  0.00  0.00     0.054 A 
ATOM      3  C3  IND d   1       2.416   1.935  -0.207  0.00  0.00    -0.031 A 
ATOM      4  C4  IND d   1       2.986  -0.427  -1.056  0.00  0.00     0.051 A 
ATOM      5  C5  IND d   1       2.683  -1.318  -2.048  0.00  0.00    -0.031 A 
ATOM      6  C6  IND d   1       1.815  -1.000  -3.072  0.00  0.00     0.015 A 
ATOM      7  C7  IND d   1       1.224   0.229  -3.150  0.00  0.00    -0.016 A 
ATOM      8  C8  IND d   1       1.524   1.133  -2.141  0.00  0.00    -0.047 A 
ATOM      9  C9  IND d   1       2.371   0.802  -1.076  0.00  0.00    -0.096 A 
ATOM     10  HN1 IND d   1       0.541   2.856  -2.436  0.00  0.00     0.298 HD
ENDROOT
TORSDOF 0
ENDMDL
