MODEL 1
REMARK minimizedAffinity 13.6738014
REMARK minimizedRMSD -1
REMARK  0 active torsions:
REMARK  status: ('A' for Active; 'I' for Inactive)
ROOT
ATOM      1  N1  IND d   1      -4.167  -5.662  -2.898  0.00  0.00    -0.196 N 
ATOM      2  C2  IND d   1      -2.802  -5.618  -2.957  0.00  0.00     0.054 A 
ATOM      3  C3  IND d   1      -2.275  -5.675  -1.713  0.00  0.00    -0.031 A 
ATOM      4  C4  IND d   1      -3.463  -5.947   0.555  0.00  0.00     0.051 A 
ATOM      5  C5  IND d   1      -4.706  -5.995   1.121  0.00  0.00    -0.031 A 
ATOM      6  C6  IND d   1      -5.856  -5.937   0.361  0.00  0.00     0.015 A 
ATOM      7  C7  IND d   1      -5.806  -5.839  -1.001  0.00  0.00    -0.016 A 
ATOM      8  C8  IND d   1      -4.545  -5.782  -1.579  0.00  0.00    -0.047 A 
ATOM      9  C9  IND d   1      -3.375  -5.798  -0.809  0.00  0.00    -0.096 A 
ATOM     10  HN1 IND d   1      -4.700  -5.622  -3.572  0.00  0.00     0.298 HD
ENDROOT
TORSDOF 0
ENDMDL
