MODEL 1
REMARK minimizedAffinity 5.06343317
REMARK minimizedRMSD -1
REMARK  0 active torsions:
REMARK  status: ('A' for Active; 'I' for Inactive)
ROOT
ATOM      1  N1  IND d   1      -4.653  -4.327  -6.000  0.00  0.00    -0.196 N 
ATOM      2  C2  IND d   1      -4.763  -2.965  -5.970  0.00  0.00     0.054 A 
ATOM      3  C3  IND d   1      -3.720  -2.423  -5.303  0.00  0.00    -0.031 A 
ATOM      4  C4  IND d   1      -1.666  -3.576  -4.265  0.00  0.00     0.051 A 
ATOM      5  C5  IND d   1      -1.139  -4.811  -4.008  0.00  0.00    -0.031 A 
ATOM      6  C6  IND d   1      -1.768  -5.971  -4.412  0.00  0.00     0.015 A 
ATOM      7  C7  IND d   1      -2.947  -5.938  -5.102  0.00  0.00    -0.016 A 
ATOM      8  C8  IND d   1      -3.489  -4.687  -5.358  0.00  0.00    -0.047 A 
ATOM      9  C9  IND d   1      -2.876  -3.508  -4.913  0.00  0.00    -0.096 A 
ATOM     10  HN1 IND d   1      -5.217  -4.868  -6.359  0.00  0.00     0.298 HD
ENDROOT
TORSDOF 0
ENDMDL
