MODEL 1
REMARK minimizedAffinity 6.93126106
REMARK minimizedRMSD -1
REMARK  0 active torsions:
REMARK  status: ('A' for Active; 'I' for Inactive)
ROOT
ATOM      1  N1  IND d   1       1.996  -4.922  -0.652  0.00  0.00    -0.196 N 
ATOM      2  C2  IND d   1       3.352  -4.850  -0.496  0.00  0.00     0.054 A 
ATOM      3  C3  IND d   1       3.785  -3.588  -0.719  0.00  0.00    -0.031 A 
ATOM      4  C4  IND d   1       2.430  -1.466  -1.254  0.00  0.00     0.051 A 
ATOM      5  C5  IND d   1       1.162  -1.038  -1.533  0.00  0.00    -0.031 A 
ATOM      6  C6  IND d   1       0.085  -1.901  -1.529  0.00  0.00     0.015 A 
ATOM      7  C7  IND d   1       0.235  -3.227  -1.234  0.00  0.00    -0.016 A 
ATOM      8  C8  IND d   1       1.522  -3.665  -0.958  0.00  0.00    -0.047 A 
ATOM      9  C9  IND d   1       2.625  -2.803  -1.002  0.00  0.00    -0.096 A 
ATOM     10  HN1 IND d   1       1.519  -5.633  -0.573  0.00  0.00     0.298 HD
ENDROOT
TORSDOF 0
ENDMDL
