MODEL 1
REMARK minimizedAffinity 9.80040073
REMARK minimizedRMSD -1
REMARK  0 active torsions:
REMARK  status: ('A' for Active; 'I' for Inactive)
ROOT
ATOM      1  N1  IND d   1       3.258  -2.740  -4.736  0.00  0.00    -0.196 N 
ATOM      2  C2  IND d   1       2.940  -2.327  -6.000  0.00  0.00     0.054 A 
ATOM      3  C3  IND d   1       1.844  -1.535  -5.973  0.00  0.00    -0.031 A 
ATOM      4  C4  IND d   1       0.476  -0.703  -3.958  0.00  0.00     0.051 A 
ATOM      5  C5  IND d   1       0.361  -0.841  -2.603  0.00  0.00    -0.031 A 
ATOM      6  C6  IND d   1       1.224  -1.634  -1.875  0.00  0.00     0.015 A 
ATOM      7  C7  IND d   1       2.247  -2.311  -2.476  0.00  0.00    -0.016 A 
ATOM      8  C8  IND d   1       2.363  -2.178  -3.852  0.00  0.00    -0.047 A 
ATOM      9  C9  IND d   1       1.464  -1.409  -4.602  0.00  0.00    -0.096 A 
ATOM     10  HN1 IND d   1       3.908  -3.263  -4.528  0.00  0.00     0.298 HD
ENDROOT
TORSDOF 0
ENDMDL
