MODEL 1
REMARK minimizedAffinity 11.6748886
REMARK minimizedRMSD -1
REMARK  0 active torsions:
REMARK  status: ('A' for Active; 'I' for Inactive)
ROOT
ATOM      1  N1  IND d   1       1.543   1.421  -4.070  0.00  0.00    -0.196 N 
ATOM      2  C2  IND d   1       1.350   0.360  -4.910  0.00  0.00     0.054 A 
ATOM      3  C3  IND d   1       1.631  -0.800  -4.275  0.00  0.00    -0.031 A 
ATOM      4  C4  IND d   1       2.326  -1.198  -1.828  0.00  0.00     0.051 A 
ATOM      5  C5  IND d   1       2.667  -0.534  -0.684  0.00  0.00    -0.031 A 
ATOM      6  C6  IND d   1       2.647   0.844  -0.607  0.00  0.00     0.015 A 
ATOM      7  C7  IND d   1       2.274   1.612  -1.674  0.00  0.00    -0.016 A 
ATOM      8  C8  IND d   1       1.934   0.941  -2.840  0.00  0.00    -0.047 A 
ATOM      9  C9  IND d   1       1.993  -0.455  -2.937  0.00  0.00    -0.096 A 
ATOM     10  HN1 IND d   1       1.439   2.250  -4.276  0.00  0.00     0.298 HD
ENDROOT
TORSDOF 0
ENDMDL
