MODEL 1
REMARK minimizedAffinity 5.34928894
REMARK minimizedRMSD -1
REMARK  0 active torsions:
REMARK  status: ('A' for Active; 'I' for Inactive)
ROOT
ATOM      1  N1  IND d   1      -1.160  -3.629  -1.270  0.00  0.00    -0.196 N 
ATOM      2  C2  IND d   1      -1.892  -3.315  -2.381  0.00  0.00     0.054 A 
ATOM      3  C3  IND d   1      -1.202  -2.462  -3.172  0.00  0.00    -0.031 A 
ATOM      4  C4  IND d   1       1.181  -1.531  -2.887  0.00  0.00     0.051 A 
ATOM      5  C5  IND d   1       2.229  -1.504  -2.010  0.00  0.00    -0.031 A 
ATOM      6  C6  IND d   1       2.202  -2.201  -0.820  0.00  0.00     0.015 A 
ATOM      7  C7  IND d   1       1.125  -2.963  -0.464  0.00  0.00    -0.016 A 
ATOM      8  C8  IND d   1       0.055  -2.986  -1.349  0.00  0.00    -0.047 A 
ATOM      9  C9  IND d   1       0.060  -2.247  -2.539  0.00  0.00    -0.096 A 
ATOM     10  HN1 IND d   1      -1.417  -4.142  -0.629  0.00  0.00     0.298 HD
ENDROOT
TORSDOF 0
ENDMDL
