MODEL 1
REMARK minimizedAffinity 10.2233562
REMARK minimizedRMSD -1
REMARK  0 active torsions:
REMARK  status: ('A' for Active; 'I' for Inactive)
ROOT
ATOM      1  N1  IND d   1       3.020   1.493  -1.969  0.00  0.00    -0.196 N 
ATOM      2  C2  IND d   1       2.065   1.075  -2.853  0.00  0.00     0.054 A 
ATOM      3  C3  IND d   1       1.850  -0.253  -2.720  0.00  0.00    -0.031 A 
ATOM      4  C4  IND d   1       2.879  -1.917  -1.047  0.00  0.00     0.051 A 
ATOM      5  C5  IND d   1       3.826  -2.011  -0.065  0.00  0.00    -0.031 A 
ATOM      6  C6  IND d   1       4.565  -0.919   0.341  0.00  0.00     0.015 A 
ATOM      7  C7  IND d   1       4.377   0.315  -0.212  0.00  0.00    -0.016 A 
ATOM      8  C8  IND d   1       3.421   0.413  -1.214  0.00  0.00    -0.047 A 
ATOM      9  C9  IND d   1       2.698  -0.700  -1.661  0.00  0.00    -0.096 A 
ATOM     10  HN1 IND d   1       3.320   2.296  -1.897  0.00  0.00     0.298 HD
ENDROOT
TORSDOF 0
ENDMDL
