MODEL 1
REMARK minimizedAffinity 10.1559553
REMARK minimizedRMSD -1
REMARK  0 active torsions:
REMARK  status: ('A' for Active; 'I' for Inactive)
ROOT
ATOM      1  N1  IND d   1      -1.174  -2.365  -2.413  0.00  0.00    -0.196 N 
ATOM      2  C2  IND d   1      -1.718  -3.608  -2.580  0.00  0.00     0.054 A 
ATOM      3  C3  IND d   1      -0.882  -4.555  -2.099  0.00  0.00    -0.031 A 
ATOM      4  C4  IND d   1       1.383  -4.285  -0.905  0.00  0.00     0.051 A 
ATOM      5  C5  IND d   1       2.310  -3.344  -0.553  0.00  0.00    -0.031 A 
ATOM      6  C6  IND d   1       2.117  -2.001  -0.806  0.00  0.00     0.015 A 
ATOM      7  C7  IND d   1       0.981  -1.546  -1.412  0.00  0.00    -0.016 A 
ATOM      8  C8  IND d   1       0.041  -2.499  -1.778  0.00  0.00    -0.047 A 
ATOM      9  C9  IND d   1       0.250  -3.868  -1.562  0.00  0.00    -0.096 A 
ATOM     10  HN1 IND d   1      -1.531  -1.623  -2.663  0.00  0.00     0.298 HD
ENDROOT
TORSDOF 0
ENDMDL
