MODEL 1
REMARK minimizedAffinity -2.16796541
REMARK minimizedRMSD -1
REMARK  0 active torsions:
REMARK  status: ('A' for Active; 'I' for Inactive)
ROOT
ATOM      1  C   UNL d   1      -0.366   1.595   1.816  0.00  0.00     0.077 C 
ATOM      2  C1  UNL d   1       0.293   0.630   0.876  0.00  0.00    -0.074 A 
ATOM      3  C2  UNL d   1       1.161  -0.358   1.353  0.00  0.00    -0.005 A 
ATOM      4  C3  UNL d   1       1.758  -1.256   0.468  0.00  0.00     0.006 A 
ATOM      5  C4  UNL d   1       1.495  -1.174  -0.900  0.00  0.00    -0.005 A 
ATOM      6  C5  UNL d   1       0.630  -0.193  -1.395  0.00  0.00    -0.074 A 
ATOM      7  C6  UNL d   1       0.329  -0.098  -2.861  0.00  0.00     0.077 C 
ATOM      8  C7  UNL d   1       0.028   0.700  -0.499  0.00  0.00    -0.001 A 
ENDROOT
TORSDOF 0
ENDMDL
