MODEL 1
REMARK minimizedAffinity -5.62821054
REMARK minimizedRMSD -1
REMARK  0 active torsions:
REMARK  status: ('A' for Active; 'I' for Inactive)
ROOT
ATOM      1  C   UNL d   1      -2.441  -1.185  -5.702  0.00  0.00     0.077 C 
ATOM      2  C1  UNL d   1      -1.368  -1.184  -4.654  0.00  0.00    -0.074 A 
ATOM      3  C2  UNL d   1      -1.096  -2.331  -3.902  0.00  0.00    -0.005 A 
ATOM      4  C3  UNL d   1      -0.088  -2.317  -2.937  0.00  0.00     0.006 A 
ATOM      5  C4  UNL d   1       0.656  -1.158  -2.716  0.00  0.00    -0.005 A 
ATOM      6  C5  UNL d   1       0.399  -0.002  -3.459  0.00  0.00    -0.074 A 
ATOM      7  C6  UNL d   1       1.197   1.250  -3.240  0.00  0.00     0.077 C 
ATOM      8  C7  UNL d   1      -0.610  -0.025  -4.431  0.00  0.00    -0.001 A 
ENDROOT
TORSDOF 0
ENDMDL
