MODEL 1
REMARK minimizedAffinity -6.15481615
REMARK minimizedRMSD -1
REMARK  0 active torsions:
REMARK  status: ('A' for Active; 'I' for Inactive)
ROOT
ATOM      1  C   UNL d   1       1.771  -1.508   0.101  0.00  0.00     0.077 C 
ATOM      2  C1  UNL d   1       0.739  -0.559   0.632  0.00  0.00    -0.074 A 
ATOM      3  C2  UNL d   1       1.065   0.380   1.616  0.00  0.00    -0.005 A 
ATOM      4  C3  UNL d   1       0.096   1.263   2.094  0.00  0.00     0.006 A 
ATOM      5  C4  UNL d   1      -1.206   1.215   1.594  0.00  0.00    -0.005 A 
ATOM      6  C5  UNL d   1      -1.550   0.282   0.610  0.00  0.00    -0.074 A 
ATOM      7  C6  UNL d   1      -2.942   0.224   0.055  0.00  0.00     0.077 C 
ATOM      8  C7  UNL d   1      -0.570  -0.596   0.130  0.00  0.00    -0.001 A 
ENDROOT
TORSDOF 0
ENDMDL
