MODEL 1
REMARK minimizedAffinity -2.25161099
REMARK minimizedRMSD -1
REMARK  0 active torsions:
REMARK  status: ('A' for Active; 'I' for Inactive)
ROOT
ATOM      1  C   UNL d   1       0.354   0.391  -2.893  0.00  0.00     0.077 C 
ATOM      2  C1  UNL d   1       0.645   0.165  -1.439  0.00  0.00    -0.074 A 
ATOM      3  C2  UNL d   1       1.358  -0.961  -1.016  0.00  0.00    -0.005 A 
ATOM      4  C3  UNL d   1       1.630  -1.153   0.339  0.00  0.00     0.006 A 
ATOM      5  C4  UNL d   1       1.191  -0.223   1.282  0.00  0.00    -0.005 A 
ATOM      6  C5  UNL d   1       0.477   0.910   0.877  0.00  0.00    -0.074 A 
ATOM      7  C6  UNL d   1       0.008   1.924   1.877  0.00  0.00     0.077 C 
ATOM      8  C7  UNL d   1       0.215   1.099  -0.487  0.00  0.00    -0.001 A 
ENDROOT
TORSDOF 0
ENDMDL
