MODEL 1
REMARK minimizedAffinity -1.227373
REMARK minimizedRMSD -1
REMARK  0 active torsions:
REMARK  status: ('A' for Active; 'I' for Inactive)
ROOT
ATOM      1  C   UNL d   1      -3.719   0.870  -0.118  0.00  0.00     0.077 C 
ATOM      2  C1  UNL d   1      -2.310   0.693   0.366  0.00  0.00    -0.074 A 
ATOM      3  C2  UNL d   1      -2.027   0.586   1.731  0.00  0.00    -0.005 A 
ATOM      4  C3  UNL d   1      -0.713   0.412   2.166  0.00  0.00     0.006 A 
ATOM      5  C4  UNL d   1       0.329   0.344   1.241  0.00  0.00    -0.005 A 
ATOM      6  C5  UNL d   1       0.066   0.449  -0.128  0.00  0.00    -0.074 A 
ATOM      7  C6  UNL d   1       1.174   0.368  -1.136  0.00  0.00     0.077 C 
ATOM      8  C7  UNL d   1      -1.258   0.616  -0.557  0.00  0.00    -0.001 A 
ENDROOT
TORSDOF 0
ENDMDL
