MODEL 1
REMARK minimizedAffinity -0.903930724
REMARK minimizedRMSD -1
REMARK  0 active torsions:
REMARK  status: ('A' for Active; 'I' for Inactive)
ROOT
ATOM      1  C   UNL d   1       3.351   1.513  -5.973  0.00  0.00     0.077 C 
ATOM      2  C1  UNL d   1       2.129   0.662  -5.796  0.00  0.00    -0.074 A 
ATOM      3  C2  UNL d   1       2.180  -0.721  -6.000  0.00  0.00    -0.005 A 
ATOM      4  C3  UNL d   1       1.037  -1.500  -5.821  0.00  0.00     0.006 A 
ATOM      5  C4  UNL d   1      -0.166  -0.906  -5.438  0.00  0.00    -0.005 A 
ATOM      6  C5  UNL d   1      -0.236   0.475  -5.228  0.00  0.00    -0.074 A 
ATOM      7  C6  UNL d   1      -1.518   1.128  -4.807  0.00  0.00     0.077 C 
ATOM      8  C7  UNL d   1       0.918   1.251  -5.403  0.00  0.00    -0.001 A 
ENDROOT
TORSDOF 0
ENDMDL
