MODEL 1
REMARK minimizedAffinity -4.00294733
REMARK minimizedRMSD -1
REMARK  0 active torsions:
REMARK  status: ('A' for Active; 'I' for Inactive)
ROOT
ATOM      1  C   UNL d   1      -0.434   1.809   3.630  0.00  0.00     0.077 C 
ATOM      2  C1  UNL d   1      -0.748   1.155   2.318  0.00  0.00    -0.074 A 
ATOM      3  C2  UNL d   1      -2.001   1.316   1.716  0.00  0.00    -0.005 A 
ATOM      4  C3  UNL d   1      -2.276   0.709   0.491  0.00  0.00     0.006 A 
ATOM      5  C4  UNL d   1      -1.303  -0.064  -0.144  0.00  0.00    -0.005 A 
ATOM      6  C5  UNL d   1      -0.045  -0.236   0.442  0.00  0.00    -0.074 A 
ATOM      7  C6  UNL d   1       1.015  -1.055  -0.233  0.00  0.00     0.077 C 
ATOM      8  C7  UNL d   1       0.226   0.383   1.670  0.00  0.00    -0.001 A 
ENDROOT
TORSDOF 0
ENDMDL
