MODEL 1
REMARK minimizedAffinity -5.12715912
REMARK minimizedRMSD -1
REMARK  0 active torsions:
REMARK  status: ('A' for Active; 'I' for Inactive)
ROOT
ATOM      1  C   UNL d   1      -0.836   1.137   3.537  0.00  0.00    -0.002 A 
ATOM      2  C1  UNL d   1       0.534   0.915   3.535  0.00  0.00     0.010 A 
ATOM      3  C2  UNL d   1       1.168   0.391   2.407  0.00  0.00     0.041 A 
ATOM      4  C3  UNL d   1       0.394   0.092   1.268  0.00  0.00    -0.075 A 
ATOM      5  S   UNL d   1       0.954  -0.556  -0.228  0.00  0.00     0.015 SA
ATOM      6  C4  UNL d   1      -0.612  -0.554  -0.901  0.00  0.00     0.022 A 
ATOM      7  C5  UNL d   1      -1.551  -0.073  -0.019  0.00  0.00     0.026 A 
ATOM      8  C6  UNL d   1      -0.987   0.307   1.245  0.00  0.00    -0.082 A 
ATOM      9  C7  UNL d   1      -1.600   0.839   2.405  0.00  0.00     0.045 A 
ENDROOT
TORSDOF 0
ENDMDL
