MODEL 1
REMARK minimizedAffinity -3.72881913
REMARK minimizedRMSD -1
REMARK  0 active torsions:
REMARK  status: ('A' for Active; 'I' for Inactive)
ROOT
ATOM      1  C   UNL d   1      -1.645   0.354   2.951  0.00  0.00    -0.002 A 
ATOM      2  C1  UNL d   1      -2.166   0.177   1.677  0.00  0.00     0.010 A 
ATOM      3  C2  UNL d   1      -1.357  -0.283   0.637  0.00  0.00     0.041 A 
ATOM      4  C3  UNL d   1      -0.003  -0.568   0.901  0.00  0.00    -0.075 A 
ATOM      5  S   UNL d   1       1.176  -1.143  -0.218  0.00  0.00     0.015 SA
ATOM      6  C4  UNL d   1       2.399  -1.169   0.970  0.00  0.00     0.022 A 
ATOM      7  C5  UNL d   1       1.936  -0.751   2.195  0.00  0.00     0.026 A 
ATOM      8  C6  UNL d   1       0.544  -0.399   2.176  0.00  0.00    -0.082 A 
ATOM      9  C7  UNL d   1      -0.302   0.071   3.210  0.00  0.00     0.045 A 
ENDROOT
TORSDOF 0
ENDMDL
