MODEL 1
REMARK minimizedAffinity -0.853328645
REMARK minimizedRMSD -1
REMARK  0 active torsions:
REMARK  status: ('A' for Active; 'I' for Inactive)
ROOT
ATOM      1  C   UNL d   1      -0.718  -0.872   0.095  0.00  0.00    -0.002 A 
ATOM      2  C1  UNL d   1      -0.951   0.475   0.330  0.00  0.00     0.010 A 
ATOM      3  C2  UNL d   1      -0.587   1.435  -0.616  0.00  0.00     0.041 A 
ATOM      4  C3  UNL d   1       0.019   1.014  -1.816  0.00  0.00    -0.075 A 
ATOM      5  S   UNL d   1       0.548   2.011  -3.119  0.00  0.00     0.015 SA
ATOM      6  C4  UNL d   1       1.095   0.672  -4.020  0.00  0.00     0.022 A 
ATOM      7  C5  UNL d   1       0.887  -0.515  -3.357  0.00  0.00     0.026 A 
ATOM      8  C6  UNL d   1       0.263  -0.337  -2.076  0.00  0.00    -0.082 A 
ATOM      9  C7  UNL d   1      -0.116  -1.286  -1.097  0.00  0.00     0.045 A 
ENDROOT
TORSDOF 0
ENDMDL
