MODEL 1
REMARK minimizedAffinity -1.04551017
REMARK minimizedRMSD -1
REMARK  0 active torsions:
REMARK  status: ('A' for Active; 'I' for Inactive)
ROOT
ATOM      1  C   UNL d   1      -1.791   0.729   2.494  0.00  0.00    -0.002 A 
ATOM      2  C1  UNL d   1      -0.579   1.314   2.832  0.00  0.00     0.010 A 
ATOM      3  C2  UNL d   1       0.527   1.196   1.987  0.00  0.00     0.041 A 
ATOM      4  C3  UNL d   1       0.393   0.476   0.785  0.00  0.00    -0.075 A 
ATOM      5  S   UNL d   1       1.610   0.201  -0.405  0.00  0.00     0.015 SA
ATOM      6  C4  UNL d   1       0.550  -0.698  -1.390  0.00  0.00     0.022 A 
ATOM      7  C5  UNL d   1      -0.706  -0.797  -0.841  0.00  0.00     0.026 A 
ATOM      8  C6  UNL d   1      -0.818  -0.122   0.422  0.00  0.00    -0.082 A 
ATOM      9  C7  UNL d   1      -1.920   0.014   1.300  0.00  0.00     0.045 A 
ENDROOT
TORSDOF 0
ENDMDL
