MODEL 1
REMARK minimizedAffinity -0.300098509
REMARK minimizedRMSD -1
REMARK  0 active torsions:
REMARK  status: ('A' for Active; 'I' for Inactive)
ROOT
ATOM      1  C   UNL d   1      -4.923   3.625  -2.651  0.00  0.00     0.172 C 
ATOM      2  N   UNL d   1      -5.223   4.366  -3.854  0.00  0.00    -0.070 N 
ATOM      3  C1  UNL d   1      -4.864   5.664  -4.103  0.00  0.00    -0.004 A 
ATOM      4  C2  UNL d   1      -5.335   5.999  -5.354  0.00  0.00    -0.047 A 
ATOM      5  C3  UNL d   1      -6.000   4.864  -5.875  0.00  0.00    -0.047 A 
ATOM      6  C4  UNL d   1      -5.915   3.867  -4.926  0.00  0.00    -0.004 A 
ENDROOT
TORSDOF 0
ENDMDL
