MODEL 1
REMARK minimizedAffinity 6.60493374
REMARK minimizedRMSD -1
REMARK  0 active torsions:
REMARK  status: ('A' for Active; 'I' for Inactive)
ROOT
ATOM      1  C   UNL d   1       0.766   1.895   2.158  0.00  0.00     0.172 C 
ATOM      2  N   UNL d   1       0.494   2.508   0.879  0.00  0.00    -0.070 N 
ATOM      3  C1  UNL d   1       0.320   1.842  -0.304  0.00  0.00    -0.004 A 
ATOM      4  C2  UNL d   1       0.081   2.780  -1.285  0.00  0.00    -0.047 A 
ATOM      5  C3  UNL d   1       0.114   4.054  -0.670  0.00  0.00    -0.047 A 
ATOM      6  C4  UNL d   1       0.372   3.857   0.670  0.00  0.00    -0.004 A 
ENDROOT
TORSDOF 0
ENDMDL
