MODEL 1
REMARK minimizedAffinity 2.37968659
REMARK minimizedRMSD -1
REMARK  0 active torsions:
REMARK  status: ('A' for Active; 'I' for Inactive)
ROOT
ATOM      1  C   UNL d   1      -0.430  -5.327  -5.448  0.00  0.00     0.172 C 
ATOM      2  N   UNL d   1      -0.161  -5.337  -4.030  0.00  0.00    -0.070 N 
ATOM      3  C1  UNL d   1      -1.019  -4.913  -3.051  0.00  0.00    -0.004 A 
ATOM      4  C2  UNL d   1      -0.393  -5.085  -1.836  0.00  0.00    -0.047 A 
ATOM      5  C3  UNL d   1       0.887  -5.631  -2.093  0.00  0.00    -0.047 A 
ATOM      6  C4  UNL d   1       1.005  -5.777  -3.459  0.00  0.00    -0.004 A 
ENDROOT
TORSDOF 0
ENDMDL
