MODEL 1
REMARK minimizedAffinity 2.27404523
REMARK minimizedRMSD -1
REMARK  0 active torsions:
REMARK  status: ('A' for Active; 'I' for Inactive)
ROOT
ATOM      1  C   UNL d   1       0.305  -0.401   4.223  0.00  0.00     0.172 C 
ATOM      2  N   UNL d   1       0.088   0.593   3.199  0.00  0.00    -0.070 N 
ATOM      3  C1  UNL d   1       1.055   1.140   2.398  0.00  0.00    -0.004 A 
ATOM      4  C2  UNL d   1       0.445   2.044   1.556  0.00  0.00    -0.047 A 
ATOM      5  C3  UNL d   1      -0.937   2.042   1.862  0.00  0.00    -0.047 A 
ATOM      6  C4  UNL d   1      -1.130   1.135   2.882  0.00  0.00    -0.004 A 
ENDROOT
TORSDOF 0
ENDMDL
