MODEL 1
REMARK minimizedAffinity 4.84844112
REMARK minimizedRMSD -1
REMARK  0 active torsions:
REMARK  status: ('A' for Active; 'I' for Inactive)
ROOT
ATOM      1  C   UNL d   1      -0.239   1.735   2.071  0.00  0.00     0.172 C 
ATOM      2  N   UNL d   1      -0.278   2.136   0.684  0.00  0.00    -0.070 N 
ATOM      3  C1  UNL d   1      -0.191   1.294  -0.393  0.00  0.00    -0.004 A 
ATOM      4  C2  UNL d   1      -0.269   2.061  -1.535  0.00  0.00    -0.047 A 
ATOM      5  C3  UNL d   1      -0.408   3.410  -1.131  0.00  0.00    -0.047 A 
ATOM      6  C4  UNL d   1      -0.411   3.428   0.248  0.00  0.00    -0.004 A 
ENDROOT
TORSDOF 0
ENDMDL
