MODEL 1
REMARK minimizedAffinity 1.06355047
REMARK minimizedRMSD -1
REMARK  0 active torsions:
REMARK  status: ('A' for Active; 'I' for Inactive)
ROOT
ATOM      1  C   UNL d   1       0.825   0.519   2.552  0.00  0.00     0.172 C 
ATOM      2  N   UNL d   1       0.123   1.747   2.260  0.00  0.00    -0.070 N 
ATOM      3  C1  UNL d   1      -1.165   2.036   2.624  0.00  0.00    -0.004 A 
ATOM      4  C2  UNL d   1      -1.461   3.299   2.160  0.00  0.00    -0.047 A 
ATOM      5  C3  UNL d   1      -0.312   3.786   1.493  0.00  0.00    -0.047 A 
ATOM      6  C4  UNL d   1       0.654   2.804   1.571  0.00  0.00    -0.004 A 
ENDROOT
TORSDOF 0
ENDMDL
