MODEL 1
REMARK minimizedAffinity 2.5554502
REMARK minimizedRMSD -1
REMARK  0 active torsions:
REMARK  status: ('A' for Active; 'I' for Inactive)
ROOT
ATOM      1  C   UNL d   1       0.854  -0.546   2.706  0.00  0.00     0.172 C 
ATOM      2  N   UNL d   1       0.152   0.625   2.235  0.00  0.00    -0.070 N 
ATOM      3  C1  UNL d   1      -0.122   0.919   0.926  0.00  0.00    -0.004 A 
ATOM      4  C2  UNL d   1      -0.802   2.117   0.895  0.00  0.00    -0.047 A 
ATOM      5  C3  UNL d   1      -0.942   2.559   2.233  0.00  0.00    -0.047 A 
ATOM      6  C4  UNL d   1      -0.342   1.616   3.041  0.00  0.00    -0.004 A 
ENDROOT
TORSDOF 0
ENDMDL
