MODEL 1
REMARK minimizedAffinity 3.14800334
REMARK minimizedRMSD -1
REMARK  0 active torsions:
REMARK  status: ('A' for Active; 'I' for Inactive)
ROOT
ATOM      1  C   UNL d   1       0.122   1.061   2.779  0.00  0.00     0.172 C 
ATOM      2  N   UNL d   1       0.455   0.322   1.584  0.00  0.00    -0.070 N 
ATOM      3  C1  UNL d   1       1.365  -0.698   1.504  0.00  0.00    -0.004 A 
ATOM      4  C2  UNL d   1       1.393  -1.138   0.198  0.00  0.00    -0.047 A 
ATOM      5  C3  UNL d   1       0.468  -0.355  -0.532  0.00  0.00    -0.047 A 
ATOM      6  C4  UNL d   1      -0.099   0.541   0.350  0.00  0.00    -0.004 A 
ENDROOT
TORSDOF 0
ENDMDL
