MODEL 1
REMARK minimizedAffinity -0.356618702
REMARK minimizedRMSD -1
REMARK  0 active torsions:
REMARK  status: ('A' for Active; 'I' for Inactive)
ROOT
ATOM      1  C   UNL d   1       0.639   0.201  -0.315  0.00  0.00     0.172 C 
ATOM      2  N   UNL d   1       0.516   0.386   1.111  0.00  0.00    -0.070 N 
ATOM      3  C1  UNL d   1       0.042  -0.543   1.999  0.00  0.00    -0.004 A 
ATOM      4  C2  UNL d   1       0.086   0.016   3.258  0.00  0.00    -0.047 A 
ATOM      5  C3  UNL d   1       0.603   1.326   3.122  0.00  0.00    -0.047 A 
ATOM      6  C4  UNL d   1       0.861   1.529   1.783  0.00  0.00    -0.004 A 
ENDROOT
TORSDOF 0
ENDMDL
