MODEL 1
REMARK minimizedAffinity -1.00910056
REMARK minimizedRMSD -1
REMARK  0 active torsions:
REMARK  status: ('A' for Active; 'I' for Inactive)
ROOT
ATOM      1  C   UNL d   1       1.993  -0.716   2.961  0.00  0.00     0.172 C 
ATOM      2  N   UNL d   1       1.229   0.121   2.065  0.00  0.00    -0.070 N 
ATOM      3  C1  UNL d   1       0.928  -0.170   0.762  0.00  0.00    -0.004 A 
ATOM      4  C2  UNL d   1       0.188   0.876   0.255  0.00  0.00    -0.047 A 
ATOM      5  C3  UNL d   1       0.039   1.830   1.290  0.00  0.00    -0.047 A 
ATOM      6  C4  UNL d   1       0.694   1.337   2.400  0.00  0.00    -0.004 A 
ENDROOT
TORSDOF 0
ENDMDL
