MODEL 1
REMARK minimizedAffinity 13.4696474
REMARK minimizedRMSD -1
REMARK  0 active torsions:
REMARK  status: ('A' for Active; 'I' for Inactive)
ROOT
ATOM      1  N1  IND d   1       1.324  -1.079   3.156  0.00  0.00    -0.196 N 
ATOM      2  C2  IND d   1       0.050  -1.017   2.664  0.00  0.00     0.054 A 
ATOM      3  C3  IND d   1      -0.225  -2.117   1.928  0.00  0.00    -0.031 A 
ATOM      4  C4  IND d   1       1.232  -4.192   1.483  0.00  0.00     0.051 A 
ATOM      5  C5  IND d   1       2.486  -4.693   1.692  0.00  0.00    -0.031 A 
ATOM      6  C6  IND d   1       3.436  -4.002   2.417  0.00  0.00     0.015 A 
ATOM      7  C7  IND d   1       3.161  -2.784   2.971  0.00  0.00    -0.016 A 
ATOM      8  C8  IND d   1       1.890  -2.269   2.755  0.00  0.00    -0.047 A 
ATOM      9  C9  IND d   1       0.937  -2.947   1.985  0.00  0.00    -0.096 A 
ATOM     10  HN1 IND d   1       1.707  -0.476   3.634  0.00  0.00     0.298 HD
ENDROOT
TORSDOF 0
ENDMDL
