MODEL 1
REMARK minimizedAffinity 14.852706
REMARK minimizedRMSD -1
REMARK  0 active torsions:
REMARK  status: ('A' for Active; 'I' for Inactive)
ROOT
ATOM      1  N1  IND d   1      -1.527   3.647  -2.710  0.00  0.00    -0.196 N 
ATOM      2  C2  IND d   1      -0.694   2.565  -2.775  0.00  0.00     0.054 A 
ATOM      3  C3  IND d   1      -1.209   1.623  -3.598  0.00  0.00    -0.031 A 
ATOM      4  C4  IND d   1      -3.354   1.690  -5.020  0.00  0.00     0.051 A 
ATOM      5  C5  IND d   1      -4.460   2.454  -5.265  0.00  0.00    -0.031 A 
ATOM      6  C6  IND d   1      -4.648   3.681  -4.662  0.00  0.00     0.015 A 
ATOM      7  C7  IND d   1      -3.726   4.196  -3.794  0.00  0.00    -0.016 A 
ATOM      8  C8  IND d   1      -2.605   3.420  -3.537  0.00  0.00    -0.047 A 
ATOM      9  C9  IND d   1      -2.430   2.156  -4.114  0.00  0.00    -0.096 A 
ATOM     10  HN1 IND d   1      -1.400   4.350  -2.232  0.00  0.00     0.298 HD
ENDROOT
TORSDOF 0
ENDMDL
