MODEL 1
REMARK minimizedAffinity 13.5658607
REMARK minimizedRMSD -1
REMARK  0 active torsions:
REMARK  status: ('A' for Active; 'I' for Inactive)
ROOT
ATOM      1  N1  IND d   1       0.735  -5.507   1.860  0.00  0.00    -0.196 N 
ATOM      2  C2  IND d   1       1.908  -5.999   1.360  0.00  0.00     0.054 A 
ATOM      3  C3  IND d   1       2.739  -4.986   1.026  0.00  0.00    -0.031 A 
ATOM      4  C4  IND d   1       2.418  -2.447   1.311  0.00  0.00     0.051 A 
ATOM      5  C5  IND d   1       1.494  -1.514   1.689  0.00  0.00    -0.031 A 
ATOM      6  C6  IND d   1       0.246  -1.871   2.156  0.00  0.00     0.015 A 
ATOM      7  C7  IND d   1      -0.123  -3.182   2.272  0.00  0.00    -0.016 A 
ATOM      8  C8  IND d   1       0.810  -4.132   1.883  0.00  0.00    -0.047 A 
ATOM      9  C9  IND d   1       2.063  -3.774   1.369  0.00  0.00    -0.096 A 
ATOM     10  HN1 IND d   1       0.063  -5.978   2.117  0.00  0.00     0.298 HD
ENDROOT
TORSDOF 0
ENDMDL
