MODEL 1
REMARK minimizedAffinity 6.79651737
REMARK minimizedRMSD -1
REMARK  0 active torsions:
REMARK  status: ('A' for Active; 'I' for Inactive)
ROOT
ATOM      1  N1  IND d   1       3.941  -3.791   5.446  0.00  0.00    -0.196 N 
ATOM      2  C2  IND d   1       4.363  -4.969   5.998  0.00  0.00     0.054 A 
ATOM      3  C3  IND d   1       4.100  -6.000   5.165  0.00  0.00    -0.031 A 
ATOM      4  C4  IND d   1       3.076  -5.974   2.802  0.00  0.00     0.051 A 
ATOM      5  C5  IND d   1       2.501  -5.138   1.887  0.00  0.00    -0.031 A 
ATOM      6  C6  IND d   1       2.376  -3.782   2.115  0.00  0.00     0.015 A 
ATOM      7  C7  IND d   1       2.835  -3.208   3.266  0.00  0.00    -0.016 A 
ATOM      8  C8  IND d   1       3.413  -4.055   4.201  0.00  0.00    -0.047 A 
ATOM      9  C9  IND d   1       3.504  -5.438   3.994  0.00  0.00    -0.096 A 
ATOM     10  HN1 IND d   1       3.997  -3.016   5.814  0.00  0.00     0.298 HD
ENDROOT
TORSDOF 0
ENDMDL
