MODEL 1
REMARK minimizedAffinity -1.19927537
REMARK minimizedRMSD -1
REMARK  0 active torsions:
REMARK  status: ('A' for Active; 'I' for Inactive)
ROOT
ATOM      1  N1  IND d   1       2.739  -3.131   2.933  0.00  0.00    -0.196 N 
ATOM      2  C2  IND d   1       2.506  -4.034   1.933  0.00  0.00     0.054 A 
ATOM      3  C3  IND d   1       3.000  -5.246   2.269  0.00  0.00    -0.031 A 
ATOM      4  C4  IND d   1       4.141  -6.000   4.450  0.00  0.00     0.051 A 
ATOM      5  C5  IND d   1       4.609  -5.522   5.642  0.00  0.00    -0.031 A 
ATOM      6  C6  IND d   1       4.473  -4.196   6.000  0.00  0.00     0.015 A 
ATOM      7  C7  IND d   1       3.850  -3.297   5.180  0.00  0.00    -0.016 A 
ATOM      8  C8  IND d   1       3.380  -3.778   3.967  0.00  0.00    -0.047 A 
ATOM      9  C9  IND d   1       3.553  -5.113   3.580  0.00  0.00    -0.096 A 
ATOM     10  HN1 IND d   1       2.523  -2.299   2.918  0.00  0.00     0.298 HD
ENDROOT
TORSDOF 0
ENDMDL
