MODEL 1
REMARK minimizedAffinity 4.85955
REMARK minimizedRMSD -1
REMARK  0 active torsions:
REMARK  status: ('A' for Active; 'I' for Inactive)
ROOT
ATOM      1  N1  IND d   1      -0.024  -2.845   2.747  0.00  0.00    -0.196 N 
ATOM      2  C2  IND d   1       0.148  -1.513   3.001  0.00  0.00     0.054 A 
ATOM      3  C3  IND d   1       1.323  -1.084   2.489  0.00  0.00    -0.031 A 
ATOM      4  C4  IND d   1       3.073  -2.372   1.108  0.00  0.00     0.051 A 
ATOM      5  C5  IND d   1       3.374  -3.624   0.648  0.00  0.00    -0.031 A 
ATOM      6  C6  IND d   1       2.540  -4.701   0.867  0.00  0.00     0.015 A 
ATOM      7  C7  IND d   1       1.362  -4.564   1.547  0.00  0.00    -0.016 A 
ATOM      8  C8  IND d   1       1.057  -3.296   2.020  0.00  0.00    -0.047 A 
ATOM      9  C9  IND d   1       1.920  -2.208   1.838  0.00  0.00    -0.096 A 
ATOM     10  HN1 IND d   1      -0.694  -3.322   2.998  0.00  0.00     0.298 HD
ENDROOT
TORSDOF 0
ENDMDL
