MODEL 1
REMARK minimizedAffinity -2.66530991
REMARK minimizedRMSD -1
REMARK  1 active torsions:
REMARK  status: ('A' for Active; 'I' for Inactive)
REMARK    1  A    between atoms: N_2  and  C1_3 
ROOT
ATOM      1  C1  UNL d   1      -0.429   1.032   0.446  0.00  0.00     0.143 A 
ATOM      2  C2  UNL d   1      -1.503   0.486   1.157  0.00  0.00    -0.057 A 
ATOM      3  C3  UNL d   1      -2.369   1.296   1.900  0.00  0.00     0.033 A 
ATOM      4  C4  UNL d   1      -2.159   2.670   1.970  0.00  0.00    -0.042 A 
ATOM      5  C5  UNL d   1      -1.083   3.231   1.292  0.00  0.00     0.033 A 
ATOM      6  C6  UNL d   1      -0.225   2.417   0.545  0.00  0.00    -0.057 A 
ENDROOT
BRANCH   1   7
ATOM      7  N   UNL d   1       0.525   0.268  -0.231  0.00  0.00    -0.732 N 
ATOM      8  C   UNL d   1       0.263  -1.117  -0.559  0.00  0.00     0.284 C 
ATOM      9  H3  UNL d   1       0.986   0.791  -0.972  0.00  0.00     0.395 HD
ENDBRANCH   1   7
TORSDOF 1
ENDMDL
