MODEL 1
REMARK minimizedAffinity -4.11362028
REMARK minimizedRMSD -1
REMARK  1 active torsions:
REMARK  status: ('A' for Active; 'I' for Inactive)
REMARK    1  A    between atoms: N_2  and  C1_3 
ROOT
ATOM      1  C1  UNL d   1       0.641   0.066   0.077  0.00  0.00     0.143 A 
ATOM      2  C2  UNL d   1      -0.151   1.194  -0.162  0.00  0.00    -0.057 A 
ATOM      3  C3  UNL d   1      -1.113   1.616   0.763  0.00  0.00     0.033 A 
ATOM      4  C4  UNL d   1      -1.321   0.897   1.936  0.00  0.00    -0.042 A 
ATOM      5  C5  UNL d   1      -0.564  -0.242   2.183  0.00  0.00     0.033 A 
ATOM      6  C6  UNL d   1       0.400  -0.654   1.258  0.00  0.00    -0.057 A 
ENDROOT
BRANCH   1   7
ATOM      7  N   UNL d   1       1.545  -0.461  -0.848  0.00  0.00    -0.732 N 
ATOM      8  C   UNL d   1       1.654  -1.891  -1.040  0.00  0.00     0.284 C 
ATOM      9  H3  UNL d   1       1.576   0.078  -1.710  0.00  0.00     0.395 HD
ENDBRANCH   1   7
TORSDOF 1
ENDMDL
