MODEL 1
REMARK minimizedAffinity -0.397758901
REMARK minimizedRMSD -1
REMARK  1 active torsions:
REMARK  status: ('A' for Active; 'I' for Inactive)
REMARK    1  A    between atoms: N_2  and  C1_3 
ROOT
ATOM      1  C1  UNL d   1       0.962  -1.524  -1.082  0.00  0.00     0.143 A 
ATOM      2  C2  UNL d   1       1.226  -2.863  -0.775  0.00  0.00    -0.057 A 
ATOM      3  C3  UNL d   1       1.262  -3.844  -1.773  0.00  0.00     0.033 A 
ATOM      4  C4  UNL d   1       1.005  -3.506  -3.098  0.00  0.00    -0.042 A 
ATOM      5  C5  UNL d   1       0.716  -2.186  -3.423  0.00  0.00     0.033 A 
ATOM      6  C6  UNL d   1       0.688  -1.210  -2.423  0.00  0.00    -0.057 A 
ENDROOT
BRANCH   1   7
ATOM      7  N   UNL d   1       0.815  -0.520  -0.123  0.00  0.00    -0.732 N 
ATOM      8  C   UNL d   1      -0.402  -0.413   0.653  0.00  0.00     0.284 C 
ATOM      9  H3  UNL d   1       1.666  -0.369   0.416  0.00  0.00     0.395 HD
ENDBRANCH   1   7
TORSDOF 1
ENDMDL
