MODEL 1
REMARK minimizedAffinity 0.210750282
REMARK minimizedRMSD -1
REMARK  1 active torsions:
REMARK  status: ('A' for Active; 'I' for Inactive)
REMARK    1  A    between atoms: N_2  and  C1_3 
ROOT
ATOM      1  C1  UNL d   1       2.650  -5.355  -0.553  0.00  0.00     0.143 A 
ATOM      2  C2  UNL d   1       1.545  -6.000  -1.120  0.00  0.00    -0.057 A 
ATOM      3  C3  UNL d   1       0.630  -5.304  -1.919  0.00  0.00     0.033 A 
ATOM      4  C4  UNL d   1       0.789  -3.940  -2.142  0.00  0.00    -0.042 A 
ATOM      5  C5  UNL d   1       1.865  -3.274  -1.568  0.00  0.00     0.033 A 
ATOM      6  C6  UNL d   1       2.779  -3.975  -0.777  0.00  0.00    -0.057 A 
ENDROOT
BRANCH   1   7
ATOM      7  N   UNL d   1       3.540  -5.970   0.331  0.00  0.00    -0.732 N 
ATOM      8  C   UNL d   1       4.959  -5.999   0.047  0.00  0.00     0.284 C 
ATOM      9  H3  UNL d   1       3.315  -5.779   1.305  0.00  0.00     0.395 HD
ENDBRANCH   1   7
TORSDOF 1
ENDMDL
