MODEL 1
REMARK minimizedAffinity -2.59194183
REMARK minimizedRMSD -1
REMARK  1 active torsions:
REMARK  status: ('A' for Active; 'I' for Inactive)
REMARK    1  A    between atoms: N_2  and  C1_3 
ROOT
ATOM      1  C1  UNL d   1       0.390   0.539   0.142  0.00  0.00     0.143 A 
ATOM      2  C2  UNL d   1       1.098  -0.623   0.469  0.00  0.00    -0.057 A 
ATOM      3  C3  UNL d   1       0.750  -1.395   1.585  0.00  0.00     0.033 A 
ATOM      4  C4  UNL d   1      -0.297  -1.001   2.412  0.00  0.00    -0.042 A 
ATOM      5  C5  UNL d   1      -0.998   0.164   2.120  0.00  0.00     0.033 A 
ATOM      6  C6  UNL d   1      -0.650   0.927   1.001  0.00  0.00    -0.057 A 
ENDROOT
BRANCH   1   7
ATOM      7  N   UNL d   1       0.749   1.402  -0.897  0.00  0.00    -0.732 N 
ATOM      8  C   UNL d   1       0.311   2.781  -0.894  0.00  0.00     0.284 C 
ATOM      9  H3  UNL d   1       1.714   1.273  -1.193  0.00  0.00     0.395 HD
ENDBRANCH   1   7
TORSDOF 1
ENDMDL
