MODEL 1
REMARK minimizedAffinity -5.13183594
REMARK minimizedRMSD -1
REMARK  1 active torsions:
REMARK  status: ('A' for Active; 'I' for Inactive)
REMARK    1  A    between atoms: N_2  and  C1_3 
ROOT
ATOM      1  C1  UNL d   1      -0.042   0.221   0.098  0.00  0.00     0.143 A 
ATOM      2  C2  UNL d   1      -0.192  -0.002   1.471  0.00  0.00    -0.057 A 
ATOM      3  C3  UNL d   1      -1.084   0.758   2.237  0.00  0.00     0.033 A 
ATOM      4  C4  UNL d   1      -1.824   1.777   1.647  0.00  0.00    -0.042 A 
ATOM      5  C5  UNL d   1      -1.672   2.034   0.289  0.00  0.00     0.033 A 
ATOM      6  C6  UNL d   1      -0.784   1.267  -0.472  0.00  0.00    -0.057 A 
ENDROOT
BRANCH   1   7
ATOM      7  N   UNL d   1       0.901  -0.434  -0.698  0.00  0.00    -0.732 N 
ATOM      8  C   UNL d   1       0.501  -1.509  -1.580  0.00  0.00     0.284 C 
ATOM      9  H3  UNL d   1       1.579   0.207  -1.104  0.00  0.00     0.395 HD
ENDBRANCH   1   7
TORSDOF 1
ENDMDL
