MODEL 1
REMARK minimizedAffinity -3.99151278
REMARK minimizedRMSD -1
REMARK  1 active torsions:
REMARK  status: ('A' for Active; 'I' for Inactive)
REMARK    1  A    between atoms: N_2  and  C1_3 
ROOT
ATOM      1  C1  UNL d   1      -0.108  -0.013  -0.066  0.00  0.00     0.143 A 
ATOM      2  C2  UNL d   1      -0.466  -0.376   1.237  0.00  0.00    -0.057 A 
ATOM      3  C3  UNL d   1      -1.354   0.403   1.989  0.00  0.00     0.033 A 
ATOM      4  C4  UNL d   1      -1.877   1.578   1.461  0.00  0.00    -0.042 A 
ATOM      5  C5  UNL d   1      -1.515   1.972   0.178  0.00  0.00     0.033 A 
ATOM      6  C6  UNL d   1      -0.634   1.187  -0.572  0.00  0.00    -0.057 A 
ENDROOT
BRANCH   1   7
ATOM      7  N   UNL d   1       0.846  -0.692  -0.828  0.00  0.00    -0.732 N 
ATOM      8  C   UNL d   1       0.466  -1.827  -1.642  0.00  0.00     0.284 C 
ATOM      9  H3  UNL d   1       1.506  -0.061  -1.277  0.00  0.00     0.395 HD
ENDBRANCH   1   7
TORSDOF 1
ENDMDL
