MODEL 1
REMARK minimizedAffinity -4.5266304
REMARK minimizedRMSD -1
REMARK  1 active torsions:
REMARK  status: ('A' for Active; 'I' for Inactive)
REMARK    1  A    between atoms: N_2  and  C1_3 
ROOT
ATOM      1  C1  UNL d   1      -0.767   0.675   1.124  0.00  0.00     0.143 A 
ATOM      2  C2  UNL d   1      -0.095  -0.543   1.267  0.00  0.00    -0.057 A 
ATOM      3  C3  UNL d   1       0.655  -1.087   0.216  0.00  0.00     0.033 A 
ATOM      4  C4  UNL d   1       0.722  -0.433  -1.009  0.00  0.00    -0.042 A 
ATOM      5  C5  UNL d   1       0.041   0.768  -1.182  0.00  0.00     0.033 A 
ATOM      6  C6  UNL d   1      -0.700   1.308  -0.128  0.00  0.00    -0.057 A 
ENDROOT
BRANCH   1   7
ATOM      7  N   UNL d   1      -1.609   1.218   2.097  0.00  0.00    -0.732 N 
ATOM      8  C   UNL d   1      -2.581   2.232   1.749  0.00  0.00     0.284 C 
ATOM      9  H3  UNL d   1      -1.955   0.516   2.747  0.00  0.00     0.395 HD
ENDBRANCH   1   7
TORSDOF 1
ENDMDL
