MODEL 1
REMARK minimizedAffinity -1.93894172
REMARK minimizedRMSD -1
REMARK  1 active torsions:
REMARK  status: ('A' for Active; 'I' for Inactive)
REMARK    1  A    between atoms: N_2  and  C1_3 
ROOT
ATOM      1  C1  UNL d   1      -1.241   1.132   1.103  0.00  0.00     0.143 A 
ATOM      2  C2  UNL d   1      -0.634   0.151   1.895  0.00  0.00    -0.057 A 
ATOM      3  C3  UNL d   1       0.316  -0.728   1.360  0.00  0.00     0.033 A 
ATOM      4  C4  UNL d   1       0.655  -0.660   0.013  0.00  0.00    -0.042 A 
ATOM      5  C5  UNL d   1       0.046   0.290  -0.798  0.00  0.00     0.033 A 
ATOM      6  C6  UNL d   1      -0.897   1.170  -0.257  0.00  0.00    -0.057 A 
ENDROOT
BRANCH   1   7
ATOM      7  N   UNL d   1      -2.264   1.970   1.552  0.00  0.00    -0.732 N 
ATOM      8  C   UNL d   1      -2.194   3.399   1.336  0.00  0.00     0.284 C 
ATOM      9  H3  UNL d   1      -3.188   1.571   1.400  0.00  0.00     0.395 HD
ENDBRANCH   1   7
TORSDOF 1
ENDMDL
