MODEL 1
REMARK minimizedAffinity -4.47461748
REMARK minimizedRMSD -1
REMARK  1 active torsions:
REMARK  status: ('A' for Active; 'I' for Inactive)
REMARK    1  A    between atoms: N_2  and  C1_3 
ROOT
ATOM      1  C1  UNL d   1       0.242  -0.270   0.091  0.00  0.00     0.143 A 
ATOM      2  C2  UNL d   1       0.076  -0.509   1.460  0.00  0.00    -0.057 A 
ATOM      3  C3  UNL d   1      -0.802   0.263   2.230  0.00  0.00     0.033 A 
ATOM      4  C4  UNL d   1      -1.510   1.309   1.649  0.00  0.00    -0.042 A 
ATOM      5  C5  UNL d   1      -1.343   1.581   0.296  0.00  0.00     0.033 A 
ATOM      6  C6  UNL d   1      -0.470   0.802  -0.470  0.00  0.00    -0.057 A 
ENDROOT
BRANCH   1   7
ATOM      7  N   UNL d   1       1.173  -0.939  -0.708  0.00  0.00    -0.732 N 
ATOM      8  C   UNL d   1       0.759  -2.027  -1.568  0.00  0.00     0.284 C 
ATOM      9  H3  UNL d   1       1.845  -0.305  -1.134  0.00  0.00     0.395 HD
ENDBRANCH   1   7
TORSDOF 1
ENDMDL
