MODEL 1
REMARK minimizedAffinity -3.1313405
REMARK minimizedRMSD -1
REMARK  1 active torsions:
REMARK  status: ('A' for Active; 'I' for Inactive)
REMARK    1  A    between atoms: N_2  and  C1_3 
ROOT
ATOM      1  C1  UNL d   1      -0.555   1.103   0.426  0.00  0.00     0.143 A 
ATOM      2  C2  UNL d   1      -1.453   1.641   1.354  0.00  0.00    -0.057 A 
ATOM      3  C3  UNL d   1      -1.632   3.024   1.474  0.00  0.00     0.033 A 
ATOM      4  C4  UNL d   1      -0.891   3.898   0.685  0.00  0.00    -0.042 A 
ATOM      5  C5  UNL d   1       0.025   3.387  -0.227  0.00  0.00     0.033 A 
ATOM      6  C6  UNL d   1       0.194   2.004  -0.347  0.00  0.00    -0.057 A 
ENDROOT
BRANCH   1   7
ATOM      7  N   UNL d   1      -0.260  -0.259   0.327  0.00  0.00    -0.732 N 
ATOM      8  C   UNL d   1       0.988  -0.703  -0.255  0.00  0.00     0.284 C 
ATOM      9  H3  UNL d   1      -0.541  -0.778   1.156  0.00  0.00     0.395 HD
ENDBRANCH   1   7
TORSDOF 1
ENDMDL
