MODEL 1
REMARK minimizedAffinity -5.31428146
REMARK minimizedRMSD -1
REMARK  1 active torsions:
REMARK  status: ('A' for Active; 'I' for Inactive)
REMARK    1  A    between atoms: N_2  and  C1_3 
ROOT
ATOM      1  C1  UNL d   1      -0.580   1.021  -0.333  0.00  0.00     0.143 A 
ATOM      2  C2  UNL d   1      -1.498   1.188   0.710  0.00  0.00    -0.057 A 
ATOM      3  C3  UNL d   1      -1.942   2.461   1.089  0.00  0.00     0.033 A 
ATOM      4  C4  UNL d   1      -1.453   3.594   0.448  0.00  0.00    -0.042 A 
ATOM      5  C5  UNL d   1      -0.521   3.454  -0.575  0.00  0.00     0.033 A 
ATOM      6  C6  UNL d   1      -0.086   2.180  -0.953  0.00  0.00    -0.057 A 
ENDROOT
BRANCH   1   7
ATOM      7  N   UNL d   1      -0.025  -0.210  -0.691  0.00  0.00    -0.732 N 
ATOM      8  C   UNL d   1       1.024  -0.806   0.107  0.00  0.00     0.284 C 
ATOM      9  H3  UNL d   1      -0.726  -0.872  -1.017  0.00  0.00     0.395 HD
ENDBRANCH   1   7
TORSDOF 1
ENDMDL
