MODEL 1
REMARK minimizedAffinity -5.19552803
REMARK minimizedRMSD -1
REMARK  1 active torsions:
REMARK  status: ('A' for Active; 'I' for Inactive)
REMARK    1  A    between atoms: N_2  and  C1_3 
ROOT
ATOM      1  C1  UNL d   1       0.360   1.254   0.066  0.00  0.00     0.143 A 
ATOM      2  C2  UNL d   1       0.009   2.451  -0.565  0.00  0.00    -0.057 A 
ATOM      3  C3  UNL d   1      -0.916   3.332   0.010  0.00  0.00     0.033 A 
ATOM      4  C4  UNL d   1      -1.529   3.015   1.217  0.00  0.00    -0.042 A 
ATOM      5  C5  UNL d   1      -1.214   1.818   1.851  0.00  0.00     0.033 A 
ATOM      6  C6  UNL d   1      -0.285   0.946   1.275  0.00  0.00    -0.057 A 
ENDROOT
BRANCH   1   7
ATOM      7  N   UNL d   1       1.197   0.291  -0.502  0.00  0.00    -0.732 N 
ATOM      8  C   UNL d   1       0.753  -1.079  -0.648  0.00  0.00     0.284 C 
ATOM      9  H3  UNL d   1       1.713   0.649  -1.303  0.00  0.00     0.395 HD
ENDBRANCH   1   7
TORSDOF 1
ENDMDL
