MODEL 1
REMARK minimizedAffinity -3.19059443
REMARK minimizedRMSD -1
REMARK  1 active torsions:
REMARK  status: ('A' for Active; 'I' for Inactive)
REMARK    1  A    between atoms: N_2  and  C1_3 
ROOT
ATOM      1  C1  UNL d   1       1.236  -4.857  -1.088  0.00  0.00     0.143 A 
ATOM      2  C2  UNL d   1       0.073  -4.797  -1.863  0.00  0.00    -0.057 A 
ATOM      3  C3  UNL d   1      -0.260  -3.646  -2.587  0.00  0.00     0.033 A 
ATOM      4  C4  UNL d   1       0.553  -2.519  -2.525  0.00  0.00    -0.042 A 
ATOM      5  C5  UNL d   1       1.702  -2.547  -1.742  0.00  0.00     0.033 A 
ATOM      6  C6  UNL d   1       2.032  -3.702  -1.027  0.00  0.00    -0.057 A 
ENDROOT
BRANCH   1   7
ATOM      7  N   UNL d   1       1.571  -5.937  -0.268  0.00  0.00    -0.732 N 
ATOM      8  C   UNL d   1       2.845  -5.975   0.417  0.00  0.00     0.284 C 
ATOM      9  H3  UNL d   1       0.785  -6.254   0.295  0.00  0.00     0.395 HD
ENDBRANCH   1   7
TORSDOF 1
ENDMDL
