MODEL 1
REMARK minimizedAffinity -2.64720464
REMARK minimizedRMSD -1
REMARK  1 active torsions:
REMARK  status: ('A' for Active; 'I' for Inactive)
REMARK    1  A    between atoms: C1_2  and  C2_3 
ROOT
ATOM      1  C2  UNL d   1       0.700  -0.717  -0.461  0.00  0.00    -0.073 A 
ATOM      2  C3  UNL d   1      -0.032   0.012   0.483  0.00  0.00    -0.002 A 
ATOM      3  C4  UNL d   1      -0.350   1.351   0.249  0.00  0.00     0.004 A 
ATOM      4  C5  UNL d   1       0.055   1.972  -0.933  0.00  0.00    -0.004 A 
ATOM      5  C6  UNL d   1       0.777   1.256  -1.894  0.00  0.00    -0.075 A 
ATOM      6  C7  UNL d   1       1.221   1.910  -3.170  0.00  0.00     0.076 C 
ATOM      7  C8  UNL d   1       1.094  -0.087  -1.650  0.00  0.00     0.001 A 
ENDROOT
BRANCH   1   8
ATOM      8  C1  UNL d   1       1.039  -2.164  -0.215  0.00  0.00     0.053 C 
ATOM      9  C   UNL d   1       0.035  -2.836   0.709  0.00  0.00     0.018 C 
ENDBRANCH   1   8
TORSDOF 1
ENDMDL
