MODEL 1
REMARK minimizedAffinity -2.4511373
REMARK minimizedRMSD -1
REMARK  1 active torsions:
REMARK  status: ('A' for Active; 'I' for Inactive)
REMARK    1  A    between atoms: C1_2  and  C2_3 
ROOT
ATOM      1  C2  UNL d   1      -1.378  -1.224   1.535  0.00  0.00    -0.073 A 
ATOM      2  C3  UNL d   1      -1.036  -2.553   1.262  0.00  0.00    -0.002 A 
ATOM      3  C4  UNL d   1      -0.198  -2.860   0.189  0.00  0.00     0.004 A 
ATOM      4  C5  UNL d   1       0.312  -1.842  -0.617  0.00  0.00    -0.004 A 
ATOM      5  C6  UNL d   1      -0.008  -0.506  -0.353  0.00  0.00    -0.075 A 
ATOM      6  C7  UNL d   1       0.530   0.601  -1.211  0.00  0.00     0.076 C 
ATOM      7  C8  UNL d   1      -0.853  -0.206   0.725  0.00  0.00     0.001 A 
ENDROOT
BRANCH   1   8
ATOM      8  C1  UNL d   1      -2.277  -0.887   2.696  0.00  0.00     0.053 C 
ATOM      9  C   UNL d   1      -2.995   0.438   2.496  0.00  0.00     0.018 C 
ENDBRANCH   1   8
TORSDOF 1
ENDMDL
