MODEL 1
REMARK minimizedAffinity -4.77295303
REMARK minimizedRMSD -1
REMARK  1 active torsions:
REMARK  status: ('A' for Active; 'I' for Inactive)
REMARK    1  A    between atoms: C1_2  and  C2_3 
ROOT
ATOM      1  C2  UNL d   1      -1.027  -0.345   0.781  0.00  0.00    -0.073 A 
ATOM      2  C3  UNL d   1      -0.988   0.827   0.018  0.00  0.00    -0.002 A 
ATOM      3  C4  UNL d   1       0.150   1.149  -0.723  0.00  0.00     0.004 A 
ATOM      4  C5  UNL d   1       1.257   0.300  -0.714  0.00  0.00    -0.004 A 
ATOM      5  C6  UNL d   1       1.233  -0.882   0.033  0.00  0.00    -0.075 A 
ATOM      6  C7  UNL d   1       2.416  -1.805   0.056  0.00  0.00     0.076 C 
ATOM      7  C8  UNL d   1       0.087  -1.197   0.776  0.00  0.00     0.001 A 
ENDROOT
BRANCH   1   8
ATOM      8  C1  UNL d   1      -2.256  -0.700   1.577  0.00  0.00     0.053 C 
ATOM      9  C   UNL d   1      -2.237  -2.149   2.038  0.00  0.00     0.018 C 
ENDBRANCH   1   8
TORSDOF 1
ENDMDL
