MODEL 1
REMARK minimizedAffinity -2.46144295
REMARK minimizedRMSD -1
REMARK  1 active torsions:
REMARK  status: ('A' for Active; 'I' for Inactive)
REMARK    1  A    between atoms: C1_2  and  C2_3 
ROOT
ATOM      1  C2  UNL d   1       0.223  -0.313  -0.507  0.00  0.00    -0.073 A 
ATOM      2  C3  UNL d   1      -0.391   0.448   0.495  0.00  0.00    -0.002 A 
ATOM      3  C4  UNL d   1      -0.488   1.834   0.367  0.00  0.00     0.004 A 
ATOM      4  C5  UNL d   1       0.020   2.472  -0.765  0.00  0.00    -0.004 A 
ATOM      5  C6  UNL d   1       0.626   1.728  -1.782  0.00  0.00    -0.075 A 
ATOM      6  C7  UNL d   1       1.180   2.399  -3.004  0.00  0.00     0.076 C 
ATOM      7  C8  UNL d   1       0.722   0.336  -1.645  0.00  0.00     0.001 A 
ENDROOT
BRANCH   1   8
ATOM      8  C1  UNL d   1       0.324  -1.811  -0.376  0.00  0.00     0.053 C 
ATOM      9  C   UNL d   1      -0.114  -2.294   0.997  0.00  0.00     0.018 C 
ENDBRANCH   1   8
TORSDOF 1
ENDMDL
