MODEL 1
REMARK minimizedAffinity -3.99986911
REMARK minimizedRMSD -1
REMARK  1 active torsions:
REMARK  status: ('A' for Active; 'I' for Inactive)
REMARK    1  A    between atoms: C1_2  and  C2_3 
ROOT
ATOM      1  C2  UNL d   1       0.695   0.689  -2.110  0.00  0.00    -0.073 A 
ATOM      2  C3  UNL d   1       0.778   1.699  -1.144  0.00  0.00    -0.002 A 
ATOM      3  C4  UNL d   1       0.815   1.374   0.213  0.00  0.00     0.004 A 
ATOM      4  C5  UNL d   1       0.778   0.040   0.617  0.00  0.00    -0.004 A 
ATOM      5  C6  UNL d   1       0.708  -0.983  -0.334  0.00  0.00    -0.075 A 
ATOM      6  C7  UNL d   1       0.665  -2.424   0.084  0.00  0.00     0.076 C 
ATOM      7  C8  UNL d   1       0.668  -0.650  -1.694  0.00  0.00     0.001 A 
ENDROOT
BRANCH   1   8
ATOM      8  C1  UNL d   1       0.661   1.034  -3.577  0.00  0.00     0.053 C 
ATOM      9  C   UNL d   1       0.438   2.520  -3.807  0.00  0.00     0.018 C 
ENDBRANCH   1   8
TORSDOF 1
ENDMDL
