MODEL 1
REMARK minimizedAffinity -6.1221838
REMARK minimizedRMSD -1
REMARK  1 active torsions:
REMARK  status: ('A' for Active; 'I' for Inactive)
REMARK    1  A    between atoms: C1_2  and  C2_3 
ROOT
ATOM      1  C2  UNL d   1       0.161   0.352   0.223  0.00  0.00    -0.073 A 
ATOM      2  C3  UNL d   1       0.734  -0.915   0.068  0.00  0.00    -0.002 A 
ATOM      3  C4  UNL d   1       0.200  -2.017   0.737  0.00  0.00     0.004 A 
ATOM      4  C5  UNL d   1      -0.914  -1.865   1.563  0.00  0.00    -0.004 A 
ATOM      5  C6  UNL d   1      -1.507  -0.609   1.722  0.00  0.00    -0.075 A 
ATOM      6  C7  UNL d   1      -2.705  -0.428   2.608  0.00  0.00     0.076 C 
ATOM      7  C8  UNL d   1      -0.964   0.493   1.048  0.00  0.00     0.001 A 
ENDROOT
BRANCH   1   8
ATOM      8  C1  UNL d   1       0.730   1.544  -0.503  0.00  0.00     0.053 C 
ATOM      9  C   UNL d   1       0.390   1.523  -1.985  0.00  0.00     0.018 C 
ENDBRANCH   1   8
TORSDOF 1
ENDMDL
