MODEL 1
REMARK minimizedAffinity -4.87924004
REMARK minimizedRMSD -1
REMARK  1 active torsions:
REMARK  status: ('A' for Active; 'I' for Inactive)
REMARK    1  A    between atoms: C1_2  and  C2_3 
ROOT
ATOM      1  C2  UNL d   1       0.191   0.120   0.030  0.00  0.00    -0.073 A 
ATOM      2  C3  UNL d   1       0.769  -1.154   0.054  0.00  0.00    -0.002 A 
ATOM      3  C4  UNL d   1       0.267  -2.140   0.903  0.00  0.00     0.004 A 
ATOM      4  C5  UNL d   1      -0.821  -1.866   1.731  0.00  0.00    -0.004 A 
ATOM      5  C6  UNL d   1      -1.421  -0.602   1.713  0.00  0.00    -0.075 A 
ATOM      6  C7  UNL d   1      -2.591  -0.290   2.600  0.00  0.00     0.076 C 
ATOM      7  C8  UNL d   1      -0.909   0.384   0.859  0.00  0.00     0.001 A 
ENDROOT
BRANCH   1   8
ATOM      8  C1  UNL d   1       0.726   1.187  -0.891  0.00  0.00     0.053 C 
ATOM      9  C   UNL d   1       0.741   0.732  -2.341  0.00  0.00     0.018 C 
ENDBRANCH   1   8
TORSDOF 1
ENDMDL
