MODEL 1
REMARK minimizedAffinity -3.27763534
REMARK minimizedRMSD -1
REMARK  1 active torsions:
REMARK  status: ('A' for Active; 'I' for Inactive)
REMARK    1  A    between atoms: C1_2  and  C2_3 
ROOT
ATOM      1  C2  UNL d   1       0.893   1.005  -0.854  0.00  0.00    -0.073 A 
ATOM      2  C3  UNL d   1      -0.139   1.674  -0.186  0.00  0.00    -0.002 A 
ATOM      3  C4  UNL d   1      -0.989   0.978   0.675  0.00  0.00     0.004 A 
ATOM      4  C5  UNL d   1      -0.813  -0.390   0.881  0.00  0.00    -0.004 A 
ATOM      5  C6  UNL d   1       0.220  -1.074   0.232  0.00  0.00    -0.075 A 
ATOM      6  C7  UNL d   1       0.422  -2.546   0.442  0.00  0.00     0.076 C 
ATOM      7  C8  UNL d   1       1.068  -0.369  -0.633  0.00  0.00     0.001 A 
ENDROOT
BRANCH   1   8
ATOM      8  C1  UNL d   1       1.818   1.753  -1.779  0.00  0.00     0.053 C 
ATOM      9  C   UNL d   1       1.238   1.888  -3.178  0.00  0.00     0.018 C 
ENDBRANCH   1   8
TORSDOF 1
ENDMDL
