MODEL 1
REMARK minimizedAffinity -2.9003849
REMARK minimizedRMSD -1
REMARK  1 active torsions:
REMARK  status: ('A' for Active; 'I' for Inactive)
REMARK    1  A    between atoms: C1_2  and  C2_3 
ROOT
ATOM      1  C2  UNL d   1      -0.118  -0.484   0.185  0.00  0.00    -0.073 A 
ATOM      2  C3  UNL d   1      -0.757   0.407   1.054  0.00  0.00    -0.002 A 
ATOM      3  C4  UNL d   1      -0.620   1.784   0.877  0.00  0.00     0.004 A 
ATOM      4  C5  UNL d   1       0.150   2.284  -0.173  0.00  0.00    -0.004 A 
ATOM      5  C6  UNL d   1       0.786   1.409  -1.060  0.00  0.00    -0.075 A 
ATOM      6  C7  UNL d   1       1.619   1.931  -2.193  0.00  0.00     0.076 C 
ATOM      7  C8  UNL d   1       0.646   0.027  -0.874  0.00  0.00     0.001 A 
ENDROOT
BRANCH   1   8
ATOM      8  C1  UNL d   1      -0.268  -1.973   0.368  0.00  0.00     0.053 C 
ATOM      9  C   UNL d   1       0.161  -2.422   1.756  0.00  0.00     0.018 C 
ENDBRANCH   1   8
TORSDOF 1
ENDMDL
