MODEL 1
REMARK minimizedAffinity 8.32539082
REMARK minimizedRMSD -1
REMARK  0 active torsions:
REMARK  status: ('A' for Active; 'I' for Inactive)
ROOT
ATOM      1  C1  DEN d   1       1.165  -2.155   1.186  0.00  0.00     0.130 A 
ATOM      2  C2  DEN d   1       0.625  -1.255   2.201  0.00  0.00    -0.031 A 
ATOM      3  C3  DEN d   1       1.515  -1.310   3.379  0.00  0.00     0.027 A 
ATOM      4  C4  DEN d   1       3.665  -2.691   3.725  0.00  0.00     0.027 A 
ATOM      5  C5  DEN d   1       4.514  -3.610   3.149  0.00  0.00    -0.003 A 
ATOM      6  C6  DEN d   1       4.289  -4.130   1.902  0.00  0.00     0.001 A 
ATOM      7  C7  DEN d   1       3.213  -3.700   1.171  0.00  0.00     0.017 A 
ATOM      8  C8  DEN d   1       2.349  -2.779   1.748  0.00  0.00    -0.094 A 
ATOM      9  C9  DEN d   1       2.600  -2.256   3.005  0.00  0.00    -0.072 A 
ENDROOT
TORSDOF 0
ENDMDL
