MODEL 1
REMARK minimizedAffinity 17.0323696
REMARK minimizedRMSD -1
REMARK  0 active torsions:
REMARK  status: ('A' for Active; 'I' for Inactive)
ROOT
ATOM      1  C1  DEN d   1       2.213   1.167   0.181  0.00  0.00     0.130 A 
ATOM      2  C2  DEN d   1       2.517   0.249  -0.913  0.00  0.00    -0.031 A 
ATOM      3  C3  DEN d   1       2.121  -1.110  -0.491  0.00  0.00     0.027 A 
ATOM      4  C4  DEN d   1       1.068  -1.876   1.735  0.00  0.00     0.027 A 
ATOM      5  C5  DEN d   1       0.634  -1.458   2.974  0.00  0.00    -0.003 A 
ATOM      6  C6  DEN d   1       0.726  -0.153   3.378  0.00  0.00     0.001 A 
ATOM      7  C7  DEN d   1       1.224   0.790   2.518  0.00  0.00     0.017 A 
ATOM      8  C8  DEN d   1       1.670   0.376   1.270  0.00  0.00    -0.094 A 
ATOM      9  C9  DEN d   1       1.557  -0.946   0.876  0.00  0.00    -0.072 A 
ENDROOT
TORSDOF 0
ENDMDL
