MODEL 1
REMARK minimizedAffinity 5.84571314
REMARK minimizedRMSD -1
REMARK  0 active torsions:
REMARK  status: ('A' for Active; 'I' for Inactive)
ROOT
ATOM      1  C1  DEN d   1       1.858  -2.074   1.920  0.00  0.00     0.130 A 
ATOM      2  C2  DEN d   1       1.626  -1.674   0.535  0.00  0.00    -0.031 A 
ATOM      3  C3  DEN d   1       2.768  -2.144  -0.273  0.00  0.00     0.027 A 
ATOM      4  C4  DEN d   1       4.861  -3.451   0.480  0.00  0.00     0.027 A 
ATOM      5  C5  DEN d   1       5.507  -4.008   1.561  0.00  0.00    -0.003 A 
ATOM      6  C6  DEN d   1       5.004  -3.930   2.832  0.00  0.00     0.001 A 
ATOM      7  C7  DEN d   1       3.797  -3.320   3.048  0.00  0.00     0.017 A 
ATOM      8  C8  DEN d   1       3.142  -2.750   1.964  0.00  0.00    -0.094 A 
ATOM      9  C9  DEN d   1       3.661  -2.850   0.685  0.00  0.00    -0.072 A 
ENDROOT
TORSDOF 0
ENDMDL
