MODEL 1
REMARK minimizedAffinity -1.23786664
REMARK minimizedRMSD -1
REMARK  0 active torsions:
REMARK  status: ('A' for Active; 'I' for Inactive)
ROOT
ATOM      1  C1  DEN d   1       4.088  -0.673  -0.947  0.00  0.00     0.130 A 
ATOM      2  C2  DEN d   1       2.839   0.080  -1.027  0.00  0.00    -0.031 A 
ATOM      3  C3  DEN d   1       1.793  -0.696  -0.330  0.00  0.00     0.027 A 
ATOM      4  C4  DEN d   1       1.986  -2.975   0.861  0.00  0.00     0.027 A 
ATOM      5  C5  DEN d   1       2.842  -4.005   1.182  0.00  0.00    -0.003 A 
ATOM      6  C6  DEN d   1       4.155  -4.013   0.789  0.00  0.00     0.001 A 
ATOM      7  C7  DEN d   1       4.660  -2.948   0.092  0.00  0.00     0.017 A 
ATOM      8  C8  DEN d   1       3.801  -1.909  -0.242  0.00  0.00    -0.094 A 
ATOM      9  C9  DEN d   1       2.481  -1.914   0.175  0.00  0.00    -0.072 A 
ENDROOT
TORSDOF 0
ENDMDL
