MODEL 1
REMARK minimizedAffinity 3.78778982
REMARK minimizedRMSD -1
REMARK  0 active torsions:
REMARK  status: ('A' for Active; 'I' for Inactive)
ROOT
ATOM      1  C1  DEN d   1       3.732   0.912  -0.717  0.00  0.00     0.130 A 
ATOM      2  C2  DEN d   1       2.343   0.676  -1.102  0.00  0.00    -0.031 A 
ATOM      3  C3  DEN d   1       2.073  -0.770  -0.972  0.00  0.00     0.027 A 
ATOM      4  C4  DEN d   1       3.660  -2.656  -0.212  0.00  0.00     0.027 A 
ATOM      5  C5  DEN d   1       4.940  -2.945   0.206  0.00  0.00    -0.003 A 
ATOM      6  C6  DEN d   1       5.909  -1.982   0.311  0.00  0.00     0.001 A 
ATOM      7  C7  DEN d   1       5.600  -0.676   0.039  0.00  0.00     0.017 A 
ATOM      8  C8  DEN d   1       4.314  -0.377  -0.390  0.00  0.00    -0.094 A 
ATOM      9  C9  DEN d   1       3.345  -1.363  -0.479  0.00  0.00    -0.072 A 
ENDROOT
TORSDOF 0
ENDMDL
