MODEL 1
REMARK minimizedAffinity 11.4300108
REMARK minimizedRMSD -1
REMARK  0 active torsions:
REMARK  status: ('A' for Active; 'I' for Inactive)
ROOT
ATOM      1  C1  DEN d   1       4.359  -4.725   2.525  0.00  0.00     0.130 A 
ATOM      2  C2  DEN d   1       3.878  -5.998   3.055  0.00  0.00    -0.031 A 
ATOM      3  C3  DEN d   1       4.097  -5.996   4.515  0.00  0.00     0.027 A 
ATOM      4  C4  DEN d   1       5.126  -4.154   6.000  0.00  0.00     0.027 A 
ATOM      5  C5  DEN d   1       5.692  -2.899   6.000  0.00  0.00    -0.003 A 
ATOM      6  C6  DEN d   1       5.883  -2.184   4.847  0.00  0.00     0.001 A 
ATOM      7  C7  DEN d   1       5.463  -2.701   3.650  0.00  0.00     0.017 A 
ATOM      8  C8  DEN d   1       4.899  -3.969   3.641  0.00  0.00    -0.094 A 
ATOM      9  C9  DEN d   1       4.703  -4.671   4.818  0.00  0.00    -0.072 A 
ENDROOT
TORSDOF 0
ENDMDL
