MODEL 1
REMARK minimizedAffinity 0.424772948
REMARK minimizedRMSD -1
REMARK  0 active torsions:
REMARK  status: ('A' for Active; 'I' for Inactive)
ROOT
ATOM      1  C1  DEN d   1       3.566  -3.851   0.006  0.00  0.00     0.130 A 
ATOM      2  C2  DEN d   1       3.821  -4.802   1.084  0.00  0.00    -0.031 A 
ATOM      3  C3  DEN d   1       3.045  -4.373   2.265  0.00  0.00     0.027 A 
ATOM      4  C4  DEN d   1       1.478  -2.340   2.525  0.00  0.00     0.027 A 
ATOM      5  C5  DEN d   1       0.955  -1.237   1.888  0.00  0.00    -0.003 A 
ATOM      6  C6  DEN d   1       1.289  -0.912   0.600  0.00  0.00     0.001 A 
ATOM      7  C7  DEN d   1       2.136  -1.723  -0.108  0.00  0.00     0.017 A 
ATOM      8  C8  DEN d   1       2.674  -2.833   0.531  0.00  0.00    -0.094 A 
ATOM      9  C9  DEN d   1       2.314  -3.152   1.830  0.00  0.00    -0.072 A 
ENDROOT
TORSDOF 0
ENDMDL
