MODEL 1
REMARK minimizedAffinity 9.64261818
REMARK minimizedRMSD -1
REMARK  0 active torsions:
REMARK  status: ('A' for Active; 'I' for Inactive)
ROOT
ATOM      1  C1  DEN d   1       4.388  -5.335   2.481  0.00  0.00     0.130 A 
ATOM      2  C2  DEN d   1       4.997  -4.608   1.371  0.00  0.00    -0.031 A 
ATOM      3  C3  DEN d   1       5.710  -3.440   1.927  0.00  0.00     0.027 A 
ATOM      4  C4  DEN d   1       5.933  -2.695   4.386  0.00  0.00     0.027 A 
ATOM      5  C5  DEN d   1       5.579  -2.989   5.684  0.00  0.00    -0.003 A 
ATOM      6  C6  DEN d   1       4.781  -4.056   6.000  0.00  0.00     0.001 A 
ATOM      7  C7  DEN d   1       4.348  -4.897   5.008  0.00  0.00     0.017 A 
ATOM      8  C8  DEN d   1       4.695  -4.603   3.696  0.00  0.00    -0.094 A 
ATOM      9  C9  DEN d   1       5.513  -3.526   3.399  0.00  0.00    -0.072 A 
ENDROOT
TORSDOF 0
ENDMDL
