MODEL 1
REMARK minimizedAffinity -0.474978089
REMARK minimizedRMSD -1
REMARK  0 active torsions:
REMARK  status: ('A' for Active; 'I' for Inactive)
ROOT
ATOM      1  C1  DEN d   1       2.491  -4.088   1.971  0.00  0.00     0.130 A 
ATOM      2  C2  DEN d   1       3.615  -4.370   1.082  0.00  0.00    -0.031 A 
ATOM      3  C3  DEN d   1       3.671  -3.303   0.064  0.00  0.00     0.027 A 
ATOM      4  C4  DEN d   1       2.137  -1.248  -0.220  0.00  0.00     0.027 A 
ATOM      5  C5  DEN d   1       1.038  -0.590   0.285  0.00  0.00    -0.003 A 
ATOM      6  C6  DEN d   1       0.332  -1.065   1.358  0.00  0.00     0.001 A 
ATOM      7  C7  DEN d   1       0.744  -2.209   1.989  0.00  0.00     0.017 A 
ATOM      8  C8  DEN d   1       1.847  -2.883   1.481  0.00  0.00    -0.094 A 
ATOM      9  C9  DEN d   1       2.555  -2.380   0.403  0.00  0.00    -0.072 A 
ENDROOT
TORSDOF 0
ENDMDL
