MODEL 1
REMARK minimizedAffinity 3.03029704
REMARK minimizedRMSD -1
REMARK  3 active torsions:
REMARK  status: ('A' for Active; 'I' for Inactive)
REMARK    1  A    between atoms: C3'_2  and  C2'_3 
REMARK    2  A    between atoms: C2'_3  and  C1'_4 
REMARK    3  A    between atoms: C1'_4  and  C1_5 
ROOT
ATOM      1  C1  N4B d   1       2.081   0.123  -2.662  0.00  0.00    -0.075 A 
ATOM      2  C2  N4B d   1       1.303  -0.031  -3.830  0.00  0.00     0.002 A 
ATOM      3  C3  N4B d   1       1.507   0.799  -4.905  0.00  0.00     0.002 A 
ATOM      4  C4  N4B d   1       2.465   1.798  -4.828  0.00  0.00    -0.004 A 
ATOM      5  C5  N4B d   1       3.230   1.925  -3.705  0.00  0.00     0.002 A 
ATOM      6  C6  N4B d   1       3.039   1.095  -2.619  0.00  0.00     0.002 A 
ENDROOT
BRANCH   1   7
ATOM      7  C1' N4B d   1       1.837  -0.705  -1.430  0.00  0.00     0.057 C 
BRANCH   7   8
ATOM      8  C2' N4B d   1       0.867   0.035  -0.513  0.00  0.00     0.009 C 
BRANCH   8   9
ATOM      9  C3' N4B d   1       1.588   0.762   0.609  0.00  0.00     0.004 C 
ATOM     10  C4' N4B d   1       1.487   2.254   0.494  0.00  0.00     0.003 C 
ENDBRANCH   8   9
ENDBRANCH   7   8
ENDBRANCH   1   7
TORSDOF 3
ENDMDL
