MODEL 1
REMARK minimizedAffinity 3.51963496
REMARK minimizedRMSD -1
REMARK  3 active torsions:
REMARK  status: ('A' for Active; 'I' for Inactive)
REMARK    1  A    between atoms: C3'_2  and  C2'_3 
REMARK    2  A    between atoms: C2'_3  and  C1'_4 
REMARK    3  A    between atoms: C1'_4  and  C1_5 
ROOT
ATOM      1  C1  N4B d   1       3.955   3.274  -2.031  0.00  0.00    -0.075 A 
ATOM      2  C2  N4B d   1       4.555   3.191  -3.306  0.00  0.00     0.002 A 
ATOM      3  C3  N4B d   1       4.597   4.297  -4.119  0.00  0.00     0.002 A 
ATOM      4  C4  N4B d   1       4.030   5.487  -3.687  0.00  0.00    -0.004 A 
ATOM      5  C5  N4B d   1       3.475   5.566  -2.444  0.00  0.00     0.002 A 
ATOM      6  C6  N4B d   1       3.430   4.463  -1.615  0.00  0.00     0.002 A 
ENDROOT
BRANCH   1   7
ATOM      7  C1' N4B d   1       3.810   2.070  -1.141  0.00  0.00     0.057 C 
BRANCH   7   8
ATOM      8  C2' N4B d   1       3.302   2.516   0.227  0.00  0.00     0.009 C 
BRANCH   8   9
ATOM      9  C3' N4B d   1       4.155   1.965   1.356  0.00  0.00     0.004 C 
ATOM     10  C4' N4B d   1       4.816   3.042   2.164  0.00  0.00     0.003 C 
ENDBRANCH   8   9
ENDBRANCH   7   8
ENDBRANCH   1   7
TORSDOF 3
ENDMDL
