MODEL 1
REMARK minimizedAffinity -2.0124774
REMARK minimizedRMSD -1
REMARK  3 active torsions:
REMARK  status: ('A' for Active; 'I' for Inactive)
REMARK    1  A    between atoms: C3'_2  and  C2'_3 
REMARK    2  A    between atoms: C2'_3  and  C1'_4 
REMARK    3  A    between atoms: C1'_4  and  C1_5 
ROOT
ATOM      1  C1  N4B d   1       5.870   1.444   4.365  0.00  0.00    -0.075 A 
ATOM      2  C2  N4B d   1       5.841   2.170   3.154  0.00  0.00     0.002 A 
ATOM      3  C3  N4B d   1       5.889   3.542   3.175  0.00  0.00     0.002 A 
ATOM      4  C4  N4B d   1       5.946   4.208   4.390  0.00  0.00    -0.004 A 
ATOM      5  C5  N4B d   1       6.000   3.499   5.554  0.00  0.00     0.002 A 
ATOM      6  C6  N4B d   1       5.957   2.119   5.548  0.00  0.00     0.002 A 
ENDROOT
BRANCH   1   7
ATOM      7  C1' N4B d   1       5.734  -0.054   4.397  0.00  0.00     0.057 C 
BRANCH   7   8
ATOM      8  C2' N4B d   1       5.530  -0.508   5.839  0.00  0.00     0.009 C 
BRANCH   8   9
ATOM      9  C3' N4B d   1       4.946  -1.908   5.917  0.00  0.00     0.004 C 
ATOM     10  C4' N4B d   1       5.998  -2.977   5.898  0.00  0.00     0.003 C 
ENDBRANCH   8   9
ENDBRANCH   7   8
ENDBRANCH   1   7
TORSDOF 3
ENDMDL
