MODEL 1
REMARK minimizedAffinity -3.10284805
REMARK minimizedRMSD -1
REMARK  3 active torsions:
REMARK  status: ('A' for Active; 'I' for Inactive)
REMARK    1  A    between atoms: C3'_2  and  C2'_3 
REMARK    2  A    between atoms: C2'_3  and  C1'_4 
REMARK    3  A    between atoms: C1'_4  and  C1_5 
ROOT
ATOM      1  C1  N4B d   1       4.980   2.191   4.181  0.00  0.00    -0.075 A 
ATOM      2  C2  N4B d   1       4.596   1.051   3.441  0.00  0.00     0.002 A 
ATOM      3  C3  N4B d   1       4.746  -0.202   3.983  0.00  0.00     0.002 A 
ATOM      4  C4  N4B d   1       5.293  -0.340   5.250  0.00  0.00    -0.004 A 
ATOM      5  C5  N4B d   1       5.638   0.768   5.968  0.00  0.00     0.002 A 
ATOM      6  C6  N4B d   1       5.489   2.034   5.437  0.00  0.00     0.002 A 
ENDROOT
BRANCH   1   7
ATOM      7  C1' N4B d   1       4.914   3.576   3.597  0.00  0.00     0.057 C 
BRANCH   7   8
ATOM      8  C2' N4B d   1       5.999   4.440   4.233  0.00  0.00     0.009 C 
BRANCH   8   9
ATOM      9  C3' N4B d   1       5.988   5.858   3.690  0.00  0.00     0.004 C 
ATOM     10  C4' N4B d   1       5.998   5.907   2.191  0.00  0.00     0.003 C 
ENDBRANCH   8   9
ENDBRANCH   7   8
ENDBRANCH   1   7
TORSDOF 3
ENDMDL
