MODEL 1
REMARK minimizedAffinity -0.813657522
REMARK minimizedRMSD -1
REMARK  3 active torsions:
REMARK  status: ('A' for Active; 'I' for Inactive)
REMARK    1  A    between atoms: C3'_2  and  C2'_3 
REMARK    2  A    between atoms: C2'_3  and  C1'_4 
REMARK    3  A    between atoms: C1'_4  and  C1_5 
ROOT
ATOM      1  C1  N4B d   1       5.656   1.671   4.491  0.00  0.00    -0.075 A 
ATOM      2  C2  N4B d   1       5.235   0.791   3.470  0.00  0.00     0.002 A 
ATOM      3  C3  N4B d   1       5.119  -0.553   3.727  0.00  0.00     0.002 A 
ATOM      4  C4  N4B d   1       5.436  -1.041   4.986  0.00  0.00    -0.004 A 
ATOM      5  C5  N4B d   1       5.818  -0.181   5.974  0.00  0.00     0.002 A 
ATOM      6  C6  N4B d   1       5.935   1.173   5.731  0.00  0.00     0.002 A 
ENDROOT
BRANCH   1   7
ATOM      7  C1' N4B d   1       5.880   3.136   4.234  0.00  0.00     0.057 C 
BRANCH   7   8
ATOM      8  C2' N4B d   1       5.755   3.407   2.738  0.00  0.00     0.009 C 
BRANCH   8   9
ATOM      9  C3' N4B d   1       5.970   4.874   2.406  0.00  0.00     0.004 C 
ATOM     10  C4' N4B d   1       5.972   5.750   3.623  0.00  0.00     0.003 C 
ENDBRANCH   8   9
ENDBRANCH   7   8
ENDBRANCH   1   7
TORSDOF 3
ENDMDL
