MODEL 1
REMARK minimizedAffinity 1.20986831
REMARK minimizedRMSD -1
REMARK  3 active torsions:
REMARK  status: ('A' for Active; 'I' for Inactive)
REMARK    1  A    between atoms: C3'_2  and  C2'_3 
REMARK    2  A    between atoms: C2'_3  and  C1'_4 
REMARK    3  A    between atoms: C1'_4  and  C1_5 
ROOT
ATOM      1  C1  N4B d   1       5.425   1.447   3.875  0.00  0.00    -0.075 A 
ATOM      2  C2  N4B d   1       5.463   0.213   3.188  0.00  0.00     0.002 A 
ATOM      3  C3  N4B d   1       5.365  -0.965   3.887  0.00  0.00     0.002 A 
ATOM      4  C4  N4B d   1       5.249  -0.935   5.268  0.00  0.00    -0.004 A 
ATOM      5  C5  N4B d   1       5.187   0.261   5.922  0.00  0.00     0.002 A 
ATOM      6  C6  N4B d   1       5.280   1.453   5.232  0.00  0.00     0.002 A 
ENDROOT
BRANCH   1   7
ATOM      7  C1' N4B d   1       5.614   2.758   3.163  0.00  0.00     0.057 C 
BRANCH   7   8
ATOM      8  C2' N4B d   1       5.046   3.882   4.024  0.00  0.00     0.009 C 
BRANCH   8   9
ATOM      9  C3' N4B d   1       5.993   5.067   4.109  0.00  0.00     0.004 C 
ATOM     10  C4' N4B d   1       5.990   5.903   2.864  0.00  0.00     0.003 C 
ENDBRANCH   8   9
ENDBRANCH   7   8
ENDBRANCH   1   7
TORSDOF 3
ENDMDL
