MODEL 1
REMARK minimizedAffinity 1.36305058
REMARK minimizedRMSD -1
REMARK  3 active torsions:
REMARK  status: ('A' for Active; 'I' for Inactive)
REMARK    1  A    between atoms: C3'_2  and  C2'_3 
REMARK    2  A    between atoms: C2'_3  and  C1'_4 
REMARK    3  A    between atoms: C1'_4  and  C1_5 
ROOT
ATOM      1  C1  N4B d   1       5.626   2.698   3.683  0.00  0.00    -0.075 A 
ATOM      2  C2  N4B d   1       5.429   3.245   4.970  0.00  0.00     0.002 A 
ATOM      3  C3  N4B d   1       5.515   4.602   5.160  0.00  0.00     0.002 A 
ATOM      4  C4  N4B d   1       5.813   5.427   4.086  0.00  0.00    -0.004 A 
ATOM      5  C5  N4B d   1       5.976   4.893   2.841  0.00  0.00     0.002 A 
ATOM      6  C6  N4B d   1       5.889   3.531   2.635  0.00  0.00     0.002 A 
ENDROOT
BRANCH   1   7
ATOM      7  C1' N4B d   1       5.627   1.213   3.443  0.00  0.00     0.057 C 
BRANCH   7   8
ATOM      8  C2' N4B d   1       5.978   0.496   4.744  0.00  0.00     0.009 C 
BRANCH   8   9
ATOM      9  C3' N4B d   1       5.706  -0.997   4.661  0.00  0.00     0.004 C 
ATOM     10  C4' N4B d   1       5.812  -1.681   5.991  0.00  0.00     0.003 C 
ENDBRANCH   8   9
ENDBRANCH   7   8
ENDBRANCH   1   7
TORSDOF 3
ENDMDL
