MODEL 1
REMARK minimizedAffinity -1.67467725
REMARK minimizedRMSD -1
REMARK  3 active torsions:
REMARK  status: ('A' for Active; 'I' for Inactive)
REMARK    1  A    between atoms: C3'_2  and  C2'_3 
REMARK    2  A    between atoms: C2'_3  and  C1'_4 
REMARK    3  A    between atoms: C1'_4  and  C1_5 
ROOT
ATOM      1  C1  N4B d   1       5.936   3.583   5.007  0.00  0.00    -0.075 A 
ATOM      2  C2  N4B d   1       5.910   4.935   5.415  0.00  0.00     0.002 A 
ATOM      3  C3  N4B d   1       5.932   5.936   4.475  0.00  0.00     0.002 A 
ATOM      4  C4  N4B d   1       5.999   5.612   3.128  0.00  0.00    -0.004 A 
ATOM      5  C5  N4B d   1       5.998   4.304   2.742  0.00  0.00     0.002 A 
ATOM      6  C6  N4B d   1       5.972   3.287   3.675  0.00  0.00     0.002 A 
ENDROOT
BRANCH   1   7
ATOM      7  C1' N4B d   1       6.000   2.455   6.000  0.00  0.00     0.057 C 
BRANCH   7   8
ATOM      8  C2' N4B d   1       5.019   1.364   5.582  0.00  0.00     0.009 C 
BRANCH   8   9
ATOM      9  C3' N4B d   1       5.720   0.046   5.302  0.00  0.00     0.004 C 
ATOM     10  C4' N4B d   1       4.999  -0.792   4.289  0.00  0.00     0.003 C 
ENDBRANCH   8   9
ENDBRANCH   7   8
ENDBRANCH   1   7
TORSDOF 3
ENDMDL
