MODEL 1
REMARK minimizedAffinity -4.65302086
REMARK minimizedRMSD -1
REMARK  3 active torsions:
REMARK  status: ('A' for Active; 'I' for Inactive)
REMARK    1  A    between atoms: C3'_2  and  C2'_3 
REMARK    2  A    between atoms: C2'_3  and  C1'_4 
REMARK    3  A    between atoms: C1'_4  and  C1_5 
ROOT
ATOM      1  C1  N4B d   1       5.741   0.001   4.679  0.00  0.00    -0.075 A 
ATOM      2  C2  N4B d   1       5.454  -0.878   5.746  0.00  0.00     0.002 A 
ATOM      3  C3  N4B d   1       5.151  -2.193   5.490  0.00  0.00     0.002 A 
ATOM      4  C4  N4B d   1       5.109  -2.644   4.179  0.00  0.00    -0.004 A 
ATOM      5  C5  N4B d   1       5.412  -1.794   3.156  0.00  0.00     0.002 A 
ATOM      6  C6  N4B d   1       5.723  -0.472   3.399  0.00  0.00     0.002 A 
ENDROOT
BRANCH   1   7
ATOM      7  C1' N4B d   1       5.994   1.467   4.905  0.00  0.00     0.057 C 
BRANCH   7   8
ATOM      8  C2' N4B d   1       6.000   2.186   3.559  0.00  0.00     0.009 C 
BRANCH   8   9
ATOM      9  C3' N4B d   1       5.999   3.697   3.723  0.00  0.00     0.004 C 
ATOM     10  C4' N4B d   1       5.611   4.131   5.105  0.00  0.00     0.003 C 
ENDBRANCH   8   9
ENDBRANCH   7   8
ENDBRANCH   1   7
TORSDOF 3
ENDMDL
