MODEL 1
REMARK minimizedAffinity -5.26761246
REMARK minimizedRMSD -1
REMARK  3 active torsions:
REMARK  status: ('A' for Active; 'I' for Inactive)
REMARK    1  A    between atoms: C3'_2  and  C2'_3 
REMARK    2  A    between atoms: C2'_3  and  C1'_4 
REMARK    3  A    between atoms: C1'_4  and  C1_5 
ROOT
ATOM      1  C1  N4B d   1       5.899   0.535   4.883  0.00  0.00    -0.075 A 
ATOM      2  C2  N4B d   1       5.853  -0.704   5.559  0.00  0.00     0.002 A 
ATOM      3  C3  N4B d   1       5.704  -1.869   4.848  0.00  0.00     0.002 A 
ATOM      4  C4  N4B d   1       5.580  -1.819   3.468  0.00  0.00    -0.004 A 
ATOM      5  C5  N4B d   1       5.651  -0.621   2.820  0.00  0.00     0.002 A 
ATOM      6  C6  N4B d   1       5.804   0.558   3.521  0.00  0.00     0.002 A 
ENDROOT
BRANCH   1   7
ATOM      7  C1' N4B d   1       5.974   1.842   5.623  0.00  0.00     0.057 C 
BRANCH   7   8
ATOM      8  C2' N4B d   1       4.846   2.753   5.149  0.00  0.00     0.009 C 
BRANCH   8   9
ATOM      9  C3' N4B d   1       5.350   4.135   4.774  0.00  0.00     0.004 C 
ATOM     10  C4' N4B d   1       5.436   4.340   3.291  0.00  0.00     0.003 C 
ENDBRANCH   8   9
ENDBRANCH   7   8
ENDBRANCH   1   7
TORSDOF 3
ENDMDL
