MODEL 1
REMARK minimizedAffinity -2.53797102
REMARK minimizedRMSD -1
REMARK  3 active torsions:
REMARK  status: ('A' for Active; 'I' for Inactive)
REMARK    1  A    between atoms: C3'_2  and  C2'_3 
REMARK    2  A    between atoms: C2'_3  and  C1'_4 
REMARK    3  A    between atoms: C1'_4  and  C1_5 
ROOT
ATOM      1  C1  N4B d   1       5.564   1.508   3.752  0.00  0.00    -0.075 A 
ATOM      2  C2  N4B d   1       5.132   0.208   3.409  0.00  0.00     0.002 A 
ATOM      3  C3  N4B d   1       5.070  -0.771   4.371  0.00  0.00     0.002 A 
ATOM      4  C4  N4B d   1       5.453  -0.479   5.672  0.00  0.00    -0.004 A 
ATOM      5  C5  N4B d   1       5.845   0.786   6.000  0.00  0.00     0.002 A 
ATOM      6  C6  N4B d   1       5.908   1.780   5.045  0.00  0.00     0.002 A 
ENDROOT
BRANCH   1   7
ATOM      7  C1' N4B d   1       5.730   2.588   2.718  0.00  0.00     0.057 C 
BRANCH   7   8
ATOM      8  C2' N4B d   1       5.089   3.875   3.231  0.00  0.00     0.009 C 
BRANCH   8   9
ATOM      9  C3' N4B d   1       5.994   5.078   3.031  0.00  0.00     0.004 C 
ATOM     10  C4' N4B d   1       5.998   5.574   1.616  0.00  0.00     0.003 C 
ENDBRANCH   8   9
ENDBRANCH   7   8
ENDBRANCH   1   7
TORSDOF 3
ENDMDL
