MODEL 1
REMARK minimizedAffinity 0.921142876
REMARK minimizedRMSD -1
REMARK  0 active torsions:
REMARK  status: ('A' for Active; 'I' for Inactive)
ROOT
ATOM      1  N1  IND d   1       1.140   0.710  -1.041  0.00  0.00    -0.196 N 
ATOM      2  C2  IND d   1      -0.043   0.153  -0.640  0.00  0.00     0.054 A 
ATOM      3  C3  IND d   1      -0.515   0.791   0.454  0.00  0.00    -0.031 A 
ATOM      4  C4  IND d   1       0.436   2.837   1.693  0.00  0.00     0.051 A 
ATOM      5  C5  IND d   1       1.517   3.674   1.720  0.00  0.00    -0.031 A 
ATOM      6  C6  IND d   1       2.546   3.564   0.808  0.00  0.00     0.015 A 
ATOM      7  C7  IND d   1       2.528   2.617  -0.176  0.00  0.00    -0.016 A 
ATOM      8  C8  IND d   1       1.436   1.762  -0.203  0.00  0.00    -0.047 A 
ATOM      9  C9  IND d   1       0.408   1.841   0.746  0.00  0.00    -0.096 A 
ATOM     10  HN1 IND d   1       1.618   0.447  -1.705  0.00  0.00     0.298 HD
ENDROOT
TORSDOF 0
ENDMDL
