MODEL 1
REMARK minimizedAffinity -1.72150254
REMARK minimizedRMSD -1
REMARK  0 active torsions:
REMARK  status: ('A' for Active; 'I' for Inactive)
ROOT
ATOM      1  N1  IND d   1       1.096   0.291  -0.627  0.00  0.00    -0.196 N 
ATOM      2  C2  IND d   1      -0.245   0.157  -0.397  0.00  0.00     0.054 A 
ATOM      3  C3  IND d   1      -0.698   1.186   0.354  0.00  0.00    -0.031 A 
ATOM      4  C4  IND d   1       0.564   3.253   1.229  0.00  0.00     0.051 A 
ATOM      5  C5  IND d   1       1.815   3.799   1.305  0.00  0.00    -0.031 A 
ATOM      6  C6  IND d   1       2.911   3.193   0.726  0.00  0.00     0.015 A 
ATOM      7  C7  IND d   1       2.796   2.019   0.037  0.00  0.00    -0.016 A 
ATOM      8  C8  IND d   1       1.529   1.458  -0.035  0.00  0.00    -0.047 A 
ATOM      9  C9  IND d   1       0.420   2.046   0.586  0.00  0.00    -0.096 A 
ATOM     10  HN1 IND d   1       1.587  -0.260  -1.068  0.00  0.00     0.298 HD
ENDROOT
TORSDOF 0
ENDMDL
