MODEL 1
REMARK minimizedAffinity 5.87086964
REMARK minimizedRMSD -1
REMARK  0 active torsions:
REMARK  status: ('A' for Active; 'I' for Inactive)
ROOT
ATOM      1  N1  IND d   1       2.808   3.109   1.192  0.00  0.00    -0.196 N 
ATOM      2  C2  IND d   1       2.018   3.821   2.050  0.00  0.00     0.054 A 
ATOM      3  C3  IND d   1       0.776   3.289   2.097  0.00  0.00    -0.031 A 
ATOM      4  C4  IND d   1      -0.150   1.191   0.927  0.00  0.00     0.051 A 
ATOM      5  C5  IND d   1       0.185   0.230   0.015  0.00  0.00    -0.031 A 
ATOM      6  C6  IND d   1       1.438   0.177  -0.561  0.00  0.00     0.015 A 
ATOM      7  C7  IND d   1       2.410   1.080  -0.237  0.00  0.00    -0.016 A 
ATOM      8  C8  IND d   1       2.071   2.061   0.684  0.00  0.00    -0.047 A 
ATOM      9  C9  IND d   1       0.789   2.146   1.240  0.00  0.00    -0.096 A 
ATOM     10  HN1 IND d   1       3.628   3.285   1.001  0.00  0.00     0.298 HD
ENDROOT
TORSDOF 0
ENDMDL
