MODEL 1
REMARK minimizedAffinity -0.107379764
REMARK minimizedRMSD -1
REMARK  0 active torsions:
REMARK  status: ('A' for Active; 'I' for Inactive)
ROOT
ATOM      1  N1  IND d   1       1.448   0.572   0.159  0.00  0.00    -0.196 N 
ATOM      2  C2  IND d   1       0.181   0.153  -0.140  0.00  0.00     0.054 A 
ATOM      3  C3  IND d   1      -0.713   1.130   0.130  0.00  0.00    -0.031 A 
ATOM      4  C4  IND d   1      -0.310   3.530   0.970  0.00  0.00     0.051 A 
ATOM      5  C5  IND d   1       0.676   4.363   1.417  0.00  0.00    -0.031 A 
ATOM      6  C6  IND d   1       1.998   3.968   1.466  0.00  0.00     0.015 A 
ATOM      7  C7  IND d   1       2.385   2.723   1.057  0.00  0.00    -0.016 A 
ATOM      8  C8  IND d   1       1.384   1.872   0.609  0.00  0.00    -0.047 A 
ATOM      9  C9  IND d   1       0.036   2.253   0.597  0.00  0.00    -0.096 A 
ATOM     10  HN1 IND d   1       2.163   0.102   0.078  0.00  0.00     0.298 HD
ENDROOT
TORSDOF 0
ENDMDL
