MODEL 1
REMARK minimizedAffinity -2.28266287
REMARK minimizedRMSD -1
REMARK  0 active torsions:
REMARK  status: ('A' for Active; 'I' for Inactive)
ROOT
ATOM      1  N1  IND d   1       3.147   2.250   0.260  0.00  0.00    -0.196 N 
ATOM      2  C2  IND d   1       2.935   3.297   1.112  0.00  0.00     0.054 A 
ATOM      3  C3  IND d   1       1.623   3.391   1.425  0.00  0.00    -0.031 A 
ATOM      4  C4  IND d   1      -0.336   1.870   0.732  0.00  0.00     0.051 A 
ATOM      5  C5  IND d   1      -0.642   0.805  -0.067  0.00  0.00    -0.031 A 
ATOM      6  C6  IND d   1       0.319   0.152  -0.812  0.00  0.00     0.015 A 
ATOM      7  C7  IND d   1       1.630   0.535  -0.775  0.00  0.00    -0.016 A 
ATOM      8  C8  IND d   1       1.944   1.620   0.030  0.00  0.00    -0.047 A 
ATOM      9  C9  IND d   1       0.966   2.314   0.755  0.00  0.00    -0.096 A 
ATOM     10  HN1 IND d   1       3.905   2.022  -0.076  0.00  0.00     0.298 HD
ENDROOT
TORSDOF 0
ENDMDL
