MODEL 1
REMARK minimizedAffinity -0.151230946
REMARK minimizedRMSD -1
REMARK  0 active torsions:
REMARK  status: ('A' for Active; 'I' for Inactive)
ROOT
ATOM      1  N1  IND d   1       1.799   0.324  -0.919  0.00  0.00    -0.196 N 
ATOM      2  C2  IND d   1       0.473  -0.009  -0.896  0.00  0.00     0.054 A 
ATOM      3  C3  IND d   1      -0.225   0.892  -0.169  0.00  0.00    -0.031 A 
ATOM      4  C4  IND d   1       0.586   3.045   0.985  0.00  0.00     0.051 A 
ATOM      5  C5  IND d   1       1.720   3.752   1.271  0.00  0.00    -0.031 A 
ATOM      6  C6  IND d   1       2.964   3.346   0.831  0.00  0.00     0.015 A 
ATOM      7  C7  IND d   1       3.118   2.218   0.075  0.00  0.00    -0.016 A 
ATOM      8  C8  IND d   1       1.969   1.494  -0.212  0.00  0.00    -0.047 A 
ATOM      9  C9  IND d   1       0.711   1.878   0.268  0.00  0.00    -0.096 A 
ATOM     10  HN1 IND d   1       2.422  -0.122  -1.310  0.00  0.00     0.298 HD
ENDROOT
TORSDOF 0
ENDMDL
