MODEL 1
REMARK minimizedAffinity -4.78225565
REMARK minimizedRMSD -1
REMARK  0 active torsions:
REMARK  status: ('A' for Active; 'I' for Inactive)
ROOT
ATOM      1  N1  IND d   1       0.051   0.216  -2.198  0.00  0.00    -0.196 N 
ATOM      2  C2  IND d   1       0.116   1.122  -1.176  0.00  0.00     0.054 A 
ATOM      3  C3  IND d   1       0.062   0.490   0.018  0.00  0.00    -0.031 A 
ATOM      4  C4  IND d   1      -0.029  -2.031   0.530  0.00  0.00     0.051 A 
ATOM      5  C5  IND d   1      -0.142  -3.251  -0.077  0.00  0.00    -0.031 A 
ATOM      6  C6  IND d   1      -0.195  -3.379  -1.450  0.00  0.00     0.015 A 
ATOM      7  C7  IND d   1      -0.125  -2.289  -2.271  0.00  0.00    -0.016 A 
ATOM      8  C8  IND d   1      -0.017  -1.049  -1.657  0.00  0.00    -0.047 A 
ATOM      9  C9  IND d   1      -0.006  -0.909  -0.264  0.00  0.00    -0.096 A 
ATOM     10  HN1 IND d   1       0.052   0.405  -3.036  0.00  0.00     0.298 HD
ENDROOT
TORSDOF 0
ENDMDL
