MODEL 1
REMARK minimizedAffinity -3.95377207
REMARK minimizedRMSD -1
REMARK  0 active torsions:
REMARK  status: ('A' for Active; 'I' for Inactive)
ROOT
ATOM      1  N1  IND d   1      -0.035   0.460  -0.613  0.00  0.00    -0.196 N 
ATOM      2  C2  IND d   1       0.630  -0.333  -1.506  0.00  0.00     0.054 A 
ATOM      3  C3  IND d   1       1.914   0.072  -1.630  0.00  0.00    -0.031 A 
ATOM      4  C4  IND d   1       3.164   1.950  -0.389  0.00  0.00     0.051 A 
ATOM      5  C5  IND d   1       2.967   2.973   0.496  0.00  0.00    -0.031 A 
ATOM      6  C6  IND d   1       1.735   3.213   1.070  0.00  0.00     0.015 A 
ATOM      7  C7  IND d   1       0.653   2.429   0.788  0.00  0.00    -0.016 A 
ATOM      8  C8  IND d   1       0.847   1.394  -0.116  0.00  0.00    -0.047 A 
ATOM      9  C9  IND d   1       2.084   1.172  -0.734  0.00  0.00    -0.096 A 
ATOM     10  HN1 IND d   1      -0.864   0.388  -0.399  0.00  0.00     0.298 HD
ENDROOT
TORSDOF 0
ENDMDL
