MODEL 1
REMARK minimizedAffinity -1.01712179
REMARK minimizedRMSD -1
REMARK  0 active torsions:
REMARK  status: ('A' for Active; 'I' for Inactive)
ROOT
ATOM      1  N1  IND d   1      -0.342  -1.100  -2.293  0.00  0.00    -0.196 N 
ATOM      2  C2  IND d   1       0.301   0.041  -2.685  0.00  0.00     0.054 A 
ATOM      3  C3  IND d   1       0.419   0.896  -1.644  0.00  0.00    -0.031 A 
ATOM      4  C4  IND d   1      -0.282   0.586   0.814  0.00  0.00     0.051 A 
ATOM      5  C5  IND d   1      -0.940  -0.276   1.646  0.00  0.00    -0.031 A 
ATOM      6  C6  IND d   1      -1.440  -1.482   1.199  0.00  0.00     0.015 A 
ATOM      7  C7  IND d   1      -1.290  -1.878  -0.100  0.00  0.00    -0.016 A 
ATOM      8  C8  IND d   1      -0.628  -1.003  -0.949  0.00  0.00    -0.047 A 
ATOM      9  C9  IND d   1      -0.157   0.242  -0.511  0.00  0.00    -0.096 A 
ATOM     10  HN1 IND d   1      -0.535  -1.767  -2.801  0.00  0.00     0.298 HD
ENDROOT
TORSDOF 0
ENDMDL
