MODEL 1
REMARK minimizedAffinity 1.9870553
REMARK minimizedRMSD -1
REMARK  0 active torsions:
REMARK  status: ('A' for Active; 'I' for Inactive)
ROOT
ATOM      1  N1  IND d   1      -0.608  -2.596  -0.618  0.00  0.00    -0.196 N 
ATOM      2  C2  IND d   1      -1.299  -3.159   0.418  0.00  0.00     0.054 A 
ATOM      3  C3  IND d   1      -1.498  -2.250   1.399  0.00  0.00    -0.031 A 
ATOM      4  C4  IND d   1      -0.864   0.244   1.472  0.00  0.00     0.051 A 
ATOM      5  C5  IND d   1      -0.188   1.204   0.773  0.00  0.00    -0.031 A 
ATOM      6  C6  IND d   1       0.392   0.943  -0.452  0.00  0.00     0.015 A 
ATOM      7  C7  IND d   1       0.307  -0.292  -1.030  0.00  0.00    -0.016 A 
ATOM      8  C8  IND d   1      -0.372  -1.272  -0.320  0.00  0.00    -0.047 A 
ATOM      9  C9  IND d   1      -0.926  -1.023   0.942  0.00  0.00    -0.096 A 
ATOM     10  HN1 IND d   1      -0.361  -3.001  -1.335  0.00  0.00     0.298 HD
ENDROOT
TORSDOF 0
ENDMDL
