MODEL 1
REMARK minimizedAffinity -4.3012352
REMARK minimizedRMSD -1
REMARK  0 active torsions:
REMARK  status: ('A' for Active; 'I' for Inactive)
ROOT
ATOM      1  N1  IND d   1       0.208  -0.494  -2.369  0.00  0.00    -0.196 N 
ATOM      2  C2  IND d   1       0.297   0.849  -2.128  0.00  0.00     0.054 A 
ATOM      3  C3  IND d   1      -0.145   1.134  -0.882  0.00  0.00    -0.031 A 
ATOM      4  C4  IND d   1      -0.962  -0.459   0.967  0.00  0.00     0.051 A 
ATOM      5  C5  IND d   1      -1.255  -1.772   1.206  0.00  0.00    -0.031 A 
ATOM      6  C6  IND d   1      -1.069  -2.747   0.247  0.00  0.00     0.015 A 
ATOM      7  C7  IND d   1      -0.570  -2.444  -0.989  0.00  0.00    -0.016 A 
ATOM      8  C8  IND d   1      -0.278  -1.111  -1.237  0.00  0.00    -0.047 A 
ATOM      9  C9  IND d   1      -0.505  -0.111  -0.282  0.00  0.00    -0.096 A 
ATOM     10  HN1 IND d   1       0.420  -0.887  -3.103  0.00  0.00     0.298 HD
ENDROOT
TORSDOF 0
ENDMDL
