MODEL 1
REMARK minimizedAffinity 0.804915488
REMARK minimizedRMSD -1
REMARK  0 active torsions:
REMARK  status: ('A' for Active; 'I' for Inactive)
ROOT
ATOM      1  N1  IND d   1       1.209   0.705  -0.732  0.00  0.00    -0.196 N 
ATOM      2  C2  IND d   1      -0.148   0.543  -0.695  0.00  0.00     0.054 A 
ATOM      3  C3  IND d   1      -0.731   1.603  -0.090  0.00  0.00    -0.031 A 
ATOM      4  C4  IND d   1       0.339   3.759   0.822  0.00  0.00     0.051 A 
ATOM      5  C5  IND d   1       1.552   4.348   1.045  0.00  0.00    -0.031 A 
ATOM      6  C6  IND d   1       2.736   3.742   0.678  0.00  0.00     0.015 A 
ATOM      7  C7  IND d   1       2.751   2.524   0.060  0.00  0.00    -0.016 A 
ATOM      8  C8  IND d   1       1.522   1.919  -0.162  0.00  0.00    -0.047 A 
ATOM      9  C9  IND d   1       0.319   2.510   0.247  0.00  0.00    -0.096 A 
ATOM     10  HN1 IND d   1       1.773   0.142  -1.057  0.00  0.00     0.298 HD
ENDROOT
TORSDOF 0
ENDMDL
