MODEL 1
REMARK minimizedAffinity 9.94324684
REMARK minimizedRMSD -1
REMARK  0 active torsions:
REMARK  status: ('A' for Active; 'I' for Inactive)
ROOT
ATOM      1  N1  IND d   1       0.398   3.133   0.166  0.00  0.00    -0.196 N 
ATOM      2  C2  IND d   1       1.394   3.697   0.913  0.00  0.00     0.054 A 
ATOM      3  C3  IND d   1       1.688   2.913   1.974  0.00  0.00    -0.031 A 
ATOM      4  C4  IND d   1       0.731   0.613   2.623  0.00  0.00     0.051 A 
ATOM      5  C5  IND d   1      -0.227  -0.295   2.267  0.00  0.00    -0.031 A 
ATOM      6  C6  IND d   1      -1.041  -0.103   1.169  0.00  0.00     0.015 A 
ATOM      7  C7  IND d   1      -0.918   1.002   0.375  0.00  0.00    -0.016 A 
ATOM      8  C8  IND d   1       0.049   1.929   0.738  0.00  0.00    -0.047 A 
ATOM      9  C9  IND d   1       0.849   1.761   1.876  0.00  0.00    -0.096 A 
ATOM     10  HN1 IND d   1       0.048   3.473  -0.542  0.00  0.00     0.298 HD
ENDROOT
TORSDOF 0
ENDMDL
