MODEL 1
REMARK minimizedAffinity -6.09741116
REMARK minimizedRMSD -1
REMARK  0 active torsions:
REMARK  status: ('A' for Active; 'I' for Inactive)
ROOT
ATOM      1  N1  IND d   1       0.046  -1.537  -2.021  0.00  0.00    -0.196 N 
ATOM      2  C2  IND d   1       0.047  -2.896  -1.880  0.00  0.00     0.054 A 
ATOM      3  C3  IND d   1      -0.067  -3.235  -0.577  0.00  0.00    -0.031 A 
ATOM      4  C4  IND d   1      -0.370  -1.723   1.485  0.00  0.00     0.051 A 
ATOM      5  C5  IND d   1      -0.395  -0.410   1.864  0.00  0.00    -0.031 A 
ATOM      6  C6  IND d   1      -0.274   0.615   0.948  0.00  0.00     0.015 A 
ATOM      7  C7  IND d   1      -0.135   0.365  -0.387  0.00  0.00    -0.016 A 
ATOM      8  C8  IND d   1      -0.102  -0.967  -0.775  0.00  0.00    -0.047 A 
ATOM      9  C9  IND d   1      -0.181  -2.013   0.154  0.00  0.00    -0.096 A 
ATOM     10  HN1 IND d   1       0.125  -1.109  -2.762  0.00  0.00     0.298 HD
ENDROOT
TORSDOF 0
ENDMDL
