MODEL 1
REMARK minimizedAffinity 6.16157007
REMARK minimizedRMSD -1
REMARK  2 active torsions:
REMARK  status: ('A' for Active; 'I' for Inactive)
REMARK    1  A    between atoms: C1_2  and  C2_3 
REMARK    2  A    between atoms: C2_3  and  C3_4 
ROOT
ATOM      1  C3  UNL d   1       1.400  -1.956  -0.094  0.00  0.00    -0.075 A 
ATOM      2  C4  UNL d   1       0.273  -2.103  -0.916  0.00  0.00     0.002 A 
ATOM      3  C5  UNL d   1       0.049  -1.221  -1.974  0.00  0.00     0.002 A 
ATOM      4  C6  UNL d   1       0.940  -0.178  -2.216  0.00  0.00    -0.004 A 
ATOM      5  C7  UNL d   1       2.054  -0.013  -1.396  0.00  0.00     0.002 A 
ATOM      6  C8  UNL d   1       2.283  -0.897  -0.340  0.00  0.00     0.002 A 
ENDROOT
BRANCH   1   7
ATOM      7  C2  UNL d   1       1.664  -2.925   1.034  0.00  0.00     0.056 C 
BRANCH   7   8
ATOM      8  C1  UNL d   1       2.736  -2.454   2.022  0.00  0.00     0.007 C 
ATOM      9  C   UNL d   1       2.189  -1.543   3.112  0.00  0.00     0.009 C 
ENDBRANCH   7   8
ENDBRANCH   1   7
TORSDOF 2
ENDMDL
