MODEL 1
REMARK minimizedAffinity 1.07889557
REMARK minimizedRMSD -1
REMARK  2 active torsions:
REMARK  status: ('A' for Active; 'I' for Inactive)
REMARK    1  A    between atoms: C1_2  and  C2_3 
REMARK    2  A    between atoms: C2_3  and  C3_4 
ROOT
ATOM      1  C3  UNL d   1       1.265  -2.581   0.170  0.00  0.00    -0.075 A 
ATOM      2  C4  UNL d   1      -0.100  -2.294   0.322  0.00  0.00     0.002 A 
ATOM      3  C5  UNL d   1      -0.682  -1.233  -0.373  0.00  0.00     0.002 A 
ATOM      4  C6  UNL d   1       0.093  -0.441  -1.218  0.00  0.00    -0.004 A 
ATOM      5  C7  UNL d   1       1.453  -0.707  -1.364  0.00  0.00     0.002 A 
ATOM      6  C8  UNL d   1       2.037  -1.770  -0.673  0.00  0.00     0.002 A 
ENDROOT
BRANCH   1   7
ATOM      7  C2  UNL d   1       1.895  -3.745   0.896  0.00  0.00     0.056 C 
BRANCH   7   8
ATOM      8  C1  UNL d   1       0.920  -4.885   1.210  0.00  0.00     0.007 C 
ATOM      9  C   UNL d   1       1.543  -5.993   2.049  0.00  0.00     0.009 C 
ENDBRANCH   7   8
ENDBRANCH   1   7
TORSDOF 2
ENDMDL
