MODEL 1
REMARK minimizedAffinity -0.764708996
REMARK minimizedRMSD -1
REMARK  2 active torsions:
REMARK  status: ('A' for Active; 'I' for Inactive)
REMARK    1  A    between atoms: C1_2  and  C2_3 
REMARK    2  A    between atoms: C2_3  and  C3_4 
ROOT
ATOM      1  C3  UNL d   1       0.165  -2.712   0.148  0.00  0.00    -0.075 A 
ATOM      2  C4  UNL d   1       1.476  -2.214   0.113  0.00  0.00     0.002 A 
ATOM      3  C5  UNL d   1       1.808  -1.152  -0.728  0.00  0.00     0.002 A 
ATOM      4  C6  UNL d   1       0.839  -0.582  -1.551  0.00  0.00    -0.004 A 
ATOM      5  C7  UNL d   1      -0.462  -1.080  -1.538  0.00  0.00     0.002 A 
ATOM      6  C8  UNL d   1      -0.798  -2.140  -0.693  0.00  0.00     0.002 A 
ENDROOT
BRANCH   1   7
ATOM      7  C2  UNL d   1      -0.208  -3.842   1.078  0.00  0.00     0.056 C 
BRANCH   7   8
ATOM      8  C1  UNL d   1       0.807  -4.990   1.102  0.00  0.00     0.007 C 
ATOM      9  C   UNL d   1       0.557  -5.988   2.225  0.00  0.00     0.009 C 
ENDBRANCH   7   8
ENDBRANCH   1   7
TORSDOF 2
ENDMDL
