MODEL 1
REMARK minimizedAffinity -0.53956449
REMARK minimizedRMSD -1
REMARK  2 active torsions:
REMARK  status: ('A' for Active; 'I' for Inactive)
REMARK    1  A    between atoms: C1_2  and  C2_3 
REMARK    2  A    between atoms: C2_3  and  C3_4 
ROOT
ATOM      1  C3  UNL d   1       1.238  -2.435   0.394  0.00  0.00    -0.075 A 
ATOM      2  C4  UNL d   1       0.045  -2.333  -0.335  0.00  0.00     0.002 A 
ATOM      3  C5  UNL d   1      -0.229  -1.191  -1.090  0.00  0.00     0.002 A 
ATOM      4  C6  UNL d   1       0.680  -0.136  -1.116  0.00  0.00    -0.004 A 
ATOM      5  C7  UNL d   1       1.861  -0.220  -0.382  0.00  0.00     0.002 A 
ATOM      6  C8  UNL d   1       2.140  -1.362   0.370  0.00  0.00     0.002 A 
ENDROOT
BRANCH   1   7
ATOM      7  C2  UNL d   1       1.554  -3.680   1.189  0.00  0.00     0.056 C 
BRANCH   7   8
ATOM      8  C1  UNL d   1       0.429  -4.720   1.190  0.00  0.00     0.007 C 
ATOM      9  C   UNL d   1       0.795  -5.999   1.933  0.00  0.00     0.009 C 
ENDBRANCH   7   8
ENDBRANCH   1   7
TORSDOF 2
ENDMDL
