MODEL 1
REMARK minimizedAffinity -2.66551828
REMARK minimizedRMSD -1
REMARK  2 active torsions:
REMARK  status: ('A' for Active; 'I' for Inactive)
REMARK    1  A    between atoms: C1_2  and  C2_3 
REMARK    2  A    between atoms: C2_3  and  C3_4 
ROOT
ATOM      1  C3  UNL d   1       1.001  -2.381   0.218  0.00  0.00    -0.075 A 
ATOM      2  C4  UNL d   1      -0.369  -2.121   0.073  0.00  0.00     0.002 A 
ATOM      3  C5  UNL d   1      -0.812  -1.122  -0.794  0.00  0.00     0.002 A 
ATOM      4  C6  UNL d   1       0.107  -0.365  -1.518  0.00  0.00    -0.004 A 
ATOM      5  C7  UNL d   1       1.471  -0.604  -1.369  0.00  0.00     0.002 A 
ATOM      6  C8  UNL d   1       1.917  -1.606  -0.505  0.00  0.00     0.002 A 
ENDROOT
BRANCH   1   7
ATOM      7  C2  UNL d   1       1.487  -3.480   1.133  0.00  0.00     0.056 C 
BRANCH   7   8
ATOM      8  C1  UNL d   1       0.481  -4.620   1.326  0.00  0.00     0.007 C 
ATOM      9  C   UNL d   1       1.087  -6.000   1.105  0.00  0.00     0.009 C 
ENDBRANCH   7   8
ENDBRANCH   1   7
TORSDOF 2
ENDMDL
