MODEL 1
REMARK minimizedAffinity 3.42649937
REMARK minimizedRMSD -1
REMARK  2 active torsions:
REMARK  status: ('A' for Active; 'I' for Inactive)
REMARK    1  A    between atoms: C1_2  and  C2_3 
REMARK    2  A    between atoms: C2_3  and  C3_4 
ROOT
ATOM      1  C3  UNL d   1      -0.730  -1.778   0.437  0.00  0.00    -0.075 A 
ATOM      2  C4  UNL d   1       0.551  -1.575   0.970  0.00  0.00     0.002 A 
ATOM      3  C5  UNL d   1       1.514  -0.866   0.251  0.00  0.00     0.002 A 
ATOM      4  C6  UNL d   1       1.212  -0.360  -1.012  0.00  0.00    -0.004 A 
ATOM      5  C7  UNL d   1      -0.053  -0.570  -1.558  0.00  0.00     0.002 A 
ATOM      6  C8  UNL d   1      -1.019  -1.275  -0.839  0.00  0.00     0.002 A 
ENDROOT
BRANCH   1   7
ATOM      7  C2  UNL d   1      -1.785  -2.519   1.223  0.00  0.00     0.056 C 
BRANCH   7   8
ATOM      8  C1  UNL d   1      -2.327  -1.742   2.427  0.00  0.00     0.007 C 
ATOM      9  C   UNL d   1      -3.839  -1.562   2.394  0.00  0.00     0.009 C 
ENDBRANCH   7   8
ENDBRANCH   1   7
TORSDOF 2
ENDMDL
