MODEL 1
REMARK minimizedAffinity 2.14682198
REMARK minimizedRMSD -1
REMARK  2 active torsions:
REMARK  status: ('A' for Active; 'I' for Inactive)
REMARK    1  A    between atoms: C1_2  and  C2_3 
REMARK    2  A    between atoms: C2_3  and  C3_4 
ROOT
ATOM      1  C3  UNL d   1       0.966  -0.448  -1.974  0.00  0.00    -0.075 A 
ATOM      2  C4  UNL d   1       0.504   0.805  -1.547  0.00  0.00     0.002 A 
ATOM      3  C5  UNL d   1       0.517   1.898  -2.414  0.00  0.00     0.002 A 
ATOM      4  C6  UNL d   1       0.999   1.755  -3.713  0.00  0.00    -0.004 A 
ATOM      5  C7  UNL d   1       1.476   0.519  -4.143  0.00  0.00     0.002 A 
ATOM      6  C8  UNL d   1       1.461  -0.577  -3.279  0.00  0.00     0.002 A 
ENDROOT
BRANCH   1   7
ATOM      7  C2  UNL d   1       0.928  -1.642  -1.050  0.00  0.00     0.056 C 
BRANCH   7   8
ATOM      8  C1  UNL d   1       0.307  -1.350   0.320  0.00  0.00     0.007 C 
ATOM      9  C   UNL d   1      -0.951  -2.163   0.594  0.00  0.00     0.009 C 
ENDBRANCH   7   8
ENDBRANCH   1   7
TORSDOF 2
ENDMDL
