MODEL 1
REMARK minimizedAffinity 0.741817832
REMARK minimizedRMSD -1
REMARK  2 active torsions:
REMARK  status: ('A' for Active; 'I' for Inactive)
REMARK    1  A    between atoms: C1_2  and  C2_3 
REMARK    2  A    between atoms: C2_3  and  C3_4 
ROOT
ATOM      1  C3  UNL d   1       4.916   3.251  -4.887  0.00  0.00    -0.075 A 
ATOM      2  C4  UNL d   1       3.709   3.356  -5.594  0.00  0.00     0.002 A 
ATOM      3  C5  UNL d   1       2.724   4.255  -5.184  0.00  0.00     0.002 A 
ATOM      4  C6  UNL d   1       2.928   5.051  -4.059  0.00  0.00    -0.004 A 
ATOM      5  C7  UNL d   1       4.116   4.943  -3.339  0.00  0.00     0.002 A 
ATOM      6  C8  UNL d   1       5.105   4.047  -3.750  0.00  0.00     0.002 A 
ENDROOT
BRANCH   1   7
ATOM      7  C2  UNL d   1       5.998   2.301  -5.342  0.00  0.00     0.056 C 
BRANCH   7   8
ATOM      8  C1  UNL d   1       5.653   0.821  -5.145  0.00  0.00     0.007 C 
ATOM      9  C   UNL d   1       6.000   0.304  -3.755  0.00  0.00     0.009 C 
ENDBRANCH   7   8
ENDBRANCH   1   7
TORSDOF 2
ENDMDL
