MODEL 1
REMARK minimizedAffinity 1.00609195
REMARK minimizedRMSD -1
REMARK  2 active torsions:
REMARK  status: ('A' for Active; 'I' for Inactive)
REMARK    1  A    between atoms: C1_2  and  C2_3 
REMARK    2  A    between atoms: C2_3  and  C3_4 
ROOT
ATOM      1  C3  UNL d   1       0.826  -1.090  -1.322  0.00  0.00    -0.075 A 
ATOM      2  C4  UNL d   1       0.750   0.144  -1.985  0.00  0.00     0.002 A 
ATOM      3  C5  UNL d   1       0.990   0.226  -3.357  0.00  0.00     0.002 A 
ATOM      4  C6  UNL d   1       1.317  -0.919  -4.080  0.00  0.00    -0.004 A 
ATOM      5  C7  UNL d   1       1.412  -2.147  -3.428  0.00  0.00     0.002 A 
ATOM      6  C8  UNL d   1       1.168  -2.233  -2.057  0.00  0.00     0.002 A 
ENDROOT
BRANCH   1   7
ATOM      7  C2  UNL d   1       0.539  -1.191   0.157  0.00  0.00     0.056 C 
BRANCH   7   8
ATOM      8  C1  UNL d   1      -0.668  -2.070   0.500  0.00  0.00     0.007 C 
ATOM      9  C   UNL d   1      -1.029  -2.046   1.979  0.00  0.00     0.009 C 
ENDBRANCH   7   8
ENDBRANCH   1   7
TORSDOF 2
ENDMDL
