MODEL 1
REMARK minimizedAffinity -2.49506903
REMARK minimizedRMSD -1
REMARK  2 active torsions:
REMARK  status: ('A' for Active; 'I' for Inactive)
REMARK    1  A    between atoms: C1_2  and  C2_3 
REMARK    2  A    between atoms: C2_3  and  C3_4 
ROOT
ATOM      1  C3  UNL d   1      -4.133   2.675   5.129  0.00  0.00    -0.075 A 
ATOM      2  C4  UNL d   1      -3.767   3.074   3.835  0.00  0.00     0.002 A 
ATOM      3  C5  UNL d   1      -3.937   4.398   3.427  0.00  0.00     0.002 A 
ATOM      4  C6  UNL d   1      -4.484   5.334   4.301  0.00  0.00    -0.004 A 
ATOM      5  C7  UNL d   1      -4.867   4.945   5.583  0.00  0.00     0.002 A 
ATOM      6  C8  UNL d   1      -4.694   3.623   5.995  0.00  0.00     0.002 A 
ENDROOT
BRANCH   1   7
ATOM      7  C2  UNL d   1      -3.924   1.252   5.586  0.00  0.00     0.056 C 
BRANCH   7   8
ATOM      8  C1  UNL d   1      -4.175   0.203   4.497  0.00  0.00     0.007 C 
ATOM      9  C   UNL d   1      -3.415  -1.096   4.728  0.00  0.00     0.009 C 
ENDBRANCH   7   8
ENDBRANCH   1   7
TORSDOF 2
ENDMDL
