MODEL 1
REMARK minimizedAffinity -3.25416899
REMARK minimizedRMSD -1
REMARK  2 active torsions:
REMARK  status: ('A' for Active; 'I' for Inactive)
REMARK    1  A    between atoms: C1_2  and  C2_3 
REMARK    2  A    between atoms: C2_3  and  C3_4 
ROOT
ATOM      1  C3  UNL d   1      -3.938   3.401   5.253  0.00  0.00    -0.075 A 
ATOM      2  C4  UNL d   1      -3.376   4.032   4.134  0.00  0.00     0.002 A 
ATOM      3  C5  UNL d   1      -3.762   5.326   3.783  0.00  0.00     0.002 A 
ATOM      4  C6  UNL d   1      -4.720   6.000   4.537  0.00  0.00    -0.004 A 
ATOM      5  C7  UNL d   1      -5.298   5.375   5.640  0.00  0.00     0.002 A 
ATOM      6  C8  UNL d   1      -4.910   4.083   5.997  0.00  0.00     0.002 A 
ENDROOT
BRANCH   1   7
ATOM      7  C2  UNL d   1      -3.503   2.012   5.656  0.00  0.00     0.056 C 
BRANCH   7   8
ATOM      8  C1  UNL d   1      -4.623   0.967   5.601  0.00  0.00     0.007 C 
ATOM      9  C   UNL d   1      -4.124  -0.430   5.259  0.00  0.00     0.009 C 
ENDBRANCH   7   8
ENDBRANCH   1   7
TORSDOF 2
ENDMDL
