MODEL 1
REMARK minimizedAffinity 0.676040947
REMARK minimizedRMSD -1
REMARK  2 active torsions:
REMARK  status: ('A' for Active; 'I' for Inactive)
REMARK    1  A    between atoms: C1_2  and  C2_3 
REMARK    2  A    between atoms: C2_3  and  C3_4 
ROOT
ATOM      1  C3  UNL d   1       3.326   1.770  -5.387  0.00  0.00    -0.075 A 
ATOM      2  C4  UNL d   1       4.378   0.894  -5.692  0.00  0.00     0.002 A 
ATOM      3  C5  UNL d   1       5.696   1.352  -5.717  0.00  0.00     0.002 A 
ATOM      4  C6  UNL d   1       5.977   2.690  -5.447  0.00  0.00    -0.004 A 
ATOM      5  C7  UNL d   1       4.938   3.572  -5.160  0.00  0.00     0.002 A 
ATOM      6  C8  UNL d   1       3.619   3.116  -5.130  0.00  0.00     0.002 A 
ENDROOT
BRANCH   1   7
ATOM      7  C2  UNL d   1       1.901   1.275  -5.330  0.00  0.00     0.056 C 
BRANCH   7   8
ATOM      8  C1  UNL d   1       1.095   1.826  -4.149  0.00  0.00     0.007 C 
ATOM      9  C   UNL d   1       0.685   0.754  -3.149  0.00  0.00     0.009 C 
ENDBRANCH   7   8
ENDBRANCH   1   7
TORSDOF 2
ENDMDL
