MODEL 1
REMARK minimizedAffinity 0.318680197
REMARK minimizedRMSD -1
REMARK  1 active torsions:
REMARK  status: ('A' for Active; 'I' for Inactive)
REMARK    1  A    between atoms: C1_2  and  C2_3 
ROOT
ATOM      1  C2  UNL d   1       0.083  -1.777   0.038  0.00  0.00    -0.077 A 
ATOM      2  C3  UNL d   1       0.450  -0.742  -0.834  0.00  0.00     0.002 A 
ATOM      3  C4  UNL d   1       1.797  -0.468  -1.077  0.00  0.00     0.002 A 
ATOM      4  C5  UNL d   1       2.788  -1.226  -0.456  0.00  0.00    -0.004 A 
ATOM      5  C6  UNL d   1       2.433  -2.255   0.415  0.00  0.00     0.002 A 
ATOM      6  C7  UNL d   1       1.087  -2.530   0.660  0.00  0.00     0.002 A 
ENDROOT
BRANCH   1   7
ATOM      7  C1  UNL d   1      -1.369  -2.106   0.264  0.00  0.00     0.055 C 
ATOM      8  C   UNL d   1      -2.130  -2.184  -1.052  0.00  0.00     0.019 C 
ENDBRANCH   1   7
TORSDOF 1
ENDMDL
