MODEL 1
REMARK minimizedAffinity -0.362970471
REMARK minimizedRMSD -1
REMARK  1 active torsions:
REMARK  status: ('A' for Active; 'I' for Inactive)
REMARK    1  A    between atoms: C1_2  and  C2_3 
ROOT
ATOM      1  C2  UNL d   1       0.209  -1.766  -0.005  0.00  0.00    -0.077 A 
ATOM      2  C3  UNL d   1       0.069  -0.771  -0.983  0.00  0.00     0.002 A 
ATOM      3  C4  UNL d   1       1.195  -0.221  -1.598  0.00  0.00     0.002 A 
ATOM      4  C5  UNL d   1       2.469  -0.663  -1.245  0.00  0.00    -0.004 A 
ATOM      5  C6  UNL d   1       2.619  -1.650  -0.273  0.00  0.00     0.002 A 
ATOM      6  C7  UNL d   1       1.494  -2.200   0.344  0.00  0.00     0.002 A 
ENDROOT
BRANCH   1   7
ATOM      7  C1  UNL d   1      -1.007  -2.395   0.624  0.00  0.00     0.055 C 
ATOM      8  C   UNL d   1      -0.772  -3.867   0.932  0.00  0.00     0.019 C 
ENDBRANCH   1   7
TORSDOF 1
ENDMDL
