MODEL 1
REMARK minimizedAffinity -3.51696348
REMARK minimizedRMSD -1
REMARK  1 active torsions:
REMARK  status: ('A' for Active; 'I' for Inactive)
REMARK    1  A    between atoms: C1_2  and  C2_3 
ROOT
ATOM      1  C2  UNL d   1      -3.779   0.997   3.953  0.00  0.00    -0.077 A 
ATOM      2  C3  UNL d   1      -4.886   0.571   3.205  0.00  0.00     0.002 A 
ATOM      3  C4  UNL d   1      -4.962  -0.744   2.742  0.00  0.00     0.002 A 
ATOM      4  C5  UNL d   1      -3.936  -1.644   3.025  0.00  0.00    -0.004 A 
ATOM      5  C6  UNL d   1      -2.830  -1.229   3.766  0.00  0.00     0.002 A 
ATOM      6  C7  UNL d   1      -2.752   0.085   4.228  0.00  0.00     0.002 A 
ENDROOT
BRANCH   1   7
ATOM      7  C1  UNL d   1      -3.719   2.401   4.495  0.00  0.00     0.055 C 
ATOM      8  C   UNL d   1      -4.069   2.439   5.976  0.00  0.00     0.019 C 
ENDBRANCH   1   7
TORSDOF 1
ENDMDL
