MODEL 1
REMARK minimizedAffinity 5.37624407
REMARK minimizedRMSD -1
REMARK  1 active torsions:
REMARK  status: ('A' for Active; 'I' for Inactive)
REMARK    1  A    between atoms: C1_2  and  C2_3 
ROOT
ATOM      1  C2  UNL d   1       3.225   1.874  -4.681  0.00  0.00    -0.077 A 
ATOM      2  C3  UNL d   1       3.975   1.510  -3.553  0.00  0.00     0.002 A 
ATOM      3  C4  UNL d   1       5.356   1.332  -3.651  0.00  0.00     0.002 A 
ATOM      4  C5  UNL d   1       6.000   1.520  -4.872  0.00  0.00    -0.004 A 
ATOM      5  C6  UNL d   1       5.263   1.879  -6.000  0.00  0.00     0.002 A 
ATOM      6  C7  UNL d   1       3.882   2.056  -5.905  0.00  0.00     0.002 A 
ENDROOT
BRANCH   1   7
ATOM      7  C1  UNL d   1       1.742   2.114  -4.567  0.00  0.00     0.055 C 
ATOM      8  C   UNL d   1       1.189   1.553  -3.265  0.00  0.00     0.019 C 
ENDBRANCH   1   7
TORSDOF 1
ENDMDL
