MODEL 1
REMARK minimizedAffinity 0.424840391
REMARK minimizedRMSD -1
REMARK  1 active torsions:
REMARK  status: ('A' for Active; 'I' for Inactive)
REMARK    1  A    between atoms: C1_2  and  C2_3 
ROOT
ATOM      1  C2  UNL d   1       1.037  -0.815  -1.717  0.00  0.00    -0.077 A 
ATOM      2  C3  UNL d   1       1.036   0.127  -2.755  0.00  0.00     0.002 A 
ATOM      3  C4  UNL d   1       1.286  -0.271  -4.070  0.00  0.00     0.002 A 
ATOM      4  C5  UNL d   1       1.534  -1.611  -4.359  0.00  0.00    -0.004 A 
ATOM      5  C6  UNL d   1       1.540  -2.555  -3.334  0.00  0.00     0.002 A 
ATOM      6  C7  UNL d   1       1.291  -2.160  -2.019  0.00  0.00     0.002 A 
ENDROOT
BRANCH   1   7
ATOM      7  C1  UNL d   1       0.720  -0.396  -0.306  0.00  0.00     0.055 C 
ATOM      8  C   UNL d   1      -0.409  -1.233   0.279  0.00  0.00     0.019 C 
ENDBRANCH   1   7
TORSDOF 1
ENDMDL
