MODEL 1
REMARK minimizedAffinity 7.3625803
REMARK minimizedRMSD -1
REMARK  1 active torsions:
REMARK  status: ('A' for Active; 'I' for Inactive)
REMARK    1  A    between atoms: C1_2  and  C2_3 
ROOT
ATOM      1  C2  UNL d   1       0.831  -0.332  -1.002  0.00  0.00    -0.077 A 
ATOM      2  C3  UNL d   1       1.539  -0.913  -2.064  0.00  0.00     0.002 A 
ATOM      3  C4  UNL d   1       1.703  -0.222  -3.266  0.00  0.00     0.002 A 
ATOM      4  C5  UNL d   1       1.165   1.054  -3.416  0.00  0.00    -0.004 A 
ATOM      5  C6  UNL d   1       0.458   1.640  -2.368  0.00  0.00     0.002 A 
ATOM      6  C7  UNL d   1       0.292   0.951  -1.166  0.00  0.00     0.002 A 
ENDROOT
BRANCH   1   7
ATOM      7  C1  UNL d   1       0.695  -1.055   0.312  0.00  0.00     0.055 C 
ATOM      8  C   UNL d   1      -0.622  -1.814   0.393  0.00  0.00     0.019 C 
ENDBRANCH   1   7
TORSDOF 1
ENDMDL
