MODEL 1
REMARK minimizedAffinity 5.37740231
REMARK minimizedRMSD -1
REMARK  1 active torsions:
REMARK  status: ('A' for Active; 'I' for Inactive)
REMARK    1  A    between atoms: C1_2  and  C2_3 
ROOT
ATOM      1  C2  UNL d   1      -4.025   5.470   3.452  0.00  0.00    -0.077 A 
ATOM      2  C3  UNL d   1      -3.220   5.682   4.580  0.00  0.00     0.002 A 
ATOM      3  C4  UNL d   1      -3.800   5.946   5.822  0.00  0.00     0.002 A 
ATOM      4  C5  UNL d   1      -5.186   5.998   5.949  0.00  0.00    -0.004 A 
ATOM      5  C6  UNL d   1      -5.996   5.791   4.832  0.00  0.00     0.002 A 
ATOM      6  C7  UNL d   1      -5.418   5.528   3.590  0.00  0.00     0.002 A 
ENDROOT
BRANCH   1   7
ATOM      7  C1  UNL d   1      -3.403   5.136   2.121  0.00  0.00     0.055 C 
ATOM      8  C   UNL d   1      -4.021   5.956   0.999  0.00  0.00     0.019 C 
ENDBRANCH   1   7
TORSDOF 1
ENDMDL
