MODEL 1
REMARK minimizedAffinity 2.68804622
REMARK minimizedRMSD -1
REMARK  1 active torsions:
REMARK  status: ('A' for Active; 'I' for Inactive)
REMARK    1  A    between atoms: C1_2  and  C2_3 
ROOT
ATOM      1  C2  UNL d   1       1.287  -0.937  -2.713  0.00  0.00    -0.077 A 
ATOM      2  C3  UNL d   1       1.135  -1.215  -1.348  0.00  0.00     0.002 A 
ATOM      3  C4  UNL d   1       0.872  -0.185  -0.442  0.00  0.00     0.002 A 
ATOM      4  C5  UNL d   1       0.756   1.128  -0.892  0.00  0.00    -0.004 A 
ATOM      5  C6  UNL d   1       0.907   1.415  -2.248  0.00  0.00     0.002 A 
ATOM      6  C7  UNL d   1       1.171   0.388  -3.155  0.00  0.00     0.002 A 
ENDROOT
BRANCH   1   7
ATOM      7  C1  UNL d   1       1.521  -2.052  -3.698  0.00  0.00     0.055 C 
ATOM      8  C   UNL d   1       1.484  -3.411  -3.015  0.00  0.00     0.019 C 
ENDBRANCH   1   7
TORSDOF 1
ENDMDL
