MODEL 1
REMARK minimizedAffinity 1.05492043
REMARK minimizedRMSD -1
REMARK  1 active torsions:
REMARK  status: ('A' for Active; 'I' for Inactive)
REMARK    1  A    between atoms: C1_2  and  C2_3 
ROOT
ATOM      1  C2  UNL d   1       1.073  -0.722  -3.035  0.00  0.00    -0.077 A 
ATOM      2  C3  UNL d   1       0.618  -0.766  -1.709  0.00  0.00     0.002 A 
ATOM      3  C4  UNL d   1       0.415   0.416  -0.993  0.00  0.00     0.002 A 
ATOM      4  C5  UNL d   1       0.659   1.648  -1.596  0.00  0.00    -0.004 A 
ATOM      5  C6  UNL d   1       1.113   1.702  -2.913  0.00  0.00     0.002 A 
ATOM      6  C7  UNL d   1       1.318   0.522  -3.630  0.00  0.00     0.002 A 
ENDROOT
BRANCH   1   7
ATOM      7  C1  UNL d   1       1.245  -1.994  -3.825  0.00  0.00     0.055 C 
ATOM      8  C   UNL d   1       1.573  -3.170  -2.916  0.00  0.00     0.019 C 
ENDBRANCH   1   7
TORSDOF 1
ENDMDL
