MODEL 1
REMARK minimizedAffinity -0.835362196
REMARK minimizedRMSD -1
REMARK  1 active torsions:
REMARK  status: ('A' for Active; 'I' for Inactive)
REMARK    1  A    between atoms: C1_2  and  C2_3 
ROOT
ATOM      1  C2  UNL d   1       0.581  -0.481  -0.697  0.00  0.00    -0.077 A 
ATOM      2  C3  UNL d   1       1.142  -1.295  -1.692  0.00  0.00     0.002 A 
ATOM      3  C4  UNL d   1       1.548  -0.744  -2.909  0.00  0.00     0.002 A 
ATOM      4  C5  UNL d   1       1.400   0.622  -3.142  0.00  0.00    -0.004 A 
ATOM      5  C6  UNL d   1       0.841   1.439  -2.160  0.00  0.00     0.002 A 
ATOM      6  C7  UNL d   1       0.434   0.890  -0.943  0.00  0.00     0.002 A 
ENDROOT
BRANCH   1   7
ATOM      7  C1  UNL d   1       0.189  -1.065   0.635  0.00  0.00     0.055 C 
ATOM      8  C   UNL d   1      -1.156  -1.772   0.555  0.00  0.00     0.019 C 
ENDBRANCH   1   7
TORSDOF 1
ENDMDL
