MODEL 1
REMARK minimizedAffinity 12.3190794
REMARK minimizedRMSD -1
REMARK  0 active torsions:
REMARK  status: ('A' for Active; 'I' for Inactive)
ROOT
ATOM      1  C   UNL d   1       3.590   3.803   1.736  0.00  0.00     0.077 C 
ATOM      2  C1  UNL d   1       4.207   3.930   0.375  0.00  0.00    -0.074 A 
ATOM      3  C2  UNL d   1       4.904   5.085   0.006  0.00  0.00    -0.005 A 
ATOM      4  C3  UNL d   1       5.481   5.184  -1.260  0.00  0.00     0.006 A 
ATOM      5  C4  UNL d   1       5.367   4.131  -2.169  0.00  0.00    -0.005 A 
ATOM      6  C5  UNL d   1       4.674   2.968  -1.818  0.00  0.00    -0.074 A 
ATOM      7  C6  UNL d   1       4.550   1.824  -2.779  0.00  0.00     0.077 C 
ATOM      8  C7  UNL d   1       4.103   2.873  -0.541  0.00  0.00    -0.001 A 
ENDROOT
TORSDOF 0
ENDMDL
