MODEL 1
REMARK minimizedAffinity 11.5051126
REMARK minimizedRMSD -1
REMARK  0 active torsions:
REMARK  status: ('A' for Active; 'I' for Inactive)
ROOT
ATOM      1  C   UNL d   1      -2.716  -1.671   0.754  0.00  0.00     0.077 C 
ATOM      2  C1  UNL d   1      -1.345  -1.249   0.318  0.00  0.00    -0.074 A 
ATOM      3  C2  UNL d   1      -0.549  -0.438   1.134  0.00  0.00    -0.005 A 
ATOM      4  C3  UNL d   1       0.729  -0.062   0.719  0.00  0.00     0.006 A 
ATOM      5  C4  UNL d   1       1.223  -0.493  -0.513  0.00  0.00    -0.005 A 
ATOM      6  C5  UNL d   1       0.442  -1.305  -1.341  0.00  0.00    -0.074 A 
ATOM      7  C6  UNL d   1       0.962  -1.784  -2.664  0.00  0.00     0.077 C 
ATOM      8  C7  UNL d   1      -0.838  -1.684  -0.914  0.00  0.00    -0.001 A 
ENDROOT
TORSDOF 0
ENDMDL
