MODEL 1
REMARK minimizedAffinity 1.68382025
REMARK minimizedRMSD -1
REMARK  0 active torsions:
REMARK  status: ('A' for Active; 'I' for Inactive)
ROOT
ATOM      1  C   UNL d   1       0.675  -1.409   3.081  0.00  0.00     0.077 C 
ATOM      2  C1  UNL d   1      -0.507  -0.775   2.410  0.00  0.00    -0.074 A 
ATOM      3  C2  UNL d   1      -0.642  -0.798   1.018  0.00  0.00    -0.005 A 
ATOM      4  C3  UNL d   1      -1.751  -0.213   0.409  0.00  0.00     0.006 A 
ATOM      5  C4  UNL d   1      -2.736   0.402   1.184  0.00  0.00    -0.005 A 
ATOM      6  C5  UNL d   1      -2.618   0.434   2.577  0.00  0.00    -0.074 A 
ATOM      7  C6  UNL d   1      -3.672   1.082   3.425  0.00  0.00     0.077 C 
ATOM      8  C7  UNL d   1      -1.504  -0.163   3.182  0.00  0.00    -0.001 A 
ENDROOT
TORSDOF 0
ENDMDL
