MODEL 1
REMARK minimizedAffinity 11.7825117
REMARK minimizedRMSD -1
REMARK  0 active torsions:
REMARK  status: ('A' for Active; 'I' for Inactive)
ROOT
ATOM      1  C   UNL d   1       0.820  -1.479   2.466  0.00  0.00     0.077 C 
ATOM      2  C1  UNL d   1      -0.536  -1.298   1.852  0.00  0.00    -0.074 A 
ATOM      3  C2  UNL d   1      -1.448  -0.380   2.383  0.00  0.00    -0.005 A 
ATOM      4  C3  UNL d   1      -2.703  -0.215   1.795  0.00  0.00     0.006 A 
ATOM      5  C4  UNL d   1      -3.057  -0.965   0.673  0.00  0.00    -0.005 A 
ATOM      6  C5  UNL d   1      -2.158  -1.887   0.128  0.00  0.00    -0.074 A 
ATOM      7  C6  UNL d   1      -2.519  -2.694  -1.083  0.00  0.00     0.077 C 
ATOM      8  C7  UNL d   1      -0.897  -2.042   0.720  0.00  0.00    -0.001 A 
ENDROOT
TORSDOF 0
ENDMDL
