MODEL 1
REMARK minimizedAffinity 1.54340708
REMARK minimizedRMSD -1
REMARK  0 active torsions:
REMARK  status: ('A' for Active; 'I' for Inactive)
ROOT
ATOM      1  C   UNL d   1       4.083   0.886   0.752  0.00  0.00     0.077 C 
ATOM      2  C1  UNL d   1       4.347   2.273   1.258  0.00  0.00    -0.074 A 
ATOM      3  C2  UNL d   1       3.948   2.657   2.542  0.00  0.00    -0.005 A 
ATOM      4  C3  UNL d   1       4.210   3.948   3.002  0.00  0.00     0.006 A 
ATOM      5  C4  UNL d   1       4.871   4.865   2.185  0.00  0.00    -0.005 A 
ATOM      6  C5  UNL d   1       5.278   4.498   0.899  0.00  0.00    -0.074 A 
ATOM      7  C6  UNL d   1       5.999   5.468   0.011  0.00  0.00     0.077 C 
ATOM      8  C7  UNL d   1       5.018   3.197   0.446  0.00  0.00    -0.001 A 
ENDROOT
TORSDOF 0
ENDMDL
