MODEL 1
REMARK minimizedAffinity 6.35609627
REMARK minimizedRMSD -1
REMARK  0 active torsions:
REMARK  status: ('A' for Active; 'I' for Inactive)
ROOT
ATOM      1  C   UNL d   1      -1.885  -3.032   0.142  0.00  0.00     0.077 C 
ATOM      2  C1  UNL d   1      -0.812  -2.009   0.371  0.00  0.00    -0.074 A 
ATOM      3  C2  UNL d   1      -1.133  -0.661   0.560  0.00  0.00    -0.005 A 
ATOM      4  C3  UNL d   1      -0.125   0.277   0.781  0.00  0.00     0.006 A 
ATOM      5  C4  UNL d   1       1.212  -0.123   0.816  0.00  0.00    -0.005 A 
ATOM      6  C5  UNL d   1       1.551  -1.466   0.630  0.00  0.00    -0.074 A 
ATOM      7  C6  UNL d   1       2.982  -1.914   0.674  0.00  0.00     0.077 C 
ATOM      8  C7  UNL d   1       0.532  -2.404   0.415  0.00  0.00    -0.001 A 
ENDROOT
TORSDOF 0
ENDMDL
