MODEL 1
REMARK minimizedAffinity 3.69302559
REMARK minimizedRMSD -1
REMARK  0 active torsions:
REMARK  status: ('A' for Active; 'I' for Inactive)
ROOT
ATOM      1  C   UNL d   1       3.565   1.536   0.898  0.00  0.00     0.077 C 
ATOM      2  C1  UNL d   1       3.653   1.556  -0.599  0.00  0.00    -0.074 A 
ATOM      3  C2  UNL d   1       4.684   2.241  -1.249  0.00  0.00    -0.005 A 
ATOM      4  C3  UNL d   1       4.759   2.242  -2.642  0.00  0.00     0.006 A 
ATOM      5  C4  UNL d   1       3.804   1.560  -3.397  0.00  0.00    -0.005 A 
ATOM      6  C5  UNL d   1       2.766   0.869  -2.764  0.00  0.00    -0.074 A 
ATOM      7  C6  UNL d   1       1.737   0.123  -3.561  0.00  0.00     0.077 C 
ATOM      8  C7  UNL d   1       2.702   0.866  -1.364  0.00  0.00    -0.001 A 
ENDROOT
TORSDOF 0
ENDMDL
