MODEL 1
REMARK minimizedAffinity 1.39688182
REMARK minimizedRMSD -1
REMARK  0 active torsions:
REMARK  status: ('A' for Active; 'I' for Inactive)
ROOT
ATOM      1  C   UNL d   1      -2.064   1.464   2.216  0.00  0.00     0.077 C 
ATOM      2  C1  UNL d   1      -1.730   0.198   1.484  0.00  0.00    -0.074 A 
ATOM      3  C2  UNL d   1      -2.680  -0.437   0.677  0.00  0.00    -0.005 A 
ATOM      4  C3  UNL d   1      -2.352  -1.608  -0.006  0.00  0.00     0.006 A 
ATOM      5  C4  UNL d   1      -1.074  -2.156   0.112  0.00  0.00    -0.005 A 
ATOM      6  C5  UNL d   1      -0.112  -1.534   0.914  0.00  0.00    -0.074 A 
ATOM      7  C6  UNL d   1       1.270  -2.104   1.043  0.00  0.00     0.077 C 
ATOM      8  C7  UNL d   1      -0.446  -0.354   1.591  0.00  0.00    -0.001 A 
ENDROOT
TORSDOF 0
ENDMDL
