MODEL 1
REMARK minimizedAffinity 9.56475258
REMARK minimizedRMSD -1
REMARK  0 active torsions:
REMARK  status: ('A' for Active; 'I' for Inactive)
ROOT
ATOM      1  C   UNL d   1       3.770   1.762   0.412  0.00  0.00     0.077 C 
ATOM      2  C1  UNL d   1       3.278   0.346   0.380  0.00  0.00    -0.074 A 
ATOM      3  C2  UNL d   1       1.912   0.057   0.466  0.00  0.00    -0.005 A 
ATOM      4  C3  UNL d   1       1.469  -1.265   0.425  0.00  0.00     0.006 A 
ATOM      5  C4  UNL d   1       2.385  -2.310   0.298  0.00  0.00    -0.005 A 
ATOM      6  C5  UNL d   1       3.755  -2.040   0.210  0.00  0.00    -0.074 A 
ATOM      7  C6  UNL d   1       4.752  -3.151   0.063  0.00  0.00     0.077 C 
ATOM      8  C7  UNL d   1       4.192  -0.709   0.245  0.00  0.00    -0.001 A 
ENDROOT
TORSDOF 0
ENDMDL
