MODEL 1
REMARK minimizedAffinity 12.987668
REMARK minimizedRMSD -1
REMARK  0 active torsions:
REMARK  status: ('A' for Active; 'I' for Inactive)
ROOT
ATOM      1  C   UNL d   1      -5.905   1.396  -2.419  0.00  0.00     0.077 C 
ATOM      2  C1  UNL d   1      -5.243   0.262  -3.143  0.00  0.00    -0.074 A 
ATOM      3  C2  UNL d   1      -6.000  -0.693  -3.829  0.00  0.00    -0.005 A 
ATOM      4  C3  UNL d   1      -5.369  -1.737  -4.506  0.00  0.00     0.006 A 
ATOM      5  C4  UNL d   1      -3.977  -1.836  -4.504  0.00  0.00    -0.005 A 
ATOM      6  C5  UNL d   1      -3.204  -0.890  -3.825  0.00  0.00    -0.074 A 
ATOM      7  C6  UNL d   1      -1.706  -0.976  -3.821  0.00  0.00     0.077 C 
ATOM      8  C7  UNL d   1      -3.845   0.160  -3.153  0.00  0.00    -0.001 A 
ENDROOT
TORSDOF 0
ENDMDL
