MODEL 1
REMARK minimizedAffinity -1.43574905
REMARK minimizedRMSD -1
REMARK  0 active torsions:
REMARK  status: ('A' for Active; 'I' for Inactive)
ROOT
ATOM      1  C   UNL d   1      -0.360  -1.349   1.015  0.00  0.00     0.077 C 
ATOM      2  C1  UNL d   1       0.267  -0.071   0.543  0.00  0.00    -0.074 A 
ATOM      3  C2  UNL d   1      -0.490   1.098   0.416  0.00  0.00    -0.005 A 
ATOM      4  C3  UNL d   1       0.109   2.281  -0.015  0.00  0.00     0.006 A 
ATOM      5  C4  UNL d   1       1.469   2.308  -0.324  0.00  0.00    -0.005 A 
ATOM      6  C5  UNL d   1       2.243   1.150  -0.202  0.00  0.00    -0.074 A 
ATOM      7  C6  UNL d   1       3.709   1.164  -0.520  0.00  0.00     0.077 C 
ATOM      8  C7  UNL d   1       1.635  -0.034   0.239  0.00  0.00    -0.001 A 
ENDROOT
TORSDOF 0
ENDMDL
