MODEL 1
REMARK minimizedAffinity 20.7909317
REMARK minimizedRMSD -1
REMARK  0 active torsions:
REMARK  status: ('A' for Active; 'I' for Inactive)
ROOT
ATOM      1  C   UNL d   1       4.363  -1.092   0.454  0.00  0.00     0.077 C 
ATOM      2  C1  UNL d   1       3.024  -1.226   1.115  0.00  0.00    -0.074 A 
ATOM      3  C2  UNL d   1       1.876  -0.679   0.532  0.00  0.00    -0.005 A 
ATOM      4  C3  UNL d   1       0.636  -0.820   1.154  0.00  0.00     0.006 A 
ATOM      5  C4  UNL d   1       0.530  -1.509   2.362  0.00  0.00    -0.005 A 
ATOM      6  C5  UNL d   1       1.666  -2.064   2.960  0.00  0.00    -0.074 A 
ATOM      7  C6  UNL d   1       1.568  -2.816   4.254  0.00  0.00     0.077 C 
ATOM      8  C7  UNL d   1       2.908  -1.924   2.326  0.00  0.00    -0.001 A 
ENDROOT
TORSDOF 0
ENDMDL
