MODEL 1
REMARK minimizedAffinity -0.921946049
REMARK minimizedRMSD -1
REMARK  0 active torsions:
REMARK  status: ('A' for Active; 'I' for Inactive)
ROOT
ATOM      1  C   UNL d   1      -6.000  -3.793  -4.625  0.00  0.00     0.077 C 
ATOM      2  C1  UNL d   1      -5.397  -2.429  -4.464  0.00  0.00    -0.074 A 
ATOM      3  C2  UNL d   1      -4.304  -2.030  -5.239  0.00  0.00    -0.005 A 
ATOM      4  C3  UNL d   1      -3.760  -0.755  -5.085  0.00  0.00     0.006 A 
ATOM      5  C4  UNL d   1      -4.304   0.133  -4.156  0.00  0.00    -0.005 A 
ATOM      6  C5  UNL d   1      -5.398  -0.248  -3.372  0.00  0.00    -0.074 A 
ATOM      7  C6  UNL d   1      -6.000   0.697  -2.376  0.00  0.00     0.077 C 
ATOM      8  C7  UNL d   1      -5.943  -1.529  -3.538  0.00  0.00    -0.001 A 
ENDROOT
TORSDOF 0
ENDMDL
