MODEL 1
REMARK minimizedAffinity 6.66468
REMARK minimizedRMSD -1
REMARK  0 active torsions:
REMARK  status: ('A' for Active; 'I' for Inactive)
ROOT
ATOM      1  C   UNL d   1       1.731  -1.492   0.395  0.00  0.00     0.077 C 
ATOM      2  C1  UNL d   1       0.245  -1.297   0.465  0.00  0.00    -0.074 A 
ATOM      3  C2  UNL d   1      -0.625  -2.172  -0.194  0.00  0.00    -0.005 A 
ATOM      4  C3  UNL d   1      -2.005  -1.984  -0.112  0.00  0.00     0.006 A 
ATOM      5  C4  UNL d   1      -2.527  -0.922   0.627  0.00  0.00    -0.005 A 
ATOM      6  C5  UNL d   1      -1.672  -0.038   1.293  0.00  0.00    -0.074 A 
ATOM      7  C6  UNL d   1      -2.217   1.103   2.100  0.00  0.00     0.077 C 
ATOM      8  C7  UNL d   1      -0.287  -0.238   1.212  0.00  0.00    -0.001 A 
ENDROOT
TORSDOF 0
ENDMDL
