MODEL 1
REMARK minimizedAffinity -1.17843997
REMARK minimizedRMSD -1
REMARK  2 active torsions:
REMARK  status: ('A' for Active; 'I' for Inactive)
REMARK    1  A    between atoms: C2'_3  and  C1'_4 
REMARK    2  A    between atoms: C1'_4  and  C1_5 
ROOT
ATOM      1  C1  I4B d   1      -0.054  -1.499  -0.148  0.00  0.00    -0.075 A 
ATOM      2  C2  I4B d   1       1.192  -1.702  -0.688  0.00  0.00     0.003 A 
ATOM      3  C3  I4B d   1       1.576  -2.992  -1.128  0.00  0.00     0.002 A 
ATOM      4  C4  I4B d   1       0.708  -4.053  -0.965  0.00  0.00    -0.004 A 
ATOM      5  C5  I4B d   1      -0.563  -3.840  -0.438  0.00  0.00     0.002 A 
ATOM      6  C6  I4B d   1      -0.951  -2.554  -0.039  0.00  0.00     0.003 A 
ENDROOT
BRANCH   1   7
ATOM      7  C1' I4B d   1      -0.415  -0.131   0.337  0.00  0.00     0.060 C 
BRANCH   7   8
ATOM      8  C2' I4B d   1      -1.055  -0.274   1.703  0.00  0.00    -0.013 C 
ATOM      9  C4' I4B d   1      -0.095   0.110   2.798  0.00  0.00     0.013 C 
ATOM     10  C3' I4B d   1      -2.282   0.588   1.732  0.00  0.00     0.013 C 
ENDBRANCH   7   8
ENDBRANCH   1   7
TORSDOF 2
ENDMDL
