MODEL 1
REMARK minimizedAffinity -5.5417099
REMARK minimizedRMSD -1
REMARK  2 active torsions:
REMARK  status: ('A' for Active; 'I' for Inactive)
REMARK    1  A    between atoms: C2'_3  and  C1'_4 
REMARK    2  A    between atoms: C1'_4  and  C1_5 
ROOT
ATOM      1  C1  I4B d   1      -0.151   0.030   0.103  0.00  0.00    -0.075 A 
ATOM      2  C2  I4B d   1       0.486  -0.966  -0.594  0.00  0.00     0.003 A 
ATOM      3  C3  I4B d   1       0.415  -2.307  -0.146  0.00  0.00     0.002 A 
ATOM      4  C4  I4B d   1      -0.257  -2.598   1.024  0.00  0.00    -0.004 A 
ATOM      5  C5  I4B d   1      -0.921  -1.590   1.717  0.00  0.00     0.002 A 
ATOM      6  C6  I4B d   1      -0.878  -0.269   1.247  0.00  0.00     0.003 A 
ENDROOT
BRANCH   1   7
ATOM      7  C1' I4B d   1      -0.027   1.440  -0.381  0.00  0.00     0.060 C 
BRANCH   7   8
ATOM      8  C2' I4B d   1       0.829   2.201   0.611  0.00  0.00    -0.013 C 
ATOM      9  C4' I4B d   1       2.257   2.292   0.141  0.00  0.00     0.013 C 
ATOM     10  C3' I4B d   1       0.230   3.564   0.790  0.00  0.00     0.013 C 
ENDBRANCH   7   8
ENDBRANCH   1   7
TORSDOF 2
ENDMDL
