MODEL 1
REMARK minimizedAffinity -0.242807165
REMARK minimizedRMSD -1
REMARK  2 active torsions:
REMARK  status: ('A' for Active; 'I' for Inactive)
REMARK    1  A    between atoms: C2'_3  and  C1'_4 
REMARK    2  A    between atoms: C1'_4  and  C1_5 
ROOT
ATOM      1  C1  I4B d   1      -0.465  -1.740   0.445  0.00  0.00    -0.075 A 
ATOM      2  C2  I4B d   1       0.450  -2.634  -0.051  0.00  0.00     0.003 A 
ATOM      3  C3  I4B d   1       1.112  -2.372  -1.275  0.00  0.00     0.002 A 
ATOM      4  C4  I4B d   1       0.794  -1.235  -1.989  0.00  0.00    -0.004 A 
ATOM      5  C5  I4B d   1      -0.117  -0.318  -1.474  0.00  0.00     0.002 A 
ATOM      6  C6  I4B d   1      -0.742  -0.565  -0.243  0.00  0.00     0.003 A 
ENDROOT
BRANCH   1   7
ATOM      7  C1' I4B d   1      -1.171  -2.065   1.724  0.00  0.00     0.060 C 
BRANCH   7   8
ATOM      8  C2' I4B d   1      -1.502  -0.759   2.418  0.00  0.00    -0.013 C 
ATOM      9  C4' I4B d   1      -2.686  -0.086   1.776  0.00  0.00     0.013 C 
ATOM     10  C3' I4B d   1      -1.768  -1.059   3.864  0.00  0.00     0.013 C 
ENDBRANCH   7   8
ENDBRANCH   1   7
TORSDOF 2
ENDMDL
