MODEL 1
REMARK minimizedAffinity -3.84963822
REMARK minimizedRMSD -1
REMARK  2 active torsions:
REMARK  status: ('A' for Active; 'I' for Inactive)
REMARK    1  A    between atoms: C2'_3  and  C1'_4 
REMARK    2  A    between atoms: C1'_4  and  C1_5 
ROOT
ATOM      1  C1  I4B d   1       0.233   0.486   0.354  0.00  0.00    -0.075 A 
ATOM      2  C2  I4B d   1      -0.574   0.210   1.429  0.00  0.00     0.003 A 
ATOM      3  C3  I4B d   1      -0.770  -1.128   1.849  0.00  0.00     0.002 A 
ATOM      4  C4  I4B d   1      -0.186  -2.156   1.138  0.00  0.00    -0.004 A 
ATOM      5  C5  I4B d   1       0.650  -1.873   0.061  0.00  0.00     0.002 A 
ATOM      6  C6  I4B d   1       0.871  -0.544  -0.326  0.00  0.00     0.003 A 
ENDROOT
BRANCH   1   7
ATOM      7  C1' I4B d   1       0.392   1.908  -0.083  0.00  0.00     0.060 C 
BRANCH   7   8
ATOM      8  C2' I4B d   1       1.214   2.628   0.966  0.00  0.00    -0.013 C 
ATOM      9  C4' I4B d   1       2.588   2.961   0.447  0.00  0.00     0.013 C 
ATOM     10  C3' I4B d   1       0.471   3.869   1.365  0.00  0.00     0.013 C 
ENDBRANCH   7   8
ENDBRANCH   1   7
TORSDOF 2
ENDMDL
