MODEL 1
REMARK minimizedAffinity -0.766535521
REMARK minimizedRMSD -1
REMARK  2 active torsions:
REMARK  status: ('A' for Active; 'I' for Inactive)
REMARK    1  A    between atoms: C2'_3  and  C1'_4 
REMARK    2  A    between atoms: C1'_4  and  C1_5 
ROOT
ATOM      1  C1  I4B d   1       0.024   0.270   0.540  0.00  0.00    -0.075 A 
ATOM      2  C2  I4B d   1      -0.789  -0.461   1.370  0.00  0.00     0.003 A 
ATOM      3  C3  I4B d   1      -0.716  -1.875   1.375  0.00  0.00     0.002 A 
ATOM      4  C4  I4B d   1       0.142  -2.514   0.504  0.00  0.00    -0.004 A 
ATOM      5  C5  I4B d   1       0.983  -1.771  -0.320  0.00  0.00     0.002 A 
ATOM      6  C6  I4B d   1       0.932  -0.370  -0.294  0.00  0.00     0.003 A 
ENDROOT
BRANCH   1   7
ATOM      7  C1' I4B d   1      -0.102   1.760   0.536  0.00  0.00     0.060 C 
BRANCH   7   8
ATOM      8  C2' I4B d   1       1.073   2.331   1.303  0.00  0.00    -0.013 C 
ATOM      9  C4' I4B d   1       2.228   2.635   0.385  0.00  0.00     0.013 C 
ATOM     10  C3' I4B d   1       0.607   3.566   2.014  0.00  0.00     0.013 C 
ENDBRANCH   7   8
ENDBRANCH   1   7
TORSDOF 2
ENDMDL
