MODEL 1
REMARK minimizedAffinity -3.65173054
REMARK minimizedRMSD -1
REMARK  2 active torsions:
REMARK  status: ('A' for Active; 'I' for Inactive)
REMARK    1  A    between atoms: C2'_3  and  C1'_4 
REMARK    2  A    between atoms: C1'_4  and  C1_5 
ROOT
ATOM      1  C1  I4B d   1      -0.484  -0.788   0.758  0.00  0.00    -0.075 A 
ATOM      2  C2  I4B d   1       0.635  -1.476   0.360  0.00  0.00     0.003 A 
ATOM      3  C3  I4B d   1       0.541  -2.842   0.000  0.00  0.00     0.002 A 
ATOM      4  C4  I4B d   1      -0.674  -3.489   0.101  0.00  0.00    -0.004 A 
ATOM      5  C5  I4B d   1      -1.812  -2.784   0.483  0.00  0.00     0.002 A 
ATOM      6  C6  I4B d   1      -1.719  -1.422   0.802  0.00  0.00     0.003 A 
ENDROOT
BRANCH   1   7
ATOM      7  C1' I4B d   1      -0.343   0.646   1.163  0.00  0.00     0.060 C 
BRANCH   7   8
ATOM      8  C2' I4B d   1       0.462   1.355   0.093  0.00  0.00    -0.013 C 
ATOM      9  C4' I4B d   1      -0.233   1.294  -1.242  0.00  0.00     0.013 C 
ATOM     10  C3' I4B d   1       0.665   2.775   0.532  0.00  0.00     0.013 C 
ENDBRANCH   7   8
ENDBRANCH   1   7
TORSDOF 2
ENDMDL
