MODEL 1
REMARK minimizedAffinity -5.40211153
REMARK minimizedRMSD -1
REMARK  2 active torsions:
REMARK  status: ('A' for Active; 'I' for Inactive)
REMARK    1  A    between atoms: C2'_3  and  C1'_4 
REMARK    2  A    between atoms: C1'_4  and  C1_5 
ROOT
ATOM      1  C1  I4B d   1      -0.135   0.323   0.203  0.00  0.00    -0.075 A 
ATOM      2  C2  I4B d   1      -0.954   0.056   1.272  0.00  0.00     0.003 A 
ATOM      3  C3  I4B d   1      -1.148  -1.278   1.706  0.00  0.00     0.002 A 
ATOM      4  C4  I4B d   1      -0.548  -2.311   1.016  0.00  0.00    -0.004 A 
ATOM      5  C5  I4B d   1       0.301  -2.037  -0.053  0.00  0.00     0.002 A 
ATOM      6  C6  I4B d   1       0.518  -0.711  -0.455  0.00  0.00     0.003 A 
ENDROOT
BRANCH   1   7
ATOM      7  C1' I4B d   1       0.021   1.740  -0.249  0.00  0.00     0.060 C 
BRANCH   7   8
ATOM      8  C2' I4B d   1       0.617   2.533   0.896  0.00  0.00    -0.013 C 
ATOM      9  C4' I4B d   1       2.040   2.929   0.602  0.00  0.00     0.013 C 
ATOM     10  C3' I4B d   1      -0.245   3.738   1.123  0.00  0.00     0.013 C 
ENDBRANCH   7   8
ENDBRANCH   1   7
TORSDOF 2
ENDMDL
