MODEL 1
REMARK minimizedAffinity -2.33450961
REMARK minimizedRMSD -1
REMARK  2 active torsions:
REMARK  status: ('A' for Active; 'I' for Inactive)
REMARK    1  A    between atoms: C2'_3  and  C1'_4 
REMARK    2  A    between atoms: C1'_4  and  C1_5 
ROOT
ATOM      1  C1  I4B d   1       0.086  -0.260  -0.353  0.00  0.00    -0.075 A 
ATOM      2  C2  I4B d   1      -0.652  -0.710   0.714  0.00  0.00     0.003 A 
ATOM      3  C3  I4B d   1      -0.609  -2.075   1.085  0.00  0.00     0.002 A 
ATOM      4  C4  I4B d   1       0.141  -2.960   0.337  0.00  0.00    -0.004 A 
ATOM      5  C5  I4B d   1       0.906  -2.498  -0.730  0.00  0.00     0.002 A 
ATOM      6  C6  I4B d   1       0.888  -1.138  -1.070  0.00  0.00     0.003 A 
ENDROOT
BRANCH   1   7
ATOM      7  C1' I4B d   1      -0.009   1.182  -0.738  0.00  0.00     0.060 C 
BRANCH   7   8
ATOM      8  C2' I4B d   1       0.491   2.010   0.428  0.00  0.00    -0.013 C 
ATOM      9  C4' I4B d   1       1.986   2.185   0.370  0.00  0.00     0.013 C 
ATOM     10  C3' I4B d   1      -0.210   3.335   0.389  0.00  0.00     0.013 C 
ENDBRANCH   7   8
ENDBRANCH   1   7
TORSDOF 2
ENDMDL
