MODEL 1
REMARK minimizedAffinity -4.10984993
REMARK minimizedRMSD -1
REMARK  2 active torsions:
REMARK  status: ('A' for Active; 'I' for Inactive)
REMARK    1  A    between atoms: C2'_3  and  C1'_4 
REMARK    2  A    between atoms: C1'_4  and  C1_5 
ROOT
ATOM      1  C1  I4B d   1       0.213  -1.277  -0.511  0.00  0.00    -0.075 A 
ATOM      2  C2  I4B d   1       0.272  -1.579  -1.849  0.00  0.00     0.003 A 
ATOM      3  C3  I4B d   1      -0.221  -2.820  -2.322  0.00  0.00     0.002 A 
ATOM      4  C4  I4B d   1      -0.714  -3.743  -1.422  0.00  0.00    -0.004 A 
ATOM      5  C5  I4B d   1      -0.793  -3.425  -0.069  0.00  0.00     0.002 A 
ATOM      6  C6  I4B d   1      -0.339  -2.180   0.388  0.00  0.00     0.003 A 
ENDROOT
BRANCH   1   7
ATOM      7  C1' I4B d   1       0.772   0.029  -0.042  0.00  0.00     0.060 C 
BRANCH   7   8
ATOM      8  C2' I4B d   1      -0.360   1.035  -0.005  0.00  0.00    -0.013 C 
ATOM      9  C4' I4B d   1      -1.224   0.839   1.212  0.00  0.00     0.013 C 
ATOM     10  C3' I4B d   1       0.240   2.409  -0.028  0.00  0.00     0.013 C 
ENDBRANCH   7   8
ENDBRANCH   1   7
TORSDOF 2
ENDMDL
