MODEL 1
REMARK minimizedAffinity -3.17339659
REMARK minimizedRMSD -1
REMARK  0 active torsions:
REMARK  status: ('A' for Active; 'I' for Inactive)
ROOT
ATOM      1  O1  BZF d   1       0.057  -1.620  -1.029  0.00  0.00    -0.204 OA
ATOM      2  C2  BZF d   1      -1.240  -2.028  -1.273  0.00  0.00     0.174 A 
ATOM      3  C3  BZF d   1      -2.104  -1.387  -0.460  0.00  0.00    -0.012 A 
ATOM      4  C3A BZF d   1      -1.307  -0.456   0.278  0.00  0.00    -0.107 A 
ATOM      5  C4  BZF d   1      -1.595   0.478   1.232  0.00  0.00     0.055 A 
ATOM      6  C5  BZF d   1      -0.578   1.173   1.804  0.00  0.00    -0.016 A 
ATOM      7  C6  BZF d   1       0.738   0.956   1.452  0.00  0.00     0.022 A 
ATOM      8  C7  BZF d   1       1.073   0.044   0.507  0.00  0.00     0.029 A 
ATOM      9  C7A BZF d   1       0.045  -0.637  -0.097  0.00  0.00     0.058 A 
ENDROOT
TORSDOF 0
ENDMDL
