MODEL 1
REMARK minimizedAffinity -2.19453669
REMARK minimizedRMSD -1
REMARK  0 active torsions:
REMARK  status: ('A' for Active; 'I' for Inactive)
ROOT
ATOM      1  O1  BZF d   1      -1.029   1.272   1.685  0.00  0.00    -0.204 OA
ATOM      2  C2  BZF d   1      -0.104   2.061   2.341  0.00  0.00     0.174 A 
ATOM      3  C3  BZF d   1       1.151   1.736   1.970  0.00  0.00    -0.012 A 
ATOM      4  C3A BZF d   1       0.997   0.740   0.954  0.00  0.00    -0.107 A 
ATOM      5  C4  BZF d   1       1.881   0.038   0.187  0.00  0.00     0.055 A 
ATOM      6  C5  BZF d   1       1.409  -0.914  -0.661  0.00  0.00    -0.016 A 
ATOM      7  C6  BZF d   1       0.062  -1.192  -0.762  0.00  0.00     0.022 A 
ATOM      8  C7  BZF d   1      -0.854  -0.518  -0.025  0.00  0.00     0.029 A 
ATOM      9  C7A BZF d   1      -0.383   0.467   0.809  0.00  0.00     0.058 A 
ENDROOT
TORSDOF 0
ENDMDL
