MODEL 1
REMARK minimizedAffinity -3.95483565
REMARK minimizedRMSD -1
REMARK  0 active torsions:
REMARK  status: ('A' for Active; 'I' for Inactive)
ROOT
ATOM      1  O1  BZF d   1       2.347   1.435   1.033  0.00  0.00    -0.204 OA
ATOM      2  C2  BZF d   1       2.073   2.078   2.225  0.00  0.00     0.174 A 
ATOM      3  C3  BZF d   1       0.809   1.830   2.623  0.00  0.00    -0.012 A 
ATOM      4  C3A BZF d   1       0.287   0.905   1.664  0.00  0.00    -0.107 A 
ATOM      5  C4  BZF d   1      -0.916   0.273   1.528  0.00  0.00     0.055 A 
ATOM      6  C5  BZF d   1      -1.130  -0.512   0.439  0.00  0.00    -0.016 A 
ATOM      7  C6  BZF d   1      -0.167  -0.682  -0.533  0.00  0.00     0.022 A 
ATOM      8  C7  BZF d   1       1.044  -0.080  -0.439  0.00  0.00     0.029 A 
ATOM      9  C7A BZF d   1       1.275   0.688   0.676  0.00  0.00     0.058 A 
ENDROOT
TORSDOF 0
ENDMDL
