MODEL 1
REMARK minimizedAffinity -2.29093289
REMARK minimizedRMSD -1
REMARK  0 active torsions:
REMARK  status: ('A' for Active; 'I' for Inactive)
ROOT
ATOM      1  O1  BZF d   1       0.470  -1.872  -1.115  0.00  0.00    -0.204 OA
ATOM      2  C2  BZF d   1       0.376  -0.878  -0.159  0.00  0.00     0.174 A 
ATOM      3  C3  BZF d   1      -0.775  -0.189  -0.297  0.00  0.00    -0.012 A 
ATOM      4  C3A BZF d   1      -1.485  -0.849  -1.350  0.00  0.00    -0.107 A 
ATOM      5  C4  BZF d   1      -2.700  -0.641  -1.937  0.00  0.00     0.055 A 
ATOM      6  C5  BZF d   1      -3.067  -1.418  -2.989  0.00  0.00    -0.016 A 
ATOM      7  C6  BZF d   1      -2.242  -2.408  -3.483  0.00  0.00     0.022 A 
ATOM      8  C7  BZF d   1      -1.030  -2.655  -2.931  0.00  0.00     0.029 A 
ATOM      9  C7A BZF d   1      -0.670  -1.893  -1.846  0.00  0.00     0.058 A 
ENDROOT
TORSDOF 0
ENDMDL
