MODEL 1
REMARK minimizedAffinity -2.76699424
REMARK minimizedRMSD -1
REMARK  0 active torsions:
REMARK  status: ('A' for Active; 'I' for Inactive)
ROOT
ATOM      1  O1  BZF d   1       0.794  -0.644  -0.443  0.00  0.00    -0.204 OA
ATOM      2  C2  BZF d   1      -0.546  -0.761  -0.125  0.00  0.00     0.174 A 
ATOM      3  C3  BZF d   1      -0.877   0.084   0.872  0.00  0.00    -0.012 A 
ATOM      4  C3A BZF d   1       0.310   0.838   1.136  0.00  0.00    -0.107 A 
ATOM      5  C4  BZF d   1       0.608   1.845   2.009  0.00  0.00     0.055 A 
ATOM      6  C5  BZF d   1       1.882   2.315   2.066  0.00  0.00    -0.016 A 
ATOM      7  C6  BZF d   1       2.882   1.798   1.269  0.00  0.00     0.022 A 
ATOM      8  C7  BZF d   1       2.634   0.803   0.383  0.00  0.00     0.029 A 
ATOM      9  C7A BZF d   1       1.340   0.348   0.300  0.00  0.00     0.058 A 
ENDROOT
TORSDOF 0
ENDMDL
