MODEL 1
REMARK minimizedAffinity -4.05756474
REMARK minimizedRMSD -1
REMARK  0 active torsions:
REMARK  status: ('A' for Active; 'I' for Inactive)
ROOT
ATOM      1  O1  BZF d   1       2.734   0.386  -0.107  0.00  0.00    -0.204 OA
ATOM      2  C2  BZF d   1       3.335   1.421   0.583  0.00  0.00     0.174 A 
ATOM      3  C3  BZF d   1       2.442   2.054   1.370  0.00  0.00    -0.012 A 
ATOM      4  C3A BZF d   1       1.225   1.314   1.229  0.00  0.00    -0.107 A 
ATOM      5  C4  BZF d   1      -0.020   1.443   1.775  0.00  0.00     0.055 A 
ATOM      6  C5  BZF d   1      -1.007   0.600   1.373  0.00  0.00    -0.016 A 
ATOM      7  C6  BZF d   1      -0.786  -0.378   0.425  0.00  0.00     0.022 A 
ATOM      8  C7  BZF d   1       0.434  -0.547  -0.141  0.00  0.00     0.029 A 
ATOM      9  C7A BZF d   1       1.442   0.282   0.288  0.00  0.00     0.058 A 
ENDROOT
TORSDOF 0
ENDMDL
