MODEL 1
REMARK minimizedAffinity -2.7549119
REMARK minimizedRMSD -1
REMARK  0 active torsions:
REMARK  status: ('A' for Active; 'I' for Inactive)
ROOT
ATOM      1  O1  BZF d   1       0.897  -1.025  -0.672  0.00  0.00    -0.204 OA
ATOM      2  C2  BZF d   1      -0.480  -1.007  -0.561  0.00  0.00     0.174 A 
ATOM      3  C3  BZF d   1      -0.878  -0.053   0.306  0.00  0.00    -0.012 A 
ATOM      4  C3A BZF d   1       0.320   0.625   0.695  0.00  0.00    -0.107 A 
ATOM      5  C4  BZF d   1       0.576   1.678   1.526  0.00  0.00     0.055 A 
ATOM      6  C5  BZF d   1       1.864   2.049   1.746  0.00  0.00    -0.016 A 
ATOM      7  C6  BZF d   1       2.921   1.386   1.157  0.00  0.00     0.022 A 
ATOM      8  C7  BZF d   1       2.718   0.338   0.321  0.00  0.00     0.029 A 
ATOM      9  C7A BZF d   1       1.415  -0.017   0.071  0.00  0.00     0.058 A 
ENDROOT
TORSDOF 0
ENDMDL
