MODEL 1
REMARK minimizedAffinity -4.38414478
REMARK minimizedRMSD -1
REMARK  0 active torsions:
REMARK  status: ('A' for Active; 'I' for Inactive)
ROOT
ATOM      1  O1  BZF d   1       0.099   0.630  -1.109  0.00  0.00    -0.204 OA
ATOM      2  C2  BZF d   1       0.641  -0.111  -0.076  0.00  0.00     0.174 A 
ATOM      3  C3  BZF d   1       0.013  -1.299   0.041  0.00  0.00    -0.012 A 
ATOM      4  C3A BZF d   1      -0.922  -1.339  -1.042  0.00  0.00    -0.107 A 
ATOM      5  C4  BZF d   1      -1.826  -2.269  -1.468  0.00  0.00     0.055 A 
ATOM      6  C5  BZF d   1      -2.638  -1.970  -2.515  0.00  0.00    -0.016 A 
ATOM      7  C6  BZF d   1      -2.577  -0.750  -3.156  0.00  0.00     0.022 A 
ATOM      8  C7  BZF d   1      -1.692   0.203  -2.773  0.00  0.00     0.029 A 
ATOM      9  C7A BZF d   1      -0.847  -0.109  -1.736  0.00  0.00     0.058 A 
ENDROOT
TORSDOF 0
ENDMDL
