MODEL 1
REMARK minimizedAffinity -1.68121421
REMARK minimizedRMSD -1
REMARK  0 active torsions:
REMARK  status: ('A' for Active; 'I' for Inactive)
ROOT
ATOM      1  O1  BZF d   1      -1.723  -0.936   0.099  0.00  0.00    -0.204 OA
ATOM      2  C2  BZF d   1      -1.127  -1.468  -1.028  0.00  0.00     0.174 A 
ATOM      3  C3  BZF d   1       0.092  -0.927  -1.226  0.00  0.00    -0.012 A 
ATOM      4  C3A BZF d   1       0.308  -0.066  -0.104  0.00  0.00    -0.107 A 
ATOM      5  C4  BZF d   1       1.344   0.738   0.277  0.00  0.00     0.055 A 
ATOM      6  C5  BZF d   1       1.210   1.506   1.391  0.00  0.00    -0.016 A 
ATOM      7  C6  BZF d   1       0.053   1.498   2.142  0.00  0.00     0.022 A 
ATOM      8  C7  BZF d   1      -0.999   0.714   1.807  0.00  0.00     0.029 A 
ATOM      9  C7A BZF d   1      -0.854  -0.088   0.701  0.00  0.00     0.058 A 
ENDROOT
TORSDOF 0
ENDMDL
