MODEL 1
REMARK minimizedAffinity -1.80166054
REMARK minimizedRMSD -1
REMARK  0 active torsions:
REMARK  status: ('A' for Active; 'I' for Inactive)
ROOT
ATOM      1  O1  BZF d   1       0.668  -0.772  -0.589  0.00  0.00    -0.204 OA
ATOM      2  C2  BZF d   1      -0.688  -0.889  -0.354  0.00  0.00     0.174 A 
ATOM      3  C3  BZF d   1      -1.063  -0.111   0.682  0.00  0.00    -0.012 A 
ATOM      4  C3A BZF d   1       0.117   0.602   1.063  0.00  0.00    -0.107 A 
ATOM      5  C4  BZF d   1       0.379   1.539   2.022  0.00  0.00     0.055 A 
ATOM      6  C5  BZF d   1       1.654   1.982   2.181  0.00  0.00    -0.016 A 
ATOM      7  C6  BZF d   1       2.690   1.507   1.405  0.00  0.00     0.022 A 
ATOM      8  C7  BZF d   1       2.478   0.581   0.438  0.00  0.00     0.029 A 
ATOM      9  C7A BZF d   1       1.186   0.156   0.252  0.00  0.00     0.058 A 
ENDROOT
TORSDOF 0
ENDMDL
