MODEL 1
REMARK minimizedAffinity -3.26444244
REMARK minimizedRMSD -1
REMARK  0 active torsions:
REMARK  status: ('A' for Active; 'I' for Inactive)
ROOT
ATOM      1  O1  BZF d   1       2.567  -0.219  -0.206  0.00  0.00    -0.204 OA
ATOM      2  C2  BZF d   1       3.489   0.612   0.400  0.00  0.00     0.174 A 
ATOM      3  C3  BZF d   1       2.882   1.451   1.264  0.00  0.00    -0.012 A 
ATOM      4  C3A BZF d   1       1.505   1.062   1.262  0.00  0.00    -0.107 A 
ATOM      5  C4  BZF d   1       0.402   1.510   1.931  0.00  0.00     0.055 A 
ATOM      6  C5  BZF d   1      -0.809   0.963   1.648  0.00  0.00    -0.016 A 
ATOM      7  C6  BZF d   1      -0.954  -0.029   0.700  0.00  0.00     0.022 A 
ATOM      8  C7  BZF d   1       0.112  -0.509   0.014  0.00  0.00     0.029 A 
ATOM      9  C7A BZF d   1       1.342   0.018   0.322  0.00  0.00     0.058 A 
ENDROOT
TORSDOF 0
ENDMDL
