MODEL 1
REMARK minimizedAffinity 0.887513638
REMARK minimizedRMSD -1
REMARK  0 active torsions:
REMARK  status: ('A' for Active; 'I' for Inactive)
ROOT
ATOM      1  O1  BZF d   1       0.346  -0.199  -1.106  0.00  0.00    -0.204 OA
ATOM      2  C2  BZF d   1       0.160  -0.202   0.263  0.00  0.00     0.174 A 
ATOM      3  C3  BZF d   1      -0.997  -0.815   0.586  0.00  0.00    -0.012 A 
ATOM      4  C3A BZF d   1      -1.524  -1.302  -0.652  0.00  0.00    -0.107 A 
ATOM      5  C4  BZF d   1      -2.645  -2.009  -0.982  0.00  0.00     0.055 A 
ATOM      6  C5  BZF d   1      -2.905  -2.261  -2.292  0.00  0.00    -0.016 A 
ATOM      7  C6  BZF d   1      -2.070  -1.817  -3.296  0.00  0.00     0.022 A 
ATOM      8  C7  BZF d   1      -0.944  -1.116  -3.018  0.00  0.00     0.029 A 
ATOM      9  C7A BZF d   1      -0.661  -0.888  -1.693  0.00  0.00     0.058 A 
ENDROOT
TORSDOF 0
ENDMDL
