MODEL 1
REMARK minimizedAffinity 1.34573555
REMARK minimizedRMSD -1
REMARK  0 active torsions:
REMARK  status: ('A' for Active; 'I' for Inactive)
ROOT
ATOM      1  O1  BZF d   1       1.915   0.915   0.783  0.00  0.00    -0.204 OA
ATOM      2  C2  BZF d   1       1.633   1.686   1.894  0.00  0.00     0.174 A 
ATOM      3  C3  BZF d   1       0.319   1.631   2.194  0.00  0.00    -0.012 A 
ATOM      4  C3A BZF d   1      -0.240   0.698   1.264  0.00  0.00    -0.107 A 
ATOM      5  C4  BZF d   1      -1.500   0.210   1.068  0.00  0.00     0.055 A 
ATOM      6  C5  BZF d   1      -1.727  -0.633   0.026  0.00  0.00    -0.016 A 
ATOM      7  C6  BZF d   1      -0.720  -1.003  -0.841  0.00  0.00     0.022 A 
ATOM      8  C7  BZF d   1       0.547  -0.549  -0.683  0.00  0.00     0.029 A 
ATOM      9  C7A BZF d   1       0.787   0.277   0.388  0.00  0.00     0.058 A 
ENDROOT
TORSDOF 0
ENDMDL
