MODEL 1
REMARK minimizedAffinity -1.10687327
REMARK minimizedRMSD -1
REMARK  0 active torsions:
REMARK  status: ('A' for Active; 'I' for Inactive)
ROOT
ATOM      1  O1  BZF d   1      -0.508  -2.317  -1.347  0.00  0.00    -0.204 OA
ATOM      2  C2  BZF d   1      -1.556  -2.240  -2.245  0.00  0.00     0.174 A 
ATOM      3  C3  BZF d   1      -2.307  -1.145  -2.011  0.00  0.00    -0.012 A 
ATOM      4  C3A BZF d   1      -1.637  -0.447  -0.956  0.00  0.00    -0.107 A 
ATOM      5  C4  BZF d   1      -1.889   0.721  -0.295  0.00  0.00     0.055 A 
ATOM      6  C5  BZF d   1      -1.080   1.084   0.735  0.00  0.00    -0.016 A 
ATOM      7  C6  BZF d   1      -0.016   0.302   1.133  0.00  0.00     0.022 A 
ATOM      8  C7  BZF d   1       0.276  -0.862   0.505  0.00  0.00     0.029 A 
ATOM      9  C7A BZF d   1      -0.519  -1.216  -0.558  0.00  0.00     0.058 A 
ENDROOT
TORSDOF 0
ENDMDL
