MODEL 1
REMARK minimizedAffinity -2.3919673
REMARK minimizedRMSD -1
REMARK  0 active torsions:
REMARK  status: ('A' for Active; 'I' for Inactive)
ROOT
ATOM      1  O1  BZF d   1       0.724  -0.315  -1.813  0.00  0.00    -0.204 OA
ATOM      2  C2  BZF d   1       0.727  -0.401  -0.435  0.00  0.00     0.174 A 
ATOM      3  C3  BZF d   1      -0.459  -0.855   0.019  0.00  0.00    -0.012 A 
ATOM      4  C3A BZF d   1      -1.222  -1.154  -1.154  0.00  0.00    -0.107 A 
ATOM      5  C4  BZF d   1      -2.477  -1.653  -1.356  0.00  0.00     0.055 A 
ATOM      6  C5  BZF d   1      -2.950  -1.755  -2.626  0.00  0.00    -0.016 A 
ATOM      7  C6  BZF d   1      -2.199  -1.364  -3.715  0.00  0.00     0.022 A 
ATOM      8  C7  BZF d   1      -0.947  -0.867  -3.564  0.00  0.00     0.029 A 
ATOM      9  C7A BZF d   1      -0.453  -0.793  -2.285  0.00  0.00     0.058 A 
ENDROOT
TORSDOF 0
ENDMDL
