MODEL 1
REMARK minimizedAffinity -4.03821373
REMARK minimizedRMSD -1
REMARK  0 active torsions:
REMARK  status: ('A' for Active; 'I' for Inactive)
ROOT
ATOM      1  O1  BZF d   1       0.325  -0.808  -0.697  0.00  0.00    -0.204 OA
ATOM      2  C2  BZF d   1      -0.963  -0.517  -0.292  0.00  0.00     0.174 A 
ATOM      3  C3  BZF d   1      -0.955   0.341   0.749  0.00  0.00    -0.012 A 
ATOM      4  C3A BZF d   1       0.422   0.674   0.951  0.00  0.00    -0.107 A 
ATOM      5  C4  BZF d   1       1.070   1.495   1.829  0.00  0.00     0.055 A 
ATOM      6  C5  BZF d   1       2.428   1.541   1.811  0.00  0.00    -0.016 A 
ATOM      7  C6  BZF d   1       3.169   0.776   0.934  0.00  0.00     0.022 A 
ATOM      8  C7  BZF d   1       2.570  -0.049   0.041  0.00  0.00     0.029 A 
ATOM      9  C7A BZF d   1       1.197  -0.073   0.034  0.00  0.00     0.058 A 
ENDROOT
TORSDOF 0
ENDMDL
