MODEL 1
REMARK minimizedAffinity -1.29985547
REMARK minimizedRMSD -1
REMARK  0 active torsions:
REMARK  status: ('A' for Active; 'I' for Inactive)
ROOT
ATOM      1  O1  BZF d   1      -4.681  -2.121  -2.255  0.00  0.00    -0.204 OA
ATOM      2  C2  BZF d   1      -4.934  -2.766  -1.060  0.00  0.00     0.174 A 
ATOM      3  C3  BZF d   1      -3.787  -2.995  -0.388  0.00  0.00    -0.012 A 
ATOM      4  C3A BZF d   1      -2.762  -2.377  -1.171  0.00  0.00    -0.107 A 
ATOM      5  C4  BZF d   1      -1.411  -2.250  -1.018  0.00  0.00     0.055 A 
ATOM      6  C5  BZF d   1      -0.688  -1.651  -2.001  0.00  0.00    -0.016 A 
ATOM      7  C6  BZF d   1      -1.282  -1.174  -3.151  0.00  0.00     0.022 A 
ATOM      8  C7  BZF d   1      -2.619  -1.273  -3.346  0.00  0.00     0.029 A 
ATOM      9  C7A BZF d   1      -3.357  -1.847  -2.340  0.00  0.00     0.058 A 
ENDROOT
TORSDOF 0
ENDMDL
