MODEL 1
REMARK minimizedAffinity -1.59635508
REMARK minimizedRMSD -1
REMARK  0 active torsions:
REMARK  status: ('A' for Active; 'I' for Inactive)
ROOT
ATOM      1  O1  BZF d   1       2.683   0.118  -0.261  0.00  0.00    -0.204 OA
ATOM      2  C2  BZF d   1       3.632   0.821   0.456  0.00  0.00     0.174 A 
ATOM      3  C3  BZF d   1       3.051   1.561   1.422  0.00  0.00    -0.012 A 
ATOM      4  C3A BZF d   1       1.660   1.234   1.361  0.00  0.00    -0.107 A 
ATOM      5  C4  BZF d   1       0.569   1.634   2.079  0.00  0.00     0.055 A 
ATOM      6  C5  BZF d   1      -0.661   1.181   1.719  0.00  0.00    -0.016 A 
ATOM      7  C6  BZF d   1      -0.836   0.332   0.646  0.00  0.00     0.022 A 
ATOM      8  C7  BZF d   1       0.216  -0.096  -0.093  0.00  0.00     0.029 A 
ATOM      9  C7A BZF d   1       1.464   0.334   0.288  0.00  0.00     0.058 A 
ENDROOT
TORSDOF 0
ENDMDL
