MODEL 1
REMARK minimizedAffinity -3.21026182
REMARK minimizedRMSD -1
REMARK  0 active torsions:
REMARK  status: ('A' for Active; 'I' for Inactive)
ROOT
ATOM      1  O1  BZF d   1      -0.310   1.972   1.764  0.00  0.00    -0.204 OA
ATOM      2  C2  BZF d   1      -1.613   1.581   2.006  0.00  0.00     0.174 A 
ATOM      3  C3  BZF d   1      -1.881   0.408   1.396  0.00  0.00    -0.012 A 
ATOM      4  C3A BZF d   1      -0.643  -0.002   0.808  0.00  0.00    -0.107 A 
ATOM      5  C4  BZF d   1      -0.266  -1.095   0.080  0.00  0.00     0.055 A 
ATOM      6  C5  BZF d   1       1.001  -1.158  -0.408  0.00  0.00    -0.016 A 
ATOM      7  C6  BZF d   1       1.913  -0.145  -0.193  0.00  0.00     0.022 A 
ATOM      8  C7  BZF d   1       1.586   0.956   0.526  0.00  0.00     0.029 A 
ATOM      9  C7A BZF d   1       0.317   1.007   1.049  0.00  0.00     0.058 A 
ENDROOT
TORSDOF 0
ENDMDL
