MODEL 1
REMARK minimizedAffinity 7.35341883
REMARK minimizedRMSD -1
REMARK  1 active torsions:
REMARK  status: ('A' for Active; 'I' for Inactive)
REMARK    1  A    between atoms: C3_4  and  O_7 
ROOT
ATOM      1  C   UNL d   1      -4.798   2.987  -0.784  0.00  0.00    -0.033 A 
ATOM      2  C1  UNL d   1      -5.620   2.270  -1.656  0.00  0.00     0.039 A 
ATOM      3  C2  UNL d   1      -5.617   0.874  -1.632  0.00  0.00    -0.080 A 
ATOM      4  C3  UNL d   1      -4.791   0.208  -0.731  0.00  0.00     0.150 A 
ATOM      5  C4  UNL d   1      -3.972   0.915   0.143  0.00  0.00    -0.007 A 
ATOM      6  C5  UNL d   1      -3.975   2.309   0.116  0.00  0.00     0.039 A 
ENDROOT
BRANCH   4   7
ATOM      7  O   UNL d   1      -4.751  -1.154  -0.673  0.00  0.00    -0.526 OA
ATOM      8  H5  UNL d   1      -5.347  -1.508  -1.354  0.00  0.00     0.418 HD
ENDBRANCH   4   7
TORSDOF 1
ENDMDL
