MODEL 1
REMARK minimizedAffinity 4.40860128
REMARK minimizedRMSD -1
REMARK  1 active torsions:
REMARK  status: ('A' for Active; 'I' for Inactive)
REMARK    1  A    between atoms: C3_4  and  O_7 
ROOT
ATOM      1  C   UNL d   1       2.862   0.108   0.001  0.00  0.00    -0.033 A 
ATOM      2  C1  UNL d   1       4.171  -0.194   0.381  0.00  0.00     0.039 A 
ATOM      3  C2  UNL d   1       5.241   0.510  -0.176  0.00  0.00    -0.080 A 
ATOM      4  C3  UNL d   1       4.988   1.512  -1.109  0.00  0.00     0.150 A 
ATOM      5  C4  UNL d   1       3.686   1.820  -1.489  0.00  0.00    -0.007 A 
ATOM      6  C5  UNL d   1       2.619   1.115  -0.932  0.00  0.00     0.039 A 
ENDROOT
BRANCH   4   7
ATOM      7  O   UNL d   1       6.000   2.223  -1.683  0.00  0.00    -0.526 OA
ATOM      8  H5  UNL d   1       6.845   1.881  -1.347  0.00  0.00     0.418 HD
ENDBRANCH   4   7
TORSDOF 1
ENDMDL
