MODEL 1
REMARK minimizedAffinity 5.749856
REMARK minimizedRMSD -1
REMARK  1 active torsions:
REMARK  status: ('A' for Active; 'I' for Inactive)
REMARK    1  A    between atoms: C3_4  and  O_7 
ROOT
ATOM      1  C   UNL d   1       3.529   3.796   3.665  0.00  0.00    -0.033 A 
ATOM      2  C1  UNL d   1       2.613   3.183   4.522  0.00  0.00     0.039 A 
ATOM      3  C2  UNL d   1       1.534   3.910   5.030  0.00  0.00    -0.080 A 
ATOM      4  C3  UNL d   1       1.383   5.247   4.672  0.00  0.00     0.150 A 
ATOM      5  C4  UNL d   1       2.289   5.863   3.816  0.00  0.00    -0.007 A 
ATOM      6  C5  UNL d   1       3.366   5.136   3.311  0.00  0.00     0.039 A 
ENDROOT
BRANCH   4   7
ATOM      7  O   UNL d   1       0.349   5.999   5.146  0.00  0.00    -0.526 OA
ATOM      8  H5  UNL d   1      -0.180   5.449   5.748  0.00  0.00     0.418 HD
ENDBRANCH   4   7
TORSDOF 1
ENDMDL
