MODEL 1
REMARK minimizedAffinity 2.36445189
REMARK minimizedRMSD -1
REMARK  1 active torsions:
REMARK  status: ('A' for Active; 'I' for Inactive)
REMARK    1  A    between atoms: C3_4  and  O_7 
ROOT
ATOM      1  C   UNL d   1      -3.408   0.229  -1.216  0.00  0.00    -0.033 A 
ATOM      2  C1  UNL d   1      -2.441   0.875  -0.443  0.00  0.00     0.039 A 
ATOM      3  C2  UNL d   1      -2.824   1.647   0.655  0.00  0.00    -0.080 A 
ATOM      4  C3  UNL d   1      -4.174   1.763   0.971  0.00  0.00     0.150 A 
ATOM      5  C4  UNL d   1      -5.143   1.119   0.209  0.00  0.00    -0.007 A 
ATOM      6  C5  UNL d   1      -4.759   0.349  -0.889  0.00  0.00     0.039 A 
ENDROOT
BRANCH   4   7
ATOM      7  O   UNL d   1      -4.597   2.510   2.031  0.00  0.00    -0.526 OA
ATOM      8  H5  UNL d   1      -3.820   2.919   2.448  0.00  0.00     0.418 HD
ENDBRANCH   4   7
TORSDOF 1
ENDMDL
