MODEL 1
REMARK minimizedAffinity 7.04289865
REMARK minimizedRMSD -1
REMARK  0 active torsions:
REMARK  status: ('A' for Active; 'I' for Inactive)
ROOT
ATOM      1  C   UNL d   1      -0.565  -0.528   0.552  0.00  0.00     0.023 A 
ATOM      2  C1  UNL d   1      -1.090  -1.363  -0.434  0.00  0.00     0.003 A 
ATOM      3  C2  UNL d   1      -1.372  -2.699  -0.141  0.00  0.00     0.048 A 
ATOM      4  C3  UNL d   1      -1.128  -3.193   1.140  0.00  0.00     0.023 A 
ATOM      5  C4  UNL d   1      -0.604  -2.360   2.130  0.00  0.00     0.048 A 
ATOM      6  C5  UNL d   1      -0.322  -1.025   1.832  0.00  0.00     0.003 A 
ATOM      7  I   UNL d   1      -1.548  -5.180   1.578  0.00  0.00    -0.146 I 
ENDROOT
TORSDOF 0
ENDMDL
