MODEL 1
REMARK minimizedAffinity 10.1279783
REMARK minimizedRMSD -1
REMARK  0 active torsions:
REMARK  status: ('A' for Active; 'I' for Inactive)
ROOT
ATOM      1  C   UNL d   1      -4.281   2.354   2.627  0.00  0.00     0.023 A 
ATOM      2  C1  UNL d   1      -4.950   1.193   2.240  0.00  0.00     0.003 A 
ATOM      3  C2  UNL d   1      -5.444   0.315   3.207  0.00  0.00     0.048 A 
ATOM      4  C3  UNL d   1      -5.266   0.604   4.559  0.00  0.00     0.023 A 
ATOM      5  C4  UNL d   1      -4.598   1.765   4.951  0.00  0.00     0.048 A 
ATOM      6  C5  UNL d   1      -4.106   2.640   3.981  0.00  0.00     0.003 A 
ATOM      7  I   UNL d   1      -6.000  -0.702   6.000  0.00  0.00    -0.146 I 
ENDROOT
TORSDOF 0
ENDMDL
