MODEL 1
REMARK minimizedAffinity 8.35490799
REMARK minimizedRMSD -1
REMARK  0 active torsions:
REMARK  status: ('A' for Active; 'I' for Inactive)
ROOT
ATOM      1  C   UNL d   1       6.000  -1.312  -1.016  0.00  0.00     0.023 A 
ATOM      2  C1  UNL d   1       6.000  -1.609   0.348  0.00  0.00     0.003 A 
ATOM      3  C2  UNL d   1       4.985  -1.116   1.171  0.00  0.00     0.048 A 
ATOM      4  C3  UNL d   1       3.973  -0.328   0.624  0.00  0.00     0.023 A 
ATOM      5  C4  UNL d   1       3.968  -0.030  -0.740  0.00  0.00     0.048 A 
ATOM      6  C5  UNL d   1       4.985  -0.524  -1.558  0.00  0.00     0.003 A 
ATOM      7  I   UNL d   1       2.461   0.406   1.847  0.00  0.00    -0.146 I 
ENDROOT
TORSDOF 0
ENDMDL
