MODEL 1
REMARK minimizedAffinity 11.7814589
REMARK minimizedRMSD -1
REMARK  0 active torsions:
REMARK  status: ('A' for Active; 'I' for Inactive)
ROOT
ATOM      1  C   UNL d   1       1.363   1.911   1.012  0.00  0.00     0.023 A 
ATOM      2  C1  UNL d   1       1.568   0.774   1.794  0.00  0.00     0.003 A 
ATOM      3  C2  UNL d   1       2.766   0.065   1.696  0.00  0.00     0.048 A 
ATOM      4  C3  UNL d   1       3.757   0.499   0.815  0.00  0.00     0.023 A 
ATOM      5  C4  UNL d   1       3.556   1.637   0.032  0.00  0.00     0.048 A 
ATOM      6  C5  UNL d   1       2.356   2.342   0.132  0.00  0.00     0.003 A 
ATOM      7  I   UNL d   1       5.542  -0.555   0.668  0.00  0.00    -0.146 I 
ENDROOT
TORSDOF 0
ENDMDL
