MODEL 1
REMARK minimizedAffinity 0.461354643
REMARK minimizedRMSD -1
REMARK  0 active torsions:
REMARK  status: ('A' for Active; 'I' for Inactive)
ROOT
ATOM      1  C   UNL d   1      -5.367   0.555   4.213  0.00  0.00     0.023 A 
ATOM      2  C1  UNL d   1      -5.904   0.768   5.483  0.00  0.00     0.003 A 
ATOM      3  C2  UNL d   1      -5.998   2.065   5.994  0.00  0.00     0.048 A 
ATOM      4  C3  UNL d   1      -5.553   3.143   5.229  0.00  0.00     0.023 A 
ATOM      5  C4  UNL d   1      -5.016   2.934   3.958  0.00  0.00     0.048 A 
ATOM      6  C5  UNL d   1      -4.923   1.636   3.452  0.00  0.00     0.003 A 
ATOM      7  I   UNL d   1      -5.691   5.073   5.987  0.00  0.00    -0.146 I 
ENDROOT
TORSDOF 0
ENDMDL
