MODEL 1
REMARK minimizedAffinity 1.66556382
REMARK minimizedRMSD -1
REMARK  0 active torsions:
REMARK  status: ('A' for Active; 'I' for Inactive)
ROOT
ATOM      1  C   UNL d   1      -5.248   2.508   5.897  0.00  0.00     0.023 A 
ATOM      2  C1  UNL d   1      -4.497   2.758   4.749  0.00  0.00     0.003 A 
ATOM      3  C2  UNL d   1      -4.495   1.836   3.700  0.00  0.00     0.048 A 
ATOM      4  C3  UNL d   1      -5.246   0.666   3.806  0.00  0.00     0.023 A 
ATOM      5  C4  UNL d   1      -6.000   0.412   4.953  0.00  0.00     0.048 A 
ATOM      6  C5  UNL d   1      -5.999   1.336   5.999  0.00  0.00     0.003 A 
ATOM      7  I   UNL d   1      -5.244  -0.708   2.246  0.00  0.00    -0.146 I 
ENDROOT
TORSDOF 0
ENDMDL
