MODEL 1
REMARK minimizedAffinity 1.5004971
REMARK minimizedRMSD -1
REMARK  0 active torsions:
REMARK  status: ('A' for Active; 'I' for Inactive)
ROOT
ATOM      1  C   UNL d   1      -5.629   0.256   3.684  0.00  0.00     0.023 A 
ATOM      2  C1  UNL d   1      -5.257   1.415   3.004  0.00  0.00     0.003 A 
ATOM      3  C2  UNL d   1      -5.257   2.645   3.666  0.00  0.00     0.048 A 
ATOM      4  C3  UNL d   1      -5.628   2.707   5.009  0.00  0.00     0.023 A 
ATOM      5  C4  UNL d   1      -6.000   1.549   5.693  0.00  0.00     0.048 A 
ATOM      6  C5  UNL d   1      -6.000   0.322   5.027  0.00  0.00     0.003 A 
ATOM      7  I   UNL d   1      -5.628   4.535   5.997  0.00  0.00    -0.146 I 
ENDROOT
TORSDOF 0
ENDMDL
