MODEL 1
REMARK minimizedAffinity 12.3566418
REMARK minimizedRMSD -1
REMARK  0 active torsions:
REMARK  status: ('A' for Active; 'I' for Inactive)
ROOT
ATOM      1  C   UNL d   1       3.384  -0.072   0.993  0.00  0.00     0.023 A 
ATOM      2  C1  UNL d   1       2.288   0.781   0.865  0.00  0.00     0.003 A 
ATOM      3  C2  UNL d   1       1.349   0.874   1.895  0.00  0.00     0.048 A 
ATOM      4  C3  UNL d   1       1.514   0.112   3.051  0.00  0.00     0.023 A 
ATOM      5  C4  UNL d   1       2.610  -0.742   3.185  0.00  0.00     0.048 A 
ATOM      6  C5  UNL d   1       3.545  -0.833   2.152  0.00  0.00     0.003 A 
ATOM      7  I   UNL d   1       0.119   0.250   4.586  0.00  0.00    -0.146 I 
ENDROOT
TORSDOF 0
ENDMDL
