MODEL 1
REMARK minimizedAffinity 14.8560505
REMARK minimizedRMSD -1
REMARK  0 active torsions:
REMARK  status: ('A' for Active; 'I' for Inactive)
ROOT
ATOM      1  C   UNL d   1      -1.026  -2.642  -3.361  0.00  0.00     0.023 A 
ATOM      2  C1  UNL d   1      -0.748  -3.997  -3.536  0.00  0.00     0.003 A 
ATOM      3  C2  UNL d   1      -1.606  -4.962  -3.003  0.00  0.00     0.048 A 
ATOM      4  C3  UNL d   1      -2.741  -4.564  -2.297  0.00  0.00     0.023 A 
ATOM      5  C4  UNL d   1      -3.023  -3.208  -2.120  0.00  0.00     0.048 A 
ATOM      6  C5  UNL d   1      -2.162  -2.247  -2.654  0.00  0.00     0.003 A 
ATOM      7  I   UNL d   1      -4.019  -5.997  -1.503  0.00  0.00    -0.146 I 
ENDROOT
TORSDOF 0
ENDMDL
