MODEL 1
REMARK minimizedAffinity 17.4560089
REMARK minimizedRMSD -1
REMARK  0 active torsions:
REMARK  status: ('A' for Active; 'I' for Inactive)
ROOT
ATOM      1  C   UNL d   1      -1.156  -3.454  -3.794  0.00  0.00     0.023 A 
ATOM      2  C1  UNL d   1      -1.090  -4.847  -3.754  0.00  0.00     0.003 A 
ATOM      3  C2  UNL d   1      -2.115  -5.579  -3.152  0.00  0.00     0.048 A 
ATOM      4  C3  UNL d   1      -3.205  -4.912  -2.593  0.00  0.00     0.023 A 
ATOM      5  C4  UNL d   1      -3.276  -3.519  -2.631  0.00  0.00     0.048 A 
ATOM      6  C5  UNL d   1      -2.248  -2.791  -3.233  0.00  0.00     0.003 A 
ATOM      7  I   UNL d   1      -4.733  -6.000  -1.697  0.00  0.00    -0.146 I 
ENDROOT
TORSDOF 0
ENDMDL
