MODEL 1
REMARK minimizedAffinity 9.01783371
REMARK minimizedRMSD -1
REMARK  0 active torsions:
REMARK  status: ('A' for Active; 'I' for Inactive)
ROOT
ATOM      1  C   UNL d   1      -5.910  -4.972  -2.265  0.00  0.00     0.023 A 
ATOM      2  C1  UNL d   1      -4.691  -5.375  -1.719  0.00  0.00     0.003 A 
ATOM      3  C2  UNL d   1      -3.557  -4.576  -1.874  0.00  0.00     0.048 A 
ATOM      4  C3  UNL d   1      -3.649  -3.374  -2.575  0.00  0.00     0.023 A 
ATOM      5  C4  UNL d   1      -4.867  -2.966  -3.122  0.00  0.00     0.048 A 
ATOM      6  C5  UNL d   1      -5.998  -3.769  -2.965  0.00  0.00     0.003 A 
ATOM      7  I   UNL d   1      -1.962  -2.182  -2.808  0.00  0.00    -0.146 I 
ENDROOT
TORSDOF 0
ENDMDL
