MODEL 1
REMARK minimizedAffinity 11.9091492
REMARK minimizedRMSD -1
REMARK  0 active torsions:
REMARK  status: ('A' for Active; 'I' for Inactive)
ROOT
ATOM      1  C   UNL d   1       1.551   5.934  -5.999  0.00  0.00     0.023 A 
ATOM      2  C1  UNL d   1       2.893   6.000  -5.623  0.00  0.00     0.003 A 
ATOM      3  C2  UNL d   1       3.495   4.913  -4.986  0.00  0.00     0.048 A 
ATOM      4  C3  UNL d   1       2.751   3.762  -4.730  0.00  0.00     0.023 A 
ATOM      5  C4  UNL d   1       1.408   3.691  -5.106  0.00  0.00     0.048 A 
ATOM      6  C5  UNL d   1       0.810   4.780  -5.741  0.00  0.00     0.003 A 
ATOM      7  I   UNL d   1       3.645   2.142  -3.784  0.00  0.00    -0.146 I 
ENDROOT
TORSDOF 0
ENDMDL
