MODEL 1
REMARK minimizedAffinity 18.1788673
REMARK minimizedRMSD -1
REMARK  0 active torsions:
REMARK  status: ('A' for Active; 'I' for Inactive)
ROOT
ATOM      1  C   UNL d   1      -1.220  -1.795  -2.987  0.00  0.00     0.023 A 
ATOM      2  C1  UNL d   1      -1.262  -2.929  -3.798  0.00  0.00     0.003 A 
ATOM      3  C2  UNL d   1      -2.038  -4.028  -3.423  0.00  0.00     0.048 A 
ATOM      4  C3  UNL d   1      -2.769  -3.986  -2.236  0.00  0.00     0.023 A 
ATOM      5  C4  UNL d   1      -2.730  -2.853  -1.422  0.00  0.00     0.048 A 
ATOM      6  C5  UNL d   1      -1.953  -1.756  -1.801  0.00  0.00     0.003 A 
ATOM      7  I   UNL d   1      -3.924  -5.620  -1.675  0.00  0.00    -0.146 I 
ENDROOT
TORSDOF 0
ENDMDL
