MODEL 1
REMARK minimizedAffinity 10.2364349
REMARK minimizedRMSD -1
REMARK  0 active torsions:
REMARK  status: ('A' for Active; 'I' for Inactive)
ROOT
ATOM      1  C   UNL d   1      -5.856   5.997   5.055  0.00  0.00     0.023 A 
ATOM      2  C1  UNL d   1      -5.251   5.168   6.000  0.00  0.00     0.003 A 
ATOM      3  C2  UNL d   1      -4.789   3.904   5.628  0.00  0.00     0.048 A 
ATOM      4  C3  UNL d   1      -4.934   3.475   4.309  0.00  0.00     0.023 A 
ATOM      5  C4  UNL d   1      -5.538   4.302   3.360  0.00  0.00     0.048 A 
ATOM      6  C5  UNL d   1      -6.000   5.564   3.737  0.00  0.00     0.003 A 
ATOM      7  I   UNL d   1      -4.247   1.595   3.752  0.00  0.00    -0.146 I 
ENDROOT
TORSDOF 0
ENDMDL
