MODEL 1
REMARK minimizedAffinity 15.7781439
REMARK minimizedRMSD -1
REMARK  0 active torsions:
REMARK  status: ('A' for Active; 'I' for Inactive)
ROOT
ATOM      1  C   UNL d   1      -5.636  -5.561  -2.912  0.00  0.00     0.023 A 
ATOM      2  C1  UNL d   1      -5.719  -4.248  -3.376  0.00  0.00     0.003 A 
ATOM      3  C2  UNL d   1      -4.650  -3.370  -3.186  0.00  0.00     0.048 A 
ATOM      4  C3  UNL d   1      -3.500  -3.813  -2.533  0.00  0.00     0.023 A 
ATOM      5  C4  UNL d   1      -3.412  -5.126  -2.068  0.00  0.00     0.048 A 
ATOM      6  C5  UNL d   1      -4.484  -5.999  -2.259  0.00  0.00     0.003 A 
ATOM      7  I   UNL d   1      -1.907  -2.508  -2.249  0.00  0.00    -0.146 I 
ENDROOT
TORSDOF 0
ENDMDL
