MODEL 1
REMARK minimizedAffinity 12.3959494
REMARK minimizedRMSD -1
REMARK  0 active torsions:
REMARK  status: ('A' for Active; 'I' for Inactive)
ROOT
ATOM      1  C   UNL d   1       3.712   0.676   0.036  0.00  0.00     0.023 A 
ATOM      2  C1  UNL d   1       4.068  -0.199   1.063  0.00  0.00     0.003 A 
ATOM      3  C2  UNL d   1       3.308  -0.249   2.233  0.00  0.00     0.048 A 
ATOM      4  C3  UNL d   1       2.194   0.578   2.371  0.00  0.00     0.023 A 
ATOM      5  C4  UNL d   1       1.834   1.455   1.346  0.00  0.00     0.048 A 
ATOM      6  C5  UNL d   1       2.597   1.502   0.178  0.00  0.00     0.003 A 
ATOM      7  I   UNL d   1       1.062   0.505   4.112  0.00  0.00    -0.146 I 
ENDROOT
TORSDOF 0
ENDMDL
