MODEL 1
REMARK minimizedAffinity 14.6262178
REMARK minimizedRMSD -1
REMARK  0 active torsions:
REMARK  status: ('A' for Active; 'I' for Inactive)
ROOT
ATOM      1  C   UNL d   1      -2.467  -2.140  -1.013  0.00  0.00     0.023 A 
ATOM      2  C1  UNL d   1      -1.355  -1.381  -1.375  0.00  0.00     0.003 A 
ATOM      3  C2  UNL d   1      -0.963  -1.309  -2.714  0.00  0.00     0.048 A 
ATOM      4  C3  UNL d   1      -1.689  -1.997  -3.684  0.00  0.00     0.023 A 
ATOM      5  C4  UNL d   1      -2.804  -2.757  -3.327  0.00  0.00     0.048 A 
ATOM      6  C5  UNL d   1      -3.191  -2.827  -1.987  0.00  0.00     0.003 A 
ATOM      7  I   UNL d   1      -1.108  -1.891  -5.677  0.00  0.00    -0.146 I 
ENDROOT
TORSDOF 0
ENDMDL
