MODEL 1
REMARK minimizedAffinity -1.02505338
REMARK minimizedRMSD -1
REMARK  3 active torsions:
REMARK  status: ('A' for Active; 'I' for Inactive)
REMARK    1  A    between atoms: C3'_2  and  C2'_3 
REMARK    2  A    between atoms: C2'_3  and  C1'_4 
REMARK    3  A    between atoms: C1'_4  and  C1_5 
ROOT
ATOM      1  C1  N4B d   1      -2.417   1.768  -2.976  0.00  0.00    -0.075 A 
ATOM      2  C2  N4B d   1      -3.354   2.799  -2.749  0.00  0.00     0.002 A 
ATOM      3  C3  N4B d   1      -2.944   4.110  -2.738  0.00  0.00     0.002 A 
ATOM      4  C4  N4B d   1      -1.604   4.411  -2.931  0.00  0.00    -0.004 A 
ATOM      5  C5  N4B d   1      -0.709   3.410  -3.176  0.00  0.00     0.002 A 
ATOM      6  C6  N4B d   1      -1.108   2.089  -3.194  0.00  0.00     0.002 A 
ENDROOT
BRANCH   1   7
ATOM      7  C1' N4B d   1      -2.803   0.315  -2.913  0.00  0.00     0.057 C 
BRANCH   7   8
ATOM      8  C2' N4B d   1      -1.810  -0.428  -2.024  0.00  0.00     0.009 C 
BRANCH   8   9
ATOM      9  C3' N4B d   1      -1.881   0.037  -0.580  0.00  0.00     0.004 C 
ATOM     10  C4' N4B d   1      -1.053  -0.806   0.344  0.00  0.00     0.003 C 
ENDBRANCH   8   9
ENDBRANCH   7   8
ENDBRANCH   1   7
TORSDOF 3
ENDMDL
