MODEL 1
REMARK minimizedAffinity -2.9470861
REMARK minimizedRMSD -1
REMARK  3 active torsions:
REMARK  status: ('A' for Active; 'I' for Inactive)
REMARK    1  A    between atoms: C3'_2  and  C2'_3 
REMARK    2  A    between atoms: C2'_3  and  C1'_4 
REMARK    3  A    between atoms: C1'_4  and  C1_5 
ROOT
ATOM      1  C1  N4B d   1       0.235   0.289  -0.540  0.00  0.00    -0.075 A 
ATOM      2  C2  N4B d   1       0.933   0.129   0.677  0.00  0.00     0.002 A 
ATOM      3  C3  N4B d   1       2.001  -0.731   0.748  0.00  0.00     0.002 A 
ATOM      4  C4  N4B d   1       2.376  -1.453  -0.374  0.00  0.00    -0.004 A 
ATOM      5  C5  N4B d   1       1.712  -1.275  -1.553  0.00  0.00     0.002 A 
ATOM      6  C6  N4B d   1       0.640  -0.411  -1.640  0.00  0.00     0.002 A 
ENDROOT
BRANCH   1   7
ATOM      7  C1' N4B d   1      -0.992   1.152  -0.645  0.00  0.00     0.057 C 
BRANCH   7   8
ATOM      8  C2' N4B d   1      -1.435   1.219  -2.104  0.00  0.00     0.009 C 
BRANCH   8   9
ATOM      9  C3' N4B d   1      -1.290   2.617  -2.679  0.00  0.00     0.004 C 
ATOM     10  C4' N4B d   1       0.066   2.863  -3.271  0.00  0.00     0.003 C 
ENDBRANCH   8   9
ENDBRANCH   7   8
ENDBRANCH   1   7
TORSDOF 3
ENDMDL
