MODEL 1
REMARK minimizedAffinity -6.39352703
REMARK minimizedRMSD -1
REMARK  3 active torsions:
REMARK  status: ('A' for Active; 'I' for Inactive)
REMARK    1  A    between atoms: C3'_2  and  C2'_3 
REMARK    2  A    between atoms: C2'_3  and  C1'_4 
REMARK    3  A    between atoms: C1'_4  and  C1_5 
ROOT
ATOM      1  C1  N4B d   1      -0.133   0.374   0.240  0.00  0.00    -0.075 A 
ATOM      2  C2  N4B d   1      -1.092  -0.104   1.161  0.00  0.00     0.002 A 
ATOM      3  C3  N4B d   1      -0.690  -0.583   2.384  0.00  0.00     0.002 A 
ATOM      4  C4  N4B d   1       0.660  -0.612   2.699  0.00  0.00    -0.004 A 
ATOM      5  C5  N4B d   1       1.578  -0.126   1.814  0.00  0.00     0.002 A 
ATOM      6  C6  N4B d   1       1.188   0.362   0.583  0.00  0.00     0.002 A 
ENDROOT
BRANCH   1   7
ATOM      7  C1' N4B d   1      -0.517   0.827  -1.142  0.00  0.00     0.057 C 
BRANCH   7   8
ATOM      8  C2' N4B d   1       0.360   2.010  -1.542  0.00  0.00     0.009 C 
BRANCH   8   9
ATOM      9  C3' N4B d   1      -0.466   3.204  -1.988  0.00  0.00     0.004 C 
ATOM     10  C4' N4B d   1      -1.823   2.816  -2.493  0.00  0.00     0.003 C 
ENDBRANCH   8   9
ENDBRANCH   7   8
ENDBRANCH   1   7
TORSDOF 3
ENDMDL
