MODEL 1
REMARK minimizedAffinity -0.467054337
REMARK minimizedRMSD -1
REMARK  0 active torsions:
REMARK  status: ('A' for Active; 'I' for Inactive)
ROOT
ATOM      1  C1  DEN d   1      -2.021   0.066  -0.347  0.00  0.00     0.130 A 
ATOM      2  C2  DEN d   1      -1.767  -0.278   1.049  0.00  0.00    -0.031 A 
ATOM      3  C3  DEN d   1      -0.304  -0.347   1.243  0.00  0.00     0.027 A 
ATOM      4  C4  DEN d   1       1.580   0.048  -0.473  0.00  0.00     0.027 A 
ATOM      5  C5  DEN d   1       1.855   0.353  -1.788  0.00  0.00    -0.003 A 
ATOM      6  C6  DEN d   1       0.866   0.549  -2.714  0.00  0.00     0.001 A 
ATOM      7  C7  DEN d   1      -0.447   0.486  -2.329  0.00  0.00     0.017 A 
ATOM      8  C8  DEN d   1      -0.732   0.172  -1.007  0.00  0.00    -0.094 A 
ATOM      9  C9  DEN d   1       0.282  -0.011  -0.082  0.00  0.00    -0.072 A 
ENDROOT
TORSDOF 0
ENDMDL
