MODEL 1
REMARK minimizedAffinity -4.49365044
REMARK minimizedRMSD -1
REMARK  0 active torsions:
REMARK  status: ('A' for Active; 'I' for Inactive)
ROOT
ATOM      1  C1  DEN d   1       0.444   1.272   0.870  0.00  0.00     0.130 A 
ATOM      2  C2  DEN d   1      -0.795   0.634   1.308  0.00  0.00    -0.031 A 
ATOM      3  C3  DEN d   1      -1.222  -0.306   0.252  0.00  0.00     0.027 A 
ATOM      4  C4  DEN d   1      -0.090  -0.836  -2.004  0.00  0.00     0.027 A 
ATOM      5  C5  DEN d   1       0.976  -0.535  -2.823  0.00  0.00    -0.003 A 
ATOM      6  C6  DEN d   1       1.913   0.406  -2.487  0.00  0.00     0.001 A 
ATOM      7  C7  DEN d   1       1.827   1.048  -1.280  0.00  0.00     0.017 A 
ATOM      8  C8  DEN d   1       0.751   0.756  -0.452  0.00  0.00    -0.094 A 
ATOM      9  C9  DEN d   1      -0.179  -0.208  -0.804  0.00  0.00    -0.072 A 
ENDROOT
TORSDOF 0
ENDMDL
