MODEL 1
REMARK minimizedAffinity -2.22593164
REMARK minimizedRMSD -1
REMARK  0 active torsions:
REMARK  status: ('A' for Active; 'I' for Inactive)
ROOT
ATOM      1  C1  DEN d   1      -0.928   0.930   1.203  0.00  0.00     0.130 A 
ATOM      2  C2  DEN d   1      -1.447  -0.290   1.815  0.00  0.00    -0.031 A 
ATOM      3  C3  DEN d   1      -0.785  -1.442   1.170  0.00  0.00     0.027 A 
ATOM      4  C4  DEN d   1       0.986  -1.454  -0.705  0.00  0.00     0.027 A 
ATOM      5  C5  DEN d   1       1.730  -0.662  -1.551  0.00  0.00    -0.003 A 
ATOM      6  C6  DEN d   1       1.617   0.703  -1.562  0.00  0.00     0.001 A 
ATOM      7  C7  DEN d   1       0.772   1.321  -0.679  0.00  0.00     0.017 A 
ATOM      8  C8  DEN d   1       0.013   0.529   0.173  0.00  0.00    -0.094 A 
ATOM      9  C9  DEN d   1       0.151  -0.849   0.177  0.00  0.00    -0.072 A 
ENDROOT
TORSDOF 0
ENDMDL
