MODEL 1
REMARK minimizedAffinity -1.82222104
REMARK minimizedRMSD -1
REMARK  0 active torsions:
REMARK  status: ('A' for Active; 'I' for Inactive)
ROOT
ATOM      1  C1  DEN d   1      -0.226  -0.629  -0.634  0.00  0.00     0.130 A 
ATOM      2  C2  DEN d   1       0.755   0.450  -0.563  0.00  0.00    -0.031 A 
ATOM      3  C3  DEN d   1       0.236   1.478   0.362  0.00  0.00     0.027 A 
ATOM      4  C4  DEN d   1      -1.976   1.501   1.687  0.00  0.00     0.027 A 
ATOM      5  C5  DEN d   1      -3.139   0.809   1.942  0.00  0.00    -0.003 A 
ATOM      6  C6  DEN d   1      -3.426  -0.385   1.335  0.00  0.00     0.001 A 
ATOM      7  C7  DEN d   1      -2.518  -0.946   0.477  0.00  0.00     0.017 A 
ATOM      8  C8  DEN d   1      -1.346  -0.250   0.209  0.00  0.00    -0.094 A 
ATOM      9  C9  DEN d   1      -1.069   0.950   0.842  0.00  0.00    -0.072 A 
ENDROOT
TORSDOF 0
ENDMDL
