MODEL 1
REMARK minimizedAffinity -3.37019205
REMARK minimizedRMSD -1
REMARK  0 active torsions:
REMARK  status: ('A' for Active; 'I' for Inactive)
ROOT
ATOM      1  C1  DEN d   1       1.098  -0.865  -2.902  0.00  0.00     0.130 A 
ATOM      2  C2  DEN d   1       2.056   0.231  -3.016  0.00  0.00    -0.031 A 
ATOM      3  C3  DEN d   1       2.071   0.961  -1.732  0.00  0.00     0.027 A 
ATOM      4  C4  DEN d   1       0.714   0.499   0.412  0.00  0.00     0.027 A 
ATOM      5  C5  DEN d   1      -0.237  -0.316   0.985  0.00  0.00    -0.003 A 
ATOM      6  C6  DEN d   1      -0.829  -1.342   0.297  0.00  0.00     0.001 A 
ATOM      7  C7  DEN d   1      -0.444  -1.608  -0.990  0.00  0.00     0.017 A 
ATOM      8  C8  DEN d   1       0.509  -0.786  -1.577  0.00  0.00    -0.094 A 
ATOM      9  C9  DEN d   1       1.105   0.239  -0.861  0.00  0.00    -0.072 A 
ENDROOT
TORSDOF 0
ENDMDL
