MODEL 1
REMARK minimizedAffinity -1.41598821
REMARK minimizedRMSD -1
REMARK  0 active torsions:
REMARK  status: ('A' for Active; 'I' for Inactive)
ROOT
ATOM      1  C1  DEN d   1      -0.686   0.744  -0.916  0.00  0.00     0.130 A 
ATOM      2  C2  DEN d   1       0.657   0.542  -0.379  0.00  0.00    -0.031 A 
ATOM      3  C3  DEN d   1       0.531   0.222   1.057  0.00  0.00     0.027 A 
ATOM      4  C4  DEN d   1      -1.602   0.018   2.493  0.00  0.00     0.027 A 
ATOM      5  C5  DEN d   1      -2.976   0.114   2.482  0.00  0.00    -0.003 A 
ATOM      6  C6  DEN d   1      -3.675   0.457   1.355  0.00  0.00     0.001 A 
ATOM      7  C7  DEN d   1      -3.004   0.673   0.180  0.00  0.00     0.017 A 
ATOM      8  C8  DEN d   1      -1.619   0.585   0.185  0.00  0.00    -0.094 A 
ATOM      9  C9  DEN d   1      -0.931   0.225   1.331  0.00  0.00    -0.072 A 
ENDROOT
TORSDOF 0
ENDMDL
