MODEL 1
REMARK minimizedAffinity -1.72983515
REMARK minimizedRMSD -1
REMARK  0 active torsions:
REMARK  status: ('A' for Active; 'I' for Inactive)
ROOT
ATOM      1  C1  DEN d   1       0.954  -0.882  -2.072  0.00  0.00     0.130 A 
ATOM      2  C2  DEN d   1       2.136  -0.055  -2.300  0.00  0.00    -0.031 A 
ATOM      3  C3  DEN d   1       2.153   1.009  -1.276  0.00  0.00     0.027 A 
ATOM      4  C4  DEN d   1       0.475   1.451   0.632  0.00  0.00     0.027 A 
ATOM      5  C5  DEN d   1      -0.694   1.024   1.220  0.00  0.00    -0.003 A 
ATOM      6  C6  DEN d   1      -1.409  -0.040   0.735  0.00  0.00     0.001 A 
ATOM      7  C7  DEN d   1      -0.936  -0.740  -0.343  0.00  0.00     0.017 A 
ATOM      8  C8  DEN d   1       0.238  -0.310  -0.946  0.00  0.00    -0.094 A 
ATOM      9  C9  DEN d   1       0.953   0.760  -0.433  0.00  0.00    -0.072 A 
ENDROOT
TORSDOF 0
ENDMDL
