MODEL 1
REMARK minimizedAffinity -5.21174145
REMARK minimizedRMSD -1
REMARK  0 active torsions:
REMARK  status: ('A' for Active; 'I' for Inactive)
ROOT
ATOM      1  C1  DEN d   1       0.814  -1.167  -2.364  0.00  0.00     0.130 A 
ATOM      2  C2  DEN d   1       1.631  -0.205  -3.099  0.00  0.00    -0.031 A 
ATOM      3  C3  DEN d   1       1.709   1.033  -2.300  0.00  0.00     0.027 A 
ATOM      4  C4  DEN d   1       0.654   1.551  -0.003  0.00  0.00     0.027 A 
ATOM      5  C5  DEN d   1      -0.135   1.050   1.008  0.00  0.00    -0.003 A 
ATOM      6  C6  DEN d   1      -0.687  -0.203   0.951  0.00  0.00     0.001 A 
ATOM      7  C7  DEN d   1      -0.419  -1.014  -0.119  0.00  0.00     0.017 A 
ATOM      8  C8  DEN d   1       0.370  -0.513  -1.147  0.00  0.00    -0.094 A 
ATOM      9  C9  DEN d   1       0.928   0.751  -1.065  0.00  0.00    -0.072 A 
ENDROOT
TORSDOF 0
ENDMDL
