MODEL 1
REMARK minimizedAffinity -4.34132385
REMARK minimizedRMSD -1
REMARK  0 active torsions:
REMARK  status: ('A' for Active; 'I' for Inactive)
ROOT
ATOM      1  C1  DEN d   1       1.081  -0.795  -2.894  0.00  0.00     0.130 A 
ATOM      2  C2  DEN d   1       2.032   0.226  -3.326  0.00  0.00    -0.031 A 
ATOM      3  C3  DEN d   1       2.066   1.283  -2.295  0.00  0.00     0.027 A 
ATOM      4  C4  DEN d   1       0.749   1.435  -0.083  0.00  0.00     0.027 A 
ATOM      5  C5  DEN d   1      -0.188   0.811   0.711  0.00  0.00    -0.003 A 
ATOM      6  C6  DEN d   1      -0.788  -0.365   0.346  0.00  0.00     0.001 A 
ATOM      7  C7  DEN d   1      -0.424  -0.978  -0.824  0.00  0.00     0.017 A 
ATOM      8  C8  DEN d   1       0.515  -0.351  -1.633  0.00  0.00    -0.094 A 
ATOM      9  C9  DEN d   1       1.119   0.831  -1.241  0.00  0.00    -0.072 A 
ENDROOT
TORSDOF 0
ENDMDL
