MODEL 1
REMARK minimizedAffinity -3.93484545
REMARK minimizedRMSD -1
REMARK  0 active torsions:
REMARK  status: ('A' for Active; 'I' for Inactive)
ROOT
ATOM      1  C1  DEN d   1       1.372  -0.711  -2.717  0.00  0.00     0.130 A 
ATOM      2  C2  DEN d   1       2.420   0.234  -3.094  0.00  0.00    -0.031 A 
ATOM      3  C3  DEN d   1       2.519   1.253  -2.031  0.00  0.00     0.027 A 
ATOM      4  C4  DEN d   1       1.163   1.458   0.153  0.00  0.00     0.027 A 
ATOM      5  C5  DEN d   1       0.154   0.897   0.905  0.00  0.00    -0.003 A 
ATOM      6  C6  DEN d   1      -0.537  -0.210   0.489  0.00  0.00     0.001 A 
ATOM      7  C7  DEN d   1      -0.198  -0.819  -0.690  0.00  0.00     0.017 A 
ATOM      8  C8  DEN d   1       0.813  -0.255  -1.457  0.00  0.00    -0.094 A 
ATOM      9  C9  DEN d   1       1.508   0.857  -1.013  0.00  0.00    -0.072 A 
ENDROOT
TORSDOF 0
ENDMDL
