MODEL 1
REMARK minimizedAffinity -5.9453826
REMARK minimizedRMSD -1
REMARK  0 active torsions:
REMARK  status: ('A' for Active; 'I' for Inactive)
ROOT
ATOM      1  C1  DEN d   1      -0.034   0.775   0.737  0.00  0.00     0.130 A 
ATOM      2  C2  DEN d   1      -0.438  -0.012   1.898  0.00  0.00    -0.031 A 
ATOM      3  C3  DEN d   1      -0.467  -1.433   1.499  0.00  0.00     0.027 A 
ATOM      4  C4  DEN d   1       0.077  -2.487  -0.791  0.00  0.00     0.027 A 
ATOM      5  C5  DEN d   1       0.456  -2.220  -2.088  0.00  0.00    -0.003 A 
ATOM      6  C6  DEN d   1       0.664  -0.943  -2.540  0.00  0.00     0.001 A 
ATOM      7  C7  DEN d   1       0.538   0.112  -1.675  0.00  0.00     0.017 A 
ATOM      8  C8  DEN d   1       0.148  -0.149  -0.368  0.00  0.00    -0.094 A 
ATOM      9  C9  DEN d   1      -0.045  -1.448   0.073  0.00  0.00    -0.072 A 
ENDROOT
TORSDOF 0
ENDMDL
