MODEL 1
REMARK minimizedAffinity -3.12967181
REMARK minimizedRMSD -1
REMARK  0 active torsions:
REMARK  status: ('A' for Active; 'I' for Inactive)
ROOT
ATOM      1  C1  DEN d   1       0.303   1.473  -0.718  0.00  0.00     0.130 A 
ATOM      2  C2  DEN d   1       1.236   0.947  -1.710  0.00  0.00    -0.031 A 
ATOM      3  C3  DEN d   1       1.336  -0.513  -1.513  0.00  0.00     0.027 A 
ATOM      4  C4  DEN d   1       0.141  -2.003   0.221  0.00  0.00     0.027 A 
ATOM      5  C5  DEN d   1      -0.738  -2.006   1.281  0.00  0.00    -0.003 A 
ATOM      6  C6  DEN d   1      -1.300  -0.856   1.768  0.00  0.00     0.001 A 
ATOM      7  C7  DEN d   1      -1.025   0.342   1.164  0.00  0.00     0.017 A 
ATOM      8  C8  DEN d   1      -0.134   0.355   0.099  0.00  0.00    -0.094 A 
ATOM      9  C9  DEN d   1       0.414  -0.820  -0.386  0.00  0.00    -0.072 A 
ENDROOT
TORSDOF 0
ENDMDL
