MODEL 1
REMARK minimizedAffinity -3.05352283
REMARK minimizedRMSD -1
REMARK  0 active torsions:
REMARK  status: ('A' for Active; 'I' for Inactive)
ROOT
ATOM      1  C1  DEN d   1       0.814  -1.312  -2.107  0.00  0.00     0.130 A 
ATOM      2  C2  DEN d   1       1.650  -0.413  -2.899  0.00  0.00    -0.031 A 
ATOM      3  C3  DEN d   1       1.808   0.846  -2.144  0.00  0.00     0.027 A 
ATOM      4  C4  DEN d   1       0.851   1.485   0.164  0.00  0.00     0.027 A 
ATOM      5  C5  DEN d   1       0.072   1.053   1.216  0.00  0.00    -0.003 A 
ATOM      6  C6  DEN d   1      -0.536  -0.174   1.218  0.00  0.00     0.001 A 
ATOM      7  C7  DEN d   1      -0.340  -1.031   0.167  0.00  0.00     0.017 A 
ATOM      8  C8  DEN d   1       0.438  -0.600  -0.900  0.00  0.00    -0.094 A 
ATOM      9  C9  DEN d   1       1.055   0.640  -0.877  0.00  0.00    -0.072 A 
ENDROOT
TORSDOF 0
ENDMDL
