MODEL 1
REMARK minimizedAffinity -4.08077574
REMARK minimizedRMSD -1
REMARK  0 active torsions:
REMARK  status: ('A' for Active; 'I' for Inactive)
ROOT
ATOM      1  N1  IND d   1      -0.145  -0.169  -1.306  0.00  0.00    -0.196 N 
ATOM      2  C2  IND d   1       0.620  -1.153  -0.744  0.00  0.00     0.054 A 
ATOM      3  C3  IND d   1       0.716  -0.968   0.592  0.00  0.00    -0.031 A 
ATOM      4  C4  IND d   1      -0.384   0.823   2.079  0.00  0.00     0.051 A 
ATOM      5  C5  IND d   1      -1.143   1.957   2.015  0.00  0.00    -0.031 A 
ATOM      6  C6  IND d   1      -1.620   2.450   0.818  0.00  0.00     0.015 A 
ATOM      7  C7  IND d   1      -1.364   1.816  -0.365  0.00  0.00    -0.016 A 
ATOM      8  C8  IND d   1      -0.588   0.668  -0.306  0.00  0.00    -0.047 A 
ATOM      9  C9  IND d   1      -0.066   0.187   0.902  0.00  0.00    -0.096 A 
ATOM     10  HN1 IND d   1      -0.321  -0.087  -2.144  0.00  0.00     0.298 HD
ENDROOT
TORSDOF 0
ENDMDL
