MODEL 1
REMARK minimizedAffinity 1.56171072
REMARK minimizedRMSD -1
REMARK  0 active torsions:
REMARK  status: ('A' for Active; 'I' for Inactive)
ROOT
ATOM      1  N1  IND d   1       0.566  -0.847   3.818  0.00  0.00    -0.196 N 
ATOM      2  C2  IND d   1      -0.771  -0.584   3.929  0.00  0.00     0.054 A 
ATOM      3  C3  IND d   1      -1.236  -0.019   2.792  0.00  0.00    -0.031 A 
ATOM      4  C4  IND d   1      -0.001   0.474   0.588  0.00  0.00     0.051 A 
ATOM      5  C5  IND d   1       1.241   0.443   0.018  0.00  0.00    -0.031 A 
ATOM      6  C6  IND d   1       2.343  -0.032   0.699  0.00  0.00     0.015 A 
ATOM      7  C7  IND d   1       2.242  -0.506   1.976  0.00  0.00    -0.016 A 
ATOM      8  C8  IND d   1       0.983  -0.469   2.560  0.00  0.00    -0.047 A 
ATOM      9  C9  IND d   1      -0.131   0.051   1.890  0.00  0.00    -0.096 A 
ATOM     10  HN1 IND d   1       1.063  -1.190   4.430  0.00  0.00     0.298 HD
ENDROOT
TORSDOF 0
ENDMDL
