MODEL 1
REMARK minimizedAffinity -1.34098256
REMARK minimizedRMSD -1
REMARK  0 active torsions:
REMARK  status: ('A' for Active; 'I' for Inactive)
ROOT
ATOM      1  N1  IND d   1      -0.449  -0.418  -1.292  0.00  0.00    -0.196 N 
ATOM      2  C2  IND d   1       0.585  -1.293  -1.106  0.00  0.00     0.054 A 
ATOM      3  C3  IND d   1       1.116  -1.138   0.127  0.00  0.00    -0.031 A 
ATOM      4  C4  IND d   1       0.381   0.420   2.041  0.00  0.00     0.051 A 
ATOM      5  C5  IND d   1      -0.493   1.429   2.332  0.00  0.00    -0.031 A 
ATOM      6  C6  IND d   1      -1.417   1.882   1.413  0.00  0.00     0.015 A 
ATOM      7  C7  IND d   1      -1.510   1.332   0.166  0.00  0.00    -0.016 A 
ATOM      8  C8  IND d   1      -0.620   0.311  -0.136  0.00  0.00    -0.047 A 
ATOM      9  C9  IND d   1       0.349  -0.124   0.778  0.00  0.00    -0.096 A 
ATOM     10  HN1 IND d   1      -0.914  -0.337  -2.011  0.00  0.00     0.298 HD
ENDROOT
TORSDOF 0
ENDMDL
