MODEL 1
REMARK minimizedAffinity 2.49355936
REMARK minimizedRMSD -1
REMARK  0 active torsions:
REMARK  status: ('A' for Active; 'I' for Inactive)
ROOT
ATOM      1  N1  IND d   1       0.357   1.351  -0.678  0.00  0.00    -0.196 N 
ATOM      2  C2  IND d   1       0.852   0.137  -1.065  0.00  0.00     0.054 A 
ATOM      3  C3  IND d   1       1.023  -0.666   0.009  0.00  0.00    -0.031 A 
ATOM      4  C4  IND d   1       0.463  -0.228   2.483  0.00  0.00     0.051 A 
ATOM      5  C5  IND d   1       0.026   0.749   3.332  0.00  0.00    -0.031 A 
ATOM      6  C6  IND d   1      -0.333   2.002   2.879  0.00  0.00     0.015 A 
ATOM      7  C7  IND d   1      -0.279   2.321   1.551  0.00  0.00    -0.016 A 
ATOM      8  C8  IND d   1       0.172   1.333   0.687  0.00  0.00    -0.047 A 
ATOM      9  C9  IND d   1       0.578   0.074   1.147  0.00  0.00    -0.096 A 
ATOM     10  HN1 IND d   1       0.190   2.014  -1.199  0.00  0.00     0.298 HD
ENDROOT
TORSDOF 0
ENDMDL
