MODEL 1
REMARK minimizedAffinity -0.729725301
REMARK minimizedRMSD -1
REMARK  0 active torsions:
REMARK  status: ('A' for Active; 'I' for Inactive)
ROOT
ATOM      1  N1  IND d   1       0.694   0.801  -0.457  0.00  0.00    -0.196 N 
ATOM      2  C2  IND d   1       1.228  -0.424  -0.744  0.00  0.00     0.054 A 
ATOM      3  C3  IND d   1       1.389  -1.144   0.388  0.00  0.00    -0.031 A 
ATOM      4  C4  IND d   1       0.750  -0.549   2.810  0.00  0.00     0.051 A 
ATOM      5  C5  IND d   1       0.266   0.474   3.576  0.00  0.00    -0.031 A 
ATOM      6  C6  IND d   1      -0.111   1.682   3.025  0.00  0.00     0.015 A 
ATOM      7  C7  IND d   1      -0.027   1.909   1.680  0.00  0.00    -0.016 A 
ATOM      8  C8  IND d   1       0.471   0.874   0.900  0.00  0.00    -0.047 A 
ATOM      9  C9  IND d   1       0.894  -0.338   1.459  0.00  0.00    -0.096 A 
ATOM     10  HN1 IND d   1       0.525   1.421  -1.028  0.00  0.00     0.298 HD
ENDROOT
TORSDOF 0
ENDMDL
