MODEL 1
REMARK minimizedAffinity -2.87426901
REMARK minimizedRMSD -1
REMARK  0 active torsions:
REMARK  status: ('A' for Active; 'I' for Inactive)
ROOT
ATOM      1  N1  IND d   1       0.199   1.240  -1.988  0.00  0.00    -0.196 N 
ATOM      2  C2  IND d   1       0.965   0.201  -2.438  0.00  0.00     0.054 A 
ATOM      3  C3  IND d   1       1.195  -0.681  -1.439  0.00  0.00    -0.031 A 
ATOM      4  C4  IND d   1       0.328  -0.669   0.985  0.00  0.00     0.051 A 
ATOM      5  C5  IND d   1      -0.377   0.094   1.873  0.00  0.00    -0.031 A 
ATOM      6  C6  IND d   1      -0.939   1.301   1.512  0.00  0.00     0.015 A 
ATOM      7  C7  IND d   1      -0.827   1.787   0.240  0.00  0.00    -0.016 A 
ATOM      8  C8  IND d   1      -0.106   1.018  -0.663  0.00  0.00    -0.047 A 
ATOM      9  C9  IND d   1       0.503  -0.187  -0.291  0.00  0.00    -0.096 A 
ATOM     10  HN1 IND d   1      -0.050   1.918  -2.454  0.00  0.00     0.298 HD
ENDROOT
TORSDOF 0
ENDMDL
