MODEL 1
REMARK minimizedAffinity -4.53465176
REMARK minimizedRMSD -1
REMARK  0 active torsions:
REMARK  status: ('A' for Active; 'I' for Inactive)
ROOT
ATOM      1  N1  IND d   1       0.233  -0.265  -0.744  0.00  0.00    -0.196 N 
ATOM      2  C2  IND d   1       0.382  -1.087   0.338  0.00  0.00     0.054 A 
ATOM      3  C3  IND d   1       0.280  -0.377   1.485  0.00  0.00    -0.031 A 
ATOM      4  C4  IND d   1      -0.230   2.124   1.820  0.00  0.00     0.051 A 
ATOM      5  C5  IND d   1      -0.408   3.289   1.129  0.00  0.00    -0.031 A 
ATOM      6  C6  IND d   1      -0.384   3.330  -0.250  0.00  0.00     0.015 A 
ATOM      7  C7  IND d   1      -0.191   2.199  -0.993  0.00  0.00    -0.016 A 
ATOM      8  C8  IND d   1      -0.003   1.015  -0.294  0.00  0.00    -0.047 A 
ATOM      9  C9  IND d   1       0.016   0.975   1.106  0.00  0.00    -0.096 A 
ATOM     10  HN1 IND d   1       0.278  -0.508  -1.568  0.00  0.00     0.298 HD
ENDROOT
TORSDOF 0
ENDMDL
