MODEL 1
REMARK minimizedAffinity -4.873034
REMARK minimizedRMSD -1
REMARK  0 active torsions:
REMARK  status: ('A' for Active; 'I' for Inactive)
ROOT
ATOM      1  N1  IND d   1       0.126  -0.086  -0.687  0.00  0.00    -0.196 N 
ATOM      2  C2  IND d   1       0.309  -0.993   0.319  0.00  0.00     0.054 A 
ATOM      3  C3  IND d   1      -0.042  -0.454   1.508  0.00  0.00    -0.031 A 
ATOM      4  C4  IND d   1      -1.036   1.865   2.022  0.00  0.00     0.051 A 
ATOM      5  C5  IND d   1      -1.352   3.056   1.432  0.00  0.00    -0.031 A 
ATOM      6  C6  IND d   1      -1.190   3.265   0.078  0.00  0.00     0.015 A 
ATOM      7  C7  IND d   1      -0.715   2.281  -0.743  0.00  0.00    -0.016 A 
ATOM      8  C8  IND d   1      -0.387   1.072  -0.146  0.00  0.00    -0.047 A 
ATOM      9  C9  IND d   1      -0.509   0.868   1.235  0.00  0.00    -0.096 A 
ATOM     10  HN1 IND d   1       0.302  -0.217  -1.519  0.00  0.00     0.298 HD
ENDROOT
TORSDOF 0
ENDMDL
