MODEL 1
REMARK minimizedAffinity -4.35743332
REMARK minimizedRMSD -1
REMARK  0 active torsions:
REMARK  status: ('A' for Active; 'I' for Inactive)
ROOT
ATOM      1  N1  IND d   1       0.071   0.512  -1.590  0.00  0.00    -0.196 N 
ATOM      2  C2  IND d   1       0.876  -0.546  -1.271  0.00  0.00     0.054 A 
ATOM      3  C3  IND d   1       1.013  -0.645   0.070  0.00  0.00    -0.031 A 
ATOM      4  C4  IND d   1      -0.076   0.759   1.933  0.00  0.00     0.051 A 
ATOM      5  C5  IND d   1      -0.861   1.860   2.133  0.00  0.00    -0.031 A 
ATOM      6  C6  IND d   1      -1.389   2.580   1.081  0.00  0.00     0.015 A 
ATOM      7  C7  IND d   1      -1.159   2.218  -0.216  0.00  0.00    -0.016 A 
ATOM      8  C8  IND d   1      -0.356   1.105  -0.423  0.00  0.00    -0.047 A 
ATOM      9  C9  IND d   1       0.217   0.396   0.640  0.00  0.00    -0.096 A 
ATOM     10  HN1 IND d   1      -0.135   0.764  -2.387  0.00  0.00     0.298 HD
ENDROOT
TORSDOF 0
ENDMDL
