MODEL 1
REMARK minimizedAffinity -3.86517453
REMARK minimizedRMSD -1
REMARK  0 active torsions:
REMARK  status: ('A' for Active; 'I' for Inactive)
ROOT
ATOM      1  N1  IND d   1      -0.190  -0.419  -0.704  0.00  0.00    -0.196 N 
ATOM      2  C2  IND d   1       0.768  -1.013   0.069  0.00  0.00     0.054 A 
ATOM      3  C3  IND d   1       1.048  -0.244   1.146  0.00  0.00    -0.031 A 
ATOM      4  C4  IND d   1      -0.021   1.976   1.891  0.00  0.00     0.051 A 
ATOM      5  C5  IND d   1      -0.914   2.930   1.491  0.00  0.00    -0.031 A 
ATOM      6  C6  IND d   1      -1.628   2.813   0.316  0.00  0.00     0.015 A 
ATOM      7  C7  IND d   1      -1.483   1.727  -0.500  0.00  0.00    -0.016 A 
ATOM      8  C8  IND d   1      -0.572   0.760  -0.100  0.00  0.00    -0.047 A 
ATOM      9  C9  IND d   1       0.187   0.894   1.070  0.00  0.00    -0.096 A 
ATOM     10  HN1 IND d   1      -0.502  -0.729  -1.443  0.00  0.00     0.298 HD
ENDROOT
TORSDOF 0
ENDMDL
