MODEL 1
REMARK minimizedAffinity -4.32432842
REMARK minimizedRMSD -1
REMARK  0 active torsions:
REMARK  status: ('A' for Active; 'I' for Inactive)
ROOT
ATOM      1  N1  IND d   1       1.241  -0.157   0.759  0.00  0.00    -0.196 N 
ATOM      2  C2  IND d   1       0.866  -1.068  -0.188  0.00  0.00     0.054 A 
ATOM      3  C3  IND d   1      -0.405  -0.836  -0.586  0.00  0.00    -0.031 A 
ATOM      4  C4  IND d   1      -2.020   1.044   0.109  0.00  0.00     0.051 A 
ATOM      5  C5  IND d   1      -2.140   2.095   0.974  0.00  0.00    -0.031 A 
ATOM      6  C6  IND d   1      -1.118   2.459   1.827  0.00  0.00     0.015 A 
ATOM      7  C7  IND d   1       0.072   1.788   1.839  0.00  0.00    -0.016 A 
ATOM      8  C8  IND d   1       0.195   0.716   0.967  0.00  0.00    -0.047 A 
ATOM      9  C9  IND d   1      -0.854   0.316   0.129  0.00  0.00    -0.096 A 
ATOM     10  HN1 IND d   1       2.002  -0.133   1.158  0.00  0.00     0.298 HD
ENDROOT
TORSDOF 0
ENDMDL
