MODEL 1
REMARK minimizedAffinity -2.59239388
REMARK minimizedRMSD -1
REMARK  0 active torsions:
REMARK  status: ('A' for Active; 'I' for Inactive)
ROOT
ATOM      1  N1  IND d   1      -0.477  -1.407  -1.792  0.00  0.00    -0.196 N 
ATOM      2  C2  IND d   1       0.287  -2.491  -1.461  0.00  0.00     0.054 A 
ATOM      3  C3  IND d   1       0.864  -2.309  -0.252  0.00  0.00    -0.031 A 
ATOM      4  C4  IND d   1       0.614  -0.351   1.401  0.00  0.00     0.051 A 
ATOM      5  C5  IND d   1       0.051   0.888   1.526  0.00  0.00    -0.031 A 
ATOM      6  C6  IND d   1      -0.735   1.435   0.533  0.00  0.00     0.015 A 
ATOM      7  C7  IND d   1      -0.998   0.756  -0.623  0.00  0.00    -0.016 A 
ATOM      8  C8  IND d   1      -0.422  -0.499  -0.757  0.00  0.00    -0.047 A 
ATOM      9  C9  IND d   1       0.412  -1.042   0.230  0.00  0.00    -0.096 A 
ATOM     10  HN1 IND d   1      -0.917  -1.308  -2.524  0.00  0.00     0.298 HD
ENDROOT
TORSDOF 0
ENDMDL
