MODEL 1
REMARK minimizedAffinity -1.94416392
REMARK minimizedRMSD -1
REMARK  0 active torsions:
REMARK  status: ('A' for Active; 'I' for Inactive)
ROOT
ATOM      1  C   UNL d   1       0.532  -0.064  -1.179  0.00  0.00     0.172 C 
ATOM      2  N   UNL d   1       0.605   0.124   0.251  0.00  0.00    -0.070 N 
ATOM      3  C1  UNL d   1       1.669   0.648   0.935  0.00  0.00    -0.004 A 
ATOM      4  C2  UNL d   1       1.346   0.660   2.274  0.00  0.00    -0.047 A 
ATOM      5  C3  UNL d   1       0.042   0.124   2.400  0.00  0.00    -0.047 A 
ATOM      6  C4  UNL d   1      -0.393  -0.199   1.132  0.00  0.00    -0.004 A 
ENDROOT
TORSDOF 0
ENDMDL
