MODEL 1
REMARK minimizedAffinity -3.02543712
REMARK minimizedRMSD -1
REMARK  0 active torsions:
REMARK  status: ('A' for Active; 'I' for Inactive)
ROOT
ATOM      1  C   UNL d   1       1.177  -0.118  -1.966  0.00  0.00     0.172 C 
ATOM      2  N   UNL d   1       0.960   0.199  -0.574  0.00  0.00    -0.070 N 
ATOM      3  C1  UNL d   1       1.887   0.077   0.426  0.00  0.00    -0.004 A 
ATOM      4  C2  UNL d   1       1.292   0.478   1.603  0.00  0.00    -0.047 A 
ATOM      5  C3  UNL d   1      -0.038   0.853   1.300  0.00  0.00    -0.047 A 
ATOM      6  C4  UNL d   1      -0.217   0.670  -0.055  0.00  0.00    -0.004 A 
ENDROOT
TORSDOF 0
ENDMDL
