MODEL 1
REMARK minimizedAffinity -3.89195704
REMARK minimizedRMSD -1
REMARK  0 active torsions:
REMARK  status: ('A' for Active; 'I' for Inactive)
ROOT
ATOM      1  C   UNL d   1      -0.228  -1.647   2.767  0.00  0.00     0.172 C 
ATOM      2  N   UNL d   1       0.155  -0.586   1.866  0.00  0.00    -0.070 N 
ATOM      3  C1  UNL d   1      -0.399  -0.343   0.637  0.00  0.00    -0.004 A 
ATOM      4  C2  UNL d   1       0.239   0.752   0.096  0.00  0.00    -0.047 A 
ATOM      5  C3  UNL d   1       1.210   1.182   1.031  0.00  0.00    -0.047 A 
ATOM      6  C4  UNL d   1       1.137   0.335   2.118  0.00  0.00    -0.004 A 
ENDROOT
TORSDOF 0
ENDMDL
