MODEL 1
REMARK minimizedAffinity -3.06312466
REMARK minimizedRMSD -1
REMARK  0 active torsions:
REMARK  status: ('A' for Active; 'I' for Inactive)
ROOT
ATOM      1  C   UNL d   1       0.260  -0.171   2.680  0.00  0.00     0.172 C 
ATOM      2  N   UNL d   1       0.230   0.190   1.282  0.00  0.00    -0.070 N 
ATOM      3  C1  UNL d   1       1.282   0.692   0.564  0.00  0.00    -0.004 A 
ATOM      4  C2  UNL d   1       0.850   0.904  -0.727  0.00  0.00    -0.047 A 
ATOM      5  C3  UNL d   1      -0.510   0.517  -0.787  0.00  0.00    -0.047 A 
ATOM      6  C4  UNL d   1      -0.868   0.079   0.470  0.00  0.00    -0.004 A 
ENDROOT
TORSDOF 0
ENDMDL
