MODEL 1
REMARK minimizedAffinity -3.81057358
REMARK minimizedRMSD -1
REMARK  0 active torsions:
REMARK  status: ('A' for Active; 'I' for Inactive)
ROOT
ATOM      1  C   UNL d   1      -1.136  -0.350   2.965  0.00  0.00     0.172 C 
ATOM      2  N   UNL d   1      -0.081  -0.061   2.022  0.00  0.00    -0.070 N 
ATOM      3  C1  UNL d   1      -0.244   0.133   0.677  0.00  0.00    -0.004 A 
ATOM      4  C2  UNL d   1       0.998   0.383   0.133  0.00  0.00    -0.047 A 
ATOM      5  C3  UNL d   1       1.939   0.337   1.189  0.00  0.00    -0.047 A 
ATOM      6  C4  UNL d   1       1.244   0.061   2.347  0.00  0.00    -0.004 A 
ENDROOT
TORSDOF 0
ENDMDL
