MODEL 1
REMARK minimizedAffinity -3.76296496
REMARK minimizedRMSD -1
REMARK  0 active torsions:
REMARK  status: ('A' for Active; 'I' for Inactive)
ROOT
ATOM      1  C   UNL d   1       0.207   0.056  -0.814  0.00  0.00     0.172 C 
ATOM      2  N   UNL d   1       0.186  -0.003   0.629  0.00  0.00    -0.070 N 
ATOM      3  C1  UNL d   1       1.267   0.170   1.451  0.00  0.00    -0.004 A 
ATOM      4  C2  UNL d   1       0.833   0.040   2.752  0.00  0.00    -0.047 A 
ATOM      5  C3  UNL d   1      -0.557  -0.222   2.711  0.00  0.00    -0.047 A 
ATOM      6  C4  UNL d   1      -0.931  -0.243   1.384  0.00  0.00    -0.004 A 
ENDROOT
TORSDOF 0
ENDMDL
