MODEL 1
REMARK minimizedAffinity -4.056283
REMARK minimizedRMSD -1
REMARK  0 active torsions:
REMARK  status: ('A' for Active; 'I' for Inactive)
ROOT
ATOM      1  C   UNL d   1       0.627  -0.133   0.487  0.00  0.00     0.172 C 
ATOM      2  N   UNL d   1      -0.434  -0.264   1.457  0.00  0.00    -0.070 N 
ATOM      3  C1  UNL d   1      -0.270  -0.352   2.813  0.00  0.00    -0.004 A 
ATOM      4  C2  UNL d   1      -1.520  -0.466   3.383  0.00  0.00    -0.047 A 
ATOM      5  C3  UNL d   1      -2.468  -0.446   2.333  0.00  0.00    -0.047 A 
ATOM      6  C4  UNL d   1      -1.769  -0.321   1.151  0.00  0.00    -0.004 A 
ENDROOT
TORSDOF 0
ENDMDL
