MODEL 1
REMARK minimizedAffinity -4.08677912
REMARK minimizedRMSD -1
REMARK  0 active torsions:
REMARK  status: ('A' for Active; 'I' for Inactive)
ROOT
ATOM      1  C   UNL d   1      -0.087  -0.032  -0.868  0.00  0.00     0.172 C 
ATOM      2  N   UNL d   1      -0.303  -0.158   0.555  0.00  0.00    -0.070 N 
ATOM      3  C1  UNL d   1      -1.500   0.006   1.199  0.00  0.00    -0.004 A 
ATOM      4  C2  UNL d   1      -1.287  -0.198   2.545  0.00  0.00    -0.047 A 
ATOM      5  C3  UNL d   1       0.086  -0.494   2.716  0.00  0.00    -0.047 A 
ATOM      6  C4  UNL d   1       0.672  -0.463   1.468  0.00  0.00    -0.004 A 
ENDROOT
TORSDOF 0
ENDMDL
