MODEL 1
REMARK minimizedAffinity -3.98594546
REMARK minimizedRMSD -1
REMARK  0 active torsions:
REMARK  status: ('A' for Active; 'I' for Inactive)
ROOT
ATOM      1  C   UNL d   1      -2.933   0.599   1.575  0.00  0.00     0.172 C 
ATOM      2  N   UNL d   1      -1.672  -0.006   1.934  0.00  0.00    -0.070 N 
ATOM      3  C1  UNL d   1      -0.631  -0.248   1.078  0.00  0.00    -0.004 A 
ATOM      4  C2  UNL d   1       0.385  -0.833   1.804  0.00  0.00    -0.047 A 
ATOM      5  C3  UNL d   1      -0.062  -0.947   3.142  0.00  0.00    -0.047 A 
ATOM      6  C4  UNL d   1      -1.339  -0.428   3.194  0.00  0.00    -0.004 A 
ENDROOT
TORSDOF 0
ENDMDL
