MODEL 1
REMARK minimizedAffinity -2.66524839
REMARK minimizedRMSD -1
REMARK  0 active torsions:
REMARK  status: ('A' for Active; 'I' for Inactive)
ROOT
ATOM      1  C   UNL d   1       0.511  -0.072  -0.777  0.00  0.00     0.172 C 
ATOM      2  N   UNL d   1       0.282   0.209   0.621  0.00  0.00    -0.070 N 
ATOM      3  C1  UNL d   1       1.002   1.088   1.386  0.00  0.00    -0.004 A 
ATOM      4  C2  UNL d   1       0.473   1.069   2.659  0.00  0.00    -0.047 A 
ATOM      5  C3  UNL d   1      -0.600   0.147   2.658  0.00  0.00    -0.047 A 
ATOM      6  C4  UNL d   1      -0.696  -0.371   1.384  0.00  0.00    -0.004 A 
ENDROOT
TORSDOF 0
ENDMDL
