MODEL 1
REMARK minimizedAffinity 0.716860116
REMARK minimizedRMSD -1
REMARK  0 active torsions:
REMARK  status: ('A' for Active; 'I' for Inactive)
ROOT
ATOM      1  C   UNL d   1       1.395   0.019  -0.953  0.00  0.00     0.172 C 
ATOM      2  N   UNL d   1       1.254   0.507   0.399  0.00  0.00    -0.070 N 
ATOM      3  C1  UNL d   1       2.183   0.374   1.397  0.00  0.00    -0.004 A 
ATOM      4  C2  UNL d   1       1.674   0.971   2.530  0.00  0.00    -0.047 A 
ATOM      5  C3  UNL d   1       0.395   1.480   2.202  0.00  0.00    -0.047 A 
ATOM      6  C4  UNL d   1       0.160   1.179   0.877  0.00  0.00    -0.004 A 
ENDROOT
TORSDOF 0
ENDMDL
