MODEL 1
REMARK minimizedAffinity -3.70829773
REMARK minimizedRMSD -1
REMARK  0 active torsions:
REMARK  status: ('A' for Active; 'I' for Inactive)
ROOT
ATOM      1  C   UNL d   1       0.201   0.069  -0.471  0.00  0.00     0.172 C 
ATOM      2  N   UNL d   1      -0.192  -0.170   0.898  0.00  0.00    -0.070 N 
ATOM      3  C1  UNL d   1      -1.319  -0.835   1.301  0.00  0.00    -0.004 A 
ATOM      4  C2  UNL d   1      -1.331  -0.849   2.679  0.00  0.00    -0.047 A 
ATOM      5  C3  UNL d   1      -0.171  -0.169   3.120  0.00  0.00    -0.047 A 
ATOM      6  C4  UNL d   1       0.516   0.241   1.997  0.00  0.00    -0.004 A 
ENDROOT
TORSDOF 0
ENDMDL
