MODEL 1
REMARK minimizedAffinity 4.6445756
REMARK minimizedRMSD -1
REMARK  0 active torsions:
REMARK  status: ('A' for Active; 'I' for Inactive)
ROOT
ATOM      1  C   UNL d   1       0.286   0.524  -0.725  0.00  0.00     0.172 C 
ATOM      2  N   UNL d   1       0.721   0.932   0.590  0.00  0.00    -0.070 N 
ATOM      3  C1  UNL d   1       2.023   1.054   0.999  0.00  0.00    -0.004 A 
ATOM      4  C2  UNL d   1       2.015   1.465   2.314  0.00  0.00    -0.047 A 
ATOM      5  C3  UNL d   1       0.663   1.594   2.710  0.00  0.00    -0.047 A 
ATOM      6  C4  UNL d   1      -0.117   1.258   1.623  0.00  0.00    -0.004 A 
ENDROOT
TORSDOF 0
ENDMDL
