MODEL 1
REMARK minimizedAffinity -4.00405693
REMARK minimizedRMSD -1
REMARK  0 active torsions:
REMARK  status: ('A' for Active; 'I' for Inactive)
ROOT
ATOM      1  C   UNL d   1       0.317   0.564  -0.662  0.00  0.00     0.172 C 
ATOM      2  N   UNL d   1       0.152   0.371   0.759  0.00  0.00    -0.070 N 
ATOM      3  C1  UNL d   1       1.071   0.697   1.721  0.00  0.00    -0.004 A 
ATOM      4  C2  UNL d   1       0.539   0.357   2.946  0.00  0.00    -0.047 A 
ATOM      5  C3  UNL d   1      -0.744  -0.193   2.712  0.00  0.00    -0.047 A 
ATOM      6  C4  UNL d   1      -0.958  -0.173   1.350  0.00  0.00    -0.004 A 
ENDROOT
TORSDOF 0
ENDMDL
