MODEL 1
REMARK minimizedAffinity -3.6327889
REMARK minimizedRMSD -1
REMARK  0 active torsions:
REMARK  status: ('A' for Active; 'I' for Inactive)
ROOT
ATOM      1  C   UNL d   1       0.475   0.157  -0.566  0.00  0.00     0.172 C 
ATOM      2  N   UNL d   1       0.008  -0.045   0.786  0.00  0.00    -0.070 N 
ATOM      3  C1  UNL d   1      -1.123  -0.728   1.146  0.00  0.00    -0.004 A 
ATOM      4  C2  UNL d   1      -1.215  -0.696   2.520  0.00  0.00    -0.047 A 
ATOM      5  C3  UNL d   1      -0.101   0.031   3.003  0.00  0.00    -0.047 A 
ATOM      6  C4  UNL d   1       0.640   0.422   1.908  0.00  0.00    -0.004 A 
ENDROOT
TORSDOF 0
ENDMDL
