MODEL 1
REMARK minimizedAffinity 3.25800061
REMARK minimizedRMSD -1
REMARK  2 active torsions:
REMARK  status: ('A' for Active; 'I' for Inactive)
REMARK    1  A    between atoms: C1_2  and  C2_3 
REMARK    2  A    between atoms: C2_3  and  C3_4 
ROOT
ATOM      1  C3  UNL d   1       5.559   4.959  -3.418  0.00  0.00    -0.075 A 
ATOM      2  C4  UNL d   1       5.578   5.736  -4.586  0.00  0.00     0.002 A 
ATOM      3  C5  UNL d   1       5.781   5.139  -5.831  0.00  0.00     0.002 A 
ATOM      4  C6  UNL d   1       5.977   3.762  -5.923  0.00  0.00    -0.004 A 
ATOM      5  C7  UNL d   1       5.976   2.984  -4.768  0.00  0.00     0.002 A 
ATOM      6  C8  UNL d   1       5.769   3.578  -3.521  0.00  0.00     0.002 A 
ENDROOT
BRANCH   1   7
ATOM      7  C2  UNL d   1       5.310   5.595  -2.072  0.00  0.00     0.056 C 
BRANCH   7   8
ATOM      8  C1  UNL d   1       3.828   5.794  -1.740  0.00  0.00     0.007 C 
ATOM      9  C   UNL d   1       2.958   5.997  -2.973  0.00  0.00     0.009 C 
ENDBRANCH   7   8
ENDBRANCH   1   7
TORSDOF 2
ENDMDL
