MODEL 1
REMARK minimizedAffinity 7.11488533
REMARK minimizedRMSD -1
REMARK  2 active torsions:
REMARK  status: ('A' for Active; 'I' for Inactive)
REMARK    1  A    between atoms: C1_2  and  C2_3 
REMARK    2  A    between atoms: C2_3  and  C3_4 
ROOT
ATOM      1  C3  UNL d   1       4.729   4.787  -3.289  0.00  0.00    -0.075 A 
ATOM      2  C4  UNL d   1       3.677   5.320  -4.048  0.00  0.00     0.002 A 
ATOM      3  C5  UNL d   1       2.527   5.803  -3.424  0.00  0.00     0.002 A 
ATOM      4  C6  UNL d   1       2.408   5.748  -2.037  0.00  0.00    -0.004 A 
ATOM      5  C7  UNL d   1       3.439   5.205  -1.274  0.00  0.00     0.002 A 
ATOM      6  C8  UNL d   1       4.594   4.726  -1.895  0.00  0.00     0.002 A 
ENDROOT
BRANCH   1   7
ATOM      7  C2  UNL d   1       5.989   4.290  -3.956  0.00  0.00     0.056 C 
BRANCH   7   8
ATOM      8  C1  UNL d   1       5.999   4.465  -5.478  0.00  0.00     0.007 C 
ATOM      9  C   UNL d   1       5.796   5.908  -5.919  0.00  0.00     0.009 C 
ENDBRANCH   7   8
ENDBRANCH   1   7
TORSDOF 2
ENDMDL
