MODEL 1
REMARK minimizedAffinity 5.4187789
REMARK minimizedRMSD -1
REMARK  2 active torsions:
REMARK  status: ('A' for Active; 'I' for Inactive)
REMARK    1  A    between atoms: C1_2  and  C2_3 
REMARK    2  A    between atoms: C2_3  and  C3_4 
ROOT
ATOM      1  C3  UNL d   1       4.693   4.828  -3.840  0.00  0.00    -0.075 A 
ATOM      2  C4  UNL d   1       5.583   5.797  -3.354  0.00  0.00     0.002 A 
ATOM      3  C5  UNL d   1       5.997   5.773  -2.022  0.00  0.00     0.002 A 
ATOM      4  C6  UNL d   1       5.521   4.790  -1.158  0.00  0.00    -0.004 A 
ATOM      5  C7  UNL d   1       4.624   3.832  -1.626  0.00  0.00     0.002 A 
ATOM      6  C8  UNL d   1       4.211   3.850  -2.959  0.00  0.00     0.002 A 
ENDROOT
BRANCH   1   7
ATOM      7  C2  UNL d   1       4.264   4.830  -5.287  0.00  0.00     0.056 C 
BRANCH   7   8
ATOM      8  C1  UNL d   1       3.146   5.829  -5.605  0.00  0.00     0.007 C 
ATOM      9  C   UNL d   1       2.151   5.999  -4.465  0.00  0.00     0.009 C 
ENDBRANCH   7   8
ENDBRANCH   1   7
TORSDOF 2
ENDMDL
