MODEL 1
REMARK minimizedAffinity -0.870417237
REMARK minimizedRMSD -1
REMARK  2 active torsions:
REMARK  status: ('A' for Active; 'I' for Inactive)
REMARK    1  A    between atoms: C1_2  and  C2_3 
REMARK    2  A    between atoms: C2_3  and  C3_4 
ROOT
ATOM      1  C3  UNL d   1      -0.541  -3.353  -3.800  0.00  0.00    -0.075 A 
ATOM      2  C4  UNL d   1       0.158  -3.930  -2.731  0.00  0.00     0.002 A 
ATOM      3  C5  UNL d   1      -0.035  -3.470  -1.428  0.00  0.00     0.002 A 
ATOM      4  C6  UNL d   1      -0.919  -2.423  -1.179  0.00  0.00    -0.004 A 
ATOM      5  C7  UNL d   1      -1.606  -1.830  -2.236  0.00  0.00     0.002 A 
ATOM      6  C8  UNL d   1      -1.419  -2.291  -3.541  0.00  0.00     0.002 A 
ENDROOT
BRANCH   1   7
ATOM      7  C2  UNL d   1      -0.360  -3.865  -5.209  0.00  0.00     0.056 C 
BRANCH   7   8
ATOM      8  C1  UNL d   1      -1.412  -4.893  -5.640  0.00  0.00     0.007 C 
ATOM      9  C   UNL d   1      -1.628  -5.997  -4.613  0.00  0.00     0.009 C 
ENDBRANCH   7   8
ENDBRANCH   1   7
TORSDOF 2
ENDMDL
