MODEL 1
REMARK minimizedAffinity -1.24799562
REMARK minimizedRMSD -1
REMARK  2 active torsions:
REMARK  status: ('A' for Active; 'I' for Inactive)
REMARK    1  A    between atoms: C1_2  and  C2_3 
REMARK    2  A    between atoms: C2_3  and  C3_4 
ROOT
ATOM      1  C3  UNL d   1       3.491   4.492  -2.650  0.00  0.00    -0.075 A 
ATOM      2  C4  UNL d   1       4.018   3.775  -3.734  0.00  0.00     0.002 A 
ATOM      3  C5  UNL d   1       5.267   4.106  -4.262  0.00  0.00     0.002 A 
ATOM      4  C6  UNL d   1       5.998   5.161  -3.721  0.00  0.00    -0.004 A 
ATOM      5  C7  UNL d   1       5.476   5.891  -2.655  0.00  0.00     0.002 A 
ATOM      6  C8  UNL d   1       4.229   5.559  -2.122  0.00  0.00     0.002 A 
ENDROOT
BRANCH   1   7
ATOM      7  C2  UNL d   1       2.154   4.120  -2.055  0.00  0.00     0.056 C 
BRANCH   7   8
ATOM      8  C1  UNL d   1       2.131   4.120  -0.523  0.00  0.00     0.007 C 
ATOM      9  C   UNL d   1       0.852   3.532   0.058  0.00  0.00     0.009 C 
ENDBRANCH   7   8
ENDBRANCH   1   7
TORSDOF 2
ENDMDL
