MODEL 1
REMARK minimizedAffinity -3.55144382
REMARK minimizedRMSD -1
REMARK  2 active torsions:
REMARK  status: ('A' for Active; 'I' for Inactive)
REMARK    1  A    between atoms: C1_2  and  C2_3 
REMARK    2  A    between atoms: C2_3  and  C3_4 
ROOT
ATOM      1  C3  UNL d   1       5.034   3.719  -5.252  0.00  0.00    -0.075 A 
ATOM      2  C4  UNL d   1       4.163   3.594  -4.160  0.00  0.00     0.002 A 
ATOM      3  C5  UNL d   1       3.341   4.656  -3.784  0.00  0.00     0.002 A 
ATOM      4  C6  UNL d   1       3.386   5.858  -4.487  0.00  0.00    -0.004 A 
ATOM      5  C7  UNL d   1       4.259   5.999  -5.564  0.00  0.00     0.002 A 
ATOM      6  C8  UNL d   1       5.080   4.936  -5.944  0.00  0.00     0.002 A 
ENDROOT
BRANCH   1   7
ATOM      7  C2  UNL d   1       5.905   2.563  -5.682  0.00  0.00     0.056 C 
BRANCH   7   8
ATOM      8  C1  UNL d   1       5.575   1.240  -4.983  0.00  0.00     0.007 C 
ATOM      9  C   UNL d   1       5.899   0.016  -5.829  0.00  0.00     0.009 C 
ENDBRANCH   7   8
ENDBRANCH   1   7
TORSDOF 2
ENDMDL
