MODEL 1
REMARK minimizedAffinity 6.34425926
REMARK minimizedRMSD -1
REMARK  2 active torsions:
REMARK  status: ('A' for Active; 'I' for Inactive)
REMARK    1  A    between atoms: C1_2  and  C2_3 
REMARK    2  A    between atoms: C2_3  and  C3_4 
ROOT
ATOM      1  C3  UNL d   1       5.352   3.719  -4.189  0.00  0.00    -0.075 A 
ATOM      2  C4  UNL d   1       6.000   4.196  -3.040  0.00  0.00     0.002 A 
ATOM      3  C5  UNL d   1       5.423   5.206  -2.269  0.00  0.00     0.002 A 
ATOM      4  C6  UNL d   1       4.198   5.757  -2.640  0.00  0.00    -0.004 A 
ATOM      5  C7  UNL d   1       3.554   5.302  -3.788  0.00  0.00     0.002 A 
ATOM      6  C8  UNL d   1       4.127   4.289  -4.560  0.00  0.00     0.002 A 
ENDROOT
BRANCH   1   7
ATOM      7  C2  UNL d   1       5.957   2.607  -5.011  0.00  0.00     0.056 C 
BRANCH   7   8
ATOM      8  C1  UNL d   1       5.877   1.227  -4.349  0.00  0.00     0.007 C 
ATOM      9  C   UNL d   1       6.000   0.078  -5.341  0.00  0.00     0.009 C 
ENDBRANCH   7   8
ENDBRANCH   1   7
TORSDOF 2
ENDMDL
