MODEL 1
REMARK minimizedAffinity -1.42338622
REMARK minimizedRMSD -1
REMARK  2 active torsions:
REMARK  status: ('A' for Active; 'I' for Inactive)
REMARK    1  A    between atoms: C1_2  and  C2_3 
REMARK    2  A    between atoms: C2_3  and  C3_4 
ROOT
ATOM      1  C3  UNL d   1       4.620   5.999  -4.025  0.00  0.00    -0.075 A 
ATOM      2  C4  UNL d   1       5.690   5.997  -3.119  0.00  0.00     0.002 A 
ATOM      3  C5  UNL d   1       5.454   5.974  -1.744  0.00  0.00     0.002 A 
ATOM      4  C6  UNL d   1       4.149   5.963  -1.259  0.00  0.00    -0.004 A 
ATOM      5  C7  UNL d   1       3.078   5.981  -2.149  0.00  0.00     0.002 A 
ATOM      6  C8  UNL d   1       3.311   6.000  -3.526  0.00  0.00     0.002 A 
ENDROOT
BRANCH   1   7
ATOM      7  C2  UNL d   1       4.868   5.994  -5.515  0.00  0.00     0.056 C 
BRANCH   7   8
ATOM      8  C1  UNL d   1       5.732   4.824  -5.999  0.00  0.00     0.007 C 
ATOM      9  C   UNL d   1       5.240   3.470  -5.505  0.00  0.00     0.009 C 
ENDBRANCH   7   8
ENDBRANCH   1   7
TORSDOF 2
ENDMDL
