MODEL 1
REMARK minimizedAffinity 1.45358694
REMARK minimizedRMSD -1
REMARK  2 active torsions:
REMARK  status: ('A' for Active; 'I' for Inactive)
REMARK    1  A    between atoms: C1_2  and  C2_3 
REMARK    2  A    between atoms: C2_3  and  C3_4 
ROOT
ATOM      1  C3  UNL d   1       5.670   5.303  -3.596  0.00  0.00    -0.075 A 
ATOM      2  C4  UNL d   1       5.031   5.998  -4.633  0.00  0.00     0.002 A 
ATOM      3  C5  UNL d   1       4.705   5.351  -5.825  0.00  0.00     0.002 A 
ATOM      4  C6  UNL d   1       5.022   4.006  -6.000  0.00  0.00    -0.004 A 
ATOM      5  C7  UNL d   1       5.672   3.309  -4.983  0.00  0.00     0.002 A 
ATOM      6  C8  UNL d   1       5.995   3.953  -3.788  0.00  0.00     0.002 A 
ENDROOT
BRANCH   1   7
ATOM      7  C2  UNL d   1       5.999   5.990  -2.293  0.00  0.00     0.056 C 
BRANCH   7   8
ATOM      8  C1  UNL d   1       5.881   5.084  -1.063  0.00  0.00     0.007 C 
ATOM      9  C   UNL d   1       4.439   4.794  -0.667  0.00  0.00     0.009 C 
ENDBRANCH   7   8
ENDBRANCH   1   7
TORSDOF 2
ENDMDL
