MODEL 1
REMARK minimizedAffinity -4.28361893
REMARK minimizedRMSD -1
REMARK  2 active torsions:
REMARK  status: ('A' for Active; 'I' for Inactive)
REMARK    1  A    between atoms: C1_2  and  C2_3 
REMARK    2  A    between atoms: C2_3  and  C3_4 
ROOT
ATOM      1  C3  UNL d   1       4.777   3.913  -4.605  0.00  0.00    -0.075 A 
ATOM      2  C4  UNL d   1       3.515   4.178  -4.053  0.00  0.00     0.002 A 
ATOM      3  C5  UNL d   1       3.403   4.832  -2.825  0.00  0.00     0.002 A 
ATOM      4  C6  UNL d   1       4.547   5.219  -2.132  0.00  0.00    -0.004 A 
ATOM      5  C7  UNL d   1       5.805   4.947  -2.664  0.00  0.00     0.002 A 
ATOM      6  C8  UNL d   1       5.921   4.297  -3.893  0.00  0.00     0.002 A 
ENDROOT
BRANCH   1   7
ATOM      7  C2  UNL d   1       4.905   3.232  -5.947  0.00  0.00     0.056 C 
BRANCH   7   8
ATOM      8  C1  UNL d   1       5.996   2.158  -6.000  0.00  0.00     0.007 C 
ATOM      9  C   UNL d   1       5.492   0.771  -5.624  0.00  0.00     0.009 C 
ENDBRANCH   7   8
ENDBRANCH   1   7
TORSDOF 2
ENDMDL
