MODEL 1
REMARK minimizedAffinity 0.349514365
REMARK minimizedRMSD -1
REMARK  2 active torsions:
REMARK  status: ('A' for Active; 'I' for Inactive)
REMARK    1  A    between atoms: C1_2  and  C2_3 
REMARK    2  A    between atoms: C2_3  and  C3_4 
ROOT
ATOM      1  C3  UNL d   1       4.406   5.057  -4.050  0.00  0.00    -0.075 A 
ATOM      2  C4  UNL d   1       5.362   5.627  -4.903  0.00  0.00     0.002 A 
ATOM      3  C5  UNL d   1       5.996   4.852  -5.876  0.00  0.00     0.002 A 
ATOM      4  C6  UNL d   1       5.690   3.498  -6.000  0.00  0.00    -0.004 A 
ATOM      5  C7  UNL d   1       4.754   2.918  -5.147  0.00  0.00     0.002 A 
ATOM      6  C8  UNL d   1       4.116   3.692  -4.176  0.00  0.00     0.002 A 
ENDROOT
BRANCH   1   7
ATOM      7  C2  UNL d   1       3.696   5.896  -3.015  0.00  0.00     0.056 C 
BRANCH   7   8
ATOM      8  C1  UNL d   1       4.438   5.999  -1.679  0.00  0.00     0.007 C 
ATOM      9  C   UNL d   1       5.953   5.993  -1.832  0.00  0.00     0.009 C 
ENDBRANCH   7   8
ENDBRANCH   1   7
TORSDOF 2
ENDMDL
