MODEL 1
REMARK minimizedAffinity -2.21530247
REMARK minimizedRMSD -1
REMARK  2 active torsions:
REMARK  status: ('A' for Active; 'I' for Inactive)
REMARK    1  A    between atoms: C1_2  and  C2_3 
REMARK    2  A    between atoms: C2_3  and  C3_4 
ROOT
ATOM      1  C3  UNL d   1       5.249   4.598  -3.572  0.00  0.00    -0.075 A 
ATOM      2  C4  UNL d   1       4.177   5.502  -3.546  0.00  0.00     0.002 A 
ATOM      3  C5  UNL d   1       3.620   5.975  -4.735  0.00  0.00     0.002 A 
ATOM      4  C6  UNL d   1       4.134   5.560  -5.961  0.00  0.00    -0.004 A 
ATOM      5  C7  UNL d   1       5.209   4.675  -5.999  0.00  0.00     0.002 A 
ATOM      6  C8  UNL d   1       5.765   4.196  -4.811  0.00  0.00     0.002 A 
ENDROOT
BRANCH   1   7
ATOM      7  C2  UNL d   1       5.836   4.060  -2.289  0.00  0.00     0.056 C 
BRANCH   7   8
ATOM      8  C1  UNL d   1       5.994   5.111  -1.186  0.00  0.00     0.007 C 
ATOM      9  C   UNL d   1       5.965   4.519   0.217  0.00  0.00     0.009 C 
ENDBRANCH   7   8
ENDBRANCH   1   7
TORSDOF 2
ENDMDL
