MODEL 1
REMARK minimizedAffinity 0.883578122
REMARK minimizedRMSD -1
REMARK  0 active torsions:
REMARK  status: ('A' for Active; 'I' for Inactive)
ROOT
ATOM      1  C2' OXE d   1      -0.437  -0.345  -1.593  0.00  0.00     0.078 C 
ATOM      2  C1' OXE d   1       1.639   0.892  -0.164  0.00  0.00     0.078 C 
ATOM      3  C1  OXE d   1       0.353   0.605   0.570  0.00  0.00    -0.078 A 
ATOM      4  C2  OXE d   1      -0.674   0.042  -0.149  0.00  0.00    -0.078 A 
ATOM      5  C3  OXE d   1      -1.862  -0.293   0.494  0.00  0.00     0.003 A 
ATOM      6  C4  OXE d   1      -2.076   0.077   1.827  0.00  0.00    -0.002 A 
ATOM      7  C5  OXE d   1      -1.057   0.687   2.567  0.00  0.00    -0.002 A 
ATOM      8  C6  OXE d   1       0.175   0.919   1.966  0.00  0.00     0.003 A 
ENDROOT
TORSDOF 0
ENDMDL
