MODEL 1
REMARK minimizedAffinity -3.0540731
REMARK minimizedRMSD -1
REMARK  0 active torsions:
REMARK  status: ('A' for Active; 'I' for Inactive)
ROOT
ATOM      1  C2' OXE d   1       1.799  -0.038   2.029  0.00  0.00     0.078 C 
ATOM      2  C1' OXE d   1      -0.626   0.842   3.135  0.00  0.00     0.078 C 
ATOM      3  C1  OXE d   1      -0.660   0.245   1.750  0.00  0.00    -0.078 A 
ATOM      4  C2  OXE d   1       0.538  -0.140   1.199  0.00  0.00    -0.078 A 
ATOM      5  C3  OXE d   1       0.557  -0.747  -0.054  0.00  0.00     0.003 A 
ATOM      6  C4  OXE d   1      -0.612  -0.828  -0.820  0.00  0.00    -0.002 A 
ATOM      7  C5  OXE d   1      -1.837  -0.405  -0.293  0.00  0.00    -0.002 A 
ATOM      8  C6  OXE d   1      -1.885   0.093   1.005  0.00  0.00     0.003 A 
ENDROOT
TORSDOF 0
ENDMDL
