MODEL 1
REMARK minimizedAffinity -3.2021265
REMARK minimizedRMSD -1
REMARK  0 active torsions:
REMARK  status: ('A' for Active; 'I' for Inactive)
ROOT
ATOM      1  C2' OXE d   1       2.205  -0.488   0.826  0.00  0.00     0.078 C 
ATOM      2  C1' OXE d   1      -0.063  -1.219  -0.658  0.00  0.00     0.078 C 
ATOM      3  C1  OXE d   1      -0.272  -0.382   0.579  0.00  0.00    -0.078 A 
ATOM      4  C2  OXE d   1       0.839  -0.068   1.325  0.00  0.00    -0.078 A 
ATOM      5  C3  OXE d   1       0.709   0.748   2.445  0.00  0.00     0.003 A 
ATOM      6  C4  OXE d   1      -0.559   1.124   2.905  0.00  0.00    -0.002 A 
ATOM      7  C5  OXE d   1      -1.707   0.781   2.182  0.00  0.00    -0.002 A 
ATOM      8  C6  OXE d   1      -1.577   0.066   0.996  0.00  0.00     0.003 A 
ENDROOT
TORSDOF 0
ENDMDL
