MODEL 1
REMARK minimizedAffinity -5.74752998
REMARK minimizedRMSD -1
REMARK  0 active torsions:
REMARK  status: ('A' for Active; 'I' for Inactive)
ROOT
ATOM      1  C2' OXE d   1      -0.802   0.879   2.917  0.00  0.00     0.078 C 
ATOM      2  C1' OXE d   1       1.970   0.565   2.608  0.00  0.00     0.078 C 
ATOM      3  C1  OXE d   1       1.087   0.214   1.436  0.00  0.00    -0.078 A 
ATOM      4  C2  OXE d   1      -0.271   0.327   1.612  0.00  0.00    -0.078 A 
ATOM      5  C3  OXE d   1      -1.128   0.069   0.546  0.00  0.00     0.003 A 
ATOM      6  C4  OXE d   1      -0.629  -0.452  -0.655  0.00  0.00    -0.002 A 
ATOM      7  C5  OXE d   1       0.748  -0.612  -0.841  0.00  0.00    -0.002 A 
ATOM      8  C6  OXE d   1       1.621  -0.244   0.177  0.00  0.00     0.003 A 
ENDROOT
TORSDOF 0
ENDMDL
