MODEL 1
REMARK minimizedAffinity -5.9954772
REMARK minimizedRMSD -1
REMARK  0 active torsions:
REMARK  status: ('A' for Active; 'I' for Inactive)
ROOT
ATOM      1  C2' OXE d   1      -0.505   1.046   2.578  0.00  0.00     0.078 C 
ATOM      2  C1' OXE d   1       2.196   0.510   3.122  0.00  0.00     0.078 C 
ATOM      3  C1  OXE d   1       1.674   0.168   1.749  0.00  0.00    -0.078 A 
ATOM      4  C2  OXE d   1       0.340   0.390   1.507  0.00  0.00    -0.078 A 
ATOM      5  C3  OXE d   1      -0.181   0.144   0.240  0.00  0.00     0.003 A 
ATOM      6  C4  OXE d   1       0.605  -0.471  -0.742  0.00  0.00    -0.002 A 
ATOM      7  C5  OXE d   1       1.956  -0.743  -0.503  0.00  0.00    -0.002 A 
ATOM      8  C6  OXE d   1       2.516  -0.391   0.720  0.00  0.00     0.003 A 
ENDROOT
TORSDOF 0
ENDMDL
