MODEL 1
REMARK minimizedAffinity -5.68979979
REMARK minimizedRMSD -1
REMARK  0 active torsions:
REMARK  status: ('A' for Active; 'I' for Inactive)
ROOT
ATOM      1  C2' OXE d   1       0.682  -1.326  -1.249  0.00  0.00     0.078 C 
ATOM      2  C1' OXE d   1       2.133   0.140   0.655  0.00  0.00     0.078 C 
ATOM      3  C1  OXE d   1       0.627   0.198   0.721  0.00  0.00    -0.078 A 
ATOM      4  C2  OXE d   1      -0.075  -0.485  -0.243  0.00  0.00    -0.078 A 
ATOM      5  C3  OXE d   1      -1.465  -0.510  -0.195  0.00  0.00     0.003 A 
ATOM      6  C4  OXE d   1      -2.157   0.279   0.732  0.00  0.00    -0.002 A 
ATOM      7  C5  OXE d   1      -1.461   1.014   1.698  0.00  0.00    -0.002 A 
ATOM      8  C6  OXE d   1      -0.073   0.950   1.733  0.00  0.00     0.003 A 
ENDROOT
TORSDOF 0
ENDMDL
