MODEL 1
REMARK minimizedAffinity -3.62866521
REMARK minimizedRMSD -1
REMARK  0 active torsions:
REMARK  status: ('A' for Active; 'I' for Inactive)
ROOT
ATOM      1  C2' OXE d   1       3.303  -0.106  -3.477  0.00  0.00     0.078 C 
ATOM      2  C1' OXE d   1       1.070   1.577  -3.723  0.00  0.00     0.078 C 
ATOM      3  C1  OXE d   1       1.179   0.731  -2.479  0.00  0.00    -0.078 A 
ATOM      4  C2  OXE d   1       2.251  -0.124  -2.389  0.00  0.00    -0.078 A 
ATOM      5  C3  OXE d   1       2.429  -0.888  -1.239  0.00  0.00     0.003 A 
ATOM      6  C4  OXE d   1       1.446  -0.907  -0.241  0.00  0.00    -0.002 A 
ATOM      7  C5  OXE d   1       0.326  -0.073  -0.332  0.00  0.00    -0.002 A 
ATOM      8  C6  OXE d   1       0.199   0.781  -1.422  0.00  0.00     0.003 A 
ENDROOT
TORSDOF 0
ENDMDL
