MODEL 1
REMARK minimizedAffinity 0.443826795
REMARK minimizedRMSD -1
REMARK  0 active torsions:
REMARK  status: ('A' for Active; 'I' for Inactive)
ROOT
ATOM      1  C2' OXE d   1      -0.790  -0.458  -0.346  0.00  0.00     0.078 C 
ATOM      2  C1' OXE d   1       1.806  -0.032   0.634  0.00  0.00     0.078 C 
ATOM      3  C1  OXE d   1       0.660   0.066   1.610  0.00  0.00    -0.078 A 
ATOM      4  C2  OXE d   1      -0.610  -0.097   1.113  0.00  0.00    -0.078 A 
ATOM      5  C3  OXE d   1      -1.699  -0.071   1.980  0.00  0.00     0.003 A 
ATOM      6  C4  OXE d   1      -1.525   0.273   3.326  0.00  0.00    -0.002 A 
ATOM      7  C5  OXE d   1      -0.243   0.482   3.845  0.00  0.00    -0.002 A 
ATOM      8  C6  OXE d   1       0.862   0.341   3.012  0.00  0.00     0.003 A 
ENDROOT
TORSDOF 0
ENDMDL
