MODEL 1
REMARK minimizedAffinity 3.85188222
REMARK minimizedRMSD -1
REMARK  0 active torsions:
REMARK  status: ('A' for Active; 'I' for Inactive)
ROOT
ATOM      1  C2' OXE d   1      -0.603  -0.836   5.205  0.00  0.00     0.078 C 
ATOM      2  C1' OXE d   1       1.662  -1.100   3.567  0.00  0.00     0.078 C 
ATOM      3  C1  OXE d   1       0.373  -0.661   2.919  0.00  0.00    -0.078 A 
ATOM      4  C2  OXE d   1      -0.742  -0.580   3.719  0.00  0.00    -0.078 A 
ATOM      5  C3  OXE d   1      -1.944  -0.128   3.183  0.00  0.00     0.003 A 
ATOM      6  C4  OXE d   1      -2.066   0.097   1.807  0.00  0.00    -0.002 A 
ATOM      7  C5  OXE d   1      -0.953  -0.018   0.967  0.00  0.00    -0.002 A 
ATOM      8  C6  OXE d   1       0.281  -0.354   1.513  0.00  0.00     0.003 A 
ENDROOT
TORSDOF 0
ENDMDL
