MODEL 1
REMARK minimizedAffinity -0.686522245
REMARK minimizedRMSD -1
REMARK  1 active torsions:
REMARK  status: ('A' for Active; 'I' for Inactive)
REMARK    1  A    between atoms: C3_4  and  O_7 
ROOT
ATOM      1  C   UNL d   1      -1.435  -1.176  -0.050  0.00  0.00    -0.033 A 
ATOM      2  C1  UNL d   1      -1.873   0.106   0.288  0.00  0.00     0.039 A 
ATOM      3  C2  UNL d   1      -2.662   0.834  -0.605  0.00  0.00    -0.080 A 
ATOM      4  C3  UNL d   1      -3.005   0.269  -1.830  0.00  0.00     0.150 A 
ATOM      5  C4  UNL d   1      -2.575  -1.009  -2.172  0.00  0.00    -0.007 A 
ATOM      6  C5  UNL d   1      -1.787  -1.734  -1.279  0.00  0.00     0.039 A 
ENDROOT
BRANCH   4   7
ATOM      7  O   UNL d   1      -3.769   0.943  -2.737  0.00  0.00    -0.526 OA
ATOM      8  H5  UNL d   1      -3.968   1.823  -2.377  0.00  0.00     0.418 HD
ENDBRANCH   4   7
TORSDOF 1
ENDMDL
