MODEL 1
REMARK minimizedAffinity 7.88575315
REMARK minimizedRMSD -1
REMARK  1 active torsions:
REMARK  status: ('A' for Active; 'I' for Inactive)
REMARK    1  A    between atoms: C3_4  and  O_7 
ROOT
ATOM      1  C   UNL d   1       2.282  -1.765   3.710  0.00  0.00    -0.033 A 
ATOM      2  C1  UNL d   1       3.461  -1.988   2.995  0.00  0.00     0.039 A 
ATOM      3  C2  UNL d   1       4.664  -2.191   3.674  0.00  0.00    -0.080 A 
ATOM      4  C3  UNL d   1       4.674  -2.171   5.066  0.00  0.00     0.150 A 
ATOM      5  C4  UNL d   1       3.503  -1.953   5.784  0.00  0.00    -0.007 A 
ATOM      6  C5  UNL d   1       2.303  -1.749   5.104  0.00  0.00     0.039 A 
ENDROOT
BRANCH   4   7
ATOM      7  O   UNL d   1       5.824  -2.360   5.773  0.00  0.00    -0.526 OA
ATOM      8  H5  UNL d   1       6.557  -2.469   5.144  0.00  0.00     0.418 HD
ENDBRANCH   4   7
TORSDOF 1
ENDMDL
