MODEL 1
REMARK minimizedAffinity 1.41096735
REMARK minimizedRMSD -1
REMARK  1 active torsions:
REMARK  status: ('A' for Active; 'I' for Inactive)
REMARK    1  A    between atoms: C3_4  and  O_7 
ROOT
ATOM      1  C   UNL d   1       1.879  -1.607   3.627  0.00  0.00    -0.033 A 
ATOM      2  C1  UNL d   1       2.787  -0.830   2.906  0.00  0.00     0.039 A 
ATOM      3  C2  UNL d   1       4.159  -0.986   3.111  0.00  0.00    -0.080 A 
ATOM      4  C3  UNL d   1       4.610  -1.922   4.037  0.00  0.00     0.150 A 
ATOM      5  C4  UNL d   1       3.711  -2.703   4.756  0.00  0.00    -0.007 A 
ATOM      6  C5  UNL d   1       2.341  -2.545   4.551  0.00  0.00     0.039 A 
ENDROOT
BRANCH   4   7
ATOM      7  O   UNL d   1       5.939  -2.107   4.275  0.00  0.00    -0.526 OA
ATOM      8  H5  UNL d   1       6.440  -1.479   3.728  0.00  0.00     0.418 HD
ENDBRANCH   4   7
TORSDOF 1
ENDMDL
