MODEL 1
REMARK minimizedAffinity 9.43544769
REMARK minimizedRMSD -1
REMARK  1 active torsions:
REMARK  status: ('A' for Active; 'I' for Inactive)
REMARK    1  A    between atoms: C3_4  and  O_7 
ROOT
ATOM      1  C   UNL d   1       1.674  -2.255   3.776  0.00  0.00    -0.033 A 
ATOM      2  C1  UNL d   1       2.656  -1.318   3.452  0.00  0.00     0.039 A 
ATOM      3  C2  UNL d   1       3.901  -1.361   4.084  0.00  0.00    -0.080 A 
ATOM      4  C3  UNL d   1       4.150  -2.347   5.035  0.00  0.00     0.150 A 
ATOM      5  C4  UNL d   1       3.177  -3.287   5.359  0.00  0.00    -0.007 A 
ATOM      6  C5  UNL d   1       1.934  -3.241   4.728  0.00  0.00     0.039 A 
ENDROOT
BRANCH   4   7
ATOM      7  O   UNL d   1       5.347  -2.427   5.682  0.00  0.00    -0.526 OA
ATOM      8  H5  UNL d   1       5.911  -1.696   5.377  0.00  0.00     0.418 HD
ENDBRANCH   4   7
TORSDOF 1
ENDMDL
