MODEL 1
REMARK minimizedAffinity 8.52105808
REMARK minimizedRMSD -1
REMARK  1 active torsions:
REMARK  status: ('A' for Active; 'I' for Inactive)
REMARK    1  A    between atoms: C3_4  and  O_7 
ROOT
ATOM      1  C   UNL d   1       4.785   5.833  -5.905  0.00  0.00    -0.033 A 
ATOM      2  C1  UNL d   1       3.581   5.763  -5.202  0.00  0.00     0.039 A 
ATOM      3  C2  UNL d   1       3.581   5.809  -3.807  0.00  0.00    -0.080 A 
ATOM      4  C3  UNL d   1       4.791   5.926  -3.128  0.00  0.00     0.150 A 
ATOM      5  C4  UNL d   1       5.994   6.000  -3.822  0.00  0.00    -0.007 A 
ATOM      6  C5  UNL d   1       5.991   5.953  -5.215  0.00  0.00     0.039 A 
ENDROOT
BRANCH   4   7
ATOM      7  O   UNL d   1       4.843   5.970  -1.766  0.00  0.00    -0.526 OA
ATOM      8  H5  UNL d   1       3.939   5.880  -1.421  0.00  0.00     0.418 HD
ENDBRANCH   4   7
TORSDOF 1
ENDMDL
