MODEL 1
REMARK minimizedAffinity 8.37894249
REMARK minimizedRMSD -1
REMARK  1 active torsions:
REMARK  status: ('A' for Active; 'I' for Inactive)
REMARK    1  A    between atoms: C3_4  and  O_7 
ROOT
ATOM      1  C   UNL d   1       1.856  -0.096   3.805  0.00  0.00    -0.033 A 
ATOM      2  C1  UNL d   1       2.005   1.292   3.799  0.00  0.00     0.039 A 
ATOM      3  C2  UNL d   1       2.673   1.920   2.746  0.00  0.00    -0.080 A 
ATOM      4  C3  UNL d   1       3.186   1.150   1.706  0.00  0.00     0.150 A 
ATOM      5  C4  UNL d   1       3.038  -0.233   1.703  0.00  0.00    -0.007 A 
ATOM      6  C5  UNL d   1       2.371  -0.859   2.756  0.00  0.00     0.039 A 
ENDROOT
BRANCH   4   7
ATOM      7  O   UNL d   1       3.850   1.717   0.659  0.00  0.00    -0.526 OA
ATOM      8  H5  UNL d   1       3.901   2.676   0.810  0.00  0.00     0.418 HD
ENDBRANCH   4   7
TORSDOF 1
ENDMDL
