MODEL 1
REMARK minimizedAffinity 5.90447187
REMARK minimizedRMSD -1
REMARK  1 active torsions:
REMARK  status: ('A' for Active; 'I' for Inactive)
REMARK    1  A    between atoms: C1_2  and  C2_3 
ROOT
ATOM      1  C2  UNL d   1       4.321   5.239   1.714  0.00  0.00    -0.073 A 
ATOM      2  C3  UNL d   1       4.270   3.841   1.708  0.00  0.00    -0.002 A 
ATOM      3  C4  UNL d   1       4.111   3.146   0.508  0.00  0.00     0.004 A 
ATOM      4  C5  UNL d   1       4.008   3.840  -0.697  0.00  0.00    -0.004 A 
ATOM      5  C6  UNL d   1       4.068   5.238  -0.713  0.00  0.00    -0.075 A 
ATOM      6  C7  UNL d   1       3.956   6.000  -2.001  0.00  0.00     0.076 C 
ATOM      7  C8  UNL d   1       4.225   5.928   0.496  0.00  0.00     0.001 A 
ENDROOT
BRANCH   1   8
ATOM      8  C1  UNL d   1       4.499   5.993   3.006  0.00  0.00     0.053 C 
ATOM      9  C   UNL d   1       5.785   5.606   3.719  0.00  0.00     0.018 C 
ENDBRANCH   1   8
TORSDOF 1
ENDMDL
