MODEL 1
REMARK minimizedAffinity 4.39976549
REMARK minimizedRMSD -1
REMARK  1 active torsions:
REMARK  status: ('A' for Active; 'I' for Inactive)
REMARK    1  A    between atoms: C1_2  and  C2_3 
ROOT
ATOM      1  C2  UNL d   1       5.141   1.203   4.032  0.00  0.00    -0.073 A 
ATOM      2  C3  UNL d   1       5.730   1.252   5.301  0.00  0.00    -0.002 A 
ATOM      3  C4  UNL d   1       5.999   0.074   5.999  0.00  0.00     0.004 A 
ATOM      4  C5  UNL d   1       5.689  -1.163   5.435  0.00  0.00    -0.004 A 
ATOM      5  C6  UNL d   1       5.111  -1.234   4.164  0.00  0.00    -0.075 A 
ATOM      6  C7  UNL d   1       4.769  -2.557   3.544  0.00  0.00     0.076 C 
ATOM      7  C8  UNL d   1       4.841  -0.046   3.470  0.00  0.00     0.001 A 
ENDROOT
BRANCH   1   8
ATOM      8  C1  UNL d   1       4.855   2.471   3.272  0.00  0.00     0.053 C 
ATOM      9  C   UNL d   1       5.812   3.591   3.649  0.00  0.00     0.018 C 
ENDBRANCH   1   8
TORSDOF 1
ENDMDL
