MODEL 1
REMARK minimizedAffinity 0.292656243
REMARK minimizedRMSD -1
REMARK  1 active torsions:
REMARK  status: ('A' for Active; 'I' for Inactive)
REMARK    1  A    between atoms: C1_2  and  C2_3 
ROOT
ATOM      1  C2  UNL d   1       5.716  -0.677   5.295  0.00  0.00    -0.073 A 
ATOM      2  C3  UNL d   1       5.746  -1.887   5.999  0.00  0.00    -0.002 A 
ATOM      3  C4  UNL d   1       5.489  -3.091   5.342  0.00  0.00     0.004 A 
ATOM      4  C5  UNL d   1       5.206  -3.099   3.976  0.00  0.00    -0.004 A 
ATOM      5  C6  UNL d   1       5.183  -1.902   3.253  0.00  0.00    -0.075 A 
ATOM      6  C7  UNL d   1       4.879  -1.894   1.784  0.00  0.00     0.076 C 
ATOM      7  C8  UNL d   1       5.440  -0.697   3.920  0.00  0.00     0.001 A 
ENDROOT
BRANCH   1   8
ATOM      8  C1  UNL d   1       6.000   0.625   5.998  0.00  0.00     0.053 C 
ATOM      9  C   UNL d   1       4.995   1.704   5.627  0.00  0.00     0.018 C 
ENDBRANCH   1   8
TORSDOF 1
ENDMDL
