MODEL 1
REMARK minimizedAffinity 2.73456049
REMARK minimizedRMSD -1
REMARK  1 active torsions:
REMARK  status: ('A' for Active; 'I' for Inactive)
REMARK    1  A    between atoms: C1_2  and  C2_3 
ROOT
ATOM      1  C2  UNL d   1       3.905   5.230  -0.697  0.00  0.00    -0.073 A 
ATOM      2  C3  UNL d   1       3.330   3.957  -0.772  0.00  0.00    -0.002 A 
ATOM      3  C4  UNL d   1       3.027   3.251   0.394  0.00  0.00     0.004 A 
ATOM      4  C5  UNL d   1       3.289   3.813   1.643  0.00  0.00    -0.004 A 
ATOM      5  C6  UNL d   1       3.853   5.090   1.738  0.00  0.00    -0.075 A 
ATOM      6  C7  UNL d   1       4.143   5.708   3.074  0.00  0.00     0.076 C 
ATOM      7  C8  UNL d   1       4.157   5.791   0.563  0.00  0.00     0.001 A 
ENDROOT
BRANCH   1   8
ATOM      8  C1  UNL d   1       4.228   5.999  -1.953  0.00  0.00     0.053 C 
ATOM      9  C   UNL d   1       5.719   6.000  -2.252  0.00  0.00     0.018 C 
ENDBRANCH   1   8
TORSDOF 1
ENDMDL
