MODEL 1
REMARK minimizedAffinity 1.15142202
REMARK minimizedRMSD -1
REMARK  1 active torsions:
REMARK  status: ('A' for Active; 'I' for Inactive)
REMARK    1  A    between atoms: C1_2  and  C2_3 
ROOT
ATOM      1  C2  UNL d   1       0.739  -1.013  -1.713  0.00  0.00    -0.073 A 
ATOM      2  C3  UNL d   1       1.612  -0.041  -2.214  0.00  0.00    -0.002 A 
ATOM      3  C4  UNL d   1       2.513  -0.360  -3.231  0.00  0.00     0.004 A 
ATOM      4  C5  UNL d   1       2.546  -1.650  -3.761  0.00  0.00    -0.004 A 
ATOM      5  C6  UNL d   1       1.673  -2.632  -3.282  0.00  0.00    -0.075 A 
ATOM      6  C7  UNL d   1       1.697  -4.025  -3.840  0.00  0.00     0.076 C 
ATOM      7  C8  UNL d   1       0.773  -2.305  -2.259  0.00  0.00     0.001 A 
ENDROOT
BRANCH   1   8
ATOM      8  C1  UNL d   1      -0.240  -0.672  -0.620  0.00  0.00     0.053 C 
ATOM      9  C   UNL d   1       0.336  -0.932   0.763  0.00  0.00     0.018 C 
ENDBRANCH   1   8
TORSDOF 1
ENDMDL
