MODEL 1
REMARK minimizedAffinity 5.88529539
REMARK minimizedRMSD -1
REMARK  1 active torsions:
REMARK  status: ('A' for Active; 'I' for Inactive)
REMARK    1  A    between atoms: C1_2  and  C2_3 
ROOT
ATOM      1  C2  UNL d   1       4.063   5.227   0.198  0.00  0.00    -0.073 A 
ATOM      2  C3  UNL d   1       3.902   3.838   0.269  0.00  0.00    -0.002 A 
ATOM      3  C4  UNL d   1       4.212   3.151   1.443  0.00  0.00     0.004 A 
ATOM      4  C5  UNL d   1       4.679   3.844   2.560  0.00  0.00    -0.004 A 
ATOM      5  C6  UNL d   1       4.836   5.233   2.513  0.00  0.00    -0.075 A 
ATOM      6  C7  UNL d   1       5.340   5.994   3.704  0.00  0.00     0.076 C 
ATOM      7  C8  UNL d   1       4.525   5.916   1.329  0.00  0.00     0.001 A 
ENDROOT
BRANCH   1   8
ATOM      8  C1  UNL d   1       3.724   5.974  -1.066  0.00  0.00     0.053 C 
ATOM      9  C   UNL d   1       4.462   5.416  -2.273  0.00  0.00     0.018 C 
ENDBRANCH   1   8
TORSDOF 1
ENDMDL
