MODEL 1
REMARK minimizedAffinity 0.280285686
REMARK minimizedRMSD -1
REMARK  1 active torsions:
REMARK  status: ('A' for Active; 'I' for Inactive)
REMARK    1  A    between atoms: C1_2  and  C2_3 
ROOT
ATOM      1  C2  UNL d   1      -0.709  -2.811  -0.625  0.00  0.00    -0.073 A 
ATOM      2  C3  UNL d   1      -1.572  -1.721  -0.784  0.00  0.00    -0.002 A 
ATOM      3  C4  UNL d   1      -2.922  -1.925  -1.073  0.00  0.00     0.004 A 
ATOM      4  C5  UNL d   1      -3.424  -3.221  -1.199  0.00  0.00    -0.004 A 
ATOM      5  C6  UNL d   1      -2.580  -4.324  -1.032  0.00  0.00    -0.075 A 
ATOM      6  C7  UNL d   1      -3.105  -5.723  -1.166  0.00  0.00     0.076 C 
ATOM      7  C8  UNL d   1      -1.225  -4.110  -0.745  0.00  0.00     0.001 A 
ENDROOT
BRANCH   1   8
ATOM      8  C1  UNL d   1       0.748  -2.595  -0.307  0.00  0.00     0.053 C 
ATOM      9  C   UNL d   1       1.034  -1.160   0.105  0.00  0.00     0.018 C 
ENDBRANCH   1   8
TORSDOF 1
ENDMDL
