MODEL 1
REMARK minimizedAffinity 1.05990803
REMARK minimizedRMSD -1
REMARK  1 active torsions:
REMARK  status: ('A' for Active; 'I' for Inactive)
REMARK    1  A    between atoms: C1_2  and  C2_3 
ROOT
ATOM      1  C2  UNL d   1      -0.768  -2.259  -0.664  0.00  0.00    -0.073 A 
ATOM      2  C3  UNL d   1      -1.662  -1.195  -0.825  0.00  0.00    -0.002 A 
ATOM      3  C4  UNL d   1      -2.986  -1.437  -1.192  0.00  0.00     0.004 A 
ATOM      4  C5  UNL d   1      -3.432  -2.743  -1.395  0.00  0.00    -0.004 A 
ATOM      5  C6  UNL d   1      -2.556  -3.820  -1.228  0.00  0.00    -0.075 A 
ATOM      6  C7  UNL d   1      -3.018  -5.231  -1.444  0.00  0.00     0.076 C 
ATOM      7  C8  UNL d   1      -1.227  -3.569  -0.861  0.00  0.00     0.001 A 
ENDROOT
BRANCH   1   8
ATOM      8  C1  UNL d   1       0.662  -2.004  -0.262  0.00  0.00     0.053 C 
ATOM      9  C   UNL d   1       1.648  -2.687  -1.196  0.00  0.00     0.018 C 
ENDBRANCH   1   8
TORSDOF 1
ENDMDL
