MODEL 1
REMARK minimizedAffinity -4.21981716
REMARK minimizedRMSD -1
REMARK  1 active torsions:
REMARK  status: ('A' for Active; 'I' for Inactive)
REMARK    1  A    between atoms: C1_2  and  C2_3 
ROOT
ATOM      1  C2  UNL d   1       4.943   5.308   1.178  0.00  0.00    -0.073 A 
ATOM      2  C3  UNL d   1       3.864   4.494   1.540  0.00  0.00    -0.002 A 
ATOM      3  C4  UNL d   1       3.106   3.852   0.559  0.00  0.00     0.004 A 
ATOM      4  C5  UNL d   1       3.424   4.010  -0.789  0.00  0.00    -0.004 A 
ATOM      5  C6  UNL d   1       4.506   4.810  -1.170  0.00  0.00    -0.075 A 
ATOM      6  C7  UNL d   1       4.859   4.993  -2.617  0.00  0.00     0.076 C 
ATOM      7  C8  UNL d   1       5.260   5.454  -0.180  0.00  0.00     0.001 A 
ENDROOT
BRANCH   1   8
ATOM      8  C1  UNL d   1       5.768   5.998   2.233  0.00  0.00     0.053 C 
ATOM      9  C   UNL d   1       5.998   5.112   3.448  0.00  0.00     0.018 C 
ENDBRANCH   1   8
TORSDOF 1
ENDMDL
