MODEL 1
REMARK minimizedAffinity 4.82689381
REMARK minimizedRMSD -1
REMARK  1 active torsions:
REMARK  status: ('A' for Active; 'I' for Inactive)
REMARK    1  A    between atoms: C1_2  and  C2_3 
ROOT
ATOM      1  C2  UNL d   1       4.202   5.397   1.799  0.00  0.00    -0.073 A 
ATOM      2  C3  UNL d   1       4.836   6.000   0.708  0.00  0.00    -0.002 A 
ATOM      3  C4  UNL d   1       4.726   5.443  -0.567  0.00  0.00     0.004 A 
ATOM      4  C5  UNL d   1       3.977   4.284  -0.765  0.00  0.00    -0.004 A 
ATOM      5  C6  UNL d   1       3.326   3.673   0.311  0.00  0.00    -0.075 A 
ATOM      6  C7  UNL d   1       2.517   2.424   0.116  0.00  0.00     0.076 C 
ATOM      7  C8  UNL d   1       3.443   4.236   1.589  0.00  0.00     0.001 A 
ENDROOT
BRANCH   1   8
ATOM      8  C1  UNL d   1       4.312   5.998   3.177  0.00  0.00     0.053 C 
ATOM      9  C   UNL d   1       5.745   5.997   3.686  0.00  0.00     0.018 C 
ENDBRANCH   1   8
TORSDOF 1
ENDMDL
