MODEL 1
REMARK minimizedAffinity 4.99340248
REMARK minimizedRMSD -1
REMARK  1 active torsions:
REMARK  status: ('A' for Active; 'I' for Inactive)
REMARK    1  A    between atoms: C1_2  and  C2_3 
ROOT
ATOM      1  C2  UNL d   1       4.763   3.291   4.464  0.00  0.00    -0.073 A 
ATOM      2  C3  UNL d   1       5.541   4.138   5.260  0.00  0.00    -0.002 A 
ATOM      3  C4  UNL d   1       5.996   5.358   4.757  0.00  0.00     0.004 A 
ATOM      4  C5  UNL d   1       5.672   5.745   3.457  0.00  0.00    -0.004 A 
ATOM      5  C6  UNL d   1       4.885   4.918   2.650  0.00  0.00    -0.075 A 
ATOM      6  C7  UNL d   1       4.530   5.319   1.248  0.00  0.00     0.076 C 
ATOM      7  C8  UNL d   1       4.435   3.693   3.161  0.00  0.00     0.001 A 
ENDROOT
BRANCH   1   8
ATOM      8  C1  UNL d   1       4.264   1.976   5.005  0.00  0.00     0.053 C 
ATOM      9  C   UNL d   1       5.237   1.363   5.999  0.00  0.00     0.018 C 
ENDBRANCH   1   8
TORSDOF 1
ENDMDL
