MODEL 1
REMARK minimizedAffinity -3.71287179
REMARK minimizedRMSD -1
REMARK  1 active torsions:
REMARK  status: ('A' for Active; 'I' for Inactive)
REMARK    1  A    between atoms: C1_2  and  C2_3 
ROOT
ATOM      1  C2  UNL d   1       0.256  -0.231  -1.154  0.00  0.00    -0.081 A 
ATOM      2  C3  UNL d   1       1.151  -0.320  -0.081  0.00  0.00     0.006 A 
ATOM      3  C4  UNL d   1       0.705  -0.142   1.230  0.00  0.00     0.002 A 
ATOM      4  C5  UNL d   1      -0.645   0.120   1.491  0.00  0.00    -0.080 A 
ATOM      5  C6  UNL d   1      -1.143   0.282   2.897  0.00  0.00     0.076 C 
ATOM      6  C7  UNL d   1      -1.536   0.226   0.418  0.00  0.00     0.002 A 
ATOM      7  C8  UNL d   1      -1.090   0.049  -0.893  0.00  0.00     0.006 A 
ENDROOT
BRANCH   1   8
ATOM      8  C1  UNL d   1       0.723  -0.486  -2.565  0.00  0.00     0.054 C 
ATOM      9  C   UNL d   1       1.545   0.680  -3.095  0.00  0.00     0.018 C 
ENDBRANCH   1   8
TORSDOF 1
ENDMDL
