MODEL 1
REMARK minimizedAffinity -5.30305052
REMARK minimizedRMSD -1
REMARK  1 active torsions:
REMARK  status: ('A' for Active; 'I' for Inactive)
REMARK    1  A    between atoms: C1_2  and  C2_3 
ROOT
ATOM      1  C2  UNL d   1       0.726  -0.464   0.552  0.00  0.00    -0.081 A 
ATOM      2  C3  UNL d   1      -0.581   0.036   0.612  0.00  0.00     0.006 A 
ATOM      3  C4  UNL d   1      -1.026   0.719   1.747  0.00  0.00     0.002 A 
ATOM      4  C5  UNL d   1      -0.170   0.920   2.835  0.00  0.00    -0.080 A 
ATOM      5  C6  UNL d   1      -0.626   1.678   4.047  0.00  0.00     0.076 C 
ATOM      6  C7  UNL d   1       1.129   0.405   2.782  0.00  0.00     0.002 A 
ATOM      7  C8  UNL d   1       1.574  -0.279   1.649  0.00  0.00     0.006 A 
ENDROOT
BRANCH   1   8
ATOM      8  C1  UNL d   1       1.229  -1.144  -0.696  0.00  0.00     0.054 C 
ATOM      9  C   UNL d   1       0.866  -0.351  -1.943  0.00  0.00     0.018 C 
ENDBRANCH   1   8
TORSDOF 1
ENDMDL
