MODEL 1
REMARK minimizedAffinity -5.90413713
REMARK minimizedRMSD -1
REMARK  1 active torsions:
REMARK  status: ('A' for Active; 'I' for Inactive)
REMARK    1  A    between atoms: C1_2  and  C2_3 
ROOT
ATOM      1  C2  UNL d   1       0.171  -0.480  -0.535  0.00  0.00    -0.081 A 
ATOM      2  C3  UNL d   1      -1.070   0.108  -0.260  0.00  0.00     0.006 A 
ATOM      3  C4  UNL d   1      -1.328   0.662   0.996  0.00  0.00     0.002 A 
ATOM      4  C5  UNL d   1      -0.349   0.643   1.995  0.00  0.00    -0.080 A 
ATOM      5  C6  UNL d   1      -0.603   1.261   3.338  0.00  0.00     0.076 C 
ATOM      6  C7  UNL d   1       0.884   0.040   1.727  0.00  0.00     0.002 A 
ATOM      7  C8  UNL d   1       1.143  -0.515   0.471  0.00  0.00     0.006 A 
ENDROOT
BRANCH   1   8
ATOM      8  C1  UNL d   1       0.476  -1.020  -1.909  0.00  0.00     0.054 C 
ATOM      9  C   UNL d   1       1.020   0.068  -2.823  0.00  0.00     0.018 C 
ENDBRANCH   1   8
TORSDOF 1
ENDMDL
