MODEL 1
REMARK minimizedAffinity -4.78124428
REMARK minimizedRMSD -1
REMARK  1 active torsions:
REMARK  status: ('A' for Active; 'I' for Inactive)
REMARK    1  A    between atoms: C1_2  and  C2_3 
ROOT
ATOM      1  C2  UNL d   1       1.187  -0.051   1.540  0.00  0.00    -0.081 A 
ATOM      2  C3  UNL d   1       0.031   0.510   2.096  0.00  0.00     0.006 A 
ATOM      3  C4  UNL d   1      -1.193   0.416   1.429  0.00  0.00     0.002 A 
ATOM      4  C5  UNL d   1      -1.283  -0.246   0.200  0.00  0.00    -0.080 A 
ATOM      5  C6  UNL d   1      -2.596  -0.381  -0.511  0.00  0.00     0.076 C 
ATOM      6  C7  UNL d   1      -0.124  -0.791  -0.364  0.00  0.00     0.002 A 
ATOM      7  C8  UNL d   1       1.100  -0.697   0.302  0.00  0.00     0.006 A 
ENDROOT
BRANCH   1   8
ATOM      8  C1  UNL d   1       2.496  -0.007   2.287  0.00  0.00     0.054 C 
ATOM      9  C   UNL d   1       3.591  -0.741   1.527  0.00  0.00     0.018 C 
ENDBRANCH   1   8
TORSDOF 1
ENDMDL
