MODEL 1
REMARK minimizedAffinity -0.687396765
REMARK minimizedRMSD -1
REMARK  0 active torsions:
REMARK  status: ('A' for Active; 'I' for Inactive)
ROOT
ATOM      1  C4' PXY d   1       1.213  -1.228   1.959  0.00  0.00     0.077 C 
ATOM      2  C1' PXY d   1      -0.312   2.029  -2.567  0.00  0.00     0.077 C 
ATOM      3  C1  PXY d   1       0.087   1.164  -1.388  0.00  0.00    -0.082 A 
ATOM      4  C2  PXY d   1      -0.120   1.601  -0.156  0.00  0.00     0.003 A 
ATOM      5  C3  PXY d   1       0.264   0.846   0.922  0.00  0.00     0.003 A 
ATOM      6  C4  PXY d   1       0.817  -0.393   0.738  0.00  0.00    -0.082 A 
ATOM      7  C5  PXY d   1       1.022  -0.851  -0.515  0.00  0.00     0.003 A 
ATOM      8  C6  PXY d   1       0.663  -0.051  -1.597  0.00  0.00     0.003 A 
ENDROOT
TORSDOF 0
ENDMDL
