MODEL 1
REMARK minimizedAffinity -3.45118046
REMARK minimizedRMSD -1
REMARK  0 active torsions:
REMARK  status: ('A' for Active; 'I' for Inactive)
ROOT
ATOM      1  C4' PXY d   1      -3.053  -0.982  -0.700  0.00  0.00     0.077 C 
ATOM      2  C1' PXY d   1       1.538   0.239   2.593  0.00  0.00     0.077 C 
ATOM      3  C1  PXY d   1       0.329  -0.088   1.739  0.00  0.00    -0.082 A 
ATOM      4  C2  PXY d   1       0.440  -0.091   0.421  0.00  0.00     0.003 A 
ATOM      5  C3  PXY d   1      -0.651  -0.353  -0.367  0.00  0.00     0.003 A 
ATOM      6  C4  PXY d   1      -1.856  -0.667   0.201  0.00  0.00    -0.082 A 
ATOM      7  C5  PXY d   1      -1.976  -0.676   1.546  0.00  0.00     0.003 A 
ATOM      8  C6  PXY d   1      -0.866  -0.367   2.327  0.00  0.00     0.003 A 
ENDROOT
TORSDOF 0
ENDMDL
