MODEL 1
REMARK minimizedAffinity 0.865879297
REMARK minimizedRMSD -1
REMARK  0 active torsions:
REMARK  status: ('A' for Active; 'I' for Inactive)
ROOT
ATOM      1  C4' PXY d   1      -0.452  -3.241   3.328  0.00  0.00     0.077 C 
ATOM      2  C1' PXY d   1       3.100   0.398   0.578  0.00  0.00     0.077 C 
ATOM      3  C1  PXY d   1       2.178  -0.559   1.307  0.00  0.00    -0.082 A 
ATOM      4  C2  PXY d   1       1.119  -1.051   0.684  0.00  0.00     0.003 A 
ATOM      5  C3  PXY d   1       0.258  -1.893   1.339  0.00  0.00     0.003 A 
ATOM      6  C4  PXY d   1       0.511  -2.278   2.628  0.00  0.00    -0.082 A 
ATOM      7  C5  PXY d   1       1.595  -1.789   3.267  0.00  0.00     0.003 A 
ATOM      8  C6  PXY d   1       2.435  -0.903   2.598  0.00  0.00     0.003 A 
ENDROOT
TORSDOF 0
ENDMDL
