MODEL 1
REMARK minimizedAffinity -0.316145122
REMARK minimizedRMSD -1
REMARK  0 active torsions:
REMARK  status: ('A' for Active; 'I' for Inactive)
ROOT
ATOM      1  C4' PXY d   1       2.334  -0.584   1.936  0.00  0.00     0.077 C 
ATOM      2  C1' PXY d   1      -0.975   1.721  -2.205  0.00  0.00     0.077 C 
ATOM      3  C1  PXY d   1      -0.111   1.105  -1.122  0.00  0.00    -0.082 A 
ATOM      4  C2  PXY d   1       0.237   1.829  -0.072  0.00  0.00     0.003 A 
ATOM      5  C3  PXY d   1       1.044   1.298   0.901  0.00  0.00     0.003 A 
ATOM      6  C4  PXY d   1       1.455  -0.006   0.824  0.00  0.00    -0.082 A 
ATOM      7  C5  PXY d   1       1.095  -0.755  -0.240  0.00  0.00     0.003 A 
ATOM      8  C6  PXY d   1       0.309  -0.184  -1.237  0.00  0.00     0.003 A 
ENDROOT
TORSDOF 0
ENDMDL
