MODEL 1
REMARK minimizedAffinity 2.34663105
REMARK minimizedRMSD -1
REMARK  0 active torsions:
REMARK  status: ('A' for Active; 'I' for Inactive)
ROOT
ATOM      1  C4' PXY d   1      -5.590  -1.751   0.062  0.00  0.00     0.077 C 
ATOM      2  C1' PXY d   1      -0.113   0.063  -0.292  0.00  0.00     0.077 C 
ATOM      3  C1  PXY d   1      -1.551  -0.409  -0.211  0.00  0.00    -0.082 A 
ATOM      4  C2  PXY d   1      -2.144  -0.502   0.968  0.00  0.00     0.003 A 
ATOM      5  C3  PXY d   1      -3.434  -0.957   1.062  0.00  0.00     0.003 A 
ATOM      6  C4  PXY d   1      -4.142  -1.270  -0.068  0.00  0.00    -0.082 A 
ATOM      7  C5  PXY d   1      -3.547  -1.168  -1.276  0.00  0.00     0.003 A 
ATOM      8  C6  PXY d   1      -2.224  -0.743  -1.346  0.00  0.00     0.003 A 
ENDROOT
TORSDOF 0
ENDMDL
