MODEL 1
REMARK minimizedAffinity -0.654448926
REMARK minimizedRMSD -1
REMARK  0 active torsions:
REMARK  status: ('A' for Active; 'I' for Inactive)
ROOT
ATOM      1  C4' PXY d   1      -1.048   1.232  -0.936  0.00  0.00     0.077 C 
ATOM      2  C1' PXY d   1       3.845  -1.590   0.296  0.00  0.00     0.077 C 
ATOM      3  C1  PXY d   1       2.560  -0.848  -0.015  0.00  0.00    -0.082 A 
ATOM      4  C2  PXY d   1       1.897  -1.124  -1.126  0.00  0.00     0.003 A 
ATOM      5  C3  PXY d   1       0.750  -0.439  -1.437  0.00  0.00     0.003 A 
ATOM      6  C4  PXY d   1       0.249   0.500  -0.577  0.00  0.00    -0.082 A 
ATOM      7  C5  PXY d   1       0.914   0.780   0.564  0.00  0.00     0.003 A 
ATOM      8  C6  PXY d   1       2.098   0.104   0.842  0.00  0.00     0.003 A 
ENDROOT
TORSDOF 0
ENDMDL
