MODEL 1
REMARK minimizedAffinity -3.51939607
REMARK minimizedRMSD -1
REMARK  0 active torsions:
REMARK  status: ('A' for Active; 'I' for Inactive)
ROOT
ATOM      1  C4' PXY d   1      -0.669   1.084  -1.364  0.00  0.00     0.077 C 
ATOM      2  C1' PXY d   1       1.771  -1.305   3.300  0.00  0.00     0.077 C 
ATOM      3  C1  PXY d   1       1.119  -0.682   2.081  0.00  0.00    -0.082 A 
ATOM      4  C2  PXY d   1       1.828  -0.508   0.978  0.00  0.00     0.003 A 
ATOM      5  C3  PXY d   1       1.264   0.083  -0.123  0.00  0.00     0.003 A 
ATOM      6  C4  PXY d   1      -0.055   0.450  -0.113  0.00  0.00    -0.082 A 
ATOM      7  C5  PXY d   1      -0.788   0.266   1.006  0.00  0.00     0.003 A 
ATOM      8  C6  PXY d   1      -0.185  -0.298   2.127  0.00  0.00     0.003 A 
ENDROOT
TORSDOF 0
ENDMDL
