MODEL 1
REMARK minimizedAffinity 1.79446363
REMARK minimizedRMSD -1
REMARK  0 active torsions:
REMARK  status: ('A' for Active; 'I' for Inactive)
ROOT
ATOM      1  C4' PXY d   1      -3.706  -2.050  -1.854  0.00  0.00     0.077 C 
ATOM      2  C1' PXY d   1      -1.722   3.361  -2.307  0.00  0.00     0.077 C 
ATOM      3  C1  PXY d   1      -2.230   1.937  -2.188  0.00  0.00    -0.082 A 
ATOM      4  C2  PXY d   1      -3.440   1.636  -2.629  0.00  0.00     0.003 A 
ATOM      5  C3  PXY d   1      -3.928   0.361  -2.500  0.00  0.00     0.003 A 
ATOM      6  C4  PXY d   1      -3.148  -0.628  -1.962  0.00  0.00    -0.082 A 
ATOM      7  C5  PXY d   1      -1.908  -0.330  -1.520  0.00  0.00     0.003 A 
ATOM      8  C6  PXY d   1      -1.447   0.979  -1.622  0.00  0.00     0.003 A 
ENDROOT
TORSDOF 0
ENDMDL
