MODEL 1
REMARK minimizedAffinity -1.35131633
REMARK minimizedRMSD -1
REMARK  0 active torsions:
REMARK  status: ('A' for Active; 'I' for Inactive)
ROOT
ATOM      1  C4' PXY d   1      -3.245   3.326  -2.505  0.00  0.00     0.077 C 
ATOM      2  C1' PXY d   1       2.147   2.997  -4.562  0.00  0.00     0.077 C 
ATOM      3  C1  PXY d   1       0.736   3.075  -4.013  0.00  0.00    -0.082 A 
ATOM      4  C2  PXY d   1      -0.254   3.453  -4.805  0.00  0.00     0.003 A 
ATOM      5  C3  PXY d   1      -1.531   3.560  -4.317  0.00  0.00     0.003 A 
ATOM      6  C4  PXY d   1      -1.806   3.224  -3.019  0.00  0.00    -0.082 A 
ATOM      7  C5  PXY d   1      -0.803   2.827  -2.207  0.00  0.00     0.003 A 
ATOM      8  C6  PXY d   1       0.493   2.765  -2.711  0.00  0.00     0.003 A 
ENDROOT
TORSDOF 0
ENDMDL
