MODEL 1
REMARK minimizedAffinity -4.03032684
REMARK minimizedRMSD -1
REMARK  0 active torsions:
REMARK  status: ('A' for Active; 'I' for Inactive)
ROOT
ATOM      1  C4' PXY d   1      -1.095  -2.028   3.438  0.00  0.00     0.077 C 
ATOM      2  C1' PXY d   1       0.145   1.307  -1.118  0.00  0.00     0.077 C 
ATOM      3  C1  PXY d   1      -0.168   0.427   0.077  0.00  0.00    -0.082 A 
ATOM      4  C2  PXY d   1      -1.425   0.113   0.346  0.00  0.00     0.003 A 
ATOM      5  C3  PXY d   1      -1.729  -0.655   1.441  0.00  0.00     0.003 A 
ATOM      6  C4  PXY d   1      -0.731  -1.150   2.238  0.00  0.00    -0.082 A 
ATOM      7  C5  PXY d   1       0.554  -0.843   1.963  0.00  0.00     0.003 A 
ATOM      8  C6  PXY d   1       0.838  -0.028   0.871  0.00  0.00     0.003 A 
ENDROOT
TORSDOF 0
ENDMDL
