MODEL 1
REMARK minimizedAffinity -2.05562687
REMARK minimizedRMSD -1
REMARK  0 active torsions:
REMARK  status: ('A' for Active; 'I' for Inactive)
ROOT
ATOM      1  C4' PXY d   1      -1.013   0.235  -0.660  0.00  0.00     0.077 C 
ATOM      2  C1' PXY d   1       2.449  -1.092   3.775  0.00  0.00     0.077 C 
ATOM      3  C1  PXY d   1       1.532  -0.753   2.617  0.00  0.00    -0.082 A 
ATOM      4  C2  PXY d   1       2.044  -0.262   1.499  0.00  0.00     0.003 A 
ATOM      5  C3  PXY d   1       1.226   0.080   0.454  0.00  0.00     0.003 A 
ATOM      6  C4  PXY d   1      -0.124  -0.131   0.532  0.00  0.00    -0.082 A 
ATOM      7  C5  PXY d   1      -0.653  -0.641   1.665  0.00  0.00     0.003 A 
ATOM      8  C6  PXY d   1       0.190  -0.944   2.730  0.00  0.00     0.003 A 
ENDROOT
TORSDOF 0
ENDMDL
