MODEL 1
REMARK minimizedAffinity -1.8260771
REMARK minimizedRMSD -1
REMARK  0 active torsions:
REMARK  status: ('A' for Active; 'I' for Inactive)
ROOT
ATOM      1  C4' PXY d   1      -1.579  -0.642  -2.201  0.00  0.00     0.077 C 
ATOM      2  C1' PXY d   1       2.213  -0.110   2.130  0.00  0.00     0.077 C 
ATOM      3  C1  PXY d   1       1.228  -0.251   0.986  0.00  0.00    -0.082 A 
ATOM      4  C2  PXY d   1       0.001   0.224   1.117  0.00  0.00     0.003 A 
ATOM      5  C3  PXY d   1      -0.912   0.077   0.105  0.00  0.00     0.003 A 
ATOM      6  C4  PXY d   1      -0.549  -0.515  -1.075  0.00  0.00    -0.082 A 
ATOM      7  C5  PXY d   1       0.706  -0.992  -1.221  0.00  0.00     0.003 A 
ATOM      8  C6  PXY d   1       1.605  -0.870  -0.166  0.00  0.00     0.003 A 
ENDROOT
TORSDOF 0
ENDMDL
