MODEL 1
REMARK minimizedAffinity -1.23579168
REMARK minimizedRMSD -1
REMARK  0 active torsions:
REMARK  status: ('A' for Active; 'I' for Inactive)
ROOT
ATOM      1  C4' PXY d   1      -3.231  -0.820  -1.206  0.00  0.00     0.077 C 
ATOM      2  C1' PXY d   1       2.058  -0.431   1.094  0.00  0.00     0.077 C 
ATOM      3  C1  PXY d   1       0.666  -0.536   0.502  0.00  0.00    -0.082 A 
ATOM      4  C2  PXY d   1       0.521  -0.764  -0.793  0.00  0.00     0.003 A 
ATOM      5  C3  PXY d   1      -0.730  -0.830  -1.350  0.00  0.00     0.003 A 
ATOM      6  C4  PXY d   1      -1.845  -0.715  -0.564  0.00  0.00    -0.082 A 
ATOM      7  C5  PXY d   1      -1.706  -0.494   0.760  0.00  0.00     0.003 A 
ATOM      8  C6  PXY d   1      -0.427  -0.388   1.299  0.00  0.00     0.003 A 
ENDROOT
TORSDOF 0
ENDMDL
