MODEL 1
REMARK minimizedAffinity -3.83726144
REMARK minimizedRMSD -1
REMARK  0 active torsions:
REMARK  status: ('A' for Active; 'I' for Inactive)
ROOT
ATOM      1  O1  BZF d   1       3.011   0.682   1.195  0.00  0.00    -0.204 OA
ATOM      2  C2  BZF d   1       3.092  -0.574   1.766  0.00  0.00     0.174 A 
ATOM      3  C3  BZF d   1       1.871  -1.141   1.849  0.00  0.00    -0.012 A 
ATOM      4  C3A BZF d   1       0.983  -0.218   1.211  0.00  0.00    -0.107 A 
ATOM      5  C4  BZF d   1      -0.360  -0.226   0.964  0.00  0.00     0.055 A 
ATOM      6  C5  BZF d   1      -0.931   0.863   0.386  0.00  0.00    -0.016 A 
ATOM      7  C6  BZF d   1      -0.191   1.978   0.047  0.00  0.00     0.022 A 
ATOM      8  C7  BZF d   1       1.145   2.030   0.268  0.00  0.00     0.029 A 
ATOM      9  C7A BZF d   1       1.731   0.918   0.822  0.00  0.00     0.058 A 
ENDROOT
TORSDOF 0
ENDMDL
