MODEL 1
REMARK minimizedAffinity -1.81601751
REMARK minimizedRMSD -1
REMARK  0 active torsions:
REMARK  status: ('A' for Active; 'I' for Inactive)
ROOT
ATOM      1  O1  BZF d   1       2.800   1.052   1.994  0.00  0.00    -0.204 OA
ATOM      2  C2  BZF d   1       2.972   0.028   2.906  0.00  0.00     0.174 A 
ATOM      3  C3  BZF d   1       1.953  -0.852   2.834  0.00  0.00    -0.012 A 
ATOM      4  C3A BZF d   1       1.137  -0.396   1.751  0.00  0.00    -0.107 A 
ATOM      5  C4  BZF d   1      -0.013  -0.862   1.181  0.00  0.00     0.055 A 
ATOM      6  C5  BZF d   1      -0.595  -0.144   0.185  0.00  0.00    -0.016 A 
ATOM      7  C6  BZF d   1      -0.058   1.046  -0.261  0.00  0.00     0.022 A 
ATOM      8  C7  BZF d   1       1.084   1.546   0.270  0.00  0.00     0.029 A 
ATOM      9  C7A BZF d   1       1.693   0.806   1.254  0.00  0.00     0.058 A 
ENDROOT
TORSDOF 0
ENDMDL
