MODEL 1
REMARK minimizedAffinity 5.01708174
REMARK minimizedRMSD -1
REMARK  0 active torsions:
REMARK  status: ('A' for Active; 'I' for Inactive)
ROOT
ATOM      1  O1  BZF d   1       3.681   0.880   0.734  0.00  0.00    -0.204 OA
ATOM      2  C2  BZF d   1       3.057   1.871   0.001  0.00  0.00     0.174 A 
ATOM      3  C3  BZF d   1       1.784   1.528  -0.282  0.00  0.00    -0.012 A 
ATOM      4  C3A BZF d   1       1.572   0.283   0.390  0.00  0.00    -0.107 A 
ATOM      5  C4  BZF d   1       0.498  -0.553   0.500  0.00  0.00     0.055 A 
ATOM      6  C5  BZF d   1       0.641  -1.728   1.168  0.00  0.00    -0.016 A 
ATOM      7  C6  BZF d   1       1.843  -2.100   1.733  0.00  0.00     0.022 A 
ATOM      8  C7  BZF d   1       2.935  -1.301   1.654  0.00  0.00     0.029 A 
ATOM      9  C7A BZF d   1       2.785  -0.099   1.008  0.00  0.00     0.058 A 
ENDROOT
TORSDOF 0
ENDMDL
