MODEL 1
REMARK minimizedAffinity 5.91763163
REMARK minimizedRMSD -1
REMARK  0 active torsions:
REMARK  status: ('A' for Active; 'I' for Inactive)
ROOT
ATOM      1  O1  BZF d   1      -1.335  -2.162   0.769  0.00  0.00    -0.204 OA
ATOM      2  C2  BZF d   1      -0.118  -2.092   1.420  0.00  0.00     0.174 A 
ATOM      3  C3  BZF d   1       0.899  -2.095   0.534  0.00  0.00    -0.012 A 
ATOM      4  C3A BZF d   1       0.276  -2.080  -0.754  0.00  0.00    -0.107 A 
ATOM      5  C4  BZF d   1       0.761  -2.061  -2.030  0.00  0.00     0.055 A 
ATOM      6  C5  BZF d   1      -0.113  -2.124  -3.069  0.00  0.00    -0.016 A 
ATOM      7  C6  BZF d   1      -1.475  -2.212  -2.868  0.00  0.00     0.022 A 
ATOM      8  C7  BZF d   1      -2.003  -2.229  -1.620  0.00  0.00     0.029 A 
ATOM      9  C7A BZF d   1      -1.125  -2.132  -0.569  0.00  0.00     0.058 A 
ENDROOT
TORSDOF 0
ENDMDL
