MODEL 1
REMARK minimizedAffinity 2.69892073
REMARK minimizedRMSD -1
REMARK  0 active torsions:
REMARK  status: ('A' for Active; 'I' for Inactive)
ROOT
ATOM      1  O1  BZF d   1       0.185  -0.769   1.396  0.00  0.00    -0.204 OA
ATOM      2  C2  BZF d   1      -0.140  -2.062   1.034  0.00  0.00     0.174 A 
ATOM      3  C3  BZF d   1       0.916  -2.679   0.465  0.00  0.00    -0.012 A 
ATOM      4  C3A BZF d   1       1.993  -1.742   0.557  0.00  0.00    -0.107 A 
ATOM      5  C4  BZF d   1       3.305  -1.779   0.179  0.00  0.00     0.055 A 
ATOM      6  C5  BZF d   1       4.072  -0.670   0.344  0.00  0.00    -0.016 A 
ATOM      7  C6  BZF d   1       3.559   0.495   0.877  0.00  0.00     0.022 A 
ATOM      8  C7  BZF d   1       2.265   0.579   1.271  0.00  0.00     0.029 A 
ATOM      9  C7A BZF d   1       1.496  -0.552   1.136  0.00  0.00     0.058 A 
ENDROOT
TORSDOF 0
ENDMDL
