MODEL 1
REMARK minimizedAffinity 8.21384335
REMARK minimizedRMSD -1
REMARK  0 active torsions:
REMARK  status: ('A' for Active; 'I' for Inactive)
ROOT
ATOM      1  O1  BZF d   1      -1.456   1.359  -0.105  0.00  0.00    -0.204 OA
ATOM      2  C2  BZF d   1      -1.299   2.724  -0.253  0.00  0.00     0.174 A 
ATOM      3  C3  BZF d   1      -0.018   3.084  -0.036  0.00  0.00    -0.012 A 
ATOM      4  C3A BZF d   1       0.687   1.857   0.176  0.00  0.00    -0.107 A 
ATOM      5  C4  BZF d   1       1.996   1.557   0.427  0.00  0.00     0.055 A 
ATOM      6  C5  BZF d   1       2.345   0.264   0.657  0.00  0.00    -0.016 A 
ATOM      7  C6  BZF d   1       1.412  -0.752   0.650  0.00  0.00     0.022 A 
ATOM      8  C7  BZF d   1       0.103  -0.504   0.401  0.00  0.00     0.029 A 
ATOM      9  C7A BZF d   1      -0.247   0.797   0.136  0.00  0.00     0.058 A 
ENDROOT
TORSDOF 0
ENDMDL
