MODEL 1
REMARK minimizedAffinity 6.31306648
REMARK minimizedRMSD -1
REMARK  0 active torsions:
REMARK  status: ('A' for Active; 'I' for Inactive)
ROOT
ATOM      1  O1  BZF d   1       0.984  -2.082   4.694  0.00  0.00    -0.204 OA
ATOM      2  C2  BZF d   1       1.826  -1.456   3.795  0.00  0.00     0.174 A 
ATOM      3  C3  BZF d   1       2.866  -2.255   3.478  0.00  0.00    -0.012 A 
ATOM      4  C3A BZF d   1       2.611  -3.490   4.154  0.00  0.00    -0.107 A 
ATOM      5  C4  BZF d   1       3.277  -4.681   4.216  0.00  0.00     0.055 A 
ATOM      6  C5  BZF d   1       2.800  -5.663   5.025  0.00  0.00    -0.016 A 
ATOM      7  C6  BZF d   1       1.665  -5.486   5.789  0.00  0.00     0.022 A 
ATOM      8  C7  BZF d   1       0.967  -4.325   5.757  0.00  0.00     0.029 A 
ATOM      9  C7A BZF d   1       1.428  -3.342   4.915  0.00  0.00     0.058 A 
ENDROOT
TORSDOF 0
ENDMDL
