MODEL 1
REMARK minimizedAffinity -0.0149191665
REMARK minimizedRMSD -1
REMARK  0 active torsions:
REMARK  status: ('A' for Active; 'I' for Inactive)
ROOT
ATOM      1  O1  BZF d   1       0.836  -0.815   1.505  0.00  0.00    -0.204 OA
ATOM      2  C2  BZF d   1      -0.476  -0.918   1.085  0.00  0.00     0.174 A 
ATOM      3  C3  BZF d   1      -0.976   0.295   0.776  0.00  0.00    -0.012 A 
ATOM      4  C3A BZF d   1       0.118   1.204   0.929  0.00  0.00    -0.107 A 
ATOM      5  C4  BZF d   1       0.252   2.551   0.750  0.00  0.00     0.055 A 
ATOM      6  C5  BZF d   1       1.436   3.144   1.056  0.00  0.00    -0.016 A 
ATOM      7  C6  BZF d   1       2.504   2.421   1.547  0.00  0.00     0.022 A 
ATOM      8  C7  BZF d   1       2.421   1.082   1.736  0.00  0.00     0.029 A 
ATOM      9  C7A BZF d   1       1.236   0.475   1.397  0.00  0.00     0.058 A 
ENDROOT
TORSDOF 0
ENDMDL
