MODEL 1
REMARK minimizedAffinity 6.087008
REMARK minimizedRMSD -1
REMARK  0 active torsions:
REMARK  status: ('A' for Active; 'I' for Inactive)
ROOT
ATOM      1  O1  BZF d   1      -0.100   3.836   1.841  0.00  0.00    -0.204 OA
ATOM      2  C2  BZF d   1       0.020   5.027   1.151  0.00  0.00     0.174 A 
ATOM      3  C3  BZF d   1       0.401   4.805  -0.123  0.00  0.00    -0.012 A 
ATOM      4  C3A BZF d   1       0.438   3.382  -0.263  0.00  0.00    -0.107 A 
ATOM      5  C4  BZF d   1       0.732   2.548  -1.304  0.00  0.00     0.055 A 
ATOM      6  C5  BZF d   1       0.746   1.206  -1.091  0.00  0.00    -0.016 A 
ATOM      7  C6  BZF d   1       0.477   0.664   0.149  0.00  0.00     0.022 A 
ATOM      8  C7  BZF d   1       0.176   1.451   1.210  0.00  0.00     0.029 A 
ATOM      9  C7A BZF d   1       0.128   2.806   0.991  0.00  0.00     0.058 A 
ENDROOT
TORSDOF 0
ENDMDL
