MODEL 1
REMARK minimizedAffinity -1.49628055
REMARK minimizedRMSD -1
REMARK  0 active torsions:
REMARK  status: ('A' for Active; 'I' for Inactive)
ROOT
ATOM      1  C   UNL d   1      -0.571  -1.724  -0.651  0.00  0.00     0.124 A 
ATOM      2  C1  UNL d   1      -0.004  -0.814  -1.532  0.00  0.00     0.062 A 
ATOM      3  C2  UNL d   1       0.594   0.347  -1.051  0.00  0.00     0.162 A 
ATOM      4  C3  UNL d   1       0.631   0.604   0.320  0.00  0.00    -0.034 A 
ATOM      5  C4  UNL d   1       0.058  -0.316   1.200  0.00  0.00     0.162 A 
ATOM      6  C5  UNL d   1      -0.539  -1.474   0.714  0.00  0.00     0.062 A 
ATOM      7  F   UNL d   1      -1.086  -2.353   1.567  0.00  0.00    -0.097 F 
ATOM      8  F1  UNL d   1       0.076  -0.100   2.524  0.00  0.00    -0.096 F 
ATOM      9  I   UNL d   1       1.525   2.338   1.043  0.00  0.00    -0.060 I 
ATOM     10  F2  UNL d   1       1.134   1.209  -1.926  0.00  0.00    -0.096 F 
ATOM     11  F3  UNL d   1      -0.035  -1.052  -2.851  0.00  0.00    -0.097 F 
ATOM     12  F4  UNL d   1      -1.147  -2.840  -1.116  0.00  0.00    -0.092 F 
ENDROOT
TORSDOF 0
ENDMDL
